MODEL 1
REMARK VINA RESULT:     -10.5      0.000      0.000
REMARK SMILES [NH3+][C@H](CCC(=O)NCCCCNC(=O)c1ccc(-c2c3nc(c(-c4cccc(S(=O)(=O)[O-])c4F)c4ccc([nH]4)c(-c4cccc(S(=O)(=O)[O-])c4F)c4nc(c(-c5cccc(S(=O)(=O)[O-])c5F)c5ccc2[nH]5)C=C4)C=C3)cc1)c1nccc2[nH]ccc12
REMARK SMILES IDX 9 1 8 2 7 3 5 4 6 5 4 7 3 8 2 9 1 10 78 14 79 15 86 16 80 17
REMARK SMILES IDX 82 18 85 19 81 20 83 21 84 22 10 24 11 25 12 26 13 27 14 29
REMARK SMILES IDX 15 30 16 31 77 32 17 33 76 34 18 35 19 36 20 37 70 38 21 39
REMARK SMILES IDX 75 40 69 41 71 42 22 43 74 44 68 45 67 46 23 48 55 49 35 50
REMARK SMILES IDX 54 51 36 52 39 53 53 54 72 55 37 56 38 57 52 59 73 60 40 61
REMARK SMILES IDX 24 62 25 63 33 64 26 65 28 66 34 67 27 68 29 69 30 70 31 71
REMARK SMILES IDX 32 72 56 73 57 74 65 75 58 76 60 77 66 78 59 79 61 80 62 81
REMARK SMILES IDX 63 82 64 83 41 84 42 85 50 86 43 87 45 88 51 89 44 90 46 91
REMARK SMILES IDX 47 92 48 93 49 94
REMARK H PARENT 7 6 1 11 1 12 1 13 83 23 12 28 71 47 39 58
REMARK Flexibility Score: inf
ROOT
ATOM      1  C   UNL A   1      42.540  19.670  26.793  1.00  0.00     0.023 C 
ENDROOT
BRANCH   1   2
ATOM      2  C   UNL A   1      43.042  18.616  25.806  1.00  0.00     0.116 C 
BRANCH   2   3
ATOM      3  N   UNL A   1      44.456  18.375  25.985  1.00  0.00    -0.356 N 
ATOM      4  C   UNL A   1      45.506  18.886  25.286  1.00  0.00     0.220 C 
ATOM      5  O   UNL A   1      46.624  18.400  25.475  1.00  0.00    -0.275 OA
ATOM      6  H   UNL A   1      44.692  17.756  26.713  1.00  0.00     0.163 HD
BRANCH   4   7
ATOM      7  C   UNL A   1      45.327  20.061  24.337  1.00  0.00     0.106 C 
BRANCH   7   8
ATOM      8  C   UNL A   1      45.832  21.409  24.864  1.00  0.00     0.082 C 
BRANCH   8   9
ATOM      9  C   UNL A   1      45.281  22.739  24.290  1.00  0.00     0.232 C 
BRANCH   9  10
ATOM     10  N   UNL A   1      43.865  22.574  23.877  1.00  0.00    -0.350 N 
ATOM     11  H   UNL A   1      43.331  23.396  24.157  1.00  0.00     0.345 HD
ATOM     12  H   UNL A   1      43.475  21.745  24.324  1.00  0.00     0.345 HD
ATOM     13  H   UNL A   1      43.817  22.467  22.864  1.00  0.00     0.345 HD
ENDBRANCH   9  10
BRANCH   9  14
ATOM     14  C   UNL A   1      45.358  24.023  25.127  1.00  0.00     0.107 A 
ATOM     15  N   UNL A   1      46.215  24.972  24.626  1.00  0.00    -0.254 NA
ATOM     16  C   UNL A   1      45.113  24.060  26.525  1.00  0.00     0.027 A 
ATOM     17  C   UNL A   1      46.999  25.699  25.443  1.00  0.00     0.114 A 
ATOM     18  C   UNL A   1      46.034  24.741  27.328  1.00  0.00     0.049 A 
ATOM     19  C   UNL A   1      44.147  23.502  27.415  1.00  0.00     0.030 A 
ATOM     20  C   UNL A   1      47.052  25.532  26.807  1.00  0.00     0.047 A 
ATOM     21  N   UNL A   1      45.752  24.424  28.634  1.00  0.00    -0.361 N 
ATOM     22  C   UNL A   1      44.538  23.796  28.704  1.00  0.00     0.083 A 
ATOM     23  H   UNL A   1      46.335  24.617  29.403  1.00  0.00     0.166 HD
ENDBRANCH   9  14
ENDBRANCH   8   9
ENDBRANCH   7   8
ENDBRANCH   4   7
ENDBRANCH   2   3
ENDBRANCH   1   2
BRANCH   1  24
ATOM     24  C   UNL A   1      41.689  20.756  26.139  1.00  0.00     0.023 C 
BRANCH  24  25
ATOM     25  C   UNL A   1      40.659  21.384  27.072  1.00  0.00     0.116 C 
BRANCH  25  26
ATOM     26  N   UNL A   1      39.368  21.625  26.437  1.00  0.00    -0.352 N 
ATOM     27  C   UNL A   1      38.704  22.823  26.280  1.00  0.00     0.251 C 
ATOM     28  H   UNL A   1      38.913  20.830  26.075  1.00  0.00     0.163 HD
ATOM     29  O   UNL A   1      37.592  22.857  25.785  1.00  0.00    -0.269 OA
BRANCH  27  30
ATOM     30  C   UNL A   1      39.353  24.061  26.769  1.00  0.00     0.039 A 
ATOM     31  C   UNL A   1      40.017  24.881  25.854  1.00  0.00     0.014 A 
ATOM     32  C   UNL A   1      39.239  24.439  28.109  1.00  0.00     0.014 A 
ATOM     33  C   UNL A   1      40.505  26.121  26.271  1.00  0.00     0.010 A 
ATOM     34  C   UNL A   1      39.656  25.705  28.501  1.00  0.00     0.010 A 
ATOM     35  C   UNL A   1      40.294  26.559  27.589  1.00  0.00    -0.014 A 
BRANCH  35  36
ATOM     36  C   UNL A   1      40.720  27.910  28.036  1.00  0.00     0.031 A 
ATOM     37  C   UNL A   1      42.182  28.267  28.057  1.00  0.00     0.074 A 
ATOM     38  C   UNL A   1      39.805  28.772  28.522  1.00  0.00     0.049 A 
ATOM     39  N   UNL A   1      42.757  29.362  28.481  1.00  0.00    -0.248 NA
ATOM     40  C   UNL A   1      43.125  27.246  27.569  1.00  0.00     0.031 C 
ATOM     41  C   UNL A   1      38.369  28.508  28.639  1.00  0.00     0.029 A 
ATOM     42  N   UNL A   1      39.951  30.037  29.035  1.00  0.00    -0.354 N 
ATOM     43  C   UNL A   1      44.124  29.144  28.357  1.00  0.00     0.074 A 
ATOM     44  C   UNL A   1      44.295  27.802  27.848  1.00  0.00     0.031 C 
ATOM     45  C   UNL A   1      37.766  29.578  29.181  1.00  0.00     0.029 A 
ATOM     46  C   UNL A   1      38.772  30.596  29.474  1.00  0.00     0.049 A 
ATOM     47  H   UNL A   1      40.817  30.502  29.085  1.00  0.00     0.167 HD
ATOM     48  C   UNL A   1      45.144  29.998  28.609  1.00  0.00     0.034 A 
ATOM     49  C   UNL A   1      38.529  31.792  30.045  1.00  0.00     0.034 A 
ATOM     50  C   UNL A   1      44.966  31.353  29.052  1.00  0.00     0.049 A 
ATOM     51  C   UNL A   1      39.676  32.746  30.250  1.00  0.00     0.074 A 
ATOM     52  C   UNL A   1      45.925  32.334  29.231  1.00  0.00     0.029 A 
ATOM     53  N   UNL A   1      43.746  31.921  29.384  1.00  0.00    -0.354 N 
ATOM     54  N   UNL A   1      40.944  32.585  29.961  1.00  0.00    -0.248 NA
ATOM     55  C   UNL A   1      39.352  34.060  30.825  1.00  0.00     0.031 C 
ATOM     56  C   UNL A   1      45.285  33.491  29.687  1.00  0.00     0.029 A 
ATOM     57  C   UNL A   1      43.926  33.236  29.773  1.00  0.00     0.049 A 
ATOM     58  H   UNL A   1      42.878  31.456  29.348  1.00  0.00     0.167 HD
ATOM     59  C   UNL A   1      41.563  33.789  30.281  1.00  0.00     0.074 A 
ATOM     60  C   UNL A   1      40.527  34.675  30.769  1.00  0.00     0.031 C 
ATOM     61  C   UNL A   1      42.874  34.124  30.196  1.00  0.00     0.034 A 
BRANCH  48  62
ATOM     62  C   UNL A   1      46.545  29.509  28.351  1.00  0.00     0.023 A 
ATOM     63  C   UNL A   1      47.176  29.826  27.130  1.00  0.00     0.012 A 
ATOM     64  C   UNL A   1      47.256  28.788  29.329  1.00  0.00     0.148 A 
ATOM     65  C   UNL A   1      48.479  29.401  26.871  1.00  0.00     0.002 A 
ATOM     66  C   UNL A   1      48.570  28.407  29.082  1.00  0.00     0.091 A 
ATOM     67  F   UNL A   1      46.633  28.477  30.476  1.00  0.00    -0.205 F 
ATOM     68  C   UNL A   1      49.178  28.702  27.850  1.00  0.00     0.022 A 
BRANCH  66  69
ATOM     69  S   UNL A   1      49.584  27.570  30.307  1.00  0.00     0.127 S 
ATOM     70  O   UNL A   1      49.124  26.188  30.176  1.00  0.00    -0.237 OA
ATOM     71  O   UNL A   1      50.937  27.813  29.806  1.00  0.00    -0.237 OA
ATOM     72  O   UNL A   1      49.285  28.211  31.580  1.00  0.00    -0.744 OA
ENDBRANCH  66  69
ENDBRANCH  48  62
BRANCH  49  73
ATOM     73  C   UNL A   1      37.133  32.190  30.383  1.00  0.00     0.023 A 
ATOM     74  C   UNL A   1      36.659  31.982  31.694  1.00  0.00     0.012 A 
ATOM     75  C   UNL A   1      36.285  32.793  29.435  1.00  0.00     0.148 A 
ATOM     76  C   UNL A   1      35.356  32.334  32.045  1.00  0.00     0.002 A 
ATOM     77  C   UNL A   1      35.005  33.190  29.806  1.00  0.00     0.091 A 
ATOM     78  F   UNL A   1      36.748  32.972  28.190  1.00  0.00    -0.205 F 
ATOM     79  C   UNL A   1      34.532  32.947  31.104  1.00  0.00     0.022 A 
BRANCH  77  80
ATOM     80  S   UNL A   1      33.923  34.102  28.698  1.00  0.00     0.127 S 
ATOM     81  O   UNL A   1      32.887  34.575  29.613  1.00  0.00    -0.237 OA
ATOM     82  O   UNL A   1      34.817  35.143  28.189  1.00  0.00    -0.237 OA
ATOM     83  O   UNL A   1      33.493  33.139  27.692  1.00  0.00    -0.744 OA
ENDBRANCH  77  80
ENDBRANCH  49  73
BRANCH  61  84
ATOM     84  C   UNL A   1      43.267  35.520  30.602  1.00  0.00     0.023 A 
ATOM     85  C   UNL A   1      43.680  35.774  31.924  1.00  0.00     0.012 A 
ATOM     86  C   UNL A   1      43.309  36.559  29.651  1.00  0.00     0.148 A 
ATOM     87  C   UNL A   1      44.101  37.048  32.302  1.00  0.00     0.002 A 
ATOM     88  C   UNL A   1      43.775  37.814  30.023  1.00  0.00     0.091 A 
ATOM     89  F   UNL A   1      42.893  36.302  28.402  1.00  0.00    -0.205 F 
ATOM     90  C   UNL A   1      44.162  38.063  31.350  1.00  0.00     0.022 A 
BRANCH  88  91
ATOM     91  S   UNL A   1      43.980  39.150  28.840  1.00  0.00     0.127 S 
ATOM     92  O   UNL A   1      45.061  38.641  27.999  1.00  0.00    -0.237 OA
ATOM     93  O   UNL A   1      42.670  39.195  28.189  1.00  0.00    -0.237 OA
ATOM     94  O   UNL A   1      44.301  40.334  29.626  1.00  0.00    -0.744 OA
ENDBRANCH  88  91
ENDBRANCH  61  84
ENDBRANCH  35  36
ENDBRANCH  27  30
ENDBRANCH  25  26
ENDBRANCH  24  25
ENDBRANCH   1  24
TORSDOF 18
ENDMDL
MODEL 2
REMARK VINA RESULT:     -10.4      1.903      2.205
REMARK SMILES [NH3+][C@H](CCC(=O)NCCCCNC(=O)c1ccc(-c2c3nc(c(-c4cccc(S(=O)(=O)[O-])c4F)c4ccc([nH]4)c(-c4cccc(S(=O)(=O)[O-])c4F)c4nc(c(-c5cccc(S(=O)(=O)[O-])c5F)c5ccc2[nH]5)C=C4)C=C3)cc1)c1nccc2[nH]ccc12
REMARK SMILES IDX 9 1 8 2 7 3 5 4 6 5 4 7 3 8 2 9 1 10 78 14 79 15 86 16 80 17
REMARK SMILES IDX 82 18 85 19 81 20 83 21 84 22 10 24 11 25 12 26 13 27 14 29
REMARK SMILES IDX 15 30 16 31 77 32 17 33 76 34 18 35 19 36 20 37 70 38 21 39
REMARK SMILES IDX 75 40 69 41 71 42 22 43 74 44 68 45 67 46 23 48 55 49 35 50
REMARK SMILES IDX 54 51 36 52 39 53 53 54 72 55 37 56 38 57 52 59 73 60 40 61
REMARK SMILES IDX 24 62 25 63 33 64 26 65 28 66 34 67 27 68 29 69 30 70 31 71
REMARK SMILES IDX 32 72 56 73 57 74 65 75 58 76 60 77 66 78 59 79 61 80 62 81
REMARK SMILES IDX 63 82 64 83 41 84 42 85 50 86 43 87 45 88 51 89 44 90 46 91
REMARK SMILES IDX 47 92 48 93 49 94
REMARK H PARENT 7 6 1 11 1 12 1 13 83 23 12 28 71 47 39 58
REMARK Flexibility Score: inf
ROOT
ATOM      1  C   UNL A   1      42.314  19.593  26.784  1.00  0.00     0.023 C 
ENDROOT
BRANCH   1   2
ATOM      2  C   UNL A   1      42.976  18.653  25.776  1.00  0.00     0.116 C 
BRANCH   2   3
ATOM      3  N   UNL A   1      44.391  18.528  26.042  1.00  0.00    -0.356 N 
ATOM      4  C   UNL A   1      45.442  19.015  25.326  1.00  0.00     0.220 C 
ATOM      5  O   UNL A   1      46.576  18.630  25.621  1.00  0.00    -0.275 OA
ATOM      6  H   UNL A   1      44.628  18.022  26.851  1.00  0.00     0.163 HD
BRANCH   4   7
ATOM      7  C   UNL A   1      45.240  20.048  24.228  1.00  0.00     0.106 C 
BRANCH   7   8
ATOM      8  C   UNL A   1      45.953  21.386  24.451  1.00  0.00     0.082 C 
BRANCH   8   9
ATOM      9  C   UNL A   1      45.243  22.725  24.124  1.00  0.00     0.232 C 
BRANCH   9  10
ATOM     10  N   UNL A   1      43.791  22.501  23.919  1.00  0.00    -0.350 N 
ATOM     11  H   UNL A   1      43.422  23.213  23.289  1.00  0.00     0.345 HD
ATOM     12  H   UNL A   1      43.308  22.557  24.816  1.00  0.00     0.345 HD
ATOM     13  H   UNL A   1      43.644  21.578  23.512  1.00  0.00     0.345 HD
ENDBRANCH   9  10
BRANCH   9  14
ATOM     14  C   UNL A   1      45.384  23.917  25.080  1.00  0.00     0.107 A 
ATOM     15  N   UNL A   1      46.399  24.783  24.755  1.00  0.00    -0.254 NA
ATOM     16  C   UNL A   1      44.993  23.875  26.444  1.00  0.00     0.027 A 
ATOM     17  C   UNL A   1      47.171  25.335  25.709  1.00  0.00     0.114 A 
ATOM     18  C   UNL A   1      45.897  24.365  27.393  1.00  0.00     0.049 A 
ATOM     19  C   UNL A   1      43.875  23.380  27.179  1.00  0.00     0.030 A 
ATOM     20  C   UNL A   1      47.055  25.055  27.050  1.00  0.00     0.047 A 
ATOM     21  N   UNL A   1      45.438  23.985  28.630  1.00  0.00    -0.361 N 
ATOM     22  C   UNL A   1      44.156  23.517  28.522  1.00  0.00     0.083 A 
ATOM     23  H   UNL A   1      45.952  24.039  29.467  1.00  0.00     0.166 HD
ENDBRANCH   9  14
ENDBRANCH   8   9
ENDBRANCH   7   8
ENDBRANCH   4   7
ENDBRANCH   2   3
ENDBRANCH   1   2
BRANCH   1  24
ATOM     24  C   UNL A   1      41.554  20.745  26.130  1.00  0.00     0.023 C 
BRANCH  24  25
ATOM     25  C   UNL A   1      40.559  21.438  27.055  1.00  0.00     0.116 C 
BRANCH  25  26
ATOM     26  N   UNL A   1      39.283  21.738  26.417  1.00  0.00    -0.352 N 
ATOM     27  C   UNL A   1      38.642  22.956  26.320  1.00  0.00     0.251 C 
ATOM     28  H   UNL A   1      38.819  20.975  26.004  1.00  0.00     0.163 HD
ATOM     29  O   UNL A   1      37.538  23.039  25.811  1.00  0.00    -0.269 OA
BRANCH  27  30
ATOM     30  C   UNL A   1      39.306  24.152  26.887  1.00  0.00     0.039 A 
ATOM     31  C   UNL A   1      40.009  25.003  26.032  1.00  0.00     0.014 A 
ATOM     32  C   UNL A   1      39.167  24.463  28.242  1.00  0.00     0.014 A 
ATOM     33  C   UNL A   1      40.514  26.208  26.524  1.00  0.00     0.010 A 
ATOM     34  C   UNL A   1      39.602  25.696  28.710  1.00  0.00     0.010 A 
ATOM     35  C   UNL A   1      40.280  26.582  27.858  1.00  0.00    -0.014 A 
BRANCH  35  36
ATOM     36  C   UNL A   1      40.724  27.897  28.385  1.00  0.00     0.031 A 
ATOM     37  C   UNL A   1      42.194  28.192  28.527  1.00  0.00     0.074 A 
ATOM     38  C   UNL A   1      39.811  28.781  28.835  1.00  0.00     0.049 A 
ATOM     39  N   UNL A   1      42.778  29.247  29.033  1.00  0.00    -0.248 NA
ATOM     40  C   UNL A   1      43.130  27.150  28.072  1.00  0.00     0.031 C 
ATOM     41  C   UNL A   1      38.360  28.573  28.836  1.00  0.00     0.029 A 
ATOM     42  N   UNL A   1      39.967  30.020  29.404  1.00  0.00    -0.354 N 
ATOM     43  C   UNL A   1      44.141  28.976  29.001  1.00  0.00     0.074 A 
ATOM     44  C   UNL A   1      44.296  27.646  28.457  1.00  0.00     0.031 C 
ATOM     45  C   UNL A   1      37.761  29.649  29.372  1.00  0.00     0.029 A 
ATOM     46  C   UNL A   1      38.781  30.612  29.775  1.00  0.00     0.049 A 
ATOM     47  H   UNL A   1      40.845  30.446  29.534  1.00  0.00     0.167 HD
ATOM     48  C   UNL A   1      45.172  29.777  29.359  1.00  0.00     0.034 A 
ATOM     49  C   UNL A   1      38.544  31.797  30.370  1.00  0.00     0.034 A 
ATOM     50  C   UNL A   1      45.014  31.123  29.837  1.00  0.00     0.049 A 
ATOM     51  C   UNL A   1      39.708  32.695  30.695  1.00  0.00     0.074 A 
ATOM     52  C   UNL A   1      45.996  32.056  30.123  1.00  0.00     0.029 A 
ATOM     53  N   UNL A   1      43.796  31.730  30.100  1.00  0.00    -0.354 N 
ATOM     54  N   UNL A   1      40.988  32.491  30.494  1.00  0.00    -0.248 NA
ATOM     55  C   UNL A   1      39.395  34.002  31.293  1.00  0.00     0.031 C 
ATOM     56  C   UNL A   1      45.369  33.222  30.573  1.00  0.00     0.029 A 
ATOM     57  C   UNL A   1      43.999  33.022  30.549  1.00  0.00     0.049 A 
ATOM     58  H   UNL A   1      42.916  31.304  29.983  1.00  0.00     0.167 HD
ATOM     59  C   UNL A   1      41.628  33.656  30.903  1.00  0.00     0.074 A 
ATOM     60  C   UNL A   1      40.594  34.568  31.346  1.00  0.00     0.031 C 
ATOM     61  C   UNL A   1      42.953  33.939  30.927  1.00  0.00     0.034 A 
BRANCH  48  62
ATOM     62  C   UNL A   1      46.568  29.239  29.187  1.00  0.00     0.023 A 
ATOM     63  C   UNL A   1      47.220  28.639  30.283  1.00  0.00     0.012 A 
ATOM     64  C   UNL A   1      47.213  29.276  27.936  1.00  0.00     0.148 A 
ATOM     65  C   UNL A   1      48.506  28.117  30.149  1.00  0.00     0.002 A 
ATOM     66  C   UNL A   1      48.477  28.714  27.798  1.00  0.00     0.091 A 
ATOM     67  F   UNL A   1      46.587  29.871  26.909  1.00  0.00    -0.205 F 
ATOM     68  C   UNL A   1      49.129  28.145  28.905  1.00  0.00     0.022 A 
BRANCH  66  69
ATOM     69  S   UNL A   1      49.333  28.629  26.220  1.00  0.00     0.127 S 
ATOM     70  O   UNL A   1      50.055  29.901  26.209  1.00  0.00    -0.237 OA
ATOM     71  O   UNL A   1      50.180  27.448  26.392  1.00  0.00    -0.237 OA
ATOM     72  O   UNL A   1      48.296  28.489  25.208  1.00  0.00    -0.744 OA
ENDBRANCH  66  69
ENDBRANCH  48  62
BRANCH  49  73
ATOM     73  C   UNL A   1      37.144  32.243  30.620  1.00  0.00     0.023 A 
ATOM     74  C   UNL A   1      36.606  32.123  31.917  1.00  0.00     0.012 A 
ATOM     75  C   UNL A   1      36.352  32.803  29.599  1.00  0.00     0.148 A 
ATOM     76  C   UNL A   1      35.297  32.521  32.186  1.00  0.00     0.002 A 
ATOM     77  C   UNL A   1      35.065  33.246  29.887  1.00  0.00     0.091 A 
ATOM     78  F   UNL A   1      36.874  32.897  28.368  1.00  0.00    -0.205 F 
ATOM     79  C   UNL A   1      34.529  33.091  31.174  1.00  0.00     0.022 A 
BRANCH  77  80
ATOM     80  S   UNL A   1      34.054  34.110  28.678  1.00  0.00     0.127 S 
ATOM     81  O   UNL A   1      32.918  34.539  29.489  1.00  0.00    -0.237 OA
ATOM     82  O   UNL A   1      34.947  35.188  28.249  1.00  0.00    -0.237 OA
ATOM     83  O   UNL A   1      33.762  33.129  27.642  1.00  0.00    -0.744 OA
ENDBRANCH  77  80
ENDBRANCH  49  73
BRANCH  61  84
ATOM     84  C   UNL A   1      43.370  35.302  31.412  1.00  0.00     0.023 A 
ATOM     85  C   UNL A   1      43.628  36.327  30.481  1.00  0.00     0.012 A 
ATOM     86  C   UNL A   1      43.420  35.589  32.791  1.00  0.00     0.148 A 
ATOM     87  C   UNL A   1      43.959  37.610  30.914  1.00  0.00     0.002 A 
ATOM     88  C   UNL A   1      43.704  36.882  33.215  1.00  0.00     0.091 A 
ATOM     89  F   UNL A   1      43.190  34.595  33.661  1.00  0.00    -0.205 F 
ATOM     90  C   UNL A   1      43.984  37.890  32.279  1.00  0.00     0.022 A 
BRANCH  88  91
ATOM     91  S   UNL A   1      43.660  37.354  34.947  1.00  0.00     0.127 S 
ATOM     92  O   UNL A   1      42.355  36.843  35.362  1.00  0.00    -0.237 OA
ATOM     93  O   UNL A   1      44.803  36.627  35.499  1.00  0.00    -0.237 OA
ATOM     94  O   UNL A   1      43.801  38.804  34.970  1.00  0.00    -0.744 OA
ENDBRANCH  88  91
ENDBRANCH  61  84
ENDBRANCH  35  36
ENDBRANCH  27  30
ENDBRANCH  25  26
ENDBRANCH  24  25
ENDBRANCH   1  24
TORSDOF 18
ENDMDL
MODEL 3
REMARK VINA RESULT:     -10.3      3.812      6.929
REMARK SMILES [NH3+][C@H](CCC(=O)NCCCCNC(=O)c1ccc(-c2c3nc(c(-c4cccc(S(=O)(=O)[O-])c4F)c4ccc([nH]4)c(-c4cccc(S(=O)(=O)[O-])c4F)c4nc(c(-c5cccc(S(=O)(=O)[O-])c5F)c5ccc2[nH]5)C=C4)C=C3)cc1)c1nccc2[nH]ccc12
REMARK SMILES IDX 9 1 8 2 7 3 5 4 6 5 4 7 3 8 2 9 1 10 78 14 79 15 86 16 80 17
REMARK SMILES IDX 82 18 85 19 81 20 83 21 84 22 10 24 11 25 12 26 13 27 14 29
REMARK SMILES IDX 15 30 16 31 77 32 17 33 76 34 18 35 19 36 20 37 70 38 21 39
REMARK SMILES IDX 75 40 69 41 71 42 22 43 74 44 68 45 67 46 23 48 55 49 35 50
REMARK SMILES IDX 54 51 36 52 39 53 53 54 72 55 37 56 38 57 52 59 73 60 40 61
REMARK SMILES IDX 24 62 25 63 33 64 26 65 28 66 34 67 27 68 29 69 30 70 31 71
REMARK SMILES IDX 32 72 56 73 57 74 65 75 58 76 60 77 66 78 59 79 61 80 62 81
REMARK SMILES IDX 63 82 64 83 41 84 42 85 50 86 43 87 45 88 51 89 44 90 46 91
REMARK SMILES IDX 47 92 48 93 49 94
REMARK H PARENT 7 6 1 11 1 12 1 13 83 23 12 28 71 47 39 58
REMARK Flexibility Score: inf
ROOT
ATOM      1  C   UNL A   1      34.258  20.591  25.403  1.00  0.00     0.023 C 
ENDROOT
BRANCH   1   2
ATOM      2  C   UNL A   1      32.842  20.779  24.857  1.00  0.00     0.116 C 
BRANCH   2   3
ATOM      3  N   UNL A   1      31.966  21.312  25.876  1.00  0.00    -0.356 N 
ATOM      4  C   UNL A   1      31.747  22.610  26.222  1.00  0.00     0.220 C 
ATOM      5  O   UNL A   1      31.105  22.839  27.251  1.00  0.00    -0.275 OA
ATOM      6  H   UNL A   1      31.457  20.645  26.389  1.00  0.00     0.163 HD
BRANCH   4   7
ATOM      7  C   UNL A   1      32.227  23.755  25.343  1.00  0.00     0.106 C 
BRANCH   7   8
ATOM      8  C   UNL A   1      31.119  24.629  24.746  1.00  0.00     0.082 C 
BRANCH   8   9
ATOM      9  C   UNL A   1      30.631  25.902  25.484  1.00  0.00     0.232 C 
BRANCH   9  10
ATOM     10  N   UNL A   1      29.732  25.534  26.605  1.00  0.00    -0.350 N 
ATOM     11  H   UNL A   1      30.164  24.794  27.158  1.00  0.00     0.345 HD
ATOM     12  H   UNL A   1      28.842  25.204  26.233  1.00  0.00     0.345 HD
ATOM     13  H   UNL A   1      29.572  26.350  27.195  1.00  0.00     0.345 HD
ENDBRANCH   9  10
BRANCH   9  14
ATOM     14  C   UNL A   1      31.654  26.903  26.037  1.00  0.00     0.107 A 
ATOM     15  N   UNL A   1      31.331  27.416  27.270  1.00  0.00    -0.254 NA
ATOM     16  C   UNL A   1      32.491  27.701  25.214  1.00  0.00     0.027 A 
ATOM     17  C   UNL A   1      31.547  28.712  27.560  1.00  0.00     0.114 A 
ATOM     18  C   UNL A   1      32.578  29.067  25.508  1.00  0.00     0.049 A 
ATOM     19  C   UNL A   1      33.282  27.496  24.044  1.00  0.00     0.030 A 
ATOM     20  C   UNL A   1      32.047  29.627  26.664  1.00  0.00     0.047 A 
ATOM     21  N   UNL A   1      33.208  29.674  24.449  1.00  0.00    -0.361 N 
ATOM     22  C   UNL A   1      33.758  28.723  23.633  1.00  0.00     0.083 A 
ATOM     23  H   UNL A   1      33.255  30.645  24.299  1.00  0.00     0.166 HD
ENDBRANCH   9  14
ENDBRANCH   8   9
ENDBRANCH   7   8
ENDBRANCH   4   7
ENDBRANCH   2   3
ENDBRANCH   1   2
BRANCH   1  24
ATOM     24  C   UNL A   1      35.285  21.516  24.754  1.00  0.00     0.023 C 
BRANCH  24  25
ATOM     25  C   UNL A   1      36.488  21.827  25.639  1.00  0.00     0.116 C 
BRANCH  25  26
ATOM     26  N   UNL A   1      37.532  20.811  25.582  1.00  0.00    -0.352 N 
ATOM     27  C   UNL A   1      38.863  20.934  25.922  1.00  0.00     0.251 C 
ATOM     28  H   UNL A   1      37.251  19.924  25.260  1.00  0.00     0.163 HD
ATOM     29  O   UNL A   1      39.635  20.007  25.756  1.00  0.00    -0.269 OA
BRANCH  27  30
ATOM     30  C   UNL A   1      39.341  22.233  26.450  1.00  0.00     0.039 A 
ATOM     31  C   UNL A   1      40.396  22.241  27.365  1.00  0.00     0.014 A 
ATOM     32  C   UNL A   1      38.795  23.431  25.985  1.00  0.00     0.014 A 
ATOM     33  C   UNL A   1      40.955  23.460  27.758  1.00  0.00     0.010 A 
ATOM     34  C   UNL A   1      39.402  24.636  26.317  1.00  0.00     0.010 A 
ATOM     35  C   UNL A   1      40.487  24.664  27.207  1.00  0.00    -0.014 A 
BRANCH  35  36
ATOM     36  C   UNL A   1      41.121  25.966  27.536  1.00  0.00     0.031 A 
ATOM     37  C   UNL A   1      42.551  26.225  27.145  1.00  0.00     0.074 A 
ATOM     38  C   UNL A   1      40.448  26.869  28.277  1.00  0.00     0.049 A 
ATOM     39  N   UNL A   1      43.302  27.263  27.406  1.00  0.00    -0.248 NA
ATOM     40  C   UNL A   1      43.239  25.163  26.391  1.00  0.00     0.031 C 
ATOM     41  C   UNL A   1      39.088  26.696  28.795  1.00  0.00     0.029 A 
ATOM     42  N   UNL A   1      40.826  28.101  28.748  1.00  0.00    -0.354 N 
ATOM     43  C   UNL A   1      44.558  26.960  26.893  1.00  0.00     0.074 A 
ATOM     44  C   UNL A   1      44.478  25.629  26.334  1.00  0.00     0.031 C 
ATOM     45  C   UNL A   1      38.745  27.783  29.504  1.00  0.00     0.029 A 
ATOM     46  C   UNL A   1      39.864  28.720  29.515  1.00  0.00     0.049 A 
ATOM     47  H   UNL A   1      41.703  28.506  28.557  1.00  0.00     0.167 HD
ATOM     48  C   UNL A   1      45.668  27.735  26.858  1.00  0.00     0.034 A 
ATOM     49  C   UNL A   1      39.883  29.908  30.151  1.00  0.00     0.034 A 
ATOM     50  C   UNL A   1      45.723  29.081  27.355  1.00  0.00     0.049 A 
ATOM     51  C   UNL A   1      41.108  30.776  30.036  1.00  0.00     0.074 A 
ATOM     52  C   UNL A   1      46.764  29.989  27.269  1.00  0.00     0.029 A 
ATOM     53  N   UNL A   1      44.693  29.716  28.031  1.00  0.00    -0.354 N 
ATOM     54  N   UNL A   1      42.227  30.542  29.395  1.00  0.00    -0.248 NA
ATOM     55  C   UNL A   1      41.059  32.087  30.701  1.00  0.00     0.031 C 
ATOM     56  C   UNL A   1      46.367  31.168  27.908  1.00  0.00     0.029 A 
ATOM     57  C   UNL A   1      45.073  31.001  28.374  1.00  0.00     0.049 A 
ATOM     58  H   UNL A   1      43.819  29.311  28.237  1.00  0.00     0.167 HD
ATOM     59  C   UNL A   1      42.999  31.690  29.545  1.00  0.00     0.074 A 
ATOM     60  C   UNL A   1      42.212  32.624  30.322  1.00  0.00     0.031 C 
ATOM     61  C   UNL A   1      44.252  31.941  29.095  1.00  0.00     0.034 A 
BRANCH  48  62
ATOM     62  C   UNL A   1      46.898  27.164  26.202  1.00  0.00     0.023 A 
ATOM     63  C   UNL A   1      47.076  27.314  24.812  1.00  0.00     0.012 A 
ATOM     64  C   UNL A   1      47.900  26.531  26.962  1.00  0.00     0.148 A 
ATOM     65  C   UNL A   1      48.213  26.811  24.181  1.00  0.00     0.002 A 
ATOM     66  C   UNL A   1      49.052  26.072  26.333  1.00  0.00     0.091 A 
ATOM     67  F   UNL A   1      47.705  26.378  28.280  1.00  0.00    -0.205 F 
ATOM     68  C   UNL A   1      49.204  26.200  24.942  1.00  0.00     0.022 A 
BRANCH  66  69
ATOM     69  S   UNL A   1      50.423  25.341  27.236  1.00  0.00     0.127 S 
ATOM     70  O   UNL A   1      49.780  24.186  27.862  1.00  0.00    -0.237 OA
ATOM     71  O   UNL A   1      51.358  25.009  26.160  1.00  0.00    -0.237 OA
ATOM     72  O   UNL A   1      50.894  26.369  28.153  1.00  0.00    -0.744 OA
ENDBRANCH  66  69
ENDBRANCH  48  62
BRANCH  49  73
ATOM     73  C   UNL A   1      38.674  30.385  30.880  1.00  0.00     0.023 A 
ATOM     74  C   UNL A   1      38.571  30.151  32.266  1.00  0.00     0.012 A 
ATOM     75  C   UNL A   1      37.643  31.086  30.225  1.00  0.00     0.148 A 
ATOM     76  C   UNL A   1      37.450  30.575  32.980  1.00  0.00     0.002 A 
ATOM     77  C   UNL A   1      36.553  31.552  30.953  1.00  0.00     0.091 A 
ATOM     78  F   UNL A   1      37.750  31.289  28.905  1.00  0.00    -0.205 F 
ATOM     79  C   UNL A   1      36.446  31.284  32.326  1.00  0.00     0.022 A 
BRANCH  77  80
ATOM     80  S   UNL A   1      35.279  32.585  30.219  1.00  0.00     0.127 S 
ATOM     81  O   UNL A   1      36.050  33.743  29.775  1.00  0.00    -0.237 OA
ATOM     82  O   UNL A   1      34.777  31.729  29.142  1.00  0.00    -0.237 OA
ATOM     83  O   UNL A   1      34.315  32.831  31.284  1.00  0.00    -0.744 OA
ENDBRANCH  77  80
ENDBRANCH  49  73
BRANCH  61  84
ATOM     84  C   UNL A   1      44.846  33.291  29.395  1.00  0.00     0.023 A 
ATOM     85  C   UNL A   1      45.556  33.493  30.594  1.00  0.00     0.012 A 
ATOM     86  C   UNL A   1      44.774  34.333  28.449  1.00  0.00     0.148 A 
ATOM     87  C   UNL A   1      46.161  34.720  30.861  1.00  0.00     0.002 A 
ATOM     88  C   UNL A   1      45.420  35.538  28.701  1.00  0.00     0.091 A 
ATOM     89  F   UNL A   1      44.077  34.128  27.321  1.00  0.00    -0.205 F 
ATOM     90  C   UNL A   1      46.104  35.736  29.910  1.00  0.00     0.022 A 
BRANCH  88  91
ATOM     91  S   UNL A   1      45.482  36.864  27.491  1.00  0.00     0.127 S 
ATOM     92  O   UNL A   1      44.100  37.341  27.500  1.00  0.00    -0.237 OA
ATOM     93  O   UNL A   1      46.449  37.786  28.087  1.00  0.00    -0.237 OA
ATOM     94  O   UNL A   1      45.925  36.250  26.247  1.00  0.00    -0.744 OA
ENDBRANCH  88  91
ENDBRANCH  61  84
ENDBRANCH  35  36
ENDBRANCH  27  30
ENDBRANCH  25  26
ENDBRANCH  24  25
ENDBRANCH   1  24
TORSDOF 18
ENDMDL
