MODEL 1
REMARK VINA RESULT:     -11.9      0.000      0.000
REMARK SMILES Cc1cc(NCc2ccco2)cc(C(=O)NCCCCNC(=O)c2ccc(-c3c4nc(c(-c5cccc(S(=O)(=O)[O-])c5F)c5ccc([nH]5)c(-c5cccc(S(=O)(=O)[O-])c5F)c5nc(c(-c6cccc(S(=O)(=O)[O-])c6F)c6ccc3[nH]6)C=C5)C=C4)cc2)c1N
REMARK SMILES IDX 18 1 17 2 16 3 14 4 15 5 13 7 1 8 2 9 3 10 87 11 4 12 12 13
REMARK SMILES IDX 88 14 5 17 6 19 7 20 8 21 11 22 9 23 10 24 19 25 20 26 21 27
REMARK SMILES IDX 22 28 23 30 24 31 25 32 86 33 26 34 85 35 27 36 28 37 29 38
REMARK SMILES IDX 79 39 30 40 84 41 78 42 80 43 31 44 83 45 77 46 76 47 32 49
REMARK SMILES IDX 64 50 44 51 63 52 45 53 48 54 62 55 81 56 46 57 47 58 61 60
REMARK SMILES IDX 82 61 49 62 33 63 34 64 42 65 35 66 37 67 43 68 36 69 38 70
REMARK SMILES IDX 39 71 40 72 41 73 65 74 66 75 74 76 67 77 69 78 75 79 68 80
REMARK SMILES IDX 70 81 71 82 72 83 73 84 50 85 51 86 59 87 52 88 54 89 60 90
REMARK SMILES IDX 53 91 55 92 56 93 57 94 58 95
REMARK H PARENT 16 6 88 15 88 16 5 18 21 29 80 48 48 59
REMARK Flexibility Score: inf
ROOT
ATOM      1  C   UNL A   1      35.041  22.450  26.644  1.00  0.00     0.023 C 
ENDROOT
BRANCH   1   2
ATOM      2  C   UNL A   1      34.094  21.751  27.626  1.00  0.00     0.116 C 
BRANCH   2   3
ATOM      3  N   UNL A   1      32.845  22.477  27.730  1.00  0.00    -0.352 N 
ATOM      4  C   UNL A   1      32.000  23.037  26.800  1.00  0.00     0.253 C 
ATOM      5  O   UNL A   1      30.999  23.599  27.252  1.00  0.00    -0.269 OA
ATOM      6  H   UNL A   1      32.535  22.593  28.657  1.00  0.00     0.163 HD
BRANCH   4   7
ATOM      7  C   UNL A   1      32.208  22.977  25.310  1.00  0.00     0.065 A 
ATOM      8  C   UNL A   1      32.162  20.382  22.491  1.00  0.00     0.046 C 
ATOM      9  C   UNL A   1      32.286  21.675  23.252  1.00  0.00    -0.025 A 
ATOM     10  C   UNL A   1      32.586  22.852  22.542  1.00  0.00     0.031 A 
ATOM     11  C   UNL A   1      32.088  21.729  24.647  1.00  0.00     0.047 A 
ATOM     12  C   UNL A   1      32.692  24.094  23.171  1.00  0.00     0.036 A 
ATOM     13  C   UNL A   1      32.433  24.132  24.541  1.00  0.00     0.041 A 
BRANCH  11  14
ATOM     14  N   UNL A   1      31.925  20.534  25.360  1.00  0.00    -0.398 N 
ATOM     15  H   UNL A   1      31.577  20.554  26.281  1.00  0.00     0.156 HD
ATOM     16  H   UNL A   1      32.158  19.674  24.940  1.00  0.00     0.156 HD
ENDBRANCH  11  14
BRANCH  12  17
ATOM     17  N   UNL A   1      32.957  25.213  22.404  1.00  0.00    -0.378 N 
ATOM     18  H   UNL A   1      33.902  25.475  22.315  1.00  0.00     0.161 HD
BRANCH  17  19
ATOM     19  C   UNL A   1      31.977  26.041  21.713  1.00  0.00     0.188 C 
BRANCH  19  20
ATOM     20  C   UNL A   1      31.433  27.172  22.521  1.00  0.00     0.122 A 
ATOM     21  C   UNL A   1      31.761  27.712  23.749  1.00  0.00     0.047 A 
ATOM     22  O   UNL A   1      30.352  27.827  22.001  1.00  0.00    -0.467 OA
ATOM     23  C   UNL A   1      30.826  28.748  23.994  1.00  0.00     0.042 A 
ATOM     24  C   UNL A   1      29.995  28.780  22.900  1.00  0.00     0.195 A 
ENDBRANCH  19  20
ENDBRANCH  17  19
ENDBRANCH  12  17
ENDBRANCH   4   7
ENDBRANCH   2   3
ENDBRANCH   1   2
BRANCH   1  25
ATOM     25  C   UNL A   1      35.648  21.526  25.585  1.00  0.00     0.023 C 
BRANCH  25  26
ATOM     26  C   UNL A   1      37.075  21.872  25.175  1.00  0.00     0.116 C 
BRANCH  26  27
ATOM     27  N   UNL A   1      38.032  20.819  25.484  1.00  0.00    -0.352 N 
ATOM     28  C   UNL A   1      39.248  20.934  26.124  1.00  0.00     0.251 C 
ATOM     29  H   UNL A   1      37.779  19.912  25.201  1.00  0.00     0.163 HD
ATOM     30  O   UNL A   1      39.984  19.970  26.235  1.00  0.00    -0.269 OA
BRANCH  28  31
ATOM     31  C   UNL A   1      39.657  22.265  26.624  1.00  0.00     0.039 A 
ATOM     32  C   UNL A   1      40.700  22.340  27.550  1.00  0.00     0.014 A 
ATOM     33  C   UNL A   1      39.060  23.425  26.125  1.00  0.00     0.014 A 
ATOM     34  C   UNL A   1      41.201  23.589  27.918  1.00  0.00     0.010 A 
ATOM     35  C   UNL A   1      39.602  24.664  26.445  1.00  0.00     0.010 A 
ATOM     36  C   UNL A   1      40.683  24.758  27.335  1.00  0.00    -0.014 A 
BRANCH  36  37
ATOM     37  C   UNL A   1      41.285  26.086  27.606  1.00  0.00     0.031 A 
ATOM     38  C   UNL A   1      42.693  26.382  27.175  1.00  0.00     0.074 A 
ATOM     39  C   UNL A   1      40.597  26.982  28.340  1.00  0.00     0.049 A 
ATOM     40  N   UNL A   1      43.407  27.457  27.381  1.00  0.00    -0.248 NA
ATOM     41  C   UNL A   1      43.402  25.321  26.442  1.00  0.00     0.031 C 
ATOM     42  C   UNL A   1      39.259  26.772  28.898  1.00  0.00     0.029 A 
ATOM     43  N   UNL A   1      40.943  28.238  28.774  1.00  0.00    -0.354 N 
ATOM     44  C   UNL A   1      44.657  27.191  26.839  1.00  0.00     0.074 A 
ATOM     45  C   UNL A   1      44.614  25.841  26.319  1.00  0.00     0.031 C 
ATOM     46  C   UNL A   1      38.898  27.859  29.598  1.00  0.00     0.029 A 
ATOM     47  C   UNL A   1      39.983  28.835  29.558  1.00  0.00     0.049 A 
ATOM     48  H   UNL A   1      41.797  28.671  28.546  1.00  0.00     0.167 HD
ATOM     49  C   UNL A   1      45.734  28.008  26.753  1.00  0.00     0.034 A 
ATOM     50  C   UNL A   1      39.977  30.034  30.172  1.00  0.00     0.034 A 
ATOM     51  C   UNL A   1      45.753  29.367  27.219  1.00  0.00     0.049 A 
ATOM     52  C   UNL A   1      41.158  30.948  30.000  1.00  0.00     0.074 A 
ATOM     53  C   UNL A   1      46.758  30.310  27.087  1.00  0.00     0.029 A 
ATOM     54  N   UNL A   1      44.718  29.980  27.909  1.00  0.00    -0.354 N 
ATOM     55  N   UNL A   1      42.266  30.745  29.329  1.00  0.00    -0.248 NA
ATOM     56  C   UNL A   1      41.075  32.271  30.635  1.00  0.00     0.031 C 
ATOM     57  C   UNL A   1      46.331  31.492  27.702  1.00  0.00     0.029 A 
ATOM     58  C   UNL A   1      45.059  31.287  28.212  1.00  0.00     0.049 A 
ATOM     59  H   UNL A   1      43.866  29.548  28.150  1.00  0.00     0.167 HD
ATOM     60  C   UNL A   1      42.996  31.924  29.431  1.00  0.00     0.074 A 
ATOM     61  C   UNL A   1      42.196  32.843  30.213  1.00  0.00     0.031 C 
ATOM     62  C   UNL A   1      44.225  32.210  28.938  1.00  0.00     0.034 A 
BRANCH  49  63
ATOM     63  C   UNL A   1      46.957  27.474  26.058  1.00  0.00     0.023 A 
ATOM     64  C   UNL A   1      47.100  27.671  24.669  1.00  0.00     0.012 A 
ATOM     65  C   UNL A   1      47.981  26.825  26.773  1.00  0.00     0.148 A 
ATOM     66  C   UNL A   1      48.228  27.203  23.997  1.00  0.00     0.002 A 
ATOM     67  C   UNL A   1      49.121  26.394  26.102  1.00  0.00     0.091 A 
ATOM     68  F   UNL A   1      47.815  26.621  28.088  1.00  0.00    -0.205 F 
ATOM     69  C   UNL A   1      49.241  26.574  24.715  1.00  0.00     0.022 A 
BRANCH  67  70
ATOM     70  S   UNL A   1      50.509  25.637  26.955  1.00  0.00     0.127 S 
ATOM     71  O   UNL A   1      50.877  26.684  27.908  1.00  0.00    -0.237 OA
ATOM     72  O   UNL A   1      49.897  24.452  27.558  1.00  0.00    -0.237 OA
ATOM     73  O   UNL A   1      51.495  25.346  25.923  1.00  0.00    -0.744 OA
ENDBRANCH  67  70
ENDBRANCH  49  63
BRANCH  50  74
ATOM     74  C   UNL A   1      38.769  30.470  30.927  1.00  0.00     0.023 A 
ATOM     75  C   UNL A   1      38.714  30.249  32.317  1.00  0.00     0.012 A 
ATOM     76  C   UNL A   1      37.704  31.140  30.295  1.00  0.00     0.148 A 
ATOM     77  C   UNL A   1      37.609  30.666  33.061  1.00  0.00     0.002 A 
ATOM     78  C   UNL A   1      36.629  31.597  31.050  1.00  0.00     0.091 A 
ATOM     79  F   UNL A   1      37.768  31.328  28.968  1.00  0.00    -0.205 F 
ATOM     80  C   UNL A   1      36.573  31.350  32.430  1.00  0.00     0.022 A 
BRANCH  78  81
ATOM     81  S   UNL A   1      35.318  32.601  30.340  1.00  0.00     0.127 S 
ATOM     82  O   UNL A   1      34.402  32.738  31.469  1.00  0.00    -0.237 OA
ATOM     83  O   UNL A   1      36.033  33.824  29.973  1.00  0.00    -0.237 OA
ATOM     84  O   UNL A   1      34.821  31.838  29.203  1.00  0.00    -0.744 OA
ENDBRANCH  78  81
ENDBRANCH  50  74
BRANCH  62  85
ATOM     85  C   UNL A   1      44.780  33.585  29.202  1.00  0.00     0.023 A 
ATOM     86  C   UNL A   1      45.489  33.828  30.395  1.00  0.00     0.012 A 
ATOM     87  C   UNL A   1      44.674  34.605  28.237  1.00  0.00     0.148 A 
ATOM     88  C   UNL A   1      46.066  35.075  30.633  1.00  0.00     0.002 A 
ATOM     89  C   UNL A   1      45.287  35.831  28.463  1.00  0.00     0.091 A 
ATOM     90  F   UNL A   1      43.976  34.360  27.119  1.00  0.00    -0.205 F 
ATOM     91  C   UNL A   1      45.976  36.071  29.663  1.00  0.00     0.022 A 
BRANCH  89  92
ATOM     92  S   UNL A   1      45.295  37.136  27.228  1.00  0.00     0.127 S 
ATOM     93  O   UNL A   1      45.956  38.225  27.946  1.00  0.00    -0.237 OA
ATOM     94  O   UNL A   1      46.091  36.546  26.150  1.00  0.00    -0.237 OA
ATOM     95  O   UNL A   1      43.897  37.364  26.885  1.00  0.00    -0.744 OA
ENDBRANCH  89  92
ENDBRANCH  62  85
ENDBRANCH  36  37
ENDBRANCH  28  31
ENDBRANCH  26  27
ENDBRANCH  25  26
ENDBRANCH   1  25
TORSDOF 18
ENDMDL
MODEL 2
REMARK VINA RESULT:     -11.9      4.578      9.276
REMARK SMILES Cc1cc(NCc2ccco2)cc(C(=O)NCCCCNC(=O)c2ccc(-c3c4nc(c(-c5cccc(S(=O)(=O)[O-])c5F)c5ccc([nH]5)c(-c5cccc(S(=O)(=O)[O-])c5F)c5nc(c(-c6cccc(S(=O)(=O)[O-])c6F)c6ccc3[nH]6)C=C5)C=C4)cc2)c1N
REMARK SMILES IDX 18 1 17 2 16 3 14 4 15 5 13 7 1 8 2 9 3 10 87 11 4 12 12 13
REMARK SMILES IDX 88 14 5 17 6 19 7 20 8 21 11 22 9 23 10 24 19 25 20 26 21 27
REMARK SMILES IDX 22 28 23 30 24 31 25 32 86 33 26 34 85 35 27 36 28 37 29 38
REMARK SMILES IDX 79 39 30 40 84 41 78 42 80 43 31 44 83 45 77 46 76 47 32 49
REMARK SMILES IDX 64 50 44 51 63 52 45 53 48 54 62 55 81 56 46 57 47 58 61 60
REMARK SMILES IDX 82 61 49 62 33 63 34 64 42 65 35 66 37 67 43 68 36 69 38 70
REMARK SMILES IDX 39 71 40 72 41 73 65 74 66 75 74 76 67 77 69 78 75 79 68 80
REMARK SMILES IDX 70 81 71 82 72 83 73 84 50 85 51 86 59 87 52 88 54 89 60 90
REMARK SMILES IDX 53 91 55 92 56 93 57 94 58 95
REMARK H PARENT 16 6 88 15 88 16 5 18 21 29 80 48 48 59
REMARK Flexibility Score: inf
ROOT
ATOM      1  C   UNL A   1      34.115  28.530  24.209  1.00  0.00     0.023 C 
ENDROOT
BRANCH   1   2
ATOM      2  C   UNL A   1      33.827  28.983  22.773  1.00  0.00     0.116 C 
BRANCH   2   3
ATOM      3  N   UNL A   1      33.705  27.838  21.894  1.00  0.00    -0.352 N 
ATOM      4  C   UNL A   1      32.819  26.788  21.832  1.00  0.00     0.253 C 
ATOM      5  O   UNL A   1      33.019  25.967  20.933  1.00  0.00    -0.269 OA
ATOM      6  H   UNL A   1      34.399  27.804  21.197  1.00  0.00     0.163 HD
BRANCH   4   7
ATOM      7  C   UNL A   1      31.639  26.610  22.750  1.00  0.00     0.065 A 
ATOM      8  C   UNL A   1      30.616  24.463  25.755  1.00  0.00     0.046 C 
ATOM      9  C   UNL A   1      30.600  25.471  24.637  1.00  0.00    -0.025 A 
ATOM     10  C   UNL A   1      29.456  26.272  24.466  1.00  0.00     0.031 A 
ATOM     11  C   UNL A   1      31.707  25.638  23.781  1.00  0.00     0.047 A 
ATOM     12  C   UNL A   1      29.373  27.248  23.469  1.00  0.00     0.036 A 
ATOM     13  C   UNL A   1      30.503  27.435  22.674  1.00  0.00     0.041 A 
BRANCH  11  14
ATOM     14  N   UNL A   1      32.783  24.745  23.874  1.00  0.00    -0.398 N 
ATOM     15  H   UNL A   1      32.872  24.163  24.662  1.00  0.00     0.156 HD
ATOM     16  H   UNL A   1      33.449  24.700  23.150  1.00  0.00     0.156 HD
ENDBRANCH  11  14
BRANCH  12  17
ATOM     17  N   UNL A   1      28.230  28.020  23.382  1.00  0.00    -0.378 N 
ATOM     18  H   UNL A   1      27.608  27.979  24.144  1.00  0.00     0.161 HD
BRANCH  17  19
ATOM     19  C   UNL A   1      27.854  28.887  22.272  1.00  0.00     0.188 C 
BRANCH  19  20
ATOM     20  C   UNL A   1      28.147  30.335  22.483  1.00  0.00     0.122 A 
ATOM     21  C   UNL A   1      28.239  31.137  23.604  1.00  0.00     0.047 A 
ATOM     22  O   UNL A   1      28.333  31.089  21.358  1.00  0.00    -0.467 OA
ATOM     23  C   UNL A   1      28.489  32.451  23.137  1.00  0.00     0.042 A 
ATOM     24  C   UNL A   1      28.543  32.367  21.766  1.00  0.00     0.195 A 
ENDBRANCH  19  20
ENDBRANCH  17  19
ENDBRANCH  12  17
ENDBRANCH   4   7
ENDBRANCH   2   3
ENDBRANCH   1   2
BRANCH   1  25
ATOM     25  C   UNL A   1      33.051  28.946  25.228  1.00  0.00     0.023 C 
BRANCH  25  26
ATOM     26  C   UNL A   1      33.554  29.082  26.660  1.00  0.00     0.116 C 
BRANCH  26  27
ATOM     27  N   UNL A   1      33.564  30.458  27.137  1.00  0.00    -0.352 N 
ATOM     28  C   UNL A   1      34.527  31.091  27.894  1.00  0.00     0.251 C 
ATOM     29  H   UNL A   1      32.786  31.005  26.886  1.00  0.00     0.163 HD
ATOM     30  O   UNL A   1      34.355  32.228  28.292  1.00  0.00    -0.269 OA
BRANCH  28  31
ATOM     31  C   UNL A   1      35.748  30.336  28.253  1.00  0.00     0.039 A 
ATOM     32  C   UNL A   1      36.839  30.376  27.381  1.00  0.00     0.014 A 
ATOM     33  C   UNL A   1      35.832  29.659  29.471  1.00  0.00     0.014 A 
ATOM     34  C   UNL A   1      38.049  29.800  27.772  1.00  0.00     0.010 A 
ATOM     35  C   UNL A   1      37.054  29.141  29.883  1.00  0.00     0.010 A 
ATOM     36  C   UNL A   1      38.176  29.215  29.043  1.00  0.00    -0.014 A 
BRANCH  36  37
ATOM     37  C   UNL A   1      39.483  28.715  29.534  1.00  0.00     0.031 A 
ATOM     38  C   UNL A   1      40.210  29.444  30.628  1.00  0.00     0.074 A 
ATOM     39  C   UNL A   1      40.064  27.670  28.913  1.00  0.00     0.049 A 
ATOM     40  N   UNL A   1      41.387  29.197  31.139  1.00  0.00    -0.248 NA
ATOM     41  C   UNL A   1      39.540  30.623  31.203  1.00  0.00     0.031 C 
ATOM     42  C   UNL A   1      39.498  26.942  27.775  1.00  0.00     0.029 A 
ATOM     43  N   UNL A   1      41.274  27.060  29.129  1.00  0.00    -0.354 N 
ATOM     44  C   UNL A   1      41.616  30.205  32.067  1.00  0.00     0.074 A 
ATOM     45  C   UNL A   1      40.468  31.084  32.028  1.00  0.00     0.031 C 
ATOM     46  C   UNL A   1      40.360  25.985  27.393  1.00  0.00     0.029 A 
ATOM     47  C   UNL A   1      41.544  26.042  28.244  1.00  0.00     0.049 A 
ATOM     48  H   UNL A   1      41.890  27.324  29.850  1.00  0.00     0.167 HD
ATOM     49  C   UNL A   1      42.673  30.364  32.899  1.00  0.00     0.034 A 
ATOM     50  C   UNL A   1      42.624  25.244  28.132  1.00  0.00     0.034 A 
ATOM     51  C   UNL A   1      43.784  29.456  32.974  1.00  0.00     0.049 A 
ATOM     52  C   UNL A   1      43.752  25.401  29.115  1.00  0.00     0.074 A 
ATOM     53  C   UNL A   1      44.852  29.473  33.853  1.00  0.00     0.029 A 
ATOM     54  N   UNL A   1      43.971  28.367  32.137  1.00  0.00    -0.354 N 
ATOM     55  N   UNL A   1      43.869  26.252  30.105  1.00  0.00    -0.248 NA
ATOM     56  C   UNL A   1      44.877  24.463  28.993  1.00  0.00     0.031 C 
ATOM     57  C   UNL A   1      45.688  28.395  33.544  1.00  0.00     0.029 A 
ATOM     58  C   UNL A   1      45.138  27.703  32.477  1.00  0.00     0.049 A 
ATOM     59  H   UNL A   1      43.363  28.103  31.409  1.00  0.00     0.167 HD
ATOM     60  C   UNL A   1      45.061  25.932  30.745  1.00  0.00     0.074 A 
ATOM     61  C   UNL A   1      45.620  24.796  30.041  1.00  0.00     0.031 C 
ATOM     62  C   UNL A   1      45.648  26.536  31.805  1.00  0.00     0.034 A 
BRANCH  49  63
ATOM     63  C   UNL A   1      42.636  31.530  33.851  1.00  0.00     0.023 A 
ATOM     64  C   UNL A   1      43.155  32.773  33.435  1.00  0.00     0.012 A 
ATOM     65  C   UNL A   1      42.054  31.415  35.127  1.00  0.00     0.148 A 
ATOM     66  C   UNL A   1      43.123  33.877  34.285  1.00  0.00     0.002 A 
ATOM     67  C   UNL A   1      41.992  32.532  35.955  1.00  0.00     0.091 A 
ATOM     68  F   UNL A   1      41.592  30.219  35.516  1.00  0.00    -0.205 F 
ATOM     69  C   UNL A   1      42.533  33.759  35.540  1.00  0.00     0.022 A 
BRANCH  67  70
ATOM     70  S   UNL A   1      41.188  32.491  37.562  1.00  0.00     0.127 S 
ATOM     71  O   UNL A   1      41.217  33.903  37.942  1.00  0.00    -0.237 OA
ATOM     72  O   UNL A   1      39.858  31.976  37.234  1.00  0.00    -0.237 OA
ATOM     73  O   UNL A   1      41.994  31.598  38.384  1.00  0.00    -0.744 OA
ENDBRANCH  67  70
ENDBRANCH  49  63
BRANCH  50  74
ATOM     74  C   UNL A   1      42.642  24.166  27.105  1.00  0.00     0.023 A 
ATOM     75  C   UNL A   1      43.348  24.376  25.905  1.00  0.00     0.012 A 
ATOM     76  C   UNL A   1      42.012  22.926  27.324  1.00  0.00     0.148 A 
ATOM     77  C   UNL A   1      43.406  23.379  24.930  1.00  0.00     0.002 A 
ATOM     78  C   UNL A   1      42.117  21.919  26.370  1.00  0.00     0.091 A 
ATOM     79  F   UNL A   1      41.332  22.750  28.467  1.00  0.00    -0.205 F 
ATOM     80  C   UNL A   1      42.802  22.148  25.167  1.00  0.00     0.022 A 
BRANCH  78  81
ATOM     81  S   UNL A   1      41.481  20.262  26.653  1.00  0.00     0.127 S 
ATOM     82  O   UNL A   1      42.150  19.893  27.897  1.00  0.00    -0.237 OA
ATOM     83  O   UNL A   1      40.042  20.502  26.775  1.00  0.00    -0.237 OA
ATOM     84  O   UNL A   1      41.859  19.497  25.472  1.00  0.00    -0.744 OA
ENDBRANCH  78  81
ENDBRANCH  50  74
BRANCH  62  85
ATOM     85  C   UNL A   1      46.955  25.971  32.296  1.00  0.00     0.023 A 
ATOM     86  C   UNL A   1      46.965  25.132  33.428  1.00  0.00     0.012 A 
ATOM     87  C   UNL A   1      48.152  26.199  31.591  1.00  0.00     0.148 A 
ATOM     88  C   UNL A   1      48.153  24.546  33.864  1.00  0.00     0.002 A 
ATOM     89  C   UNL A   1      49.324  25.579  32.007  1.00  0.00     0.091 A 
ATOM     90  F   UNL A   1      48.125  27.019  30.530  1.00  0.00    -0.205 F 
ATOM     91  C   UNL A   1      49.328  24.760  33.147  1.00  0.00     0.022 A 
BRANCH  89  92
ATOM     92  S   UNL A   1      50.861  25.729  31.088  1.00  0.00     0.127 S 
ATOM     93  O   UNL A   1      50.500  25.139  29.800  1.00  0.00    -0.237 OA
ATOM     94  O   UNL A   1      51.069  27.178  31.057  1.00  0.00    -0.237 OA
ATOM     95  O   UNL A   1      51.857  24.998  31.861  1.00  0.00    -0.744 OA
ENDBRANCH  89  92
ENDBRANCH  62  85
ENDBRANCH  36  37
ENDBRANCH  28  31
ENDBRANCH  26  27
ENDBRANCH  25  26
ENDBRANCH   1  25
TORSDOF 18
ENDMDL
MODEL 3
REMARK VINA RESULT:     -11.9      5.687      9.015
REMARK SMILES Cc1cc(NCc2ccco2)cc(C(=O)NCCCCNC(=O)c2ccc(-c3c4nc(c(-c5cccc(S(=O)(=O)[O-])c5F)c5ccc([nH]5)c(-c5cccc(S(=O)(=O)[O-])c5F)c5nc(c(-c6cccc(S(=O)(=O)[O-])c6F)c6ccc3[nH]6)C=C5)C=C4)cc2)c1N
REMARK SMILES IDX 18 1 17 2 16 3 14 4 15 5 13 7 1 8 2 9 3 10 87 11 4 12 12 13
REMARK SMILES IDX 88 14 5 17 6 19 7 20 8 21 11 22 9 23 10 24 19 25 20 26 21 27
REMARK SMILES IDX 22 28 23 30 24 31 25 32 86 33 26 34 85 35 27 36 28 37 29 38
REMARK SMILES IDX 79 39 30 40 84 41 78 42 80 43 31 44 83 45 77 46 76 47 32 49
REMARK SMILES IDX 64 50 44 51 63 52 45 53 48 54 62 55 81 56 46 57 47 58 61 60
REMARK SMILES IDX 82 61 49 62 33 63 34 64 42 65 35 66 37 67 43 68 36 69 38 70
REMARK SMILES IDX 39 71 40 72 41 73 65 74 66 75 74 76 67 77 69 78 75 79 68 80
REMARK SMILES IDX 70 81 71 82 72 83 73 84 50 85 51 86 59 87 52 88 54 89 60 90
REMARK SMILES IDX 53 91 55 92 56 93 57 94 58 95
REMARK H PARENT 16 6 88 15 88 16 5 18 21 29 80 48 48 59
REMARK Flexibility Score: inf
ROOT
ATOM      1  C   UNL A   1      32.156  29.808  27.146  1.00  0.00     0.023 C 
ENDROOT
BRANCH   1   2
ATOM      2  C   UNL A   1      33.431  29.083  26.700  1.00  0.00     0.116 C 
BRANCH   2   3
ATOM      3  N   UNL A   1      33.662  29.286  25.285  1.00  0.00    -0.352 N 
ATOM      4  C   UNL A   1      32.989  28.886  24.154  1.00  0.00     0.253 C 
ATOM      5  O   UNL A   1      33.483  29.242  23.080  1.00  0.00    -0.269 OA
ATOM      6  H   UNL A   1      34.466  29.819  25.092  1.00  0.00     0.163 HD
BRANCH   4   7
ATOM      7  C   UNL A   1      31.709  28.093  24.155  1.00  0.00     0.065 A 
ATOM      8  C   UNL A   1      28.102  28.430  22.908  1.00  0.00     0.046 C 
ATOM      9  C   UNL A   1      29.357  27.902  23.549  1.00  0.00    -0.025 A 
ATOM     10  C   UNL A   1      29.327  26.628  24.146  1.00  0.00     0.031 A 
ATOM     11  C   UNL A   1      30.555  28.645  23.544  1.00  0.00     0.047 A 
ATOM     12  C   UNL A   1      30.456  26.057  24.738  1.00  0.00     0.036 A 
ATOM     13  C   UNL A   1      31.643  26.786  24.668  1.00  0.00     0.041 A 
BRANCH  11  14
ATOM     14  N   UNL A   1      30.538  29.964  23.070  1.00  0.00    -0.398 N 
ATOM     15  H   UNL A   1      29.680  30.410  22.886  1.00  0.00     0.156 HD
ATOM     16  H   UNL A   1      31.385  30.444  22.921  1.00  0.00     0.156 HD
ENDBRANCH  11  14
BRANCH  12  17
ATOM     17  N   UNL A   1      30.360  24.787  25.276  1.00  0.00    -0.378 N 
ATOM     18  H   UNL A   1      29.692  24.658  25.988  1.00  0.00     0.161 HD
BRANCH  17  19
ATOM     19  C   UNL A   1      31.148  23.623  24.894  1.00  0.00     0.188 C 
BRANCH  19  20
ATOM     20  C   UNL A   1      32.623  23.783  25.061  1.00  0.00     0.122 A 
ATOM     21  C   UNL A   1      33.458  23.841  26.158  1.00  0.00     0.047 A 
ATOM     22  O   UNL A   1      33.350  23.954  23.916  1.00  0.00    -0.467 OA
ATOM     23  C   UNL A   1      34.764  24.064  25.656  1.00  0.00     0.042 A 
ATOM     24  C   UNL A   1      34.645  24.120  24.288  1.00  0.00     0.195 A 
ENDBRANCH  19  20
ENDBRANCH  17  19
ENDBRANCH  12  17
ENDBRANCH   4   7
ENDBRANCH   2   3
ENDBRANCH   1   2
BRANCH   1  25
ATOM     25  C   UNL A   1      32.091  31.281  26.738  1.00  0.00     0.023 C 
BRANCH  25  26
ATOM     26  C   UNL A   1      33.128  32.178  27.405  1.00  0.00     0.116 C 
BRANCH  26  27
ATOM     27  N   UNL A   1      32.659  33.540  27.618  1.00  0.00    -0.352 N 
ATOM     28  C   UNL A   1      33.131  34.474  28.515  1.00  0.00     0.251 C 
ATOM     29  H   UNL A   1      31.911  33.830  27.048  1.00  0.00     0.163 HD
ATOM     30  O   UNL A   1      32.577  35.551  28.638  1.00  0.00    -0.269 OA
BRANCH  28  31
ATOM     31  C   UNL A   1      34.292  34.115  29.358  1.00  0.00     0.039 A 
ATOM     32  C   UNL A   1      34.066  33.421  30.549  1.00  0.00     0.014 A 
ATOM     33  C   UNL A   1      35.592  34.401  28.935  1.00  0.00     0.014 A 
ATOM     34  C   UNL A   1      35.153  32.941  31.280  1.00  0.00     0.010 A 
ATOM     35  C   UNL A   1      36.671  33.868  29.631  1.00  0.00     0.010 A 
ATOM     36  C   UNL A   1      36.462  33.125  30.804  1.00  0.00    -0.014 A 
BRANCH  36  37
ATOM     37  C   UNL A   1      37.625  32.511  31.489  1.00  0.00     0.031 A 
ATOM     38  C   UNL A   1      38.360  31.365  30.854  1.00  0.00     0.074 A 
ATOM     39  C   UNL A   1      37.945  32.916  32.733  1.00  0.00     0.049 A 
ATOM     40  N   UNL A   1      39.353  30.661  31.330  1.00  0.00    -0.248 NA
ATOM     41  C   UNL A   1      37.900  30.933  29.524  1.00  0.00     0.031 C 
ATOM     42  C   UNL A   1      37.243  33.955  33.491  1.00  0.00     0.029 A 
ATOM     43  N   UNL A   1      38.921  32.480  33.594  1.00  0.00    -0.354 N 
ATOM     44  C   UNL A   1      39.614  29.683  30.379  1.00  0.00     0.074 A 
ATOM     45  C   UNL A   1      38.655  29.866  29.311  1.00  0.00     0.031 C 
ATOM     46  C   UNL A   1      37.810  34.075  34.703  1.00  0.00     0.029 A 
ATOM     47  C   UNL A   1      38.901  33.112  34.816  1.00  0.00     0.049 A 
ATOM     48  H   UNL A   1      39.573  31.781  33.359  1.00  0.00     0.167 HD
ATOM     49  C   UNL A   1      40.585  28.739  30.380  1.00  0.00     0.034 A 
ATOM     50  C   UNL A   1      39.677  32.935  35.904  1.00  0.00     0.034 A 
ATOM     51  C   UNL A   1      41.570  28.598  31.417  1.00  0.00     0.049 A 
ATOM     52  C   UNL A   1      40.791  31.927  35.850  1.00  0.00     0.074 A 
ATOM     53  C   UNL A   1      42.656  27.742  31.462  1.00  0.00     0.029 A 
ATOM     54  N   UNL A   1      41.591  29.334  32.592  1.00  0.00    -0.354 N 
ATOM     55  N   UNL A   1      41.135  31.131  34.867  1.00  0.00    -0.248 NA
ATOM     56  C   UNL A   1      41.650  31.820  37.038  1.00  0.00     0.031 C 
ATOM     57  C   UNL A   1      43.331  27.957  32.669  1.00  0.00     0.029 A 
ATOM     58  C   UNL A   1      42.669  28.951  33.372  1.00  0.00     0.049 A 
ATOM     59  H   UNL A   1      40.935  30.026  32.836  1.00  0.00     0.167 HD
ATOM     60  C   UNL A   1      42.268  30.454  35.302  1.00  0.00     0.074 A 
ATOM     61  C   UNL A   1      42.564  30.948  36.631  1.00  0.00     0.031 C 
ATOM     62  C   UNL A   1      42.986  29.497  34.666  1.00  0.00     0.034 A 
BRANCH  49  63
ATOM     63  C   UNL A   1      40.673  27.832  29.183  1.00  0.00     0.023 A 
ATOM     64  C   UNL A   1      39.834  26.701  29.114  1.00  0.00     0.012 A 
ATOM     65  C   UNL A   1      41.539  28.116  28.111  1.00  0.00     0.148 A 
ATOM     66  C   UNL A   1      39.878  25.848  28.013  1.00  0.00     0.002 A 
ATOM     67  C   UNL A   1      41.550  27.282  26.997  1.00  0.00     0.091 A 
ATOM     68  F   UNL A   1      42.349  29.180  28.205  1.00  0.00    -0.205 F 
ATOM     69  C   UNL A   1      40.728  26.144  26.951  1.00  0.00     0.022 A 
BRANCH  67  70
ATOM     70  S   UNL A   1      42.562  27.623  25.552  1.00  0.00     0.127 S 
ATOM     71  O   UNL A   1      43.904  27.653  26.132  1.00  0.00    -0.237 OA
ATOM     72  O   UNL A   1      42.292  26.464  24.701  1.00  0.00    -0.237 OA
ATOM     73  O   UNL A   1      42.075  28.888  25.019  1.00  0.00    -0.744 OA
ENDBRANCH  67  70
ENDBRANCH  49  63
BRANCH  50  74
ATOM     74  C   UNL A   1      39.479  33.803  37.099  1.00  0.00     0.023 A 
ATOM     75  C   UNL A   1      39.894  35.147  37.044  1.00  0.00     0.012 A 
ATOM     76  C   UNL A   1      38.846  33.325  38.262  1.00  0.00     0.148 A 
ATOM     77  C   UNL A   1      39.704  35.996  38.136  1.00  0.00     0.002 A 
ATOM     78  C   UNL A   1      38.614  34.189  39.327  1.00  0.00     0.091 A 
ATOM     79  F   UNL A   1      38.471  32.038  38.301  1.00  0.00    -0.205 F 
ATOM     80  C   UNL A   1      39.054  35.521  39.271  1.00  0.00     0.022 A 
BRANCH  78  81
ATOM     81  S   UNL A   1      37.667  33.695  40.773  1.00  0.00     0.127 S 
ATOM     82  O   UNL A   1      38.580  32.759  41.422  1.00  0.00    -0.237 OA
ATOM     83  O   UNL A   1      37.489  34.969  41.472  1.00  0.00    -0.237 OA
ATOM     84  O   UNL A   1      36.433  33.126  40.248  1.00  0.00    -0.744 OA
ENDBRANCH  78  81
ENDBRANCH  50  74
BRANCH  62  85
ATOM     85  C   UNL A   1      44.183  28.930  35.383  1.00  0.00     0.023 A 
ATOM     86  C   UNL A   1      45.448  29.518  35.189  1.00  0.00     0.012 A 
ATOM     87  C   UNL A   1      44.041  27.877  36.307  1.00  0.00     0.148 A 
ATOM     88  C   UNL A   1      46.560  29.051  35.889  1.00  0.00     0.002 A 
ATOM     89  C   UNL A   1      45.145  27.444  37.031  1.00  0.00     0.091 A 
ATOM     90  F   UNL A   1      42.833  27.316  36.459  1.00  0.00    -0.205 F 
ATOM     91  C   UNL A   1      46.406  28.024  36.818  1.00  0.00     0.022 A 
BRANCH  89  92
ATOM     92  S   UNL A   1      45.015  26.189  38.310  1.00  0.00     0.127 S 
ATOM     93  O   UNL A   1      43.856  26.654  39.070  1.00  0.00    -0.237 OA
ATOM     94  O   UNL A   1      44.784  24.970  37.533  1.00  0.00    -0.237 OA
ATOM     95  O   UNL A   1      46.288  26.215  39.020  1.00  0.00    -0.744 OA
ENDBRANCH  89  92
ENDBRANCH  62  85
ENDBRANCH  36  37
ENDBRANCH  28  31
ENDBRANCH  26  27
ENDBRANCH  25  26
ENDBRANCH   1  25
TORSDOF 18
ENDMDL
