MODEL 1
REMARK VINA RESULT:     -12.4      0.000      0.000
REMARK SMILES CC(C)[C@H]1CC[C@@H](C)/C(=C/c2ccc(NC(=O)CCC(=O)NCCCCNC(=O)c3ccc(-c4c5nc(c(-c6cccc(S(=O)(=O)[O-])c6F)c6ccc([nH]6)c(-c6cccc(S(=O)(=O)[O-])c6F)c6nc(c(-c7cccc(S(=O)(=O)[O-])c7F)c7ccc4[nH]7)C=C6)C=C5)cc3)cc2)C1=O
REMARK SMILES IDX 23 1 22 2 20 3 21 4 19 6 18 7 16 8 15 9 17 11 14 12 11 13
REMARK SMILES IDX 12 14 94 15 13 16 93 17 10 18 4 19 5 20 95 21 6 22 9 23
REMARK SMILES IDX 96 24 7 25 8 26 2 27 1 28 3 29 24 30 25 31 26 32 27 33 28 34
REMARK SMILES IDX 29 36 30 37 31 38 92 39 32 40 91 41 33 42 34 43 35 44 85 45
REMARK SMILES IDX 36 46 90 47 84 48 86 49 37 50 89 51 83 52 82 53 38 55 70 56
REMARK SMILES IDX 50 57 69 58 51 59 54 60 68 61 87 62 52 63 53 64 67 66 88 67
REMARK SMILES IDX 55 68 39 69 40 70 48 71 41 72 43 73 49 74 42 75 44 76 45 77
REMARK SMILES IDX 46 78 47 79 71 80 72 81 80 82 73 83 75 84 81 85 74 86 76 87
REMARK SMILES IDX 77 88 78 89 79 90 56 91 57 92 65 93 58 94 60 95 66 96 59 97
REMARK SMILES IDX 61 98 62 99 63 100 64 101
REMARK H PARENT 22 5 15 10 27 35 86 54 54 65
REMARK Flexibility Score: inf
ROOT
ATOM      1  C   UNL A   1      32.344  28.771  22.755  1.00  0.00     0.116 C 
ENDROOT
BRANCH   1   2
ATOM      2  N   UNL A   1      31.390  29.646  22.097  1.00  0.00    -0.356 N 
ATOM      3  C   UNL A   1      30.079  29.878  22.392  1.00  0.00     0.220 C 
ATOM      4  O   UNL A   1      29.494  30.802  21.829  1.00  0.00    -0.275 OA
ATOM      5  H   UNL A   1      31.741  30.145  21.325  1.00  0.00     0.163 HD
BRANCH   3   6
ATOM      6  C   UNL A   1      29.359  29.007  23.396  1.00  0.00     0.110 C 
BRANCH   6   7
ATOM      7  C   UNL A   1      29.216  27.546  22.983  1.00  0.00     0.110 C 
BRANCH   7   8
ATOM      8  C   UNL A   1      28.459  26.678  23.966  1.00  0.00     0.224 C 
ATOM      9  N   UNL A   1      29.084  25.758  24.758  1.00  0.00    -0.326 N 
ATOM     10  H   UNL A   1      28.485  25.238  25.340  1.00  0.00     0.169 HD
ATOM     11  O   UNL A   1      27.249  26.863  24.134  1.00  0.00    -0.275 OA
BRANCH   9  12
ATOM     12  C   UNL A   1      30.441  25.437  24.871  1.00  0.00     0.041 A 
ATOM     13  C   UNL A   1      33.137  24.676  24.884  1.00  0.00    -0.025 A 
ATOM     14  C   UNL A   1      32.403  24.704  26.073  1.00  0.00     0.010 A 
ATOM     15  C   UNL A   1      32.508  25.017  23.685  1.00  0.00     0.010 A 
ATOM     16  C   UNL A   1      31.059  25.083  26.066  1.00  0.00     0.027 A 
ATOM     17  C   UNL A   1      31.193  25.472  23.696  1.00  0.00     0.027 A 
BRANCH  13  18
ATOM     18  C   UNL A   1      34.577  24.414  24.956  1.00  0.00     0.015 C 
ATOM     19  C   UNL A   1      34.635  20.773  25.029  1.00  0.00     0.063 C 
ATOM     20  C   UNL A   1      36.142  20.493  24.909  1.00  0.00     0.013 C 
ATOM     21  C   UNL A   1      34.319  22.042  24.238  1.00  0.00     0.162 C 
ATOM     22  C   UNL A   1      36.979  21.710  25.331  1.00  0.00     0.009 C 
ATOM     23  C   UNL A   1      35.142  23.240  24.618  1.00  0.00    -0.001 C 
ATOM     24  O   UNL A   1      33.464  22.129  23.363  1.00  0.00    -0.294 OA
ATOM     25  C   UNL A   1      36.625  22.989  24.558  1.00  0.00     0.020 C 
ATOM     26  C   UNL A   1      37.068  22.917  23.091  1.00  0.00     0.013 C 
BRANCH  19  27
ATOM     27  C   UNL A   1      33.712  19.575  24.683  1.00  0.00    -0.007 C 
ATOM     28  C   UNL A   1      34.440  18.255  24.411  1.00  0.00     0.008 C 
ATOM     29  C   UNL A   1      32.661  19.345  25.775  1.00  0.00     0.008 C 
ENDBRANCH  19  27
ENDBRANCH  13  18
ENDBRANCH   9  12
ENDBRANCH   7   8
ENDBRANCH   6   7
ENDBRANCH   3   6
ENDBRANCH   1   2
BRANCH   1  30
ATOM     30  C   UNL A   1      32.721  29.216  24.167  1.00  0.00     0.023 C 
BRANCH  30  31
ATOM     31  C   UNL A   1      33.741  28.341  24.887  1.00  0.00     0.023 C 
BRANCH  31  32
ATOM     32  C   UNL A   1      33.830  28.563  26.385  1.00  0.00     0.116 C 
BRANCH  32  33
ATOM     33  N   UNL A   1      33.677  29.963  26.741  1.00  0.00    -0.352 N 
ATOM     34  C   UNL A   1      34.444  30.723  27.585  1.00  0.00     0.251 C 
ATOM     35  H   UNL A   1      32.920  30.428  26.318  1.00  0.00     0.163 HD
ATOM     36  O   UNL A   1      34.046  31.834  27.939  1.00  0.00    -0.269 OA
BRANCH  34  37
ATOM     37  C   UNL A   1      35.738  30.205  28.072  1.00  0.00     0.039 A 
ATOM     38  C   UNL A   1      36.879  30.363  27.283  1.00  0.00     0.014 A 
ATOM     39  C   UNL A   1      35.824  29.555  29.307  1.00  0.00     0.014 A 
ATOM     40  C   UNL A   1      38.109  29.892  27.748  1.00  0.00     0.010 A 
ATOM     41  C   UNL A   1      37.064  29.188  29.814  1.00  0.00     0.010 A 
ATOM     42  C   UNL A   1      38.213  29.314  29.024  1.00  0.00    -0.014 A 
BRANCH  42  43
ATOM     43  C   UNL A   1      39.503  28.774  29.521  1.00  0.00     0.031 A 
ATOM     44  C   UNL A   1      40.203  29.447  30.675  1.00  0.00     0.074 A 
ATOM     45  C   UNL A   1      40.077  27.726  28.899  1.00  0.00     0.049 A 
ATOM     46  N   UNL A   1      41.337  29.137  31.247  1.00  0.00    -0.248 NA
ATOM     47  C   UNL A   1      39.565  30.651  31.237  1.00  0.00     0.031 C 
ATOM     48  C   UNL A   1      39.553  27.057  27.705  1.00  0.00     0.029 A 
ATOM     49  N   UNL A   1      41.235  27.047  29.177  1.00  0.00    -0.354 N 
ATOM     50  C   UNL A   1      41.568  30.127  32.195  1.00  0.00     0.074 A 
ATOM     51  C   UNL A   1      40.484  31.077  32.089  1.00  0.00     0.031 C 
ATOM     52  C   UNL A   1      40.376  26.050  27.369  1.00  0.00     0.029 A 
ATOM     53  C   UNL A   1      41.489  26.009  28.312  1.00  0.00     0.049 A 
ATOM     54  H   UNL A   1      41.830  27.281  29.927  1.00  0.00     0.167 HD
ATOM     55  C   UNL A   1      42.564  30.216  33.108  1.00  0.00     0.034 A 
ATOM     56  C   UNL A   1      42.495  25.114  28.296  1.00  0.00     0.034 A 
ATOM     57  C   UNL A   1      43.594  29.226  33.260  1.00  0.00     0.049 A 
ATOM     58  C   UNL A   1      43.527  25.165  29.392  1.00  0.00     0.074 A 
ATOM     59  C   UNL A   1      44.597  29.163  34.211  1.00  0.00     0.029 A 
ATOM     60  N   UNL A   1      43.743  28.115  32.445  1.00  0.00    -0.354 N 
ATOM     61  N   UNL A   1      43.635  26.016  30.384  1.00  0.00    -0.248 NA
ATOM     62  C   UNL A   1      44.543  24.104  29.397  1.00  0.00     0.031 C 
ATOM     63  C   UNL A   1      45.356  28.013  33.966  1.00  0.00     0.029 A 
ATOM     64  C   UNL A   1      44.815  27.354  32.874  1.00  0.00     0.049 A 
ATOM     65  H   UNL A   1      43.171  27.900  31.673  1.00  0.00     0.167 HD
ATOM     66  C   UNL A   1      44.706  25.571  31.152  1.00  0.00     0.074 A 
ATOM     67  C   UNL A   1      45.196  24.362  30.521  1.00  0.00     0.031 C 
ATOM     68  C   UNL A   1      45.247  26.122  32.267  1.00  0.00     0.034 A 
BRANCH  55  69
ATOM     69  C   UNL A   1      42.539  31.385  34.058  1.00  0.00     0.023 A 
ATOM     70  C   UNL A   1      43.249  32.560  33.732  1.00  0.00     0.012 A 
ATOM     71  C   UNL A   1      41.791  31.343  35.251  1.00  0.00     0.148 A 
ATOM     72  C   UNL A   1      43.249  33.656  34.592  1.00  0.00     0.002 A 
ATOM     73  C   UNL A   1      41.757  32.457  36.082  1.00  0.00     0.091 A 
ATOM     74  F   UNL A   1      41.142  30.211  35.559  1.00  0.00    -0.205 F 
ATOM     75  C   UNL A   1      42.496  33.609  35.761  1.00  0.00     0.022 A 
BRANCH  73  76
ATOM     76  S   UNL A   1      40.754  32.526  37.570  1.00  0.00     0.127 S 
ATOM     77  O   UNL A   1      41.618  31.854  38.540  1.00  0.00    -0.237 OA
ATOM     78  O   UNL A   1      40.610  33.968  37.779  1.00  0.00    -0.237 OA
ATOM     79  O   UNL A   1      39.514  31.834  37.250  1.00  0.00    -0.744 OA
ENDBRANCH  73  76
ENDBRANCH  55  69
BRANCH  56  80
ATOM     80  C   UNL A   1      42.511  24.030  27.275  1.00  0.00     0.023 A 
ATOM     81  C   UNL A   1      43.233  24.222  26.079  1.00  0.00     0.012 A 
ATOM     82  C   UNL A   1      41.851  22.806  27.488  1.00  0.00     0.148 A 
ATOM     83  C   UNL A   1      43.269  23.227  25.100  1.00  0.00     0.002 A 
ATOM     84  C   UNL A   1      41.933  21.800  26.532  1.00  0.00     0.091 A 
ATOM     85  F   UNL A   1      41.168  22.645  28.630  1.00  0.00    -0.205 F 
ATOM     86  C   UNL A   1      42.627  22.014  25.331  1.00  0.00     0.022 A 
BRANCH  84  87
ATOM     87  S   UNL A   1      41.239  20.164  26.793  1.00  0.00     0.127 S 
ATOM     88  O   UNL A   1      40.016  20.227  25.995  1.00  0.00    -0.237 OA
ATOM     89  O   UNL A   1      42.288  19.302  26.247  1.00  0.00    -0.237 OA
ATOM     90  O   UNL A   1      41.048  20.043  28.230  1.00  0.00    -0.744 OA
ENDBRANCH  84  87
ENDBRANCH  56  80
BRANCH  68  91
ATOM     91  C   UNL A   1      46.408  25.403  32.901  1.00  0.00     0.023 A 
ATOM     92  C   UNL A   1      47.726  25.793  32.591  1.00  0.00     0.012 A 
ATOM     93  C   UNL A   1      46.191  24.384  33.848  1.00  0.00     0.148 A 
ATOM     94  C   UNL A   1      48.811  25.152  33.187  1.00  0.00     0.002 A 
ATOM     95  C   UNL A   1      47.277  23.784  34.473  1.00  0.00     0.091 A 
ATOM     96  F   UNL A   1      44.930  24.011  34.114  1.00  0.00    -0.205 F 
ATOM     97  C   UNL A   1      48.588  24.157  34.135  1.00  0.00     0.022 A 
BRANCH  95  98
ATOM     98  S   UNL A   1      47.066  22.562  35.774  1.00  0.00     0.127 S 
ATOM     99  O   UNL A   1      46.349  23.328  36.790  1.00  0.00    -0.237 OA
ATOM    100  O   UNL A   1      46.268  21.530  35.111  1.00  0.00    -0.237 OA
ATOM    101  O   UNL A   1      48.413  22.137  36.133  1.00  0.00    -0.744 OA
ENDBRANCH  95  98
ENDBRANCH  68  91
ENDBRANCH  42  43
ENDBRANCH  34  37
ENDBRANCH  32  33
ENDBRANCH  31  32
ENDBRANCH  30  31
ENDBRANCH   1  30
TORSDOF 19
ENDMDL
MODEL 2
REMARK VINA RESULT:     -11.7      4.831     10.023
REMARK SMILES CC(C)[C@H]1CC[C@@H](C)/C(=C/c2ccc(NC(=O)CCC(=O)NCCCCNC(=O)c3ccc(-c4c5nc(c(-c6cccc(S(=O)(=O)[O-])c6F)c6ccc([nH]6)c(-c6cccc(S(=O)(=O)[O-])c6F)c6nc(c(-c7cccc(S(=O)(=O)[O-])c7F)c7ccc4[nH]7)C=C6)C=C5)cc3)cc2)C1=O
REMARK SMILES IDX 23 1 22 2 20 3 21 4 19 6 18 7 16 8 15 9 17 11 14 12 11 13
REMARK SMILES IDX 12 14 94 15 13 16 93 17 10 18 4 19 5 20 95 21 6 22 9 23
REMARK SMILES IDX 96 24 7 25 8 26 2 27 1 28 3 29 24 30 25 31 26 32 27 33 28 34
REMARK SMILES IDX 29 36 30 37 31 38 92 39 32 40 91 41 33 42 34 43 35 44 85 45
REMARK SMILES IDX 36 46 90 47 84 48 86 49 37 50 89 51 83 52 82 53 38 55 70 56
REMARK SMILES IDX 50 57 69 58 51 59 54 60 68 61 87 62 52 63 53 64 67 66 88 67
REMARK SMILES IDX 55 68 39 69 40 70 48 71 41 72 43 73 49 74 42 75 44 76 45 77
REMARK SMILES IDX 46 78 47 79 71 80 72 81 80 82 73 83 75 84 81 85 74 86 76 87
REMARK SMILES IDX 77 88 78 89 79 90 56 91 57 92 65 93 58 94 60 95 66 96 59 97
REMARK SMILES IDX 61 98 62 99 63 100 64 101
REMARK H PARENT 22 5 15 10 27 35 86 54 54 65
REMARK Flexibility Score: inf
ROOT
ATOM      1  C   UNL A   1      36.398  20.382  24.676  1.00  0.00     0.116 C 
ENDROOT
BRANCH   1   2
ATOM      2  N   UNL A   1      35.244  20.356  25.556  1.00  0.00    -0.356 N 
ATOM      3  C   UNL A   1      33.965  19.963  25.298  1.00  0.00     0.220 C 
ATOM      4  O   UNL A   1      33.177  19.837  26.235  1.00  0.00    -0.275 OA
ATOM      5  H   UNL A   1      35.410  20.668  26.475  1.00  0.00     0.163 HD
BRANCH   3   6
ATOM      6  C   UNL A   1      33.525  19.689  23.879  1.00  0.00     0.110 C 
BRANCH   6   7
ATOM      7  C   UNL A   1      32.139  20.218  23.529  1.00  0.00     0.110 C 
BRANCH   7   8
ATOM      8  C   UNL A   1      32.035  20.885  22.174  1.00  0.00     0.224 C 
ATOM      9  N   UNL A   1      32.188  22.232  22.009  1.00  0.00    -0.326 N 
ATOM     10  H   UNL A   1      32.077  22.552  21.086  1.00  0.00     0.169 HD
ATOM     11  O   UNL A   1      31.900  20.188  21.162  1.00  0.00    -0.275 OA
BRANCH   9  12
ATOM     12  C   UNL A   1      32.478  23.229  22.948  1.00  0.00     0.041 A 
ATOM     13  C   UNL A   1      33.263  25.267  24.702  1.00  0.00    -0.025 A 
ATOM     14  C   UNL A   1      32.626  24.121  25.187  1.00  0.00     0.010 A 
ATOM     15  C   UNL A   1      33.518  25.379  23.333  1.00  0.00     0.010 A 
ATOM     16  C   UNL A   1      32.235  23.106  24.313  1.00  0.00     0.027 A 
ATOM     17  C   UNL A   1      33.053  24.401  22.458  1.00  0.00     0.027 A 
BRANCH  13  18
ATOM     18  C   UNL A   1      33.525  26.370  25.631  1.00  0.00     0.015 C 
ATOM     19  C   UNL A   1      31.273  28.929  24.346  1.00  0.00     0.063 C 
ATOM     20  C   UNL A   1      31.402  30.013  25.428  1.00  0.00     0.013 C 
ATOM     21  C   UNL A   1      31.426  27.564  25.016  1.00  0.00     0.162 C 
ATOM     22  C   UNL A   1      32.701  29.860  26.231  1.00  0.00     0.009 C 
ATOM     23  C   UNL A   1      32.679  27.398  25.827  1.00  0.00    -0.001 C 
ATOM     24  O   UNL A   1      30.623  26.641  24.920  1.00  0.00    -0.294 OA
ATOM     25  C   UNL A   1      32.863  28.471  26.867  1.00  0.00     0.020 C 
ATOM     26  C   UNL A   1      31.869  28.242  28.013  1.00  0.00     0.013 C 
BRANCH  19  27
ATOM     27  C   UNL A   1      30.019  29.045  23.442  1.00  0.00    -0.007 C 
ATOM     28  C   UNL A   1      29.324  30.409  23.469  1.00  0.00     0.008 C 
ATOM     29  C   UNL A   1      30.343  28.684  21.987  1.00  0.00     0.008 C 
ENDBRANCH  19  27
ENDBRANCH  13  18
ENDBRANCH   9  12
ENDBRANCH   7   8
ENDBRANCH   6   7
ENDBRANCH   3   6
ENDBRANCH   1   2
BRANCH   1  30
ATOM     30  C   UNL A   1      36.725  21.767  24.123  1.00  0.00     0.023 C 
BRANCH  30  31
ATOM     31  C   UNL A   1      36.253  22.946  24.966  1.00  0.00     0.023 C 
BRANCH  31  32
ATOM     32  C   UNL A   1      37.184  23.337  26.098  1.00  0.00     0.116 C 
BRANCH  32  33
ATOM     33  N   UNL A   1      38.309  22.425  26.222  1.00  0.00    -0.352 N 
ATOM     34  C   UNL A   1      39.619  22.711  26.501  1.00  0.00     0.251 C 
ATOM     35  H   UNL A   1      38.099  21.473  26.086  1.00  0.00     0.163 HD
ATOM     36  O   UNL A   1      40.480  21.840  26.355  1.00  0.00    -0.269 OA
BRANCH  34  37
ATOM     37  C   UNL A   1      39.996  24.061  26.966  1.00  0.00     0.039 A 
ATOM     38  C   UNL A   1      40.334  24.252  28.307  1.00  0.00     0.014 A 
ATOM     39  C   UNL A   1      40.009  25.140  26.078  1.00  0.00     0.014 A 
ATOM     40  C   UNL A   1      40.711  25.524  28.748  1.00  0.00     0.010 A 
ATOM     41  C   UNL A   1      40.489  26.376  26.493  1.00  0.00     0.010 A 
ATOM     42  C   UNL A   1      40.804  26.592  27.841  1.00  0.00    -0.014 A 
BRANCH  42  43
ATOM     43  C   UNL A   1      41.166  27.958  28.296  1.00  0.00     0.031 A 
ATOM     44  C   UNL A   1      42.608  28.398  28.274  1.00  0.00     0.074 A 
ATOM     45  C   UNL A   1      40.215  28.776  28.786  1.00  0.00     0.049 A 
ATOM     46  N   UNL A   1      43.128  29.541  28.639  1.00  0.00    -0.248 NA
ATOM     47  C   UNL A   1      43.605  27.411  27.822  1.00  0.00     0.031 C 
ATOM     48  C   UNL A   1      38.803  28.427  28.960  1.00  0.00     0.029 A 
ATOM     49  N   UNL A   1      40.295  30.066  29.242  1.00  0.00    -0.354 N 
ATOM     50  C   UNL A   1      44.504  29.393  28.504  1.00  0.00     0.074 A 
ATOM     51  C   UNL A   1      44.745  28.035  28.074  1.00  0.00     0.031 C 
ATOM     52  C   UNL A   1      38.147  29.486  29.463  1.00  0.00     0.029 A 
ATOM     53  C   UNL A   1      39.091  30.581  29.659  1.00  0.00     0.049 A 
ATOM     54  H   UNL A   1      41.138  30.577  29.269  1.00  0.00     0.167 HD
ATOM     55  C   UNL A   1      45.480  30.316  28.674  1.00  0.00     0.034 A 
ATOM     56  C   UNL A   1      38.782  31.807  30.126  1.00  0.00     0.034 A 
ATOM     57  C   UNL A   1      45.226  31.687  29.024  1.00  0.00     0.049 A 
ATOM     58  C   UNL A   1      39.866  32.850  30.195  1.00  0.00     0.074 A 
ATOM     59  C   UNL A   1      46.127  32.731  29.130  1.00  0.00     0.029 A 
ATOM     60  N   UNL A   1      43.974  32.206  29.313  1.00  0.00    -0.354 N 
ATOM     61  N   UNL A   1      41.139  32.737  29.903  1.00  0.00    -0.248 NA
ATOM     62  C   UNL A   1      39.461  34.201  30.606  1.00  0.00     0.031 C 
ATOM     63  C   UNL A   1      45.416  33.883  29.486  1.00  0.00     0.029 A 
ATOM     64  C   UNL A   1      44.074  33.557  29.586  1.00  0.00     0.049 A 
ATOM     65  H   UNL A   1      43.136  31.687  29.321  1.00  0.00     0.167 HD
ATOM     66  C   UNL A   1      41.680  34.008  30.059  1.00  0.00     0.074 A 
ATOM     67  C   UNL A   1      40.589  34.880  30.446  1.00  0.00     0.031 C 
ATOM     68  C   UNL A   1      42.965  34.417  29.912  1.00  0.00     0.034 A 
BRANCH  55  69
ATOM     69  C   UNL A   1      46.900  29.889  28.408  1.00  0.00     0.023 A 
ATOM     70  C   UNL A   1      47.452  30.078  27.123  1.00  0.00     0.012 A 
ATOM     71  C   UNL A   1      47.702  29.338  29.426  1.00  0.00     0.148 A 
ATOM     72  C   UNL A   1      48.761  29.689  26.845  1.00  0.00     0.002 A 
ATOM     73  C   UNL A   1      49.021  28.995  29.154  1.00  0.00     0.091 A 
ATOM     74  F   UNL A   1      47.156  29.142  30.635  1.00  0.00    -0.205 F 
ATOM     75  C   UNL A   1      49.548  29.157  27.861  1.00  0.00     0.022 A 
BRANCH  73  76
ATOM     76  S   UNL A   1      50.142  28.377  30.415  1.00  0.00     0.127 S 
ATOM     77  O   UNL A   1      49.626  27.027  30.632  1.00  0.00    -0.237 OA
ATOM     78  O   UNL A   1      51.436  28.432  29.731  1.00  0.00    -0.237 OA
ATOM     79  O   UNL A   1      50.015  29.287  31.544  1.00  0.00    -0.744 OA
ENDBRANCH  73  76
ENDBRANCH  55  69
BRANCH  56  80
ATOM     80  C   UNL A   1      37.369  32.143  30.456  1.00  0.00     0.023 A 
ATOM     81  C   UNL A   1      36.895  31.916  31.765  1.00  0.00     0.012 A 
ATOM     82  C   UNL A   1      36.505  32.713  29.503  1.00  0.00     0.148 A 
ATOM     83  C   UNL A   1      35.577  32.219  32.108  1.00  0.00     0.002 A 
ATOM     84  C   UNL A   1      35.208  33.059  29.865  1.00  0.00     0.091 A 
ATOM     85  F   UNL A   1      36.974  32.917  28.264  1.00  0.00    -0.205 F 
ATOM     86  C   UNL A   1      34.737  32.798  31.161  1.00  0.00     0.022 A 
BRANCH  84  87
ATOM     87  S   UNL A   1      34.093  33.919  28.749  1.00  0.00     0.127 S 
ATOM     88  O   UNL A   1      33.514  32.810  27.993  1.00  0.00    -0.237 OA
ATOM     89  O   UNL A   1      33.177  34.573  29.684  1.00  0.00    -0.237 OA
ATOM     90  O   UNL A   1      34.929  34.833  27.987  1.00  0.00    -0.744 OA
ENDBRANCH  84  87
ENDBRANCH  56  80
BRANCH  68  91
ATOM     91  C   UNL A   1      43.258  35.876  30.134  1.00  0.00     0.023 A 
ATOM     92  C   UNL A   1      43.785  36.304  31.368  1.00  0.00     0.012 A 
ATOM     93  C   UNL A   1      43.069  36.812  29.100  1.00  0.00     0.148 A 
ATOM     94  C   UNL A   1      44.082  37.648  31.583  1.00  0.00     0.002 A 
ATOM     95  C   UNL A   1      43.413  38.143  29.305  1.00  0.00     0.091 A 
ATOM     96  F   UNL A   1      42.545  36.391  27.939  1.00  0.00    -0.205 F 
ATOM     97  C   UNL A   1      43.908  38.566  30.549  1.00  0.00     0.022 A 
BRANCH  95  98
ATOM     98  S   UNL A   1      43.307  39.363  27.991  1.00  0.00     0.127 S 
ATOM     99  O   UNL A   1      41.868  39.419  27.748  1.00  0.00    -0.237 OA
ATOM    100  O   UNL A   1      43.865  40.559  28.625  1.00  0.00    -0.237 OA
ATOM    101  O   UNL A   1      44.114  38.835  26.899  1.00  0.00    -0.744 OA
ENDBRANCH  95  98
ENDBRANCH  68  91
ENDBRANCH  42  43
ENDBRANCH  34  37
ENDBRANCH  32  33
ENDBRANCH  31  32
ENDBRANCH  30  31
ENDBRANCH   1  30
TORSDOF 19
ENDMDL
MODEL 3
REMARK VINA RESULT:     -11.4      6.664      8.820
REMARK SMILES CC(C)[C@H]1CC[C@@H](C)/C(=C/c2ccc(NC(=O)CCC(=O)NCCCCNC(=O)c3ccc(-c4c5nc(c(-c6cccc(S(=O)(=O)[O-])c6F)c6ccc([nH]6)c(-c6cccc(S(=O)(=O)[O-])c6F)c6nc(c(-c7cccc(S(=O)(=O)[O-])c7F)c7ccc4[nH]7)C=C6)C=C5)cc3)cc2)C1=O
REMARK SMILES IDX 23 1 22 2 20 3 21 4 19 6 18 7 16 8 15 9 17 11 14 12 11 13
REMARK SMILES IDX 12 14 94 15 13 16 93 17 10 18 4 19 5 20 95 21 6 22 9 23
REMARK SMILES IDX 96 24 7 25 8 26 2 27 1 28 3 29 24 30 25 31 26 32 27 33 28 34
REMARK SMILES IDX 29 36 30 37 31 38 92 39 32 40 91 41 33 42 34 43 35 44 85 45
REMARK SMILES IDX 36 46 90 47 84 48 86 49 37 50 89 51 83 52 82 53 38 55 70 56
REMARK SMILES IDX 50 57 69 58 51 59 54 60 68 61 87 62 52 63 53 64 67 66 88 67
REMARK SMILES IDX 55 68 39 69 40 70 48 71 41 72 43 73 49 74 42 75 44 76 45 77
REMARK SMILES IDX 46 78 47 79 71 80 72 81 80 82 73 83 75 84 81 85 74 86 76 87
REMARK SMILES IDX 77 88 78 89 79 90 56 91 57 92 65 93 58 94 60 95 66 96 59 97
REMARK SMILES IDX 61 98 62 99 63 100 64 101
REMARK H PARENT 22 5 15 10 27 35 86 54 54 65
REMARK Flexibility Score: inf
ROOT
ATOM      1  C   UNL A   1      34.687  34.505  30.995  1.00  0.00     0.116 C 
ENDROOT
BRANCH   1   2
ATOM      2  N   UNL A   1      33.676  35.338  30.370  1.00  0.00    -0.356 N 
ATOM      3  C   UNL A   1      33.283  35.394  29.066  1.00  0.00     0.220 C 
ATOM      4  O   UNL A   1      32.274  36.034  28.772  1.00  0.00    -0.275 OA
ATOM      5  H   UNL A   1      33.205  35.953  30.977  1.00  0.00     0.163 HD
BRANCH   3   6
ATOM      6  C   UNL A   1      34.081  34.680  27.999  1.00  0.00     0.110 C 
BRANCH   6   7
ATOM      7  C   UNL A   1      33.987  33.159  28.047  1.00  0.00     0.110 C 
BRANCH   7   8
ATOM      8  C   UNL A   1      35.317  32.436  27.999  1.00  0.00     0.224 C 
ATOM      9  N   UNL A   1      35.419  31.119  27.656  1.00  0.00    -0.326 N 
ATOM     10  H   UNL A   1      36.333  30.754  27.681  1.00  0.00     0.169 HD
ATOM     11  O   UNL A   1      36.361  33.072  28.184  1.00  0.00    -0.275 OA
BRANCH   9  12
ATOM     12  C   UNL A   1      34.430  30.206  27.273  1.00  0.00     0.041 A 
ATOM     13  C   UNL A   1      32.598  28.312  26.325  1.00  0.00    -0.025 A 
ATOM     14  C   UNL A   1      32.152  29.533  26.840  1.00  0.00     0.010 A 
ATOM     15  C   UNL A   1      33.968  28.052  26.274  1.00  0.00     0.010 A 
ATOM     16  C   UNL A   1      33.066  30.476  27.312  1.00  0.00     0.027 A 
ATOM     17  C   UNL A   1      34.869  28.961  26.821  1.00  0.00     0.027 A 
BRANCH  13  18
ATOM     18  C   UNL A   1      31.603  27.293  25.976  1.00  0.00     0.015 C 
ATOM     19  C   UNL A   1      29.487  29.135  23.652  1.00  0.00     0.063 C 
ATOM     20  C   UNL A   1      28.562  28.020  23.139  1.00  0.00     0.013 C 
ATOM     21  C   UNL A   1      30.858  28.525  23.942  1.00  0.00     0.162 C 
ATOM     22  C   UNL A   1      28.518  26.830  24.108  1.00  0.00     0.009 C 
ATOM     23  C   UNL A   1      30.837  27.345  24.870  1.00  0.00    -0.001 C 
ATOM     24  O   UNL A   1      31.920  28.937  23.487  1.00  0.00    -0.294 OA
ATOM     25  C   UNL A   1      29.905  26.251  24.423  1.00  0.00     0.020 C 
ATOM     26  C   UNL A   1      30.514  25.526  23.216  1.00  0.00     0.013 C 
BRANCH  19  27
ATOM     27  C   UNL A   1      29.543  30.406  22.765  1.00  0.00    -0.007 C 
ATOM     28  C   UNL A   1      28.811  30.293  21.424  1.00  0.00     0.008 C 
ATOM     29  C   UNL A   1      29.015  31.635  23.515  1.00  0.00     0.008 C 
ENDBRANCH  19  27
ENDBRANCH  13  18
ENDBRANCH   9  12
ENDBRANCH   7   8
ENDBRANCH   6   7
ENDBRANCH   3   6
ENDBRANCH   1   2
BRANCH   1  30
ATOM     30  C   UNL A   1      34.618  34.488  32.521  1.00  0.00     0.023 C 
BRANCH  30  31
ATOM     31  C   UNL A   1      35.069  33.194  33.191  1.00  0.00     0.023 C 
BRANCH  31  32
ATOM     32  C   UNL A   1      36.148  32.431  32.448  1.00  0.00     0.116 C 
BRANCH  32  33
ATOM     33  N   UNL A   1      36.227  31.043  32.871  1.00  0.00    -0.352 N 
ATOM     34  C   UNL A   1      37.167  30.099  32.549  1.00  0.00     0.251 C 
ATOM     35  H   UNL A   1      35.507  30.740  33.469  1.00  0.00     0.163 HD
ATOM     36  O   UNL A   1      36.963  28.915  32.821  1.00  0.00    -0.269 OA
BRANCH  34  37
ATOM     37  C   UNL A   1      38.415  30.504  31.870  1.00  0.00     0.039 A 
ATOM     38  C   UNL A   1      38.442  30.579  30.476  1.00  0.00     0.014 A 
ATOM     39  C   UNL A   1      39.562  30.802  32.612  1.00  0.00     0.014 A 
ATOM     40  C   UNL A   1      39.614  30.981  29.831  1.00  0.00     0.010 A 
ATOM     41  C   UNL A   1      40.689  31.306  31.975  1.00  0.00     0.010 A 
ATOM     42  C   UNL A   1      40.742  31.361  30.576  1.00  0.00    -0.014 A 
BRANCH  42  43
ATOM     43  C   UNL A   1      42.008  31.755  29.909  1.00  0.00     0.031 A 
ATOM     44  C   UNL A   1      42.277  33.208  29.608  1.00  0.00     0.074 A 
ATOM     45  C   UNL A   1      42.883  30.809  29.517  1.00  0.00     0.049 A 
ATOM     46  N   UNL A   1      43.312  33.752  29.024  1.00  0.00    -0.248 NA
ATOM     47  C   UNL A   1      41.226  34.175  29.973  1.00  0.00     0.031 C 
ATOM     48  C   UNL A   1      42.687  29.363  29.653  1.00  0.00     0.029 A 
ATOM     49  N   UNL A   1      44.107  30.920  28.910  1.00  0.00    -0.354 N 
ATOM     50  C   UNL A   1      43.017  35.106  28.912  1.00  0.00     0.074 A 
ATOM     51  C   UNL A   1      41.686  35.296  29.441  1.00  0.00     0.031 C 
ATOM     52  C   UNL A   1      43.764  28.726  29.166  1.00  0.00     0.029 A 
ATOM     53  C   UNL A   1      44.719  29.713  28.672  1.00  0.00     0.049 A 
ATOM     54  H   UNL A   1      44.511  31.786  28.667  1.00  0.00     0.167 HD
ATOM     55  C   UNL A   1      43.801  36.113  28.457  1.00  0.00     0.034 A 
ATOM     56  C   UNL A   1      45.923  29.436  28.135  1.00  0.00     0.034 A 
ATOM     57  C   UNL A   1      45.153  35.928  28.008  1.00  0.00     0.049 A 
ATOM     58  C   UNL A   1      46.821  30.580  27.745  1.00  0.00     0.074 A 
ATOM     59  C   UNL A   1      46.071  36.887  27.616  1.00  0.00     0.029 A 
ATOM     60  N   UNL A   1      45.786  34.699  27.904  1.00  0.00    -0.354 N 
ATOM     61  N   UNL A   1      46.588  31.869  27.802  1.00  0.00    -0.248 NA
ATOM     62  C   UNL A   1      48.167  30.233  27.266  1.00  0.00     0.031 C 
ATOM     63  C   UNL A   1      47.259  36.233  27.271  1.00  0.00     0.029 A 
ATOM     64  C   UNL A   1      47.085  34.873  27.464  1.00  0.00     0.049 A 
ATOM     65  H   UNL A   1      45.371  33.831  28.112  1.00  0.00     0.167 HD
ATOM     66  C   UNL A   1      47.767  32.488  27.403  1.00  0.00     0.074 A 
ATOM     67  C   UNL A   1      48.721  31.430  27.132  1.00  0.00     0.031 C 
ATOM     68  C   UNL A   1      48.035  33.810  27.258  1.00  0.00     0.034 A 
BRANCH  55  69
ATOM     69  C   UNL A   1      43.237  37.510  28.498  1.00  0.00     0.023 A 
ATOM     70  C   UNL A   1      42.404  37.953  27.449  1.00  0.00     0.012 A 
ATOM     71  C   UNL A   1      43.495  38.372  29.581  1.00  0.00     0.148 A 
ATOM     72  C   UNL A   1      41.871  39.240  27.455  1.00  0.00     0.002 A 
ATOM     73  C   UNL A   1      42.922  39.639  29.604  1.00  0.00     0.091 A 
ATOM     74  F   UNL A   1      44.309  37.946  30.558  1.00  0.00    -0.205 F 
ATOM     75  C   UNL A   1      42.122  40.079  28.536  1.00  0.00     0.022 A 
BRANCH  73  76
ATOM     76  S   UNL A   1      43.119  40.766  30.989  1.00  0.00     0.127 S 
ATOM     77  O   UNL A   1      44.527  41.139  30.869  1.00  0.00    -0.237 OA
ATOM     78  O   UNL A   1      42.176  41.834  30.654  1.00  0.00    -0.237 OA
ATOM     79  O   UNL A   1      42.771  40.003  32.179  1.00  0.00    -0.744 OA
ENDBRANCH  73  76
ENDBRANCH  55  69
BRANCH  56  80
ATOM     80  C   UNL A   1      46.390  28.025  28.041  1.00  0.00     0.023 A 
ATOM     81  C   UNL A   1      47.027  27.434  29.152  1.00  0.00     0.012 A 
ATOM     82  C   UNL A   1      46.180  27.256  26.882  1.00  0.00     0.148 A 
ATOM     83  C   UNL A   1      47.476  26.114  29.098  1.00  0.00     0.002 A 
ATOM     84  C   UNL A   1      46.585  25.926  26.852  1.00  0.00     0.091 A 
ATOM     85  F   UNL A   1      45.576  27.837  25.836  1.00  0.00    -0.205 F 
ATOM     86  C   UNL A   1      47.247  25.358  27.952  1.00  0.00     0.022 A 
BRANCH  84  87
ATOM     87  S   UNL A   1      46.226  24.840  25.466  1.00  0.00     0.127 S 
ATOM     88  O   UNL A   1      47.046  25.427  24.407  1.00  0.00    -0.237 OA
ATOM     89  O   UNL A   1      46.698  23.548  25.966  1.00  0.00    -0.237 OA
ATOM     90  O   UNL A   1      44.788  24.920  25.267  1.00  0.00    -0.744 OA
ENDBRANCH  84  87
ENDBRANCH  56  80
BRANCH  68  91
ATOM     91  C   UNL A   1      49.423  34.192  26.820  1.00  0.00     0.023 A 
ATOM     92  C   UNL A   1      49.697  34.380  25.451  1.00  0.00     0.012 A 
ATOM     93  C   UNL A   1      50.437  34.423  27.768  1.00  0.00     0.148 A 
ATOM     94  C   UNL A   1      50.972  34.755  25.030  1.00  0.00     0.002 A 
ATOM     95  C   UNL A   1      51.692  34.844  27.345  1.00  0.00     0.091 A 
ATOM     96  F   UNL A   1      50.164  34.218  29.065  1.00  0.00    -0.205 F 
ATOM     97  C   UNL A   1      51.965  34.999  25.976  1.00  0.00     0.022 A 
BRANCH  95  98
ATOM     98  S   UNL A   1      52.993  35.270  28.508  1.00  0.00     0.127 S 
ATOM     99  O   UNL A   1      52.323  36.248  29.361  1.00  0.00    -0.237 OA
ATOM    100  O   UNL A   1      53.270  33.986  29.154  1.00  0.00    -0.237 OA
ATOM    101  O   UNL A   1      54.091  35.781  27.699  1.00  0.00    -0.744 OA
ENDBRANCH  95  98
ENDBRANCH  68  91
ENDBRANCH  42  43
ENDBRANCH  34  37
ENDBRANCH  32  33
ENDBRANCH  31  32
ENDBRANCH  30  31
ENDBRANCH   1  30
TORSDOF 19
ENDMDL
