MODEL 1
REMARK VINA RESULT:     -11.8      0.000      0.000
REMARK SMILES C[NH+](C)Cc1ccccc1[C@H]1[NH2+][C@@H](C(=O)NCCCCNC(=O)c2ccc(-c3c4nc(c(-c5cccc(S(=O)(=O)[O-])c5F)c5ccc([nH]5)c(-c5cccc(S(=O)(=O)[O-])c5F)c5nc(c(-c6cccc(S(=O)(=O)[O-])c6F)c6ccc3[nH]6)C=C5)C=C4)cc2)C(C)(C)S1
REMARK SMILES IDX 18 1 17 2 16 3 14 4 15 5 13 7 11 8 12 9 90 10 87 13 88 14
REMARK SMILES IDX 89 15 10 16 5 17 6 18 7 19 9 20 8 21 4 22 2 23 1 24 3 25
REMARK SMILES IDX 19 27 20 28 21 29 22 30 23 32 24 33 25 34 86 35 26 36 85 37
REMARK SMILES IDX 27 38 28 39 29 40 79 41 30 42 84 43 78 44 80 45 31 46 83 47
REMARK SMILES IDX 77 48 76 49 32 51 64 52 44 53 63 54 45 55 48 56 62 57 81 58
REMARK SMILES IDX 46 59 47 60 61 62 82 63 49 64 33 65 34 66 42 67 35 68 37 69
REMARK SMILES IDX 43 70 36 71 38 72 39 73 40 74 41 75 65 76 66 77 74 78 67 79
REMARK SMILES IDX 69 80 75 81 68 82 70 83 71 84 72 85 73 86 50 87 51 88 59 89
REMARK SMILES IDX 52 90 54 91 60 92 53 93 55 94 56 95 57 96 58 97
REMARK H PARENT 16 6 12 11 12 12 2 26 21 31 80 50 48 61
REMARK Flexibility Score: inf
ROOT
ATOM      1  C   UNL A   1      36.579  21.064  24.598  1.00  0.00     0.023 C 
ENDROOT
BRANCH   1   2
ATOM      2  C   UNL A   1      35.155  20.753  25.043  1.00  0.00     0.116 C 
BRANCH   2   3
ATOM      3  N   UNL A   1      34.809  21.326  26.324  1.00  0.00    -0.351 N 
ATOM      4  C   UNL A   1      34.038  22.401  26.655  1.00  0.00     0.279 C 
ATOM      5  O   UNL A   1      33.945  22.660  27.862  1.00  0.00    -0.268 OA
ATOM      6  H   UNL A   1      35.199  20.856  27.095  1.00  0.00     0.163 HD
BRANCH   4   7
ATOM      7  C   UNL A   1      33.341  23.326  25.630  1.00  0.00     0.289 C 
ATOM      8  C   UNL A   1      32.659  25.508  24.993  1.00  0.00     0.275 C 
ATOM      9  N   UNL A   1      33.529  24.774  25.910  1.00  0.00    -0.320 N 
ATOM     10  S   UNL A   1      31.198  24.515  24.593  1.00  0.00    -0.081 SA
ATOM     11  H   UNL A   1      33.273  24.978  26.876  1.00  0.00     0.348 HD
ATOM     12  H   UNL A   1      34.504  25.044  25.778  1.00  0.00     0.348 HD
ATOM     13  C   UNL A   1      31.876  22.956  25.290  1.00  0.00     0.077 C 
ATOM     14  C   UNL A   1      30.951  22.532  26.429  1.00  0.00     0.030 C 
ATOM     15  C   UNL A   1      31.839  21.851  24.222  1.00  0.00     0.030 C 
BRANCH   8  16
ATOM     16  C   UNL A   1      32.353  26.950  25.416  1.00  0.00     0.029 A 
ATOM     17  C   UNL A   1      31.957  28.021  24.555  1.00  0.00     0.016 A 
ATOM     18  C   UNL A   1      31.646  29.267  25.135  1.00  0.00     0.010 A 
ATOM     19  C   UNL A   1      31.756  29.493  26.505  1.00  0.00     0.001 A 
ATOM     20  C   UNL A   1      32.462  27.216  26.803  1.00  0.00     0.011 A 
ATOM     21  C   UNL A   1      32.170  28.468  27.340  1.00  0.00     0.001 A 
BRANCH  17  22
ATOM     22  C   UNL A   1      31.728  27.814  23.068  1.00  0.00     0.299 C 
BRANCH  22  23
ATOM     23  N   UNL A   1      32.824  27.681  22.108  1.00  0.00    -0.336 N 
ATOM     24  C   UNL A   1      34.048  28.394  22.428  1.00  0.00     0.332 C 
ATOM     25  C   UNL A   1      33.030  26.344  21.581  1.00  0.00     0.332 C 
ATOM     26  H   UNL A   1      32.458  28.205  21.313  1.00  0.00     0.347 HD
ENDBRANCH  22  23
ENDBRANCH  17  22
ENDBRANCH   8  16
ENDBRANCH   4   7
ENDBRANCH   2   3
ENDBRANCH   1   2
BRANCH   1  27
ATOM     27  C   UNL A   1      37.567  19.921  24.754  1.00  0.00     0.023 C 
BRANCH  27  28
ATOM     28  C   UNL A   1      38.493  20.028  25.957  1.00  0.00     0.116 C 
BRANCH  28  29
ATOM     29  N   UNL A   1      39.706  19.225  25.846  1.00  0.00    -0.352 N 
ATOM     30  C   UNL A   1      41.008  19.599  26.098  1.00  0.00     0.251 C 
ATOM     31  H   UNL A   1      39.578  18.293  25.554  1.00  0.00     0.163 HD
ATOM     32  O   UNL A   1      41.932  18.824  25.898  1.00  0.00    -0.269 OA
BRANCH  30  33
ATOM     33  C   UNL A   1      41.267  20.976  26.572  1.00  0.00     0.039 A 
ATOM     34  C   UNL A   1      42.071  21.168  27.698  1.00  0.00     0.014 A 
ATOM     35  C   UNL A   1      40.801  22.069  25.837  1.00  0.00     0.014 A 
ATOM     36  C   UNL A   1      42.483  22.460  28.034  1.00  0.00     0.010 A 
ATOM     37  C   UNL A   1      41.289  23.339  26.118  1.00  0.00     0.010 A 
ATOM     38  C   UNL A   1      42.135  23.550  27.218  1.00  0.00    -0.014 A 
BRANCH  38  39
ATOM     39  C   UNL A   1      42.644  24.921  27.483  1.00  0.00     0.031 A 
ATOM     40  C   UNL A   1      41.749  25.934  28.148  1.00  0.00     0.074 A 
ATOM     41  C   UNL A   1      43.858  25.289  27.024  1.00  0.00     0.049 A 
ATOM     42  N   UNL A   1      41.966  27.203  28.374  1.00  0.00    -0.248 NA
ATOM     43  C   UNL A   1      40.419  25.471  28.580  1.00  0.00     0.031 C 
ATOM     44  C   UNL A   1      44.779  24.431  26.273  1.00  0.00     0.029 A 
ATOM     45  N   UNL A   1      44.513  26.494  27.091  1.00  0.00    -0.354 N 
ATOM     46  C   UNL A   1      40.788  27.698  28.919  1.00  0.00     0.074 A 
ATOM     47  C   UNL A   1      39.847  26.603  28.964  1.00  0.00     0.031 C 
ATOM     48  C   UNL A   1      45.878  25.135  25.955  1.00  0.00     0.029 A 
ATOM     49  C   UNL A   1      45.734  26.498  26.455  1.00  0.00     0.049 A 
ATOM     50  H   UNL A   1      44.144  27.282  27.552  1.00  0.00     0.167 HD
ATOM     51  C   UNL A   1      40.524  28.944  29.377  1.00  0.00     0.034 A 
ATOM     52  C   UNL A   1      46.634  27.489  26.293  1.00  0.00     0.034 A 
ATOM     53  C   UNL A   1      41.490  30.005  29.414  1.00  0.00     0.049 A 
ATOM     54  C   UNL A   1      46.350  28.836  26.903  1.00  0.00     0.074 A 
ATOM     55  C   UNL A   1      41.360  31.266  29.970  1.00  0.00     0.029 A 
ATOM     56  N   UNL A   1      42.767  29.930  28.883  1.00  0.00    -0.354 N 
ATOM     57  N   UNL A   1      45.298  29.231  27.579  1.00  0.00    -0.248 NA
ATOM     58  C   UNL A   1      47.393  29.864  26.765  1.00  0.00     0.031 C 
ATOM     59  C   UNL A   1      42.560  31.955  29.771  1.00  0.00     0.029 A 
ATOM     60  C   UNL A   1      43.438  31.120  29.099  1.00  0.00     0.049 A 
ATOM     61  H   UNL A   1      43.141  29.146  28.421  1.00  0.00     0.167 HD
ATOM     62  C   UNL A   1      45.569  30.535  27.978  1.00  0.00     0.074 A 
ATOM     63  C   UNL A   1      46.893  30.857  27.488  1.00  0.00     0.031 C 
ATOM     64  C   UNL A   1      44.784  31.397  28.670  1.00  0.00     0.034 A 
BRANCH  51  65
ATOM     65  C   UNL A   1      39.158  29.208  29.952  1.00  0.00     0.023 A 
ATOM     66  C   UNL A   1      38.856  28.752  31.251  1.00  0.00     0.012 A 
ATOM     67  C   UNL A   1      38.206  29.966  29.243  1.00  0.00     0.148 A 
ATOM     68  C   UNL A   1      37.616  29.024  31.827  1.00  0.00     0.002 A 
ATOM     69  C   UNL A   1      36.988  30.269  29.841  1.00  0.00     0.091 A 
ATOM     70  F   UNL A   1      38.508  30.372  28.002  1.00  0.00    -0.205 F 
ATOM     71  C   UNL A   1      36.689  29.791  31.128  1.00  0.00     0.022 A 
BRANCH  69  72
ATOM     72  S   UNL A   1      35.754  31.313  29.057  1.00  0.00     0.127 S 
ATOM     73  O   UNL A   1      34.989  31.781  30.213  1.00  0.00    -0.237 OA
ATOM     74  O   UNL A   1      36.580  32.338  28.418  1.00  0.00    -0.237 OA
ATOM     75  O   UNL A   1      35.026  30.454  28.135  1.00  0.00    -0.744 OA
ENDBRANCH  69  72
ENDBRANCH  51  65
BRANCH  52  76
ATOM     76  C   UNL A   1      47.927  27.226  25.598  1.00  0.00     0.023 A 
ATOM     77  C   UNL A   1      49.025  26.756  26.344  1.00  0.00     0.012 A 
ATOM     78  C   UNL A   1      48.076  27.426  24.213  1.00  0.00     0.148 A 
ATOM     79  C   UNL A   1      50.259  26.527  25.733  1.00  0.00     0.002 A 
ATOM     80  C   UNL A   1      49.293  27.147  23.600  1.00  0.00     0.091 A 
ATOM     81  F   UNL A   1      47.028  27.891  23.517  1.00  0.00    -0.205 F 
ATOM     82  C   UNL A   1      50.391  26.715  24.360  1.00  0.00     0.022 A 
BRANCH  80  83
ATOM     83  S   UNL A   1      49.500  27.237  21.817  1.00  0.00     0.127 S 
ATOM     84  O   UNL A   1      49.185  28.636  21.547  1.00  0.00    -0.237 OA
ATOM     85  O   UNL A   1      50.910  26.880  21.649  1.00  0.00    -0.237 OA
ATOM     86  O   UNL A   1      48.571  26.251  21.277  1.00  0.00    -0.744 OA
ENDBRANCH  80  83
ENDBRANCH  52  76
BRANCH  64  87
ATOM     87  C   UNL A   1      45.341  32.759  28.980  1.00  0.00     0.023 A 
ATOM     88  C   UNL A   1      46.134  32.942  30.129  1.00  0.00     0.012 A 
ATOM     89  C   UNL A   1      45.155  33.832  28.087  1.00  0.00     0.148 A 
ATOM     90  C   UNL A   1      46.714  34.180  30.398  1.00  0.00     0.002 A 
ATOM     91  C   UNL A   1      45.773  35.051  28.338  1.00  0.00     0.091 A 
ATOM     92  F   UNL A   1      44.379  33.642  27.009  1.00  0.00    -0.205 F 
ATOM     93  C   UNL A   1      46.545  35.230  29.498  1.00  0.00     0.022 A 
BRANCH  91  94
ATOM     94  S   UNL A   1      45.686  36.423  27.182  1.00  0.00     0.127 S 
ATOM     95  O   UNL A   1      44.261  36.749  27.211  1.00  0.00    -0.237 OA
ATOM     96  O   UNL A   1      46.553  37.420  27.811  1.00  0.00    -0.237 OA
ATOM     97  O   UNL A   1      46.187  35.906  25.915  1.00  0.00    -0.744 OA
ENDBRANCH  91  94
ENDBRANCH  64  87
ENDBRANCH  38  39
ENDBRANCH  30  33
ENDBRANCH  28  29
ENDBRANCH  27  28
ENDBRANCH   1  27
TORSDOF 17
ENDMDL
MODEL 2
REMARK VINA RESULT:     -11.7      1.639      2.151
REMARK SMILES C[NH+](C)Cc1ccccc1[C@H]1[NH2+][C@@H](C(=O)NCCCCNC(=O)c2ccc(-c3c4nc(c(-c5cccc(S(=O)(=O)[O-])c5F)c5ccc([nH]5)c(-c5cccc(S(=O)(=O)[O-])c5F)c5nc(c(-c6cccc(S(=O)(=O)[O-])c6F)c6ccc3[nH]6)C=C5)C=C4)cc2)C(C)(C)S1
REMARK SMILES IDX 18 1 17 2 16 3 14 4 15 5 13 7 11 8 12 9 90 10 87 13 88 14
REMARK SMILES IDX 89 15 10 16 5 17 6 18 7 19 9 20 8 21 4 22 2 23 1 24 3 25
REMARK SMILES IDX 19 27 20 28 21 29 22 30 23 32 24 33 25 34 86 35 26 36 85 37
REMARK SMILES IDX 27 38 28 39 29 40 79 41 30 42 84 43 78 44 80 45 31 46 83 47
REMARK SMILES IDX 77 48 76 49 32 51 64 52 44 53 63 54 45 55 48 56 62 57 81 58
REMARK SMILES IDX 46 59 47 60 61 62 82 63 49 64 33 65 34 66 42 67 35 68 37 69
REMARK SMILES IDX 43 70 36 71 38 72 39 73 40 74 41 75 65 76 66 77 74 78 67 79
REMARK SMILES IDX 69 80 75 81 68 82 70 83 71 84 72 85 73 86 50 87 51 88 59 89
REMARK SMILES IDX 52 90 54 91 60 92 53 93 55 94 56 95 57 96 58 97
REMARK H PARENT 16 6 12 11 12 12 2 26 21 31 80 50 48 61
REMARK Flexibility Score: inf
ROOT
ATOM      1  C   UNL A   1      34.374  21.004  25.011  1.00  0.00     0.023 C 
ENDROOT
BRANCH   1   2
ATOM      2  C   UNL A   1      33.196  21.644  24.286  1.00  0.00     0.116 C 
BRANCH   2   3
ATOM      3  N   UNL A   1      33.579  22.695  23.370  1.00  0.00    -0.351 N 
ATOM      4  C   UNL A   1      33.092  23.954  23.182  1.00  0.00     0.279 C 
ATOM      5  O   UNL A   1      33.626  24.622  22.288  1.00  0.00    -0.268 OA
ATOM      6  H   UNL A   1      34.328  22.458  22.776  1.00  0.00     0.163 HD
BRANCH   4   7
ATOM      7  C   UNL A   1      31.899  24.554  23.962  1.00  0.00     0.289 C 
ATOM      8  C   UNL A   1      30.091  26.090  24.049  1.00  0.00     0.275 C 
ATOM      9  N   UNL A   1      31.039  25.447  23.141  1.00  0.00    -0.320 N 
ATOM     10  S   UNL A   1      30.830  26.268  25.693  1.00  0.00    -0.081 SA
ATOM     11  H   UNL A   1      31.611  26.151  22.676  1.00  0.00     0.348 HD
ATOM     12  H   UNL A   1      30.548  24.915  22.422  1.00  0.00     0.348 HD
ATOM     13  C   UNL A   1      32.244  25.148  25.350  1.00  0.00     0.077 C 
ATOM     14  C   UNL A   1      33.520  25.978  25.487  1.00  0.00     0.030 C 
ATOM     15  C   UNL A   1      32.294  24.036  26.409  1.00  0.00     0.030 C 
BRANCH   8  16
ATOM     16  C   UNL A   1      29.440  27.365  23.500  1.00  0.00     0.029 A 
ATOM     17  C   UNL A   1      30.112  28.449  22.852  1.00  0.00     0.016 A 
ATOM     18  C   UNL A   1      29.335  29.510  22.345  1.00  0.00     0.010 A 
ATOM     19  C   UNL A   1      27.951  29.553  22.498  1.00  0.00     0.001 A 
ATOM     20  C   UNL A   1      28.033  27.444  23.646  1.00  0.00     0.011 A 
ATOM     21  C   UNL A   1      27.299  28.522  23.153  1.00  0.00     0.001 A 
BRANCH  17  22
ATOM     22  C   UNL A   1      31.603  28.418  22.571  1.00  0.00     0.299 C 
BRANCH  22  23
ATOM     23  N   UNL A   1      32.565  29.236  23.309  1.00  0.00    -0.336 N 
ATOM     24  C   UNL A   1      32.240  29.516  24.696  1.00  0.00     0.332 C 
ATOM     25  C   UNL A   1      33.962  28.916  23.074  1.00  0.00     0.332 C 
ATOM     26  H   UNL A   1      32.442  30.143  22.860  1.00  0.00     0.347 HD
ENDBRANCH  22  23
ENDBRANCH  17  22
ENDBRANCH   8  16
ENDBRANCH   4   7
ENDBRANCH   2   3
ENDBRANCH   1   2
BRANCH   1  27
ATOM     27  C   UNL A   1      35.742  21.512  24.589  1.00  0.00     0.023 C 
BRANCH  27  28
ATOM     28  C   UNL A   1      36.780  21.569  25.701  1.00  0.00     0.116 C 
BRANCH  28  29
ATOM     29  N   UNL A   1      37.830  20.562  25.585  1.00  0.00    -0.352 N 
ATOM     30  C   UNL A   1      39.158  20.664  25.940  1.00  0.00     0.251 C 
ATOM     31  H   UNL A   1      37.554  19.697  25.204  1.00  0.00     0.163 HD
ATOM     32  O   UNL A   1      39.936  19.746  25.722  1.00  0.00    -0.269 OA
BRANCH  30  33
ATOM     33  C   UNL A   1      39.631  21.927  26.548  1.00  0.00     0.039 A 
ATOM     34  C   UNL A   1      40.651  21.883  27.500  1.00  0.00     0.014 A 
ATOM     35  C   UNL A   1      39.135  23.151  26.093  1.00  0.00     0.014 A 
ATOM     36  C   UNL A   1      41.239  23.075  27.931  1.00  0.00     0.010 A 
ATOM     37  C   UNL A   1      39.784  24.326  26.451  1.00  0.00     0.010 A 
ATOM     38  C   UNL A   1      40.843  24.302  27.374  1.00  0.00    -0.014 A 
BRANCH  38  39
ATOM     39  C   UNL A   1      41.519  25.578  27.727  1.00  0.00     0.031 A 
ATOM     40  C   UNL A   1      40.765  26.636  28.488  1.00  0.00     0.074 A 
ATOM     41  C   UNL A   1      42.761  25.831  27.266  1.00  0.00     0.049 A 
ATOM     42  N   UNL A   1      41.139  27.849  28.802  1.00  0.00    -0.248 NA
ATOM     43  C   UNL A   1      39.395  26.305  28.917  1.00  0.00     0.031 C 
ATOM     44  C   UNL A   1      43.559  24.929  26.431  1.00  0.00     0.029 A 
ATOM     45  N   UNL A   1      43.559  26.940  27.407  1.00  0.00    -0.354 N 
ATOM     46  C   UNL A   1      40.038  28.438  29.412  1.00  0.00     0.074 A 
ATOM     47  C   UNL A   1      38.972  27.464  29.398  1.00  0.00     0.031 C 
ATOM     48  C   UNL A   1      44.731  25.518  26.139  1.00  0.00     0.029 A 
ATOM     49  C   UNL A   1      44.761  26.846  26.742  1.00  0.00     0.049 A 
ATOM     50  H   UNL A   1      43.296  27.729  27.934  1.00  0.00     0.167 HD
ATOM     51  C   UNL A   1      39.935  29.669  29.968  1.00  0.00     0.034 A 
ATOM     52  C   UNL A   1      45.773  27.732  26.632  1.00  0.00     0.034 A 
ATOM     53  C   UNL A   1      41.023  30.600  30.059  1.00  0.00     0.049 A 
ATOM     54  C   UNL A   1      45.665  29.052  27.348  1.00  0.00     0.074 A 
ATOM     55  C   UNL A   1      41.057  31.820  30.711  1.00  0.00     0.029 A 
ATOM     56  N   UNL A   1      42.273  30.413  29.493  1.00  0.00    -0.354 N 
ATOM     57  N   UNL A   1      44.679  29.517  28.077  1.00  0.00    -0.248 NA
ATOM     58  C   UNL A   1      46.823  29.954  27.261  1.00  0.00     0.031 C 
ATOM     59  C   UNL A   1      42.328  32.374  30.533  1.00  0.00     0.029 A 
ATOM     60  C   UNL A   1      43.087  31.494  29.779  1.00  0.00     0.049 A 
ATOM     61  H   UNL A   1      42.542  29.627  28.964  1.00  0.00     0.167 HD
ATOM     62  C   UNL A   1      45.113  30.745  28.566  1.00  0.00     0.074 A 
ATOM     63  C   UNL A   1      46.458  30.942  28.068  1.00  0.00     0.031 C 
ATOM     64  C   UNL A   1      44.450  31.639  29.339  1.00  0.00     0.034 A 
BRANCH  51  65
ATOM     65  C   UNL A   1      38.621  30.049  30.595  1.00  0.00     0.023 A 
ATOM     66  C   UNL A   1      38.361  29.685  31.931  1.00  0.00     0.012 A 
ATOM     67  C   UNL A   1      37.680  30.828  29.892  1.00  0.00     0.148 A 
ATOM     68  C   UNL A   1      37.173  30.065  32.552  1.00  0.00     0.002 A 
ATOM     69  C   UNL A   1      36.517  31.239  30.532  1.00  0.00     0.091 A 
ATOM     70  F   UNL A   1      37.938  31.147  28.616  1.00  0.00    -0.205 F 
ATOM     71  C   UNL A   1      36.258  30.851  31.858  1.00  0.00     0.022 A 
BRANCH  69  72
ATOM     72  S   UNL A   1      35.308  32.316  29.754  1.00  0.00     0.127 S 
ATOM     73  O   UNL A   1      34.398  32.590  30.867  1.00  0.00    -0.237 OA
ATOM     74  O   UNL A   1      36.131  33.456  29.346  1.00  0.00    -0.237 OA
ATOM     75  O   UNL A   1      34.736  31.552  28.655  1.00  0.00    -0.744 OA
ENDBRANCH  69  72
ENDBRANCH  51  65
BRANCH  52  76
ATOM     76  C   UNL A   1      47.013  27.369  25.887  1.00  0.00     0.023 A 
ATOM     77  C   UNL A   1      48.037  26.671  26.556  1.00  0.00     0.012 A 
ATOM     78  C   UNL A   1      47.183  27.699  24.530  1.00  0.00     0.148 A 
ATOM     79  C   UNL A   1      49.224  26.342  25.899  1.00  0.00     0.002 A 
ATOM     80  C   UNL A   1      48.346  27.322  23.866  1.00  0.00     0.091 A 
ATOM     81  F   UNL A   1      46.208  28.380  23.910  1.00  0.00    -0.205 F 
ATOM     82  C   UNL A   1      49.375  26.660  24.553  1.00  0.00     0.022 A 
BRANCH  80  83
ATOM     83  S   UNL A   1      48.557  27.579  22.100  1.00  0.00     0.127 S 
ATOM     84  O   UNL A   1      49.787  28.363  22.054  1.00  0.00    -0.237 OA
ATOM     85  O   UNL A   1      48.681  26.210  21.599  1.00  0.00    -0.237 OA
ATOM     86  O   UNL A   1      47.343  28.260  21.668  1.00  0.00    -0.744 OA
ENDBRANCH  80  83
ENDBRANCH  52  76
BRANCH  64  87
ATOM     87  C   UNL A   1      45.174  32.897  29.735  1.00  0.00     0.023 A 
ATOM     88  C   UNL A   1      45.963  32.907  30.902  1.00  0.00     0.012 A 
ATOM     89  C   UNL A   1      45.145  34.035  28.906  1.00  0.00     0.148 A 
ATOM     90  C   UNL A   1      46.694  34.041  31.250  1.00  0.00     0.002 A 
ATOM     91  C   UNL A   1      45.911  35.146  29.236  1.00  0.00     0.091 A 
ATOM     92  F   UNL A   1      44.370  34.010  27.811  1.00  0.00    -0.205 F 
ATOM     93  C   UNL A   1      46.678  35.155  30.413  1.00  0.00     0.022 A 
BRANCH  91  94
ATOM     94  S   UNL A   1      46.023  36.581  28.163  1.00  0.00     0.127 S 
ATOM     95  O   UNL A   1      44.762  37.265  28.445  1.00  0.00    -0.237 OA
ATOM     96  O   UNL A   1      47.214  37.263  28.674  1.00  0.00    -0.237 OA
ATOM     97  O   UNL A   1      46.166  36.057  26.811  1.00  0.00    -0.744 OA
ENDBRANCH  91  94
ENDBRANCH  64  87
ENDBRANCH  38  39
ENDBRANCH  30  33
ENDBRANCH  28  29
ENDBRANCH  27  28
ENDBRANCH   1  27
TORSDOF 17
ENDMDL
MODEL 3
REMARK VINA RESULT:     -11.7      5.231      8.656
REMARK SMILES C[NH+](C)Cc1ccccc1[C@H]1[NH2+][C@@H](C(=O)NCCCCNC(=O)c2ccc(-c3c4nc(c(-c5cccc(S(=O)(=O)[O-])c5F)c5ccc([nH]5)c(-c5cccc(S(=O)(=O)[O-])c5F)c5nc(c(-c6cccc(S(=O)(=O)[O-])c6F)c6ccc3[nH]6)C=C5)C=C4)cc2)C(C)(C)S1
REMARK SMILES IDX 18 1 17 2 16 3 14 4 15 5 13 7 11 8 12 9 90 10 87 13 88 14
REMARK SMILES IDX 89 15 10 16 5 17 6 18 7 19 9 20 8 21 4 22 2 23 1 24 3 25
REMARK SMILES IDX 19 27 20 28 21 29 22 30 23 32 24 33 25 34 86 35 26 36 85 37
REMARK SMILES IDX 27 38 28 39 29 40 79 41 30 42 84 43 78 44 80 45 31 46 83 47
REMARK SMILES IDX 77 48 76 49 32 51 64 52 44 53 63 54 45 55 48 56 62 57 81 58
REMARK SMILES IDX 46 59 47 60 61 62 82 63 49 64 33 65 34 66 42 67 35 68 37 69
REMARK SMILES IDX 43 70 36 71 38 72 39 73 40 74 41 75 65 76 66 77 74 78 67 79
REMARK SMILES IDX 69 80 75 81 68 82 70 83 71 84 72 85 73 86 50 87 51 88 59 89
REMARK SMILES IDX 52 90 54 91 60 92 53 93 55 94 56 95 57 96 58 97
REMARK H PARENT 16 6 12 11 12 12 2 26 21 31 80 50 48 61
REMARK Flexibility Score: inf
ROOT
ATOM      1  C   UNL A   1      31.898  29.093  23.665  1.00  0.00     0.023 C 
ENDROOT
BRANCH   1   2
ATOM      2  C   UNL A   1      30.828  28.401  22.829  1.00  0.00     0.116 C 
BRANCH   2   3
ATOM      3  N   UNL A   1      31.347  27.373  21.956  1.00  0.00    -0.351 N 
ATOM      4  C   UNL A   1      32.041  26.229  22.217  1.00  0.00     0.279 C 
ATOM      5  O   UNL A   1      32.371  25.550  21.237  1.00  0.00    -0.268 OA
ATOM      6  H   UNL A   1      31.167  27.527  21.000  1.00  0.00     0.163 HD
BRANCH   4   7
ATOM      7  C   UNL A   1      32.479  25.777  23.629  1.00  0.00     0.289 C 
ATOM      8  C   UNL A   1      34.042  24.641  25.009  1.00  0.00     0.275 C 
ATOM      9  N   UNL A   1      33.850  25.202  23.672  1.00  0.00    -0.320 N 
ATOM     10  S   UNL A   1      32.455  24.084  25.683  1.00  0.00    -0.081 SA
ATOM     11  H   UNL A   1      33.943  24.470  22.968  1.00  0.00     0.348 HD
ATOM     12  H   UNL A   1      34.549  25.919  23.477  1.00  0.00     0.348 HD
ATOM     13  C   UNL A   1      31.440  24.933  24.409  1.00  0.00     0.077 C 
ATOM     14  C   UNL A   1      30.669  23.852  23.654  1.00  0.00     0.030 C 
ATOM     15  C   UNL A   1      30.412  25.849  25.091  1.00  0.00     0.030 C 
BRANCH   8  16
ATOM     16  C   UNL A   1      35.176  23.614  25.116  1.00  0.00     0.029 A 
ATOM     17  C   UNL A   1      35.150  22.268  24.636  1.00  0.00     0.016 A 
ATOM     18  C   UNL A   1      36.319  21.490  24.760  1.00  0.00     0.010 A 
ATOM     19  C   UNL A   1      37.471  21.979  25.371  1.00  0.00     0.001 A 
ATOM     20  C   UNL A   1      36.361  24.077  25.740  1.00  0.00     0.011 A 
ATOM     21  C   UNL A   1      37.491  23.272  25.867  1.00  0.00     0.001 A 
BRANCH  17  22
ATOM     22  C   UNL A   1      33.960  21.707  23.878  1.00  0.00     0.299 C 
BRANCH  22  23
ATOM     23  N   UNL A   1      33.250  20.500  24.299  1.00  0.00    -0.336 N 
ATOM     24  C   UNL A   1      34.073  19.343  24.603  1.00  0.00     0.332 C 
ATOM     25  C   UNL A   1      32.154  20.715  25.227  1.00  0.00     0.332 C 
ATOM     26  H   UNL A   1      32.788  20.227  23.432  1.00  0.00     0.347 HD
ENDBRANCH  22  23
ENDBRANCH  17  22
ENDBRANCH   8  16
ENDBRANCH   4   7
ENDBRANCH   2   3
ENDBRANCH   1   2
BRANCH   1  27
ATOM     27  C   UNL A   1      31.481  29.444  25.082  1.00  0.00     0.023 C 
BRANCH  27  28
ATOM     28  C   UNL A   1      32.593  29.990  25.966  1.00  0.00     0.116 C 
BRANCH  28  29
ATOM     29  N   UNL A   1      32.359  31.349  26.444  1.00  0.00    -0.352 N 
ATOM     30  C   UNL A   1      33.159  32.121  27.258  1.00  0.00     0.251 C 
ATOM     31  H   UNL A   1      31.520  31.770  26.145  1.00  0.00     0.163 HD
ATOM     32  O   UNL A   1      32.795  33.229  27.624  1.00  0.00    -0.269 OA
BRANCH  30  33
ATOM     33  C   UNL A   1      34.450  31.561  27.715  1.00  0.00     0.039 A 
ATOM     34  C   UNL A   1      35.516  32.426  27.967  1.00  0.00     0.014 A 
ATOM     35  C   UNL A   1      34.561  30.196  27.993  1.00  0.00     0.014 A 
ATOM     36  C   UNL A   1      36.668  31.933  28.586  1.00  0.00     0.010 A 
ATOM     37  C   UNL A   1      35.667  29.730  28.692  1.00  0.00     0.010 A 
ATOM     38  C   UNL A   1      36.733  30.591  28.997  1.00  0.00    -0.014 A 
BRANCH  38  39
ATOM     39  C   UNL A   1      37.896  30.059  29.754  1.00  0.00     0.031 A 
ATOM     40  C   UNL A   1      38.140  30.517  31.167  1.00  0.00     0.074 A 
ATOM     41  C   UNL A   1      38.792  29.261  29.136  1.00  0.00     0.049 A 
ATOM     42  N   UNL A   1      39.147  30.252  31.957  1.00  0.00    -0.248 NA
ATOM     43  C   UNL A   1      37.142  31.426  31.758  1.00  0.00     0.031 C 
ATOM     44  C   UNL A   1      38.724  28.828  27.738  1.00  0.00     0.029 A 
ATOM     45  N   UNL A   1      39.957  28.699  29.597  1.00  0.00    -0.354 N 
ATOM     46  C   UNL A   1      38.933  31.000  33.108  1.00  0.00     0.074 A 
ATOM     47  C   UNL A   1      37.718  31.754  32.906  1.00  0.00     0.031 C 
ATOM     48  C   UNL A   1      39.796  28.067  27.458  1.00  0.00     0.029 A 
ATOM     49  C   UNL A   1      40.639  27.976  28.646  1.00  0.00     0.049 A 
ATOM     50  H   UNL A   1      40.275  28.804  30.524  1.00  0.00     0.167 HD
ATOM     51  C   UNL A   1      39.663  31.030  34.248  1.00  0.00     0.034 A 
ATOM     52  C   UNL A   1      41.812  27.314  28.722  1.00  0.00     0.034 A 
ATOM     53  C   UNL A   1      40.820  30.212  34.479  1.00  0.00     0.049 A 
ATOM     54  C   UNL A   1      42.547  27.286  30.036  1.00  0.00     0.074 A 
ATOM     55  C   UNL A   1      41.557  30.077  35.643  1.00  0.00     0.029 A 
ATOM     56  N   UNL A   1      41.404  29.385  33.535  1.00  0.00    -0.354 N 
ATOM     57  N   UNL A   1      42.228  27.856  31.172  1.00  0.00    -0.248 NA
ATOM     58  C   UNL A   1      43.783  26.490  30.091  1.00  0.00     0.031 C 
ATOM     59  C   UNL A   1      42.591  29.168  35.399  1.00  0.00     0.029 A 
ATOM     60  C   UNL A   1      42.492  28.733  34.088  1.00  0.00     0.049 A 
ATOM     61  H   UNL A   1      41.092  29.276  32.608  1.00  0.00     0.167 HD
ATOM     62  C   UNL A   1      43.198  27.458  32.085  1.00  0.00     0.074 A 
ATOM     63  C   UNL A   1      44.105  26.580  31.375  1.00  0.00     0.031 C 
ATOM     64  C   UNL A   1      43.339  27.804  33.387  1.00  0.00     0.034 A 
BRANCH  51  65
ATOM     65  C   UNL A   1      39.186  31.917  35.366  1.00  0.00     0.023 A 
ATOM     66  C   UNL A   1      38.273  31.407  36.311  1.00  0.00     0.012 A 
ATOM     67  C   UNL A   1      39.694  33.221  35.525  1.00  0.00     0.148 A 
ATOM     68  C   UNL A   1      37.852  32.190  37.384  1.00  0.00     0.002 A 
ATOM     69  C   UNL A   1      39.301  33.981  36.621  1.00  0.00     0.091 A 
ATOM     70  F   UNL A   1      40.546  33.693  34.603  1.00  0.00    -0.205 F 
ATOM     71  C   UNL A   1      38.374  33.470  37.545  1.00  0.00     0.022 A 
BRANCH  69  72
ATOM     72  S   UNL A   1      39.971  35.612  36.963  1.00  0.00     0.127 S 
ATOM     73  O   UNL A   1      39.259  35.971  38.190  1.00  0.00    -0.237 OA
ATOM     74  O   UNL A   1      41.394  35.327  37.146  1.00  0.00    -0.237 OA
ATOM     75  O   UNL A   1      39.657  36.429  35.800  1.00  0.00    -0.744 OA
ENDBRANCH  69  72
ENDBRANCH  51  65
BRANCH  52  76
ATOM     76  C   UNL A   1      42.324  26.552  27.547  1.00  0.00     0.023 A 
ATOM     77  C   UNL A   1      43.101  27.219  26.580  1.00  0.00     0.012 A 
ATOM     78  C   UNL A   1      42.058  25.180  27.383  1.00  0.00     0.148 A 
ATOM     79  C   UNL A   1      43.572  26.545  25.452  1.00  0.00     0.002 A 
ATOM     80  C   UNL A   1      42.574  24.500  26.284  1.00  0.00     0.091 A 
ATOM     81  F   UNL A   1      41.302  24.560  28.301  1.00  0.00    -0.205 F 
ATOM     82  C   UNL A   1      43.315  25.184  25.308  1.00  0.00     0.022 A 
BRANCH  80  83
ATOM     83  S   UNL A   1      42.398  22.722  26.099  1.00  0.00     0.127 S 
ATOM     84  O   UNL A   1      43.029  22.490  24.804  1.00  0.00    -0.237 OA
ATOM     85  O   UNL A   1      43.146  22.214  27.249  1.00  0.00    -0.237 OA
ATOM     86  O   UNL A   1      40.963  22.473  26.169  1.00  0.00    -0.744 OA
ENDBRANCH  80  83
ENDBRANCH  52  76
BRANCH  64  87
ATOM     87  C   UNL A   1      44.489  27.207  34.152  1.00  0.00     0.023 A 
ATOM     88  C   UNL A   1      45.727  27.878  34.184  1.00  0.00     0.012 A 
ATOM     89  C   UNL A   1      44.316  26.033  34.911  1.00  0.00     0.148 A 
ATOM     90  C   UNL A   1      46.784  27.375  34.940  1.00  0.00     0.002 A 
ATOM     91  C   UNL A   1      45.360  25.562  35.698  1.00  0.00     0.091 A 
ATOM     92  F   UNL A   1      43.135  25.399  34.849  1.00  0.00    -0.205 F 
ATOM     93  C   UNL A   1      46.598  26.226  35.706  1.00  0.00     0.022 A 
BRANCH  91  94
ATOM     94  S   UNL A   1      45.172  24.148  36.788  1.00  0.00     0.127 S 
ATOM     95  O   UNL A   1      46.541  23.949  37.259  1.00  0.00    -0.237 OA
ATOM     96  O   UNL A   1      44.245  24.653  37.802  1.00  0.00    -0.237 OA
ATOM     97  O   UNL A   1      44.630  23.077  35.960  1.00  0.00    -0.744 OA
ENDBRANCH  91  94
ENDBRANCH  64  87
ENDBRANCH  38  39
ENDBRANCH  30  33
ENDBRANCH  28  29
ENDBRANCH  27  28
ENDBRANCH   1  27
TORSDOF 17
ENDMDL
