MODEL 1
REMARK VINA RESULT:      -9.9      0.000      0.000
REMARK SMILES C[C@@H]1CC[N@@H+]1[C@@H](CO)C(=O)NCCCCNC(=O)c1ccc(-c2c3nc(c(-c4cccc(S(=O)(=O)[O-])c4F)c4ccc([nH]4)c(-c4cccc(S(=O)(=O)[O-])c4F)c4nc(c(-c5cccc(S(=O)(=O)[O-])c5F)c5ccc2[nH]5)C=C4)C=C3)cc1
REMARK SMILES IDX 14 1 13 2 12 3 11 4 9 5 10 6 6 8 5 9 1 10 2 11 3 12 4 13
REMARK SMILES IDX 7 15 8 16 15 18 16 19 17 20 18 22 19 23 20 24 81 25 21 26
REMARK SMILES IDX 80 27 22 28 23 29 24 30 74 31 25 32 79 33 73 34 75 35 26 36
REMARK SMILES IDX 78 37 72 38 71 39 27 41 59 42 39 43 58 44 40 45 43 46 57 47
REMARK SMILES IDX 76 48 41 49 42 50 56 52 77 53 44 54 28 55 29 56 37 57 30 58
REMARK SMILES IDX 32 59 38 60 31 61 33 62 34 63 35 64 36 65 60 66 61 67 69 68
REMARK SMILES IDX 62 69 64 70 70 71 63 72 65 73 66 74 67 75 68 76 45 77 46 78
REMARK SMILES IDX 54 79 47 80 49 81 55 82 48 83 50 84 51 85 52 86 53 87
REMARK H PARENT 11 7 5 14 8 17 16 21 75 40 43 51
REMARK Flexibility Score: inf
ROOT
ATOM      1  C   UNL A   1      34.777  33.774  28.081  1.00  0.00     0.023 C 
ENDROOT
BRANCH   1   2
ATOM      2  C   UNL A   1      34.388  35.107  28.698  1.00  0.00     0.023 C 
BRANCH   2   3
ATOM      3  C   UNL A   1      33.359  35.024  29.829  1.00  0.00     0.116 C 
BRANCH   3   4
ATOM      4  N   UNL A   1      33.681  35.941  30.906  1.00  0.00    -0.351 N 
ATOM      5  C   UNL A   1      34.435  35.774  32.031  1.00  0.00     0.280 C 
ATOM      6  O   UNL A   1      34.464  36.731  32.817  1.00  0.00    -0.268 OA
ATOM      7  H   UNL A   1      33.288  36.839  30.808  1.00  0.00     0.163 HD
BRANCH   5   8
ATOM      8  C   UNL A   1      35.272  34.497  32.328  1.00  0.00     0.300 C 
BRANCH   8   9
ATOM      9  N   UNL A   1      36.718  34.799  32.481  1.00  0.00    -0.320 N 
ATOM     10  C   UNL A   1      37.427  33.197  30.561  1.00  0.00     0.075 C 
ATOM     11  C   UNL A   1      37.746  33.952  31.826  1.00  0.00     0.187 C 
ATOM     12  C   UNL A   1      37.913  33.194  33.162  1.00  0.00     0.126 C 
ATOM     13  C   UNL A   1      37.348  34.481  33.775  1.00  0.00     0.269 C 
ATOM     14  H   UNL A   1      36.577  35.757  32.158  1.00  0.00     0.349 HD
ENDBRANCH   8   9
BRANCH   8  15
ATOM     15  C   UNL A   1      34.412  33.427  33.050  1.00  0.00     0.231 C 
BRANCH  15  16
ATOM     16  O   UNL A   1      33.040  33.732  33.240  1.00  0.00    -0.390 OA
ATOM     17  H   UNL A   1      32.874  34.653  32.985  1.00  0.00     0.210 HD
ENDBRANCH  15  16
ENDBRANCH   8  15
ENDBRANCH   5   8
ENDBRANCH   3   4
ENDBRANCH   2   3
ENDBRANCH   1   2
BRANCH   1  18
ATOM     18  C   UNL A   1      34.290  32.549  28.839  1.00  0.00     0.116 C 
BRANCH  18  19
ATOM     19  N   UNL A   1      33.851  31.456  27.978  1.00  0.00    -0.352 N 
ATOM     20  C   UNL A   1      34.531  30.313  27.621  1.00  0.00     0.251 C 
ATOM     21  H   UNL A   1      32.945  31.549  27.601  1.00  0.00     0.163 HD
ATOM     22  O   UNL A   1      34.053  29.532  26.810  1.00  0.00    -0.269 OA
BRANCH  20  23
ATOM     23  C   UNL A   1      35.866  30.068  28.207  1.00  0.00     0.039 A 
ATOM     24  C   UNL A   1      35.956  29.463  29.461  1.00  0.00     0.014 A 
ATOM     25  C   UNL A   1      37.019  30.364  27.477  1.00  0.00     0.014 A 
ATOM     26  C   UNL A   1      37.207  29.079  29.946  1.00  0.00     0.010 A 
ATOM     27  C   UNL A   1      38.247  29.884  27.913  1.00  0.00     0.010 A 
ATOM     28  C   UNL A   1      38.357  29.246  29.156  1.00  0.00    -0.014 A 
BRANCH  28  29
ATOM     29  C   UNL A   1      39.680  28.747  29.607  1.00  0.00     0.031 A 
ATOM     30  C   UNL A   1      40.417  29.447  30.717  1.00  0.00     0.074 A 
ATOM     31  C   UNL A   1      40.262  27.722  28.955  1.00  0.00     0.049 A 
ATOM     32  N   UNL A   1      41.578  29.158  31.244  1.00  0.00    -0.248 NA
ATOM     33  C   UNL A   1      39.788  30.653  31.283  1.00  0.00     0.031 C 
ATOM     34  C   UNL A   1      39.708  27.043  27.780  1.00  0.00     0.029 A 
ATOM     35  N   UNL A   1      41.457  27.084  29.172  1.00  0.00    -0.354 N 
ATOM     36  C   UNL A   1      41.836  30.164  32.167  1.00  0.00     0.074 A 
ATOM     37  C   UNL A   1      40.736  31.099  32.093  1.00  0.00     0.031 C 
ATOM     38  C   UNL A   1      40.552  26.072  27.394  1.00  0.00     0.029 A 
ATOM     39  C   UNL A   1      41.712  26.068  28.280  1.00  0.00     0.049 A 
ATOM     40  H   UNL A   1      42.075  27.331  29.897  1.00  0.00     0.167 HD
ATOM     41  C   UNL A   1      42.871  30.279  33.032  1.00  0.00     0.034 A 
ATOM     42  C   UNL A   1      42.754  25.219  28.196  1.00  0.00     0.034 A 
ATOM     43  C   UNL A   1      43.928  29.312  33.143  1.00  0.00     0.049 A 
ATOM     44  C   UNL A   1      43.840  25.297  29.234  1.00  0.00     0.074 A 
ATOM     45  C   UNL A   1      44.961  29.266  34.062  1.00  0.00     0.029 A 
ATOM     46  N   UNL A   1      44.088  28.220  32.304  1.00  0.00    -0.354 N 
ATOM     47  N   UNL A   1      43.967  26.139  30.232  1.00  0.00    -0.248 NA
ATOM     48  C   UNL A   1      44.899  24.281  29.168  1.00  0.00     0.031 C 
ATOM     49  C   UNL A   1      45.755  28.152  33.768  1.00  0.00     0.029 A 
ATOM     50  C   UNL A   1      45.205  27.494  32.679  1.00  0.00     0.049 A 
ATOM     51  H   UNL A   1      43.496  27.995  31.551  1.00  0.00     0.167 HD
ATOM     52  C   UNL A   1      45.098  25.736  30.931  1.00  0.00     0.074 A 
ATOM     53  C   UNL A   1      45.609  24.561  30.253  1.00  0.00     0.031 C 
ATOM     54  C   UNL A   1      45.670  26.296  32.026  1.00  0.00     0.034 A 
BRANCH  41  55
ATOM     55  C   UNL A   1      42.865  31.459  33.969  1.00  0.00     0.023 A 
ATOM     56  C   UNL A   1      43.409  32.688  33.540  1.00  0.00     0.012 A 
ATOM     57  C   UNL A   1      42.303  31.366  35.256  1.00  0.00     0.148 A 
ATOM     58  C   UNL A   1      43.438  33.790  34.393  1.00  0.00     0.002 A 
ATOM     59  C   UNL A   1      42.293  32.484  36.084  1.00  0.00     0.091 A 
ATOM     60  F   UNL A   1      41.812  30.185  35.659  1.00  0.00    -0.205 F 
ATOM     61  C   UNL A   1      42.872  33.691  35.661  1.00  0.00     0.022 A 
BRANCH  59  62
ATOM     62  S   UNL A   1      41.512  32.474  37.702  1.00  0.00     0.127 S 
ATOM     63  O   UNL A   1      41.659  33.871  38.108  1.00  0.00    -0.237 OA
ATOM     64  O   UNL A   1      40.141  32.074  37.384  1.00  0.00    -0.237 OA
ATOM     65  O   UNL A   1      42.255  31.505  38.495  1.00  0.00    -0.744 OA
ENDBRANCH  59  62
ENDBRANCH  41  55
BRANCH  42  66
ATOM     66  C   UNL A   1      42.752  24.155  27.153  1.00  0.00     0.023 A 
ATOM     67  C   UNL A   1      43.488  24.351  25.968  1.00  0.00     0.012 A 
ATOM     68  C   UNL A   1      42.088  22.929  27.355  1.00  0.00     0.148 A 
ATOM     69  C   UNL A   1      43.545  23.355  24.993  1.00  0.00     0.002 A 
ATOM     70  C   UNL A   1      42.194  21.921  26.404  1.00  0.00     0.091 A 
ATOM     71  F   UNL A   1      41.389  22.766  28.487  1.00  0.00    -0.205 F 
ATOM     72  C   UNL A   1      42.909  22.137  25.215  1.00  0.00     0.022 A 
BRANCH  70  73
ATOM     73  S   UNL A   1      41.524  20.275  26.663  1.00  0.00     0.127 S 
ATOM     74  O   UNL A   1      41.908  19.597  25.428  1.00  0.00    -0.237 OA
ATOM     75  O   UNL A   1      42.250  19.839  27.857  1.00  0.00    -0.237 OA
ATOM     76  O   UNL A   1      40.094  20.458  26.866  1.00  0.00    -0.744 OA
ENDBRANCH  70  73
ENDBRANCH  42  66
BRANCH  54  77
ATOM     77  C   UNL A   1      46.900  25.635  32.587  1.00  0.00     0.023 A 
ATOM     78  C   UNL A   1      48.171  25.997  32.100  1.00  0.00     0.012 A 
ATOM     79  C   UNL A   1      46.801  24.717  33.650  1.00  0.00     0.148 A 
ATOM     80  C   UNL A   1      49.324  25.432  32.644  1.00  0.00     0.002 A 
ATOM     81  C   UNL A   1      47.956  24.194  34.220  1.00  0.00     0.091 A 
ATOM     82  F   UNL A   1      45.581  24.369  34.086  1.00  0.00    -0.205 F 
ATOM     83  C   UNL A   1      49.218  24.542  33.711  1.00  0.00     0.022 A 
BRANCH  81  84
ATOM     84  S   UNL A   1      47.911  23.119  35.657  1.00  0.00     0.127 S 
ATOM     85  O   UNL A   1      47.215  23.954  36.634  1.00  0.00    -0.237 OA
ATOM     86  O   UNL A   1      47.137  21.976  35.169  1.00  0.00    -0.237 OA
ATOM     87  O   UNL A   1      49.302  22.812  35.967  1.00  0.00    -0.744 OA
ENDBRANCH  81  84
ENDBRANCH  54  77
ENDBRANCH  28  29
ENDBRANCH  20  23
ENDBRANCH  18  19
ENDBRANCH   1  18
TORSDOF 17
ENDMDL
MODEL 2
REMARK VINA RESULT:      -9.7      5.026     11.998
REMARK SMILES C[C@@H]1CC[N@@H+]1[C@@H](CO)C(=O)NCCCCNC(=O)c1ccc(-c2c3nc(c(-c4cccc(S(=O)(=O)[O-])c4F)c4ccc([nH]4)c(-c4cccc(S(=O)(=O)[O-])c4F)c4nc(c(-c5cccc(S(=O)(=O)[O-])c5F)c5ccc2[nH]5)C=C4)C=C3)cc1
REMARK SMILES IDX 14 1 13 2 12 3 11 4 9 5 10 6 6 8 5 9 1 10 2 11 3 12 4 13
REMARK SMILES IDX 7 15 8 16 15 18 16 19 17 20 18 22 19 23 20 24 81 25 21 26
REMARK SMILES IDX 80 27 22 28 23 29 24 30 74 31 25 32 79 33 73 34 75 35 26 36
REMARK SMILES IDX 78 37 72 38 71 39 27 41 59 42 39 43 58 44 40 45 43 46 57 47
REMARK SMILES IDX 76 48 41 49 42 50 56 52 77 53 44 54 28 55 29 56 37 57 30 58
REMARK SMILES IDX 32 59 38 60 31 61 33 62 34 63 35 64 36 65 60 66 61 67 69 68
REMARK SMILES IDX 62 69 64 70 70 71 63 72 65 73 66 74 67 75 68 76 45 77 46 78
REMARK SMILES IDX 54 79 47 80 49 81 55 82 48 83 50 84 51 85 52 86 53 87
REMARK H PARENT 11 7 5 14 8 17 16 21 75 40 43 51
REMARK Flexibility Score: inf
ROOT
ATOM      1  C   UNL A   1      40.932  20.287  26.916  1.00  0.00     0.023 C 
ENDROOT
BRANCH   1   2
ATOM      2  C   UNL A   1      42.359  19.763  26.899  1.00  0.00     0.023 C 
BRANCH   2   3
ATOM      3  C   UNL A   1      42.897  19.391  25.514  1.00  0.00     0.116 C 
BRANCH   3   4
ATOM      4  N   UNL A   1      44.346  19.445  25.478  1.00  0.00    -0.351 N 
ATOM      5  C   UNL A   1      45.204  20.508  25.467  1.00  0.00     0.280 C 
ATOM      6  O   UNL A   1      46.407  20.238  25.353  1.00  0.00    -0.268 OA
ATOM      7  H   UNL A   1      44.788  18.565  25.457  1.00  0.00     0.163 HD
BRANCH   5   8
ATOM      8  C   UNL A   1      44.750  21.985  25.641  1.00  0.00     0.300 C 
BRANCH   8   9
ATOM      9  N   UNL A   1      45.468  22.664  26.750  1.00  0.00    -0.320 N 
ATOM     10  C   UNL A   1      43.284  23.550  27.845  1.00  0.00     0.075 C 
ATOM     11  C   UNL A   1      44.772  23.644  27.621  1.00  0.00     0.187 C 
ATOM     12  C   UNL A   1      45.356  24.775  26.745  1.00  0.00     0.126 C 
ATOM     13  C   UNL A   1      46.422  23.731  26.393  1.00  0.00     0.269 C 
ATOM     14  H   UNL A   1      45.764  21.769  27.138  1.00  0.00     0.349 HD
ENDBRANCH   8   9
BRANCH   8  15
ATOM     15  C   UNL A   1      44.244  22.570  24.297  1.00  0.00     0.231 C 
BRANCH  15  16
ATOM     16  O   UNL A   1      44.565  21.844  23.122  1.00  0.00    -0.390 OA
ATOM     17  H   UNL A   1      45.527  21.734  23.062  1.00  0.00     0.210 HD
ENDBRANCH  15  16
ENDBRANCH   8  15
ENDBRANCH   5   8
ENDBRANCH   3   4
ENDBRANCH   2   3
ENDBRANCH   1   2
BRANCH   1  18
ATOM     18  C   UNL A   1      40.747  21.668  26.307  1.00  0.00     0.116 C 
BRANCH  18  19
ATOM     19  N   UNL A   1      39.369  21.974  25.940  1.00  0.00    -0.352 N 
ATOM     20  C   UNL A   1      38.655  23.131  26.159  1.00  0.00     0.251 C 
ATOM     21  H   UNL A   1      38.885  21.256  25.471  1.00  0.00     0.163 HD
ATOM     22  O   UNL A   1      37.468  23.194  25.866  1.00  0.00    -0.269 OA
BRANCH  20  23
ATOM     23  C   UNL A   1      39.338  24.280  26.789  1.00  0.00     0.039 A 
ATOM     24  C   UNL A   1      40.005  25.200  25.979  1.00  0.00     0.014 A 
ATOM     25  C   UNL A   1      39.246  24.483  28.167  1.00  0.00     0.014 A 
ATOM     26  C   UNL A   1      40.509  26.371  26.548  1.00  0.00     0.010 A 
ATOM     27  C   UNL A   1      39.651  25.696  28.709  1.00  0.00     0.010 A 
ATOM     28  C   UNL A   1      40.296  26.649  27.909  1.00  0.00    -0.014 A 
BRANCH  28  29
ATOM     29  C   UNL A   1      40.730  27.935  28.508  1.00  0.00     0.031 A 
ATOM     30  C   UNL A   1      42.194  28.236  28.685  1.00  0.00     0.074 A 
ATOM     31  C   UNL A   1      39.805  28.793  28.982  1.00  0.00     0.049 A 
ATOM     32  N   UNL A   1      42.760  29.302  29.188  1.00  0.00    -0.248 NA
ATOM     33  C   UNL A   1      43.147  27.187  28.283  1.00  0.00     0.031 C 
ATOM     34  C   UNL A   1      38.358  28.558  28.989  1.00  0.00     0.029 A 
ATOM     35  N   UNL A   1      39.942  30.025  29.569  1.00  0.00    -0.354 N 
ATOM     36  C   UNL A   1      44.123  29.035  29.201  1.00  0.00     0.074 A 
ATOM     37  C   UNL A   1      44.298  27.689  28.704  1.00  0.00     0.031 C 
ATOM     38  C   UNL A   1      37.742  29.620  29.532  1.00  0.00     0.029 A 
ATOM     39  C   UNL A   1      38.746  30.603  29.927  1.00  0.00     0.049 A 
ATOM     40  H   UNL A   1      40.814  30.456  29.720  1.00  0.00     0.167 HD
ATOM     41  C   UNL A   1      45.145  29.852  29.551  1.00  0.00     0.034 A 
ATOM     42  C   UNL A   1      38.488  31.797  30.494  1.00  0.00     0.034 A 
ATOM     43  C   UNL A   1      44.968  31.210  29.983  1.00  0.00     0.049 A 
ATOM     44  C   UNL A   1      39.633  32.731  30.775  1.00  0.00     0.074 A 
ATOM     45  C   UNL A   1      45.934  32.164  30.249  1.00  0.00     0.029 A 
ATOM     46  N   UNL A   1      43.740  31.809  30.216  1.00  0.00    -0.354 N 
ATOM     47  N   UNL A   1      40.917  32.537  30.594  1.00  0.00    -0.248 NA
ATOM     48  C   UNL A   1      39.294  34.064  31.293  1.00  0.00     0.031 C 
ATOM     49  C   UNL A   1      45.289  33.336  30.657  1.00  0.00     0.029 A 
ATOM     50  C   UNL A   1      43.920  33.119  30.626  1.00  0.00     0.049 A 
ATOM     51  H   UNL A   1      42.866  31.368  30.106  1.00  0.00     0.167 HD
ATOM     52  C   UNL A   1      41.537  33.732  30.941  1.00  0.00     0.074 A 
ATOM     53  C   UNL A   1      40.483  34.651  31.325  1.00  0.00     0.031 C 
ATOM     54  C   UNL A   1      42.859  34.036  30.954  1.00  0.00     0.034 A 
BRANCH  41  55
ATOM     55  C   UNL A   1      46.545  29.311  29.411  1.00  0.00     0.023 A 
ATOM     56  C   UNL A   1      47.111  28.569  30.469  1.00  0.00     0.012 A 
ATOM     57  C   UNL A   1      47.290  29.510  28.233  1.00  0.00     0.148 A 
ATOM     58  C   UNL A   1      48.412  28.076  30.377  1.00  0.00     0.002 A 
ATOM     59  C   UNL A   1      48.570  28.975  28.131  1.00  0.00     0.091 A 
ATOM     60  F   UNL A   1      46.749  30.239  27.247  1.00  0.00    -0.205 F 
ATOM     61  C   UNL A   1      49.137  28.271  29.206  1.00  0.00     0.022 A 
BRANCH  59  62
ATOM     62  S   UNL A   1      49.548  29.103  26.630  1.00  0.00     0.127 S 
ATOM     63  O   UNL A   1      50.721  28.300  26.973  1.00  0.00    -0.237 OA
ATOM     64  O   UNL A   1      48.667  28.497  25.631  1.00  0.00    -0.237 OA
ATOM     65  O   UNL A   1      49.791  30.525  26.435  1.00  0.00    -0.744 OA
ENDBRANCH  59  62
ENDBRANCH  41  55
BRANCH  42  66
ATOM     66  C   UNL A   1      37.074  32.210  30.725  1.00  0.00     0.023 A 
ATOM     67  C   UNL A   1      36.522  32.083  32.014  1.00  0.00     0.012 A 
ATOM     68  C   UNL A   1      36.301  32.789  29.699  1.00  0.00     0.148 A 
ATOM     69  C   UNL A   1      35.217  32.505  32.274  1.00  0.00     0.002 A 
ATOM     70  C   UNL A   1      35.022  33.255  29.978  1.00  0.00     0.091 A 
ATOM     71  F   UNL A   1      36.845  32.894  28.479  1.00  0.00    -0.205 F 
ATOM     72  C   UNL A   1      34.472  33.100  31.261  1.00  0.00     0.022 A 
BRANCH  70  73
ATOM     73  S   UNL A   1      34.040  34.158  28.775  1.00  0.00     0.127 S 
ATOM     74  O   UNL A   1      34.944  35.245  28.406  1.00  0.00    -0.237 OA
ATOM     75  O   UNL A   1      33.834  33.148  27.735  1.00  0.00    -0.237 OA
ATOM     76  O   UNL A   1      32.826  34.555  29.474  1.00  0.00    -0.744 OA
ENDBRANCH  70  73
ENDBRANCH  42  66
BRANCH  54  77
ATOM     77  C   UNL A   1      43.251  35.429  31.369  1.00  0.00     0.023 A 
ATOM     78  C   UNL A   1      43.498  35.710  32.727  1.00  0.00     0.012 A 
ATOM     79  C   UNL A   1      43.453  36.435  30.405  1.00  0.00     0.148 A 
ATOM     80  C   UNL A   1      43.912  36.981  33.123  1.00  0.00     0.002 A 
ATOM     81  C   UNL A   1      43.911  37.686  30.801  1.00  0.00     0.091 A 
ATOM     82  F   UNL A   1      43.192  36.155  29.120  1.00  0.00    -0.205 F 
ATOM     83  C   UNL A   1      44.131  37.965  32.160  1.00  0.00     0.022 A 
BRANCH  81  84
ATOM     84  S   UNL A   1      44.311  38.977  29.618  1.00  0.00     0.127 S 
ATOM     85  O   UNL A   1      45.489  38.421  28.955  1.00  0.00    -0.237 OA
ATOM     86  O   UNL A   1      43.107  39.023  28.785  1.00  0.00    -0.237 OA
ATOM     87  O   UNL A   1      44.541  40.181  30.406  1.00  0.00    -0.744 OA
ENDBRANCH  81  84
ENDBRANCH  54  77
ENDBRANCH  28  29
ENDBRANCH  20  23
ENDBRANCH  18  19
ENDBRANCH   1  18
TORSDOF 17
ENDMDL
MODEL 3
REMARK VINA RESULT:      -9.6      6.023     11.294
REMARK SMILES C[C@@H]1CC[N@@H+]1[C@@H](CO)C(=O)NCCCCNC(=O)c1ccc(-c2c3nc(c(-c4cccc(S(=O)(=O)[O-])c4F)c4ccc([nH]4)c(-c4cccc(S(=O)(=O)[O-])c4F)c4nc(c(-c5cccc(S(=O)(=O)[O-])c5F)c5ccc2[nH]5)C=C4)C=C3)cc1
REMARK SMILES IDX 14 1 13 2 12 3 11 4 9 5 10 6 6 8 5 9 1 10 2 11 3 12 4 13
REMARK SMILES IDX 7 15 8 16 15 18 16 19 17 20 18 22 19 23 20 24 81 25 21 26
REMARK SMILES IDX 80 27 22 28 23 29 24 30 74 31 25 32 79 33 73 34 75 35 26 36
REMARK SMILES IDX 78 37 72 38 71 39 27 41 59 42 39 43 58 44 40 45 43 46 57 47
REMARK SMILES IDX 76 48 41 49 42 50 56 52 77 53 44 54 28 55 29 56 37 57 30 58
REMARK SMILES IDX 32 59 38 60 31 61 33 62 34 63 35 64 36 65 60 66 61 67 69 68
REMARK SMILES IDX 62 69 64 70 70 71 63 72 65 73 66 74 67 75 68 76 45 77 46 78
REMARK SMILES IDX 54 79 47 80 49 81 55 82 48 83 50 84 51 85 52 86 53 87
REMARK H PARENT 11 7 5 14 8 17 16 21 75 40 43 51
REMARK Flexibility Score: inf
ROOT
ATOM      1  C   UNL A   1      35.123  21.555  25.572  1.00  0.00     0.023 C 
ENDROOT
BRANCH   1   2
ATOM      2  C   UNL A   1      34.444  21.547  26.932  1.00  0.00     0.023 C 
BRANCH   2   3
ATOM      3  C   UNL A   1      33.705  22.838  27.297  1.00  0.00     0.116 C 
BRANCH   3   4
ATOM      4  N   UNL A   1      32.287  22.600  27.488  1.00  0.00    -0.351 N 
ATOM      5  C   UNL A   1      31.194  23.188  26.918  1.00  0.00     0.280 C 
ATOM      6  O   UNL A   1      30.091  22.820  27.346  1.00  0.00    -0.268 OA
ATOM      7  H   UNL A   1      32.076  21.893  28.140  1.00  0.00     0.163 HD
BRANCH   5   8
ATOM      8  C   UNL A   1      31.276  24.221  25.759  1.00  0.00     0.300 C 
BRANCH   8   9
ATOM      9  N   UNL A   1      31.609  23.580  24.461  1.00  0.00    -0.320 N 
ATOM     10  C   UNL A   1      33.884  24.818  24.243  1.00  0.00     0.075 C 
ATOM     11  C   UNL A   1      32.716  24.097  23.619  1.00  0.00     0.187 C 
ATOM     12  C   UNL A   1      31.669  24.882  22.796  1.00  0.00     0.126 C 
ATOM     13  C   UNL A   1      30.697  23.821  23.327  1.00  0.00     0.269 C 
ATOM     14  H   UNL A   1      31.702  22.668  24.908  1.00  0.00     0.349 HD
ENDBRANCH   8   9
BRANCH   8  15
ATOM     15  C   UNL A   1      30.367  25.445  26.044  1.00  0.00     0.231 C 
BRANCH  15  16
ATOM     16  O   UNL A   1      29.049  25.172  26.492  1.00  0.00    -0.390 OA
ATOM     17  H   UNL A   1      29.030  25.177  27.461  1.00  0.00     0.210 HD
ENDBRANCH  15  16
ENDBRANCH   8  15
ENDBRANCH   5   8
ENDBRANCH   3   4
ENDBRANCH   2   3
ENDBRANCH   1   2
BRANCH   1  18
ATOM     18  C   UNL A   1      36.534  22.121  25.562  1.00  0.00     0.116 C 
BRANCH  18  19
ATOM     19  N   UNL A   1      37.579  21.103  25.540  1.00  0.00    -0.352 N 
ATOM     20  C   UNL A   1      38.895  21.209  25.935  1.00  0.00     0.251 C 
ATOM     21  H   UNL A   1      37.306  20.221  25.197  1.00  0.00     0.163 HD
ATOM     22  O   UNL A   1      39.672  20.279  25.766  1.00  0.00    -0.269 OA
BRANCH  20  23
ATOM     23  C   UNL A   1      39.358  22.480  26.530  1.00  0.00     0.039 A 
ATOM     24  C   UNL A   1      40.395  22.453  27.464  1.00  0.00     0.014 A 
ATOM     25  C   UNL A   1      38.820  23.695  26.102  1.00  0.00     0.014 A 
ATOM     26  C   UNL A   1      40.948  23.657  27.905  1.00  0.00     0.010 A 
ATOM     27  C   UNL A   1      39.443  24.883  26.458  1.00  0.00     0.010 A 
ATOM     28  C   UNL A   1      40.506  24.879  27.371  1.00  0.00    -0.014 A 
BRANCH  28  29
ATOM     29  C   UNL A   1      41.153  26.162  27.746  1.00  0.00     0.031 A 
ATOM     30  C   UNL A   1      42.568  26.452  27.322  1.00  0.00     0.074 A 
ATOM     31  C   UNL A   1      40.502  27.024  28.551  1.00  0.00     0.049 A 
ATOM     32  N   UNL A   1      43.296  27.512  27.555  1.00  0.00    -0.248 NA
ATOM     33  C   UNL A   1      43.272  25.397  26.571  1.00  0.00     0.031 C 
ATOM     34  C   UNL A   1      39.177  26.799  29.137  1.00  0.00     0.029 A 
ATOM     35  N   UNL A   1      40.872  28.254  29.034  1.00  0.00    -0.354 N 
ATOM     36  C   UNL A   1      44.548  27.237  27.020  1.00  0.00     0.074 A 
ATOM     37  C   UNL A   1      44.499  25.890  26.496  1.00  0.00     0.031 C 
ATOM     38  C   UNL A   1      38.839  27.864  29.882  1.00  0.00     0.029 A 
ATOM     39  C   UNL A   1      39.924  28.838  29.841  1.00  0.00     0.049 A 
ATOM     40  H   UNL A   1      41.735  28.678  28.822  1.00  0.00     0.167 HD
ATOM     41  C   UNL A   1      45.631  28.045  26.931  1.00  0.00     0.034 A 
ATOM     42  C   UNL A   1      39.924  30.033  30.464  1.00  0.00     0.034 A 
ATOM     43  C   UNL A   1      45.651  29.404  27.398  1.00  0.00     0.049 A 
ATOM     44  C   UNL A   1      41.092  30.958  30.262  1.00  0.00     0.074 A 
ATOM     45  C   UNL A   1      46.650  30.350  27.254  1.00  0.00     0.029 A 
ATOM     46  N   UNL A   1      44.623  30.010  28.103  1.00  0.00    -0.354 N 
ATOM     47  N   UNL A   1      42.195  30.756  29.581  1.00  0.00    -0.248 NA
ATOM     48  C   UNL A   1      40.999  32.292  30.872  1.00  0.00     0.031 C 
ATOM     49  C   UNL A   1      46.231  31.525  27.886  1.00  0.00     0.029 A 
ATOM     50  C   UNL A   1      44.963  31.317  28.406  1.00  0.00     0.049 A 
ATOM     51  H   UNL A   1      43.776  29.575  28.353  1.00  0.00     0.167 HD
ATOM     52  C   UNL A   1      42.910  31.946  29.650  1.00  0.00     0.074 A 
ATOM     53  C   UNL A   1      42.105  32.870  30.424  1.00  0.00     0.031 C 
ATOM     54  C   UNL A   1      44.129  32.241  29.132  1.00  0.00     0.034 A 
BRANCH  41  55
ATOM     55  C   UNL A   1      46.852  27.495  26.242  1.00  0.00     0.023 A 
ATOM     56  C   UNL A   1      47.734  26.657  26.957  1.00  0.00     0.012 A 
ATOM     57  C   UNL A   1      47.118  27.781  24.889  1.00  0.00     0.148 A 
ATOM     58  C   UNL A   1      48.884  26.152  26.353  1.00  0.00     0.002 A 
ATOM     59  C   UNL A   1      48.243  27.235  24.280  1.00  0.00     0.091 A 
ATOM     60  F   UNL A   1      46.286  28.599  24.230  1.00  0.00    -0.205 F 
ATOM     61  C   UNL A   1      49.134  26.434  25.013  1.00  0.00     0.022 A 
BRANCH  59  62
ATOM     62  S   UNL A   1      48.603  27.474  22.536  1.00  0.00     0.127 S 
ATOM     63  O   UNL A   1      47.451  28.263  22.103  1.00  0.00    -0.237 OA
ATOM     64  O   UNL A   1      49.866  28.212  22.576  1.00  0.00    -0.237 OA
ATOM     65  O   UNL A   1      48.703  26.138  21.966  1.00  0.00    -0.744 OA
ENDBRANCH  59  62
ENDBRANCH  41  55
BRANCH  42  66
ATOM     66  C   UNL A   1      38.724  30.455  31.242  1.00  0.00     0.023 A 
ATOM     67  C   UNL A   1      38.696  30.239  32.633  1.00  0.00     0.012 A 
ATOM     68  C   UNL A   1      37.649  31.126  30.627  1.00  0.00     0.148 A 
ATOM     69  C   UNL A   1      37.608  30.665  33.397  1.00  0.00     0.002 A 
ATOM     70  C   UNL A   1      36.595  31.595  31.402  1.00  0.00     0.091 A 
ATOM     71  F   UNL A   1      37.694  31.315  29.301  1.00  0.00    -0.205 F 
ATOM     72  C   UNL A   1      36.564  31.352  32.785  1.00  0.00     0.022 A 
BRANCH  70  73
ATOM     73  S   UNL A   1      35.275  32.608  30.724  1.00  0.00     0.127 S 
ATOM     74  O   UNL A   1      35.975  33.855  30.431  1.00  0.00    -0.237 OA
ATOM     75  O   UNL A   1      34.875  31.834  29.548  1.00  0.00    -0.237 OA
ATOM     76  O   UNL A   1      34.260  32.682  31.766  1.00  0.00    -0.744 OA
ENDBRANCH  70  73
ENDBRANCH  42  66
BRANCH  54  77
ATOM     77  C   UNL A   1      44.664  33.630  29.355  1.00  0.00     0.023 A 
ATOM     78  C   UNL A   1      45.407  33.914  30.517  1.00  0.00     0.012 A 
ATOM     79  C   UNL A   1      44.501  34.628  28.376  1.00  0.00     0.148 A 
ATOM     80  C   UNL A   1      45.954  35.181  30.715  1.00  0.00     0.002 A 
ATOM     81  C   UNL A   1      45.089  35.874  28.557  1.00  0.00     0.091 A 
ATOM     82  F   UNL A   1      43.773  34.345  27.286  1.00  0.00    -0.205 F 
ATOM     83  C   UNL A   1      45.807  36.156  29.731  1.00  0.00     0.022 A 
BRANCH  81  84
ATOM     84  S   UNL A   1      45.030  37.153  27.297  1.00  0.00     0.127 S 
ATOM     85  O   UNL A   1      45.501  38.323  28.036  1.00  0.00    -0.237 OA
ATOM     86  O   UNL A   1      45.969  36.647  26.293  1.00  0.00    -0.237 OA
ATOM     87  O   UNL A   1      43.644  37.205  26.849  1.00  0.00    -0.744 OA
ENDBRANCH  81  84
ENDBRANCH  54  77
ENDBRANCH  28  29
ENDBRANCH  20  23
ENDBRANCH  18  19
ENDBRANCH   1  18
TORSDOF 17
ENDMDL
