MODEL 1
REMARK VINA RESULT:     -12.7      0.000      0.000
REMARK SMILES CC1(C)CCC[C@H]1NS(=O)(=O)c1ccc(O)c(C(=O)NCCCCNC(=O)c2ccc(-c3c4nc(c(-c5cccc(S(=O)(=O)[O-])c5F)c5ccc([nH]5)c(-c5cccc(S(=O)(=O)[O-])c5F)c5nc(c(-c6cccc(S(=O)(=O)[O-])c6F)c6ccc3[nH]6)C=C5)C=C4)cc2)c1
REMARK SMILES IDX 22 1 21 2 20 3 18 4 19 5 17 7 12 8 13 9 91 10 14 11 15 12
REMARK SMILES IDX 9 13 10 14 11 15 8 16 7 18 1 19 2 20 3 21 4 22 5 23 6 24
REMARK SMILES IDX 16 25 23 27 24 28 25 29 26 30 27 32 28 33 29 34 90 35 30 36
REMARK SMILES IDX 89 37 31 38 32 39 33 40 83 41 34 42 88 43 82 44 84 45 35 46
REMARK SMILES IDX 87 47 81 48 80 49 36 51 68 52 48 53 67 54 49 55 52 56 66 57
REMARK SMILES IDX 85 58 50 59 51 60 65 62 86 63 53 64 37 65 38 66 46 67 39 68
REMARK SMILES IDX 41 69 47 70 40 71 42 72 43 73 44 74 45 75 69 76 70 77 78 78
REMARK SMILES IDX 71 79 73 80 79 81 72 82 74 83 75 84 76 85 77 86 54 87 55 88
REMARK SMILES IDX 63 89 56 90 58 91 64 92 57 93 59 94 60 95 61 96 62 97
REMARK H PARENT 20 6 8 17 16 26 25 31 84 50 52 61
REMARK Flexibility Score: inf
ROOT
ATOM      1  C   UNL A   1      35.010  22.388  26.879  1.00  0.00     0.023 C 
ENDROOT
BRANCH   1   2
ATOM      2  C   UNL A   1      34.031  21.505  27.660  1.00  0.00     0.116 C 
BRANCH   2   3
ATOM      3  N   UNL A   1      32.766  22.189  27.806  1.00  0.00    -0.352 N 
ATOM      4  C   UNL A   1      31.903  22.736  26.896  1.00  0.00     0.255 C 
ATOM      5  O   UNL A   1      30.959  23.377  27.369  1.00  0.00    -0.269 OA
ATOM      6  H   UNL A   1      32.469  22.280  28.741  1.00  0.00     0.163 HD
BRANCH   4   7
ATOM      7  C   UNL A   1      31.952  22.548  25.409  1.00  0.00     0.082 A 
ATOM      8  C   UNL A   1      32.166  23.760  23.287  1.00  0.00     0.083 A 
ATOM      9  C   UNL A   1      31.943  22.594  22.569  1.00  0.00     0.025 A 
ATOM     10  C   UNL A   1      32.107  23.748  24.686  1.00  0.00     0.039 A 
ATOM     11  C   UNL A   1      31.861  21.391  23.257  1.00  0.00     0.048 A 
ATOM     12  C   UNL A   1      31.934  21.365  24.658  1.00  0.00     0.128 A 
BRANCH   8  13
ATOM     13  S   UNL A   1      32.708  25.260  22.521  1.00  0.00     0.240 S 
ATOM     14  O   UNL A   1      31.641  25.703  21.650  1.00  0.00    -0.207 OA
ATOM     15  O   UNL A   1      34.047  25.029  22.033  1.00  0.00    -0.207 OA
BRANCH  13  16
ATOM     16  N   UNL A   1      32.897  26.396  23.741  1.00  0.00    -0.208 NA
ATOM     17  H   UNL A   1      32.378  26.036  24.541  1.00  0.00     0.141 HD
BRANCH  16  18
ATOM     18  C   UNL A   1      32.496  27.805  23.603  1.00  0.00     0.075 C 
ATOM     19  C   UNL A   1      30.351  26.842  24.781  1.00  0.00     0.013 C 
ATOM     20  C   UNL A   1      31.167  28.082  24.379  1.00  0.00    -0.019 C 
ATOM     21  C   UNL A   1      30.243  28.979  23.526  1.00  0.00     0.013 C 
ATOM     22  C   UNL A   1      31.643  28.836  25.634  1.00  0.00     0.008 C 
ATOM     23  C   UNL A   1      32.789  29.696  25.133  1.00  0.00     0.002 C 
ATOM     24  C   UNL A   1      33.538  28.771  24.187  1.00  0.00     0.020 C 
ENDBRANCH  16  18
ENDBRANCH  13  16
ENDBRANCH   8  13
BRANCH  12  25
ATOM     25  O   UNL A   1      32.071  20.134  25.221  1.00  0.00    -0.507 OA
ATOM     26  H   UNL A   1      32.751  19.979  25.848  1.00  0.00     0.293 HD
ENDBRANCH  12  25
ENDBRANCH   4   7
ENDBRANCH   2   3
ENDBRANCH   1   2
BRANCH   1  27
ATOM     27  C   UNL A   1      35.481  21.797  25.551  1.00  0.00     0.023 C 
BRANCH  27  28
ATOM     28  C   UNL A   1      36.916  22.154  25.185  1.00  0.00     0.116 C 
BRANCH  28  29
ATOM     29  N   UNL A   1      37.861  21.073  25.432  1.00  0.00    -0.352 N 
ATOM     30  C   UNL A   1      39.088  21.141  26.046  1.00  0.00     0.251 C 
ATOM     31  H   UNL A   1      37.585  20.181  25.120  1.00  0.00     0.163 HD
ATOM     32  O   UNL A   1      39.807  20.148  26.107  1.00  0.00    -0.269 OA
BRANCH  30  33
ATOM     33  C   UNL A   1      39.550  22.438  26.577  1.00  0.00     0.039 A 
ATOM     34  C   UNL A   1      40.586  22.446  27.511  1.00  0.00     0.014 A 
ATOM     35  C   UNL A   1      39.005  23.637  26.109  1.00  0.00     0.014 A 
ATOM     36  C   UNL A   1      41.125  23.663  27.928  1.00  0.00     0.010 A 
ATOM     37  C   UNL A   1      39.590  24.844  26.469  1.00  0.00     0.010 A 
ATOM     38  C   UNL A   1      40.652  24.869  27.383  1.00  0.00    -0.014 A 
BRANCH  38  39
ATOM     39  C   UNL A   1      41.272  26.165  27.749  1.00  0.00     0.031 A 
ATOM     40  C   UNL A   1      42.684  26.469  27.341  1.00  0.00     0.074 A 
ATOM     41  C   UNL A   1      40.585  27.029  28.521  1.00  0.00     0.049 A 
ATOM     42  N   UNL A   1      43.391  27.544  27.568  1.00  0.00    -0.248 NA
ATOM     43  C   UNL A   1      43.412  25.418  26.609  1.00  0.00     0.031 C 
ATOM     44  C   UNL A   1      39.247  26.795  29.071  1.00  0.00     0.029 A 
ATOM     45  N   UNL A   1      40.927  28.270  28.996  1.00  0.00    -0.354 N 
ATOM     46  C   UNL A   1      44.650  27.289  27.038  1.00  0.00     0.074 A 
ATOM     47  C   UNL A   1      44.624  25.943  26.512  1.00  0.00     0.031 C 
ATOM     48  C   UNL A   1      38.877  27.862  29.797  1.00  0.00     0.029 A 
ATOM     49  C   UNL A   1      39.951  28.851  29.771  1.00  0.00     0.049 A 
ATOM     50  H   UNL A   1      41.787  28.703  28.799  1.00  0.00     0.167 HD
ATOM     51  C   UNL A   1      45.719  28.116  26.961  1.00  0.00     0.034 A 
ATOM     52  C   UNL A   1      39.920  30.054  30.377  1.00  0.00     0.034 A 
ATOM     53  C   UNL A   1      45.716  29.476  27.427  1.00  0.00     0.049 A 
ATOM     54  C   UNL A   1      41.083  30.990  30.190  1.00  0.00     0.074 A 
ATOM     55  C   UNL A   1      46.709  30.431  27.304  1.00  0.00     0.029 A 
ATOM     56  N   UNL A   1      44.664  30.075  28.103  1.00  0.00    -0.354 N 
ATOM     57  N   UNL A   1      42.194  30.801  29.521  1.00  0.00    -0.248 NA
ATOM     58  C   UNL A   1      40.969  32.322  30.802  1.00  0.00     0.031 C 
ATOM     59  C   UNL A   1      46.255  31.611  27.904  1.00  0.00     0.029 A 
ATOM     60  C   UNL A   1      44.980  31.388  28.400  1.00  0.00     0.049 A 
ATOM     61  H   UNL A   1      43.817  29.631  28.336  1.00  0.00     0.167 HD
ATOM     62  C   UNL A   1      42.898  31.997  29.604  1.00  0.00     0.074 A 
ATOM     63  C   UNL A   1      42.076  32.912  30.368  1.00  0.00     0.031 C 
ATOM     64  C   UNL A   1      44.122  32.303  29.108  1.00  0.00     0.034 A 
BRANCH  51  65
ATOM     65  C   UNL A   1      46.949  27.597  26.269  1.00  0.00     0.023 A 
ATOM     66  C   UNL A   1      47.871  26.821  27.001  1.00  0.00     0.012 A 
ATOM     67  C   UNL A   1      47.178  27.834  24.901  1.00  0.00     0.148 A 
ATOM     68  C   UNL A   1      49.016  26.313  26.391  1.00  0.00     0.002 A 
ATOM     69  C   UNL A   1      48.305  27.293  24.290  1.00  0.00     0.091 A 
ATOM     70  F   UNL A   1      46.307  28.598  24.227  1.00  0.00    -0.205 F 
ATOM     71  C   UNL A   1      49.228  26.540  25.035  1.00  0.00     0.022 A 
BRANCH  69  72
ATOM     72  S   UNL A   1      48.627  27.476  22.532  1.00  0.00     0.127 S 
ATOM     73  O   UNL A   1      47.477  28.269  22.102  1.00  0.00    -0.237 OA
ATOM     74  O   UNL A   1      49.901  28.195  22.521  1.00  0.00    -0.237 OA
ATOM     75  O   UNL A   1      48.696  26.122  21.999  1.00  0.00    -0.744 OA
ENDBRANCH  69  72
ENDBRANCH  51  65
BRANCH  52  76
ATOM     76  C   UNL A   1      38.697  30.481  31.112  1.00  0.00     0.023 A 
ATOM     77  C   UNL A   1      38.613  30.238  32.497  1.00  0.00     0.012 A 
ATOM     78  C   UNL A   1      37.646  31.160  30.469  1.00  0.00     0.148 A 
ATOM     79  C   UNL A   1      37.493  30.642  33.225  1.00  0.00     0.002 A 
ATOM     80  C   UNL A   1      36.554  31.604  31.209  1.00  0.00     0.091 A 
ATOM     81  F   UNL A   1      37.735  31.368  29.148  1.00  0.00    -0.205 F 
ATOM     82  C   UNL A   1      36.469  31.334  32.583  1.00  0.00     0.022 A 
BRANCH  80  83
ATOM     83  S   UNL A   1      35.259  32.615  30.481  1.00  0.00     0.127 S 
ATOM     84  O   UNL A   1      34.827  31.787  29.358  1.00  0.00    -0.237 OA
ATOM     85  O   UNL A   1      34.295  32.720  31.577  1.00  0.00    -0.237 OA
ATOM     86  O   UNL A   1      35.907  33.874  30.138  1.00  0.00    -0.744 OA
ENDBRANCH  80  83
ENDBRANCH  52  76
BRANCH  64  87
ATOM     87  C   UNL A   1      44.645  33.691  29.360  1.00  0.00     0.023 A 
ATOM     88  C   UNL A   1      45.287  33.977  30.581  1.00  0.00     0.012 A 
ATOM     89  C   UNL A   1      44.575  34.684  28.364  1.00  0.00     0.148 A 
ATOM     90  C   UNL A   1      45.828  35.239  30.817  1.00  0.00     0.002 A 
ATOM     91  C   UNL A   1      45.153  35.928  28.591  1.00  0.00     0.091 A 
ATOM     92  F   UNL A   1      43.938  34.402  27.217  1.00  0.00    -0.205 F 
ATOM     93  C   UNL A   1      45.772  36.210  29.819  1.00  0.00     0.022 A 
BRANCH  91  94
ATOM     94  S   UNL A   1      45.197  37.197  27.321  1.00  0.00     0.127 S 
ATOM     95  O   UNL A   1      45.992  36.552  26.278  1.00  0.00    -0.237 OA
ATOM     96  O   UNL A   1      43.781  37.366  26.990  1.00  0.00    -0.237 OA
ATOM     97  O   UNL A   1      45.805  38.362  27.953  1.00  0.00    -0.744 OA
ENDBRANCH  91  94
ENDBRANCH  64  87
ENDBRANCH  38  39
ENDBRANCH  30  33
ENDBRANCH  28  29
ENDBRANCH  27  28
ENDBRANCH   1  27
TORSDOF 18
ENDMDL
MODEL 2
REMARK VINA RESULT:     -12.2      5.088     10.453
REMARK SMILES CC1(C)CCC[C@H]1NS(=O)(=O)c1ccc(O)c(C(=O)NCCCCNC(=O)c2ccc(-c3c4nc(c(-c5cccc(S(=O)(=O)[O-])c5F)c5ccc([nH]5)c(-c5cccc(S(=O)(=O)[O-])c5F)c5nc(c(-c6cccc(S(=O)(=O)[O-])c6F)c6ccc3[nH]6)C=C5)C=C4)cc2)c1
REMARK SMILES IDX 22 1 21 2 20 3 18 4 19 5 17 7 12 8 13 9 91 10 14 11 15 12
REMARK SMILES IDX 9 13 10 14 11 15 8 16 7 18 1 19 2 20 3 21 4 22 5 23 6 24
REMARK SMILES IDX 16 25 23 27 24 28 25 29 26 30 27 32 28 33 29 34 90 35 30 36
REMARK SMILES IDX 89 37 31 38 32 39 33 40 83 41 34 42 88 43 82 44 84 45 35 46
REMARK SMILES IDX 87 47 81 48 80 49 36 51 68 52 48 53 67 54 49 55 52 56 66 57
REMARK SMILES IDX 85 58 50 59 51 60 65 62 86 63 53 64 37 65 38 66 46 67 39 68
REMARK SMILES IDX 41 69 47 70 40 71 42 72 43 73 44 74 45 75 69 76 70 77 78 78
REMARK SMILES IDX 71 79 73 80 79 81 72 82 74 83 75 84 76 85 77 86 54 87 55 88
REMARK SMILES IDX 63 89 56 90 58 91 64 92 57 93 59 94 60 95 61 96 62 97
REMARK H PARENT 20 6 8 17 16 26 25 31 84 50 52 61
REMARK Flexibility Score: inf
ROOT
ATOM      1  C   UNL A   1      32.412  27.847  27.072  1.00  0.00     0.023 C 
ENDROOT
BRANCH   1   2
ATOM      2  C   UNL A   1      33.511  27.320  26.143  1.00  0.00     0.116 C 
BRANCH   2   3
ATOM      3  N   UNL A   1      32.941  26.970  24.862  1.00  0.00    -0.352 N 
ATOM      4  C   UNL A   1      32.337  25.832  24.401  1.00  0.00     0.255 C 
ATOM      5  O   UNL A   1      32.078  25.813  23.193  1.00  0.00    -0.269 OA
ATOM      6  H   UNL A   1      32.998  27.689  24.191  1.00  0.00     0.163 HD
BRANCH   4   7
ATOM      7  C   UNL A   1      31.887  24.670  25.236  1.00  0.00     0.082 A 
ATOM      8  C   UNL A   1      32.587  22.475  26.078  1.00  0.00     0.083 A 
ATOM      9  C   UNL A   1      31.329  22.254  26.621  1.00  0.00     0.025 A 
ATOM     10  C   UNL A   1      32.842  23.638  25.341  1.00  0.00     0.039 A 
ATOM     11  C   UNL A   1      30.399  23.284  26.592  1.00  0.00     0.048 A 
ATOM     12  C   UNL A   1      30.702  24.502  25.966  1.00  0.00     0.128 A 
BRANCH   8  13
ATOM     13  S   UNL A   1      33.969  21.427  26.423  1.00  0.00     0.240 S 
ATOM     14  O   UNL A   1      34.144  21.410  27.859  1.00  0.00    -0.207 OA
ATOM     15  O   UNL A   1      35.033  21.818  25.528  1.00  0.00    -0.207 OA
BRANCH  13  16
ATOM     16  N   UNL A   1      33.551  19.880  25.926  1.00  0.00    -0.208 NA
ATOM     17  H   UNL A   1      34.063  19.242  26.534  1.00  0.00     0.141 HD
BRANCH  16  18
ATOM     18  C   UNL A   1      33.762  19.386  24.556  1.00  0.00     0.075 C 
ATOM     19  C   UNL A   1      33.258  17.113  25.780  1.00  0.00     0.013 C 
ATOM     20  C   UNL A   1      33.384  17.872  24.448  1.00  0.00    -0.019 C 
ATOM     21  C   UNL A   1      34.440  17.131  23.600  1.00  0.00     0.013 C 
ATOM     22  C   UNL A   1      32.028  17.898  23.720  1.00  0.00     0.008 C 
ATOM     23  C   UNL A   1      32.165  19.041  22.730  1.00  0.00     0.002 C 
ATOM     24  C   UNL A   1      32.884  20.117  23.528  1.00  0.00     0.020 C 
ENDBRANCH  16  18
ENDBRANCH  13  16
ENDBRANCH   8  13
BRANCH  12  25
ATOM     25  O   UNL A   1      29.823  25.517  26.187  1.00  0.00    -0.507 OA
ATOM     26  H   UNL A   1      29.708  26.186  25.540  1.00  0.00     0.293 HD
ENDBRANCH  12  25
ENDBRANCH   4   7
ENDBRANCH   2   3
ENDBRANCH   1   2
BRANCH   1  27
ATOM     27  C   UNL A   1      31.797  29.177  26.641  1.00  0.00     0.023 C 
BRANCH  27  28
ATOM     28  C   UNL A   1      32.808  30.187  26.111  1.00  0.00     0.116 C 
BRANCH  28  29
ATOM     29  N   UNL A   1      32.575  31.543  26.588  1.00  0.00    -0.352 N 
ATOM     30  C   UNL A   1      33.357  32.293  27.433  1.00  0.00     0.251 C 
ATOM     31  H   UNL A   1      31.753  31.978  26.264  1.00  0.00     0.163 HD
ATOM     32  O   UNL A   1      32.981  33.400  27.807  1.00  0.00    -0.269 OA
BRANCH  30  33
ATOM     33  C   UNL A   1      34.625  31.723  27.926  1.00  0.00     0.039 A 
ATOM     34  C   UNL A   1      35.739  32.557  28.023  1.00  0.00     0.014 A 
ATOM     35  C   UNL A   1      34.693  30.391  28.347  1.00  0.00     0.014 A 
ATOM     36  C   UNL A   1      36.909  32.073  28.608  1.00  0.00     0.010 A 
ATOM     37  C   UNL A   1      35.835  29.934  28.994  1.00  0.00     0.010 A 
ATOM     38  C   UNL A   1      36.953  30.768  29.127  1.00  0.00    -0.014 A 
BRANCH  38  39
ATOM     39  C   UNL A   1      38.159  30.268  29.829  1.00  0.00     0.031 A 
ATOM     40  C   UNL A   1      38.470  30.733  31.222  1.00  0.00     0.074 A 
ATOM     41  C   UNL A   1      39.014  29.458  29.174  1.00  0.00     0.049 A 
ATOM     42  N   UNL A   1      39.474  30.406  31.992  1.00  0.00    -0.248 NA
ATOM     43  C   UNL A   1      37.554  31.720  31.820  1.00  0.00     0.031 C 
ATOM     44  C   UNL A   1      38.874  29.027  27.781  1.00  0.00     0.029 A 
ATOM     45  N   UNL A   1      40.183  28.871  29.587  1.00  0.00    -0.354 N 
ATOM     46  C   UNL A   1      39.330  31.165  33.146  1.00  0.00     0.074 A 
ATOM     47  C   UNL A   1      38.163  31.999  32.962  1.00  0.00     0.031 C 
ATOM     48  C   UNL A   1      39.909  28.234  27.460  1.00  0.00     0.029 A 
ATOM     49  C   UNL A   1      40.789  28.107  28.617  1.00  0.00     0.049 A 
ATOM     50  H   UNL A   1      40.552  28.985  30.492  1.00  0.00     0.167 HD
ATOM     51  C   UNL A   1      40.078  31.141  34.274  1.00  0.00     0.034 A 
ATOM     52  C   UNL A   1      41.917  27.372  28.664  1.00  0.00     0.034 A 
ATOM     53  C   UNL A   1      41.197  30.261  34.475  1.00  0.00     0.049 A 
ATOM     54  C   UNL A   1      42.673  27.287  29.962  1.00  0.00     0.074 A 
ATOM     55  C   UNL A   1      41.958  30.082  35.616  1.00  0.00     0.029 A 
ATOM     56  N   UNL A   1      41.713  29.409  33.511  1.00  0.00    -0.354 N 
ATOM     57  N   UNL A   1      42.412  27.868  31.108  1.00  0.00    -0.248 NA
ATOM     58  C   UNL A   1      43.852  26.409  29.988  1.00  0.00     0.031 C 
ATOM     59  C   UNL A   1      42.933  29.118  35.342  1.00  0.00     0.029 A 
ATOM     60  C   UNL A   1      42.779  28.698  34.031  1.00  0.00     0.049 A 
ATOM     61  H   UNL A   1      41.370  29.323  32.592  1.00  0.00     0.167 HD
ATOM     62  C   UNL A   1      43.372  27.403  31.999  1.00  0.00     0.074 A 
ATOM     63  C   UNL A   1      44.207  26.474  31.265  1.00  0.00     0.031 C 
ATOM     64  C   UNL A   1      43.558  27.731  33.302  1.00  0.00     0.034 A 
BRANCH  51  65
ATOM     65  C   UNL A   1      39.652  32.032  35.409  1.00  0.00     0.023 A 
ATOM     66  C   UNL A   1      40.097  33.370  35.433  1.00  0.00     0.012 A 
ATOM     67  C   UNL A   1      38.788  31.572  36.420  1.00  0.00     0.148 A 
ATOM     68  C   UNL A   1      39.714  34.228  36.462  1.00  0.00     0.002 A 
ATOM     69  C   UNL A   1      38.380  32.446  37.424  1.00  0.00     0.091 A 
ATOM     70  F   UNL A   1      38.399  30.290  36.398  1.00  0.00    -0.205 F 
ATOM     71  C   UNL A   1      38.848  33.769  37.450  1.00  0.00     0.022 A 
BRANCH  69  72
ATOM     72  S   UNL A   1      37.214  31.963  38.702  1.00  0.00     0.127 S 
ATOM     73  O   UNL A   1      37.932  32.344  39.917  1.00  0.00    -0.237 OA
ATOM     74  O   UNL A   1      36.052  32.798  38.395  1.00  0.00    -0.237 OA
ATOM     75  O   UNL A   1      36.994  30.535  38.519  1.00  0.00    -0.744 OA
ENDBRANCH  69  72
ENDBRANCH  51  65
BRANCH  52  76
ATOM     76  C   UNL A   1      42.326  26.569  27.479  1.00  0.00     0.023 A 
ATOM     77  C   UNL A   1      43.096  27.182  26.471  1.00  0.00     0.012 A 
ATOM     78  C   UNL A   1      42.004  25.204  27.364  1.00  0.00     0.148 A 
ATOM     79  C   UNL A   1      43.517  26.456  25.356  1.00  0.00     0.002 A 
ATOM     80  C   UNL A   1      42.468  24.474  26.274  1.00  0.00     0.091 A 
ATOM     81  F   UNL A   1      41.257  24.641  28.324  1.00  0.00    -0.205 F 
ATOM     82  C   UNL A   1      43.213  25.101  25.263  1.00  0.00     0.022 A 
BRANCH  80  83
ATOM     83  S   UNL A   1      42.230  22.697  26.147  1.00  0.00     0.127 S 
ATOM     84  O   UNL A   1      42.933  22.216  27.334  1.00  0.00    -0.237 OA
ATOM     85  O   UNL A   1      40.773  22.575  26.202  1.00  0.00    -0.237 OA
ATOM     86  O   UNL A   1      42.810  22.326  24.863  1.00  0.00    -0.744 OA
ENDBRANCH  80  83
ENDBRANCH  52  76
BRANCH  64  87
ATOM     87  C   UNL A   1      44.698  27.070  34.028  1.00  0.00     0.023 A 
ATOM     88  C   UNL A   1      45.968  27.680  34.022  1.00  0.00     0.012 A 
ATOM     89  C   UNL A   1      44.496  25.895  34.777  1.00  0.00     0.148 A 
ATOM     90  C   UNL A   1      47.026  27.116  34.732  1.00  0.00     0.002 A 
ATOM     91  C   UNL A   1      45.546  25.361  35.515  1.00  0.00     0.091 A 
ATOM     92  F   UNL A   1      43.287  25.314  34.750  1.00  0.00    -0.205 F 
ATOM     93  C   UNL A   1      46.813  25.965  35.487  1.00  0.00     0.022 A 
BRANCH  91  94
ATOM     94  S   UNL A   1      45.323  23.932  36.581  1.00  0.00     0.127 S 
ATOM     95  O   UNL A   1      44.523  24.489  37.669  1.00  0.00    -0.237 OA
ATOM     96  O   UNL A   1      44.606  22.996  35.713  1.00  0.00    -0.237 OA
ATOM     97  O   UNL A   1      46.669  23.500  36.940  1.00  0.00    -0.744 OA
ENDBRANCH  91  94
ENDBRANCH  64  87
ENDBRANCH  38  39
ENDBRANCH  30  33
ENDBRANCH  28  29
ENDBRANCH  27  28
ENDBRANCH   1  27
TORSDOF 18
ENDMDL
MODEL 3
REMARK VINA RESULT:     -12.2      5.116     10.377
REMARK SMILES CC1(C)CCC[C@H]1NS(=O)(=O)c1ccc(O)c(C(=O)NCCCCNC(=O)c2ccc(-c3c4nc(c(-c5cccc(S(=O)(=O)[O-])c5F)c5ccc([nH]5)c(-c5cccc(S(=O)(=O)[O-])c5F)c5nc(c(-c6cccc(S(=O)(=O)[O-])c6F)c6ccc3[nH]6)C=C5)C=C4)cc2)c1
REMARK SMILES IDX 22 1 21 2 20 3 18 4 19 5 17 7 12 8 13 9 91 10 14 11 15 12
REMARK SMILES IDX 9 13 10 14 11 15 8 16 7 18 1 19 2 20 3 21 4 22 5 23 6 24
REMARK SMILES IDX 16 25 23 27 24 28 25 29 26 30 27 32 28 33 29 34 90 35 30 36
REMARK SMILES IDX 89 37 31 38 32 39 33 40 83 41 34 42 88 43 82 44 84 45 35 46
REMARK SMILES IDX 87 47 81 48 80 49 36 51 68 52 48 53 67 54 49 55 52 56 66 57
REMARK SMILES IDX 85 58 50 59 51 60 65 62 86 63 53 64 37 65 38 66 46 67 39 68
REMARK SMILES IDX 41 69 47 70 40 71 42 72 43 73 44 74 45 75 69 76 70 77 78 78
REMARK SMILES IDX 71 79 73 80 79 81 72 82 74 83 75 84 76 85 77 86 54 87 55 88
REMARK SMILES IDX 63 89 56 90 58 91 64 92 57 93 59 94 60 95 61 96 62 97
REMARK H PARENT 20 6 8 17 16 26 25 31 84 50 52 61
REMARK Flexibility Score: inf
ROOT
ATOM      1  C   UNL A   1      32.583  26.737  25.628  1.00  0.00     0.023 C 
ENDROOT
BRANCH   1   2
ATOM      2  C   UNL A   1      33.900  26.420  24.911  1.00  0.00     0.116 C 
BRANCH   2   3
ATOM      3  N   UNL A   1      33.624  25.890  23.596  1.00  0.00    -0.352 N 
ATOM      4  C   UNL A   1      34.002  24.733  22.969  1.00  0.00     0.255 C 
ATOM      5  O   UNL A   1      33.700  24.647  21.775  1.00  0.00    -0.269 OA
ATOM      6  H   UNL A   1      33.055  26.474  23.043  1.00  0.00     0.163 HD
BRANCH   4   7
ATOM      7  C   UNL A   1      34.653  23.549  23.619  1.00  0.00     0.082 A 
ATOM      8  C   UNL A   1      34.239  21.687  25.163  1.00  0.00     0.083 A 
ATOM      9  C   UNL A   1      35.579  21.327  25.127  1.00  0.00     0.025 A 
ATOM     10  C   UNL A   1      33.796  22.821  24.469  1.00  0.00     0.039 A 
ATOM     11  C   UNL A   1      36.424  21.983  24.242  1.00  0.00     0.048 A 
ATOM     12  C   UNL A   1      35.946  23.036  23.448  1.00  0.00     0.128 A 
BRANCH   8  13
ATOM     13  S   UNL A   1      33.000  20.670  25.910  1.00  0.00     0.240 S 
ATOM     14  O   UNL A   1      31.840  20.708  25.047  1.00  0.00    -0.207 OA
ATOM     15  O   UNL A   1      32.929  21.041  27.304  1.00  0.00    -0.207 OA
BRANCH  13  16
ATOM     16  N   UNL A   1      33.594  19.101  25.924  1.00  0.00    -0.208 NA
ATOM     17  H   UNL A   1      34.595  19.179  25.750  1.00  0.00     0.141 HD
BRANCH  16  18
ATOM     18  C   UNL A   1      33.109  18.045  25.021  1.00  0.00     0.075 C 
ATOM     19  C   UNL A   1      35.695  17.874  24.566  1.00  0.00     0.013 C 
ATOM     20  C   UNL A   1      34.306  17.226  24.433  1.00  0.00    -0.019 C 
ATOM     21  C   UNL A   1      34.068  16.962  22.931  1.00  0.00     0.013 C 
ATOM     22  C   UNL A   1      34.254  15.908  25.228  1.00  0.00     0.008 C 
ATOM     23  C   UNL A   1      32.770  15.650  25.417  1.00  0.00     0.002 C 
ATOM     24  C   UNL A   1      32.210  17.026  25.739  1.00  0.00     0.020 C 
ENDBRANCH  16  18
ENDBRANCH  13  16
ENDBRANCH   8  13
BRANCH  12  25
ATOM     25  O   UNL A   1      36.781  23.459  22.460  1.00  0.00    -0.507 OA
ATOM     26  H   UNL A   1      36.661  23.154  21.582  1.00  0.00     0.293 HD
ENDBRANCH  12  25
ENDBRANCH   4   7
ENDBRANCH   2   3
ENDBRANCH   1   2
BRANCH   1  27
ATOM     27  C   UNL A   1      32.212  28.219  25.652  1.00  0.00     0.023 C 
BRANCH  27  28
ATOM     28  C   UNL A   1      33.404  29.156  25.800  1.00  0.00     0.116 C 
BRANCH  28  29
ATOM     29  N   UNL A   1      33.051  30.458  26.352  1.00  0.00    -0.352 N 
ATOM     30  C   UNL A   1      33.749  31.212  27.263  1.00  0.00     0.251 C 
ATOM     31  H   UNL A   1      32.205  30.846  26.030  1.00  0.00     0.163 HD
ATOM     32  O   UNL A   1      33.276  32.260  27.693  1.00  0.00    -0.269 OA
BRANCH  30  33
ATOM     33  C   UNL A   1      35.046  30.712  27.758  1.00  0.00     0.039 A 
ATOM     34  C   UNL A   1      36.148  31.569  27.726  1.00  0.00     0.014 A 
ATOM     35  C   UNL A   1      35.157  29.431  28.306  1.00  0.00     0.014 A 
ATOM     36  C   UNL A   1      37.349  31.163  28.307  1.00  0.00     0.010 A 
ATOM     37  C   UNL A   1      36.332  29.058  28.948  1.00  0.00     0.010 A 
ATOM     38  C   UNL A   1      37.438  29.918  28.951  1.00  0.00    -0.014 A 
BRANCH  38  39
ATOM     39  C   UNL A   1      38.680  29.509  29.649  1.00  0.00     0.031 A 
ATOM     40  C   UNL A   1      39.053  30.139  30.960  1.00  0.00     0.074 A 
ATOM     41  C   UNL A   1      39.510  28.629  29.055  1.00  0.00     0.049 A 
ATOM     42  N   UNL A   1      40.095  29.908  31.714  1.00  0.00    -0.248 NA
ATOM     43  C   UNL A   1      38.158  31.186  31.479  1.00  0.00     0.031 C 
ATOM     44  C   UNL A   1      39.308  28.034  27.732  1.00  0.00     0.029 A 
ATOM     45  N   UNL A   1      40.703  28.099  29.479  1.00  0.00    -0.354 N 
ATOM     46  C   UNL A   1      39.999  30.800  32.775  1.00  0.00     0.074 A 
ATOM     47  C   UNL A   1      38.818  31.602  32.549  1.00  0.00     0.031 C 
ATOM     48  C   UNL A   1      40.334  27.212  27.457  1.00  0.00     0.029 A 
ATOM     49  C   UNL A   1      41.269  27.227  28.578  1.00  0.00     0.049 A 
ATOM     50  H   UNL A   1      41.113  28.321  30.344  1.00  0.00     0.167 HD
ATOM     51  C   UNL A   1      40.800  30.913  33.861  1.00  0.00     0.034 A 
ATOM     52  C   UNL A   1      42.404  26.506  28.658  1.00  0.00     0.034 A 
ATOM     53  C   UNL A   1      41.935  30.067  34.111  1.00  0.00     0.049 A 
ATOM     54  C   UNL A   1      43.222  26.579  29.919  1.00  0.00     0.074 A 
ATOM     55  C   UNL A   1      42.750  30.027  35.228  1.00  0.00     0.029 A 
ATOM     56  N   UNL A   1      42.412  29.107  33.232  1.00  0.00    -0.354 N 
ATOM     57  N   UNL A   1      43.010  27.292  30.999  1.00  0.00    -0.248 NA
ATOM     58  C   UNL A   1      44.408  25.714  29.993  1.00  0.00     0.031 C 
ATOM     59  C   UNL A   1      43.720  29.040  35.024  1.00  0.00     0.029 A 
ATOM     60  C   UNL A   1      43.508  28.466  33.781  1.00  0.00     0.049 A 
ATOM     61  H   UNL A   1      42.027  28.911  32.348  1.00  0.00     0.167 HD
ATOM     62  C   UNL A   1      44.015  26.940  31.892  1.00  0.00     0.074 A 
ATOM     63  C   UNL A   1      44.823  25.932  31.235  1.00  0.00     0.031 C 
ATOM     64  C   UNL A   1      44.260  27.421  33.136  1.00  0.00     0.034 A 
BRANCH  51  65
ATOM     65  C   UNL A   1      40.421  31.931  34.900  1.00  0.00     0.023 A 
ATOM     66  C   UNL A   1      41.138  33.144  34.965  1.00  0.00     0.012 A 
ATOM     67  C   UNL A   1      39.342  31.719  35.778  1.00  0.00     0.148 A 
ATOM     68  C   UNL A   1      40.808  34.116  35.907  1.00  0.00     0.002 A 
ATOM     69  C   UNL A   1      38.995  32.710  36.692  1.00  0.00     0.091 A 
ATOM     70  F   UNL A   1      38.690  30.549  35.723  1.00  0.00    -0.205 F 
ATOM     71  C   UNL A   1      39.731  33.904  36.762  1.00  0.00     0.022 A 
BRANCH  69  72
ATOM     72  S   UNL A   1      37.581  32.553  37.789  1.00  0.00     0.127 S 
ATOM     73  O   UNL A   1      37.968  33.425  38.897  1.00  0.00    -0.237 OA
ATOM     74  O   UNL A   1      36.487  33.067  36.963  1.00  0.00    -0.237 OA
ATOM     75  O   UNL A   1      37.481  31.135  38.106  1.00  0.00    -0.744 OA
ENDBRANCH  69  72
ENDBRANCH  51  65
BRANCH  52  76
ATOM     76  C   UNL A   1      42.763  25.568  27.559  1.00  0.00     0.023 A 
ATOM     77  C   UNL A   1      43.730  25.962  26.613  1.00  0.00     0.012 A 
ATOM     78  C   UNL A   1      42.198  24.283  27.469  1.00  0.00     0.148 A 
ATOM     79  C   UNL A   1      44.110  25.103  25.582  1.00  0.00     0.002 A 
ATOM     80  C   UNL A   1      42.616  23.413  26.467  1.00  0.00     0.091 A 
ATOM     81  F   UNL A   1      41.268  23.930  28.367  1.00  0.00    -0.205 F 
ATOM     82  C   UNL A   1      43.561  23.825  25.515  1.00  0.00     0.022 A 
BRANCH  80  83
ATOM     83  S   UNL A   1      42.055  21.707  26.392  1.00  0.00     0.127 S 
ATOM     84  O   UNL A   1      40.642  21.871  26.062  1.00  0.00    -0.237 OA
ATOM     85  O   UNL A   1      42.879  21.156  25.315  1.00  0.00    -0.237 OA
ATOM     86  O   UNL A   1      42.347  21.152  27.707  1.00  0.00    -0.744 OA
ENDBRANCH  80  83
ENDBRANCH  52  76
BRANCH  64  87
ATOM     87  C   UNL A   1      45.438  26.855  33.880  1.00  0.00     0.023 A 
ATOM     88  C   UNL A   1      46.696  27.477  33.759  1.00  0.00     0.012 A 
ATOM     89  C   UNL A   1      45.287  25.763  34.755  1.00  0.00     0.148 A 
ATOM     90  C   UNL A   1      47.792  27.005  34.479  1.00  0.00     0.002 A 
ATOM     91  C   UNL A   1      46.374  25.323  35.502  1.00  0.00     0.091 A 
ATOM     92  F   UNL A   1      44.087  25.167  34.839  1.00  0.00    -0.205 F 
ATOM     93  C   UNL A   1      47.628  25.937  35.359  1.00  0.00     0.022 A 
BRANCH  91  94
ATOM     94  S   UNL A   1      46.217  24.011  36.719  1.00  0.00     0.127 S 
ATOM     95  O   UNL A   1      45.705  22.908  35.909  1.00  0.00    -0.237 OA
ATOM     96  O   UNL A   1      47.595  23.839  37.181  1.00  0.00    -0.237 OA
ATOM     97  O   UNL A   1      45.308  24.528  37.734  1.00  0.00    -0.744 OA
ENDBRANCH  91  94
ENDBRANCH  64  87
ENDBRANCH  38  39
ENDBRANCH  30  33
ENDBRANCH  28  29
ENDBRANCH  27  28
ENDBRANCH   1  27
TORSDOF 18
ENDMDL
