MODEL 1
REMARK VINA RESULT:     -12.8      0.000      0.000
REMARK SMILES C[C@@H]1CC[C@@H](C(=O)NCCCCNC(=O)c2ccc(-c3c4nc(c(-c5cccc(S(=O)(=O)[O-])c5F)c5ccc([nH]5)c(-c5cccc(S(=O)(=O)[O-])c5F)c5nc(c(-c6cccc(S(=O)(=O)[O-])c6F)c6ccc3[nH]6)C=C5)C=C4)cc2)[C@H]2C(=O)N(c3ccccc3)C(=O)[C@@H]21
REMARK SMILES IDX 11 1 10 2 9 3 8 4 6 5 7 6 5 8 1 9 2 10 3 11 91 12 4 13 79 14
REMARK SMILES IDX 89 15 80 16 82 17 90 18 81 19 83 20 84 21 88 22 85 23 87 24
REMARK SMILES IDX 86 25 12 26 13 27 14 28 15 30 16 31 17 32 78 33 18 34 77 35
REMARK SMILES IDX 19 36 20 37 21 38 71 39 22 40 76 41 70 42 72 43 23 44 75 45
REMARK SMILES IDX 69 46 68 47 24 49 56 50 36 51 55 52 37 53 40 54 54 55 73 56
REMARK SMILES IDX 38 57 39 58 53 60 74 61 41 62 25 63 26 64 34 65 27 66 29 67
REMARK SMILES IDX 35 68 28 69 30 70 31 71 32 72 33 73 57 74 58 75 66 76 59 77
REMARK SMILES IDX 61 78 67 79 60 80 62 81 63 82 64 83 65 84 42 85 43 86 51 87
REMARK SMILES IDX 44 88 46 89 52 90 45 91 47 92 48 93 49 94 50 95
REMARK H PARENT 8 7 13 29 72 48 40 59
REMARK Flexibility Score: inf
ROOT
ATOM      1  C   UNL A   1      31.765  31.511  26.876  1.00  0.00     0.023 C 
ENDROOT
BRANCH   1   2
ATOM      2  C   UNL A   1      32.074  30.317  25.971  1.00  0.00     0.023 C 
BRANCH   2   3
ATOM      3  C   UNL A   1      32.837  29.174  26.645  1.00  0.00     0.116 C 
BRANCH   3   4
ATOM      4  N   UNL A   1      32.141  27.912  26.490  1.00  0.00    -0.356 N 
ATOM      5  C   UNL A   1      32.090  27.055  25.436  1.00  0.00     0.223 C 
ATOM      6  O   UNL A   1      31.372  26.060  25.545  1.00  0.00    -0.275 OA
ATOM      7  H   UNL A   1      31.619  27.629  27.276  1.00  0.00     0.163 HD
BRANCH   5   8
ATOM      8  C   UNL A   1      32.929  27.311  24.182  1.00  0.00     0.092 C 
ATOM      9  C   UNL A   1      32.586  25.939  20.582  1.00  0.00     0.008 C 
ATOM     10  C   UNL A   1      31.744  25.728  21.841  1.00  0.00    -0.001 C 
ATOM     11  C   UNL A   1      31.138  27.059  22.338  1.00  0.00     0.005 C 
ATOM     12  C   UNL A   1      32.497  25.099  23.005  1.00  0.00     0.095 C 
ATOM     13  C   UNL A   1      32.162  27.981  23.021  1.00  0.00     0.014 C 
ATOM     14  C   UNL A   1      33.534  26.027  23.618  1.00  0.00     0.104 C 
ATOM     15  C   UNL A   1      33.323  23.854  22.817  1.00  0.00     0.237 C 
ATOM     16  C   UNL A   1      34.297  25.077  24.507  1.00  0.00     0.238 C 
ATOM     17  N   UNL A   1      34.223  23.838  23.875  1.00  0.00    -0.250 N 
ATOM     18  O   UNL A   1      33.129  23.024  21.942  1.00  0.00    -0.274 OA
ATOM     19  O   UNL A   1      34.995  25.435  25.442  1.00  0.00    -0.274 OA
BRANCH  17  20
ATOM     20  C   UNL A   1      35.011  22.719  24.232  1.00  0.00     0.052 A 
ATOM     21  C   UNL A   1      34.421  21.558  24.753  1.00  0.00     0.027 A 
ATOM     22  C   UNL A   1      36.404  22.753  24.091  1.00  0.00     0.027 A 
ATOM     23  C   UNL A   1      35.202  20.456  25.112  1.00  0.00     0.002 A 
ATOM     24  C   UNL A   1      37.189  21.666  24.489  1.00  0.00     0.002 A 
ATOM     25  C   UNL A   1      36.586  20.515  24.991  1.00  0.00     0.000 A 
ENDBRANCH  17  20
ENDBRANCH   5   8
ENDBRANCH   3   4
ENDBRANCH   2   3
ENDBRANCH   1   2
BRANCH   1  26
ATOM     26  C   UNL A   1      32.965  32.370  27.253  1.00  0.00     0.116 C 
BRANCH  26  27
ATOM     27  N   UNL A   1      32.602  33.744  27.561  1.00  0.00    -0.352 N 
ATOM     28  C   UNL A   1      33.126  34.578  28.519  1.00  0.00     0.251 C 
ATOM     29  H   UNL A   1      31.883  34.130  27.009  1.00  0.00     0.163 HD
ATOM     30  O   UNL A   1      32.612  35.674  28.725  1.00  0.00    -0.269 OA
BRANCH  28  31
ATOM     31  C   UNL A   1      34.287  34.135  29.320  1.00  0.00     0.039 A 
ATOM     32  C   UNL A   1      34.059  33.447  30.515  1.00  0.00     0.014 A 
ATOM     33  C   UNL A   1      35.592  34.372  28.881  1.00  0.00     0.014 A 
ATOM     34  C   UNL A   1      35.141  32.940  31.237  1.00  0.00     0.010 A 
ATOM     35  C   UNL A   1      36.664  33.806  29.566  1.00  0.00     0.010 A 
ATOM     36  C   UNL A   1      36.451  33.084  30.750  1.00  0.00    -0.014 A 
BRANCH  36  37
ATOM     37  C   UNL A   1      37.608  32.470  31.449  1.00  0.00     0.031 A 
ATOM     38  C   UNL A   1      38.364  31.336  30.812  1.00  0.00     0.074 A 
ATOM     39  C   UNL A   1      37.915  32.868  32.700  1.00  0.00     0.049 A 
ATOM     40  N   UNL A   1      39.361  30.639  31.294  1.00  0.00    -0.248 NA
ATOM     41  C   UNL A   1      37.929  30.911  29.471  1.00  0.00     0.031 C 
ATOM     42  C   UNL A   1      37.205  33.902  33.458  1.00  0.00     0.029 A 
ATOM     43  N   UNL A   1      38.886  32.432  33.566  1.00  0.00    -0.354 N 
ATOM     44  C   UNL A   1      39.642  29.669  30.340  1.00  0.00     0.074 A 
ATOM     45  C   UNL A   1      38.698  29.851  29.259  1.00  0.00     0.031 C 
ATOM     46  C   UNL A   1      37.768  34.023  34.672  1.00  0.00     0.029 A 
ATOM     47  C   UNL A   1      38.858  33.060  34.791  1.00  0.00     0.049 A 
ATOM     48  H   UNL A   1      39.541  31.735  33.334  1.00  0.00     0.167 HD
ATOM     49  C   UNL A   1      40.616  28.728  30.349  1.00  0.00     0.034 A 
ATOM     50  C   UNL A   1      39.622  32.878  35.886  1.00  0.00     0.034 A 
ATOM     51  C   UNL A   1      41.592  28.589  31.395  1.00  0.00     0.049 A 
ATOM     52  C   UNL A   1      40.729  31.859  35.845  1.00  0.00     0.074 A 
ATOM     53  C   UNL A   1      42.689  27.746  31.439  1.00  0.00     0.029 A 
ATOM     54  N   UNL A   1      41.588  29.306  32.581  1.00  0.00    -0.354 N 
ATOM     55  N   UNL A   1      41.094  31.077  34.858  1.00  0.00    -0.248 NA
ATOM     56  C   UNL A   1      41.551  31.721  37.056  1.00  0.00     0.031 C 
ATOM     57  C   UNL A   1      43.337  27.938  32.664  1.00  0.00     0.029 A 
ATOM     58  C   UNL A   1      42.655  28.915  33.372  1.00  0.00     0.049 A 
ATOM     59  H   UNL A   1      40.926  29.990  32.825  1.00  0.00     0.167 HD
ATOM     60  C   UNL A   1      42.211  30.386  35.314  1.00  0.00     0.074 A 
ATOM     61  C   UNL A   1      42.474  30.855  36.659  1.00  0.00     0.031 C 
ATOM     62  C   UNL A   1      42.944  29.436  34.682  1.00  0.00     0.034 A 
BRANCH  49  63
ATOM     63  C   UNL A   1      40.717  27.804  29.164  1.00  0.00     0.023 A 
ATOM     64  C   UNL A   1      39.867  26.682  29.083  1.00  0.00     0.012 A 
ATOM     65  C   UNL A   1      41.591  28.088  28.097  1.00  0.00     0.148 A 
ATOM     66  C   UNL A   1      39.905  25.842  27.972  1.00  0.00     0.002 A 
ATOM     67  C   UNL A   1      41.592  27.270  26.973  1.00  0.00     0.091 A 
ATOM     68  F   UNL A   1      42.405  29.148  28.202  1.00  0.00    -0.205 F 
ATOM     69  C   UNL A   1      40.758  26.142  26.913  1.00  0.00     0.022 A 
BRANCH  67  70
ATOM     70  S   UNL A   1      42.596  27.615  25.524  1.00  0.00     0.127 S 
ATOM     71  O   UNL A   1      42.323  26.446  24.690  1.00  0.00    -0.237 OA
ATOM     72  O   UNL A   1      42.010  28.864  25.034  1.00  0.00    -0.237 OA
ATOM     73  O   UNL A   1      43.966  27.735  26.003  1.00  0.00    -0.744 OA
ENDBRANCH  67  70
ENDBRANCH  49  63
BRANCH  50  74
ATOM     74  C   UNL A   1      39.422  33.734  37.090  1.00  0.00     0.023 A 
ATOM     75  C   UNL A   1      39.890  35.062  37.073  1.00  0.00     0.012 A 
ATOM     76  C   UNL A   1      38.767  33.254  38.239  1.00  0.00     0.148 A 
ATOM     77  C   UNL A   1      39.743  35.885  38.189  1.00  0.00     0.002 A 
ATOM     78  C   UNL A   1      38.575  34.096  39.330  1.00  0.00     0.091 A 
ATOM     79  F   UNL A   1      38.341  31.982  38.245  1.00  0.00    -0.205 F 
ATOM     80  C   UNL A   1      39.077  35.406  39.314  1.00  0.00     0.022 A 
BRANCH  78  81
ATOM     81  S   UNL A   1      37.615  33.600  40.765  1.00  0.00     0.127 S 
ATOM     82  O   UNL A   1      38.498  32.622  41.393  1.00  0.00    -0.237 OA
ATOM     83  O   UNL A   1      37.478  34.863  41.491  1.00  0.00    -0.237 OA
ATOM     84  O   UNL A   1      36.362  33.081  40.233  1.00  0.00    -0.744 OA
ENDBRANCH  78  81
ENDBRANCH  50  74
BRANCH  62  85
ATOM     85  C   UNL A   1      44.127  28.860  35.416  1.00  0.00     0.023 A 
ATOM     86  C   UNL A   1      45.398  29.448  35.262  1.00  0.00     0.012 A 
ATOM     87  C   UNL A   1      43.962  27.789  36.316  1.00  0.00     0.148 A 
ATOM     88  C   UNL A   1      46.494  28.960  35.973  1.00  0.00     0.002 A 
ATOM     89  C   UNL A   1      45.049  27.339  37.057  1.00  0.00     0.091 A 
ATOM     90  F   UNL A   1      42.749  27.231  36.433  1.00  0.00    -0.205 F 
ATOM     91  C   UNL A   1      46.317  27.915  36.878  1.00  0.00     0.022 A 
BRANCH  89  92
ATOM     92  S   UNL A   1      44.892  26.067  38.315  1.00  0.00     0.127 S 
ATOM     93  O   UNL A   1      43.896  26.654  39.210  1.00  0.00    -0.237 OA
ATOM     94  O   UNL A   1      44.416  24.919  37.541  1.00  0.00    -0.237 OA
ATOM     95  O   UNL A   1      46.223  25.899  38.882  1.00  0.00    -0.744 OA
ENDBRANCH  89  92
ENDBRANCH  62  85
ENDBRANCH  36  37
ENDBRANCH  28  31
ENDBRANCH  26  27
ENDBRANCH   1  26
TORSDOF 15
ENDMDL
MODEL 2
REMARK VINA RESULT:     -12.7      1.476      1.823
REMARK SMILES C[C@@H]1CC[C@@H](C(=O)NCCCCNC(=O)c2ccc(-c3c4nc(c(-c5cccc(S(=O)(=O)[O-])c5F)c5ccc([nH]5)c(-c5cccc(S(=O)(=O)[O-])c5F)c5nc(c(-c6cccc(S(=O)(=O)[O-])c6F)c6ccc3[nH]6)C=C5)C=C4)cc2)[C@H]2C(=O)N(c3ccccc3)C(=O)[C@@H]21
REMARK SMILES IDX 11 1 10 2 9 3 8 4 6 5 7 6 5 8 1 9 2 10 3 11 91 12 4 13 79 14
REMARK SMILES IDX 89 15 80 16 82 17 90 18 81 19 83 20 84 21 88 22 85 23 87 24
REMARK SMILES IDX 86 25 12 26 13 27 14 28 15 30 16 31 17 32 78 33 18 34 77 35
REMARK SMILES IDX 19 36 20 37 21 38 71 39 22 40 76 41 70 42 72 43 23 44 75 45
REMARK SMILES IDX 69 46 68 47 24 49 56 50 36 51 55 52 37 53 40 54 54 55 73 56
REMARK SMILES IDX 38 57 39 58 53 60 74 61 41 62 25 63 26 64 34 65 27 66 29 67
REMARK SMILES IDX 35 68 28 69 30 70 31 71 32 72 33 73 57 74 58 75 66 76 59 77
REMARK SMILES IDX 61 78 67 79 60 80 62 81 63 82 64 83 65 84 42 85 43 86 51 87
REMARK SMILES IDX 44 88 46 89 52 90 45 91 47 92 48 93 49 94 50 95
REMARK H PARENT 8 7 13 29 72 48 40 59
REMARK Flexibility Score: inf
ROOT
ATOM      1  C   UNL A   1      31.250  31.666  26.501  1.00  0.00     0.023 C 
ENDROOT
BRANCH   1   2
ATOM      2  C   UNL A   1      31.353  30.324  25.774  1.00  0.00     0.023 C 
BRANCH   2   3
ATOM      3  C   UNL A   1      32.289  29.304  26.427  1.00  0.00     0.116 C 
BRANCH   3   4
ATOM      4  N   UNL A   1      31.754  27.960  26.329  1.00  0.00    -0.356 N 
ATOM      5  C   UNL A   1      31.868  27.035  25.339  1.00  0.00     0.223 C 
ATOM      6  O   UNL A   1      31.265  25.970  25.483  1.00  0.00    -0.275 OA
ATOM      7  H   UNL A   1      31.223  27.670  27.105  1.00  0.00     0.163 HD
BRANCH   5   8
ATOM      8  C   UNL A   1      32.746  27.305  24.116  1.00  0.00     0.092 C 
ATOM      9  C   UNL A   1      32.534  25.954  20.498  1.00  0.00     0.008 C 
ATOM     10  C   UNL A   1      31.653  25.728  21.727  1.00  0.00    -0.001 C 
ATOM     11  C   UNL A   1      31.020  27.051  22.212  1.00  0.00     0.005 C 
ATOM     12  C   UNL A   1      32.372  25.097  22.912  1.00  0.00     0.095 C 
ATOM     13  C   UNL A   1      32.012  27.977  22.934  1.00  0.00     0.014 C 
ATOM     14  C   UNL A   1      33.380  26.031  23.564  1.00  0.00     0.104 C 
ATOM     15  C   UNL A   1      33.214  23.860  22.744  1.00  0.00     0.237 C 
ATOM     16  C   UNL A   1      34.120  25.081  24.472  1.00  0.00     0.238 C 
ATOM     17  N   UNL A   1      34.078  23.845  23.831  1.00  0.00    -0.250 N 
ATOM     18  O   UNL A   1      33.055  23.034  21.857  1.00  0.00    -0.274 OA
ATOM     19  O   UNL A   1      34.784  25.438  25.432  1.00  0.00    -0.274 OA
BRANCH  17  20
ATOM     20  C   UNL A   1      34.863  22.730  24.207  1.00  0.00     0.052 A 
ATOM     21  C   UNL A   1      34.283  21.622  24.842  1.00  0.00     0.027 A 
ATOM     22  C   UNL A   1      36.244  22.717  23.970  1.00  0.00     0.027 A 
ATOM     23  C   UNL A   1      35.062  20.524  25.219  1.00  0.00     0.002 A 
ATOM     24  C   UNL A   1      37.029  21.636  24.385  1.00  0.00     0.002 A 
ATOM     25  C   UNL A   1      36.436  20.537  25.001  1.00  0.00     0.000 A 
ENDBRANCH  17  20
ENDBRANCH   5   8
ENDBRANCH   3   4
ENDBRANCH   2   3
ENDBRANCH   1   2
BRANCH   1  26
ATOM     26  C   UNL A   1      32.546  32.460  26.589  1.00  0.00     0.116 C 
BRANCH  26  27
ATOM     27  N   UNL A   1      32.378  33.748  27.245  1.00  0.00    -0.352 N 
ATOM     28  C   UNL A   1      33.101  34.287  28.281  1.00  0.00     0.251 C 
ATOM     29  H   UNL A   1      31.646  34.309  26.900  1.00  0.00     0.163 HD
ATOM     30  O   UNL A   1      32.741  35.341  28.797  1.00  0.00    -0.269 OA
BRANCH  28  31
ATOM     31  C   UNL A   1      34.293  33.575  28.789  1.00  0.00     0.039 A 
ATOM     32  C   UNL A   1      35.537  34.208  28.721  1.00  0.00     0.014 A 
ATOM     33  C   UNL A   1      34.181  32.302  29.354  1.00  0.00     0.014 A 
ATOM     34  C   UNL A   1      36.658  33.591  29.280  1.00  0.00     0.010 A 
ATOM     35  C   UNL A   1      35.284  31.720  29.970  1.00  0.00     0.010 A 
ATOM     36  C   UNL A   1      36.534  32.357  29.940  1.00  0.00    -0.014 A 
BRANCH  36  37
ATOM     37  C   UNL A   1      37.692  31.728  30.625  1.00  0.00     0.031 A 
ATOM     38  C   UNL A   1      38.511  30.679  29.922  1.00  0.00     0.074 A 
ATOM     39  C   UNL A   1      37.944  32.029  31.915  1.00  0.00     0.049 A 
ATOM     40  N   UNL A   1      39.517  29.979  30.378  1.00  0.00    -0.248 NA
ATOM     41  C   UNL A   1      38.134  30.354  28.536  1.00  0.00     0.031 C 
ATOM     42  C   UNL A   1      37.172  32.969  32.732  1.00  0.00     0.029 A 
ATOM     43  N   UNL A   1      38.903  31.556  32.775  1.00  0.00    -0.354 N 
ATOM     44  C   UNL A   1      39.865  29.104  29.357  1.00  0.00     0.074 A 
ATOM     45  C   UNL A   1      38.949  29.343  28.264  1.00  0.00     0.031 C 
ATOM     46  C   UNL A   1      37.691  33.007  33.970  1.00  0.00     0.029 A 
ATOM     47  C   UNL A   1      38.813  32.076  34.046  1.00  0.00     0.049 A 
ATOM     48  H   UNL A   1      39.591  30.905  32.508  1.00  0.00     0.167 HD
ATOM     49  C   UNL A   1      40.873  28.201  29.321  1.00  0.00     0.034 A 
ATOM     50  C   UNL A   1      39.548  31.830  35.147  1.00  0.00     0.034 A 
ATOM     51  C   UNL A   1      41.821  28.009  30.385  1.00  0.00     0.049 A 
ATOM     52  C   UNL A   1      40.694  30.858  35.060  1.00  0.00     0.074 A 
ATOM     53  C   UNL A   1      42.947  27.205  30.397  1.00  0.00     0.029 A 
ATOM     54  N   UNL A   1      41.753  28.622  31.626  1.00  0.00    -0.354 N 
ATOM     55  N   UNL A   1      41.120  30.175  34.024  1.00  0.00    -0.248 NA
ATOM     56  C   UNL A   1      41.483  30.648  36.283  1.00  0.00     0.031 C 
ATOM     57  C   UNL A   1      43.549  27.315  31.655  1.00  0.00     0.029 A 
ATOM     58  C   UNL A   1      42.808  28.204  32.418  1.00  0.00     0.049 A 
ATOM     59  H   UNL A   1      41.057  29.260  31.903  1.00  0.00     0.167 HD
ATOM     60  C   UNL A   1      42.248  29.489  34.459  1.00  0.00     0.074 A 
ATOM     61  C   UNL A   1      42.450  29.852  35.847  1.00  0.00     0.031 C 
ATOM     62  C   UNL A   1      43.036  28.622  33.776  1.00  0.00     0.034 A 
BRANCH  49  63
ATOM     63  C   UNL A   1      41.047  27.385  28.067  1.00  0.00     0.023 A 
ATOM     64  C   UNL A   1      41.631  27.977  26.929  1.00  0.00     0.012 A 
ATOM     65  C   UNL A   1      40.707  26.018  28.040  1.00  0.00     0.148 A 
ATOM     66  C   UNL A   1      41.850  27.228  25.774  1.00  0.00     0.002 A 
ATOM     67  C   UNL A   1      40.968  25.269  26.899  1.00  0.00     0.091 A 
ATOM     68  F   UNL A   1      40.133  25.480  29.125  1.00  0.00    -0.205 F 
ATOM     69  C   UNL A   1      41.530  25.874  25.763  1.00  0.00     0.022 A 
BRANCH  67  70
ATOM     70  S   UNL A   1      40.666  23.500  26.811  1.00  0.00     0.127 S 
ATOM     71  O   UNL A   1      39.243  23.461  26.476  1.00  0.00    -0.237 OA
ATOM     72  O   UNL A   1      41.559  23.088  25.728  1.00  0.00    -0.237 OA
ATOM     73  O   UNL A   1      41.014  22.967  28.121  1.00  0.00    -0.744 OA
ENDBRANCH  67  70
ENDBRANCH  49  63
BRANCH  50  74
ATOM     74  C   UNL A   1      39.278  32.573  36.411  1.00  0.00     0.023 A 
ATOM     75  C   UNL A   1      39.928  33.803  36.636  1.00  0.00     0.012 A 
ATOM     76  C   UNL A   1      38.382  32.085  37.380  1.00  0.00     0.148 A 
ATOM     77  C   UNL A   1      39.719  34.515  37.817  1.00  0.00     0.002 A 
ATOM     78  C   UNL A   1      38.137  32.826  38.532  1.00  0.00     0.091 A 
ATOM     79  F   UNL A   1      37.784  30.906  37.158  1.00  0.00    -0.205 F 
ATOM     80  C   UNL A   1      38.816  34.032  38.760  1.00  0.00     0.022 A 
BRANCH  78  81
ATOM     81  S   UNL A   1      36.894  32.341  39.736  1.00  0.00     0.127 S 
ATOM     82  O   UNL A   1      37.353  31.009  40.119  1.00  0.00    -0.237 OA
ATOM     83  O   UNL A   1      37.050  33.368  40.766  1.00  0.00    -0.237 OA
ATOM     84  O   UNL A   1      35.623  32.399  39.025  1.00  0.00    -0.744 OA
ENDBRANCH  78  81
ENDBRANCH  50  74
BRANCH  62  85
ATOM     85  C   UNL A   1      44.216  28.029  34.500  1.00  0.00     0.023 A 
ATOM     86  C   UNL A   1      45.456  28.696  34.478  1.00  0.00     0.012 A 
ATOM     87  C   UNL A   1      44.074  26.854  35.264  1.00  0.00     0.148 A 
ATOM     88  C   UNL A   1      46.546  28.188  35.184  1.00  0.00     0.002 A 
ATOM     89  C   UNL A   1      45.151  26.379  36.004  1.00  0.00     0.091 A 
ATOM     90  F   UNL A   1      42.891  26.223  35.255  1.00  0.00    -0.205 F 
ATOM     91  C   UNL A   1      46.390  27.038  35.956  1.00  0.00     0.022 A 
BRANCH  89  92
ATOM     92  S   UNL A   1      45.012  24.964  37.101  1.00  0.00     0.127 S 
ATOM     93  O   UNL A   1      44.624  23.904  36.172  1.00  0.00    -0.237 OA
ATOM     94  O   UNL A   1      46.372  24.844  37.630  1.00  0.00    -0.237 OA
ATOM     95  O   UNL A   1      44.010  25.325  38.095  1.00  0.00    -0.744 OA
ENDBRANCH  89  92
ENDBRANCH  62  85
ENDBRANCH  36  37
ENDBRANCH  28  31
ENDBRANCH  26  27
ENDBRANCH   1  26
TORSDOF 15
ENDMDL
MODEL 3
REMARK VINA RESULT:     -12.7      6.329     11.546
REMARK SMILES C[C@@H]1CC[C@@H](C(=O)NCCCCNC(=O)c2ccc(-c3c4nc(c(-c5cccc(S(=O)(=O)[O-])c5F)c5ccc([nH]5)c(-c5cccc(S(=O)(=O)[O-])c5F)c5nc(c(-c6cccc(S(=O)(=O)[O-])c6F)c6ccc3[nH]6)C=C5)C=C4)cc2)[C@H]2C(=O)N(c3ccccc3)C(=O)[C@@H]21
REMARK SMILES IDX 11 1 10 2 9 3 8 4 6 5 7 6 5 8 1 9 2 10 3 11 91 12 4 13 79 14
REMARK SMILES IDX 89 15 80 16 82 17 90 18 81 19 83 20 84 21 88 22 85 23 87 24
REMARK SMILES IDX 86 25 12 26 13 27 14 28 15 30 16 31 17 32 78 33 18 34 77 35
REMARK SMILES IDX 19 36 20 37 21 38 71 39 22 40 76 41 70 42 72 43 23 44 75 45
REMARK SMILES IDX 69 46 68 47 24 49 56 50 36 51 55 52 37 53 40 54 54 55 73 56
REMARK SMILES IDX 38 57 39 58 53 60 74 61 41 62 25 63 26 64 34 65 27 66 29 67
REMARK SMILES IDX 35 68 28 69 30 70 31 71 32 72 33 73 57 74 58 75 66 76 59 77
REMARK SMILES IDX 61 78 67 79 60 80 62 81 63 82 64 83 65 84 42 85 43 86 51 87
REMARK SMILES IDX 44 88 46 89 52 90 45 91 47 92 48 93 49 94 50 95
REMARK H PARENT 8 7 13 29 72 48 40 59
REMARK Flexibility Score: inf
ROOT
ATOM      1  C   UNL A   1      37.963  20.212  24.802  1.00  0.00     0.023 C 
ENDROOT
BRANCH   1   2
ATOM      2  C   UNL A   1      36.634  20.945  24.999  1.00  0.00     0.023 C 
BRANCH   2   3
ATOM      3  C   UNL A   1      36.708  22.467  24.854  1.00  0.00     0.116 C 
BRANCH   3   4
ATOM      4  N   UNL A   1      35.643  22.968  24.008  1.00  0.00    -0.356 N 
ATOM      5  C   UNL A   1      34.334  23.210  24.286  1.00  0.00     0.223 C 
ATOM      6  O   UNL A   1      33.616  23.592  23.361  1.00  0.00    -0.275 OA
ATOM      7  H   UNL A   1      35.910  23.164  23.082  1.00  0.00     0.163 HD
BRANCH   5   8
ATOM      8  C   UNL A   1      33.796  23.046  25.709  1.00  0.00     0.092 C 
ATOM      9  C   UNL A   1      30.177  22.664  27.021  1.00  0.00     0.008 C 
ATOM     10  C   UNL A   1      30.744  22.794  25.606  1.00  0.00    -0.001 C 
ATOM     11  C   UNL A   1      31.689  21.619  25.272  1.00  0.00     0.005 C 
ATOM     12  C   UNL A   1      31.505  24.087  25.347  1.00  0.00     0.095 C 
ATOM     13  C   UNL A   1      33.057  21.715  25.968  1.00  0.00     0.014 C 
ATOM     14  C   UNL A   1      32.827  24.162  26.094  1.00  0.00     0.104 C 
ATOM     15  C   UNL A   1      30.913  25.424  25.706  1.00  0.00     0.237 C 
ATOM     16  C   UNL A   1      33.199  25.610  25.897  1.00  0.00     0.238 C 
ATOM     17  N   UNL A   1      31.990  26.295  25.809  1.00  0.00    -0.250 N 
ATOM     18  O   UNL A   1      29.714  25.648  25.786  1.00  0.00    -0.274 OA
ATOM     19  O   UNL A   1      34.333  26.043  26.028  1.00  0.00    -0.274 OA
BRANCH  17  20
ATOM     20  C   UNL A   1      31.870  27.703  25.874  1.00  0.00     0.052 A 
ATOM     21  C   UNL A   1      32.138  28.395  27.064  1.00  0.00     0.027 A 
ATOM     22  C   UNL A   1      31.461  28.437  24.753  1.00  0.00     0.027 A 
ATOM     23  C   UNL A   1      32.012  29.786  27.129  1.00  0.00     0.002 A 
ATOM     24  C   UNL A   1      31.296  29.824  24.829  1.00  0.00     0.002 A 
ATOM     25  C   UNL A   1      31.580  30.497  26.015  1.00  0.00     0.000 A 
ENDBRANCH  17  20
ENDBRANCH   5   8
ENDBRANCH   3   4
ENDBRANCH   2   3
ENDBRANCH   1   2
BRANCH   1  26
ATOM     26  C   UNL A   1      38.970  20.375  25.933  1.00  0.00     0.116 C 
BRANCH  26  27
ATOM     27  N   UNL A   1      39.977  19.324  25.950  1.00  0.00    -0.352 N 
ATOM     28  C   UNL A   1      41.336  19.438  26.113  1.00  0.00     0.251 C 
ATOM     29  H   UNL A   1      39.638  18.408  25.828  1.00  0.00     0.163 HD
ATOM     30  O   UNL A   1      42.054  18.452  25.976  1.00  0.00    -0.269 OA
BRANCH  28  31
ATOM     31  C   UNL A   1      41.928  20.758  26.421  1.00  0.00     0.039 A 
ATOM     32  C   UNL A   1      42.228  21.624  25.367  1.00  0.00     0.014 A 
ATOM     33  C   UNL A   1      42.161  21.148  27.742  1.00  0.00     0.014 A 
ATOM     34  C   UNL A   1      42.702  22.909  25.642  1.00  0.00     0.010 A 
ATOM     35  C   UNL A   1      42.566  22.450  28.016  1.00  0.00     0.010 A 
ATOM     36  C   UNL A   1      42.841  23.345  26.970  1.00  0.00    -0.014 A 
BRANCH  36  37
ATOM     37  C   UNL A   1      43.249  24.737  27.288  1.00  0.00     0.031 A 
ATOM     38  C   UNL A   1      42.258  25.700  27.886  1.00  0.00     0.074 A 
ATOM     39  C   UNL A   1      44.482  25.161  26.946  1.00  0.00     0.049 A 
ATOM     40  N   UNL A   1      42.415  26.966  28.176  1.00  0.00    -0.248 NA
ATOM     41  C   UNL A   1      40.910  25.182  28.171  1.00  0.00     0.031 C 
ATOM     42  C   UNL A   1      45.506  24.347  26.287  1.00  0.00     0.029 A 
ATOM     43  N   UNL A   1      45.075  26.392  27.081  1.00  0.00    -0.354 N 
ATOM     44  C   UNL A   1      41.179  27.406  28.633  1.00  0.00     0.074 A 
ATOM     45  C   UNL A   1      40.275  26.279  28.562  1.00  0.00     0.031 C 
ATOM     46  C   UNL A   1      46.600  25.097  26.080  1.00  0.00     0.029 A 
ATOM     47  C   UNL A   1      46.350  26.451  26.565  1.00  0.00     0.049 A 
ATOM     48  H   UNL A   1      44.631  27.160  27.506  1.00  0.00     0.167 HD
ATOM     49  C   UNL A   1      40.833  28.631  29.096  1.00  0.00     0.034 A 
ATOM     50  C   UNL A   1      47.217  27.479  26.489  1.00  0.00     0.034 A 
ATOM     51  C   UNL A   1      41.750  29.731  29.224  1.00  0.00     0.049 A 
ATOM     52  C   UNL A   1      46.820  28.815  27.058  1.00  0.00     0.074 A 
ATOM     53  C   UNL A   1      41.525  30.973  29.792  1.00  0.00     0.029 A 
ATOM     54  N   UNL A   1      43.060  29.726  28.775  1.00  0.00    -0.354 N 
ATOM     55  N   UNL A   1      45.704  29.159  27.656  1.00  0.00    -0.248 NA
ATOM     56  C   UNL A   1      47.814  29.895  26.975  1.00  0.00     0.031 C 
ATOM     57  C   UNL A   1      42.696  31.729  29.666  1.00  0.00     0.029 A 
ATOM     58  C   UNL A   1      43.655  30.948  29.039  1.00  0.00     0.049 A 
ATOM     59  H   UNL A   1      43.503  28.967  28.333  1.00  0.00     0.167 HD
ATOM     60  C   UNL A   1      45.878  30.479  28.056  1.00  0.00     0.074 A 
ATOM     61  C   UNL A   1      47.213  30.867  27.649  1.00  0.00     0.031 C 
ATOM     62  C   UNL A   1      45.005  31.301  28.687  1.00  0.00     0.034 A 
BRANCH  49  63
ATOM     63  C   UNL A   1      39.415  28.837  29.557  1.00  0.00     0.023 A 
ATOM     64  C   UNL A   1      39.047  28.457  30.864  1.00  0.00     0.012 A 
ATOM     65  C   UNL A   1      38.471  29.477  28.731  1.00  0.00     0.148 A 
ATOM     66  C   UNL A   1      37.755  28.686  31.332  1.00  0.00     0.002 A 
ATOM     67  C   UNL A   1      37.196  29.740  29.220  1.00  0.00     0.091 A 
ATOM     68  F   UNL A   1      38.834  29.812  27.485  1.00  0.00    -0.205 F 
ATOM     69  C   UNL A   1      36.834  29.337  30.515  1.00  0.00     0.022 A 
BRANCH  67  70
ATOM     70  S   UNL A   1      35.963  30.643  28.275  1.00  0.00     0.127 S 
ATOM     71  O   UNL A   1      34.984  30.974  29.309  1.00  0.00    -0.237 OA
ATOM     72  O   UNL A   1      36.732  31.785  27.777  1.00  0.00    -0.237 OA
ATOM     73  O   UNL A   1      35.498  29.728  27.243  1.00  0.00    -0.744 OA
ENDBRANCH  67  70
ENDBRANCH  49  63
BRANCH  50  74
ATOM     74  C   UNL A   1      48.579  27.272  25.920  1.00  0.00     0.023 A 
ATOM     75  C   UNL A   1      49.608  26.804  26.760  1.00  0.00     0.012 A 
ATOM     76  C   UNL A   1      48.861  27.518  24.563  1.00  0.00     0.148 A 
ATOM     77  C   UNL A   1      50.901  26.620  26.269  1.00  0.00     0.002 A 
ATOM     78  C   UNL A   1      50.139  27.282  24.067  1.00  0.00     0.091 A 
ATOM     79  F   UNL A   1      47.873  27.977  23.781  1.00  0.00    -0.205 F 
ATOM     80  C   UNL A   1      51.165  26.850  24.922  1.00  0.00     0.022 A 
BRANCH  78  81
ATOM     81  S   UNL A   1      50.530  27.427  22.320  1.00  0.00     0.127 S 
ATOM     82  O   UNL A   1      51.909  26.949  22.281  1.00  0.00    -0.237 OA
ATOM     83  O   UNL A   1      49.548  26.528  21.712  1.00  0.00    -0.237 OA
ATOM     84  O   UNL A   1      50.332  28.834  21.994  1.00  0.00    -0.744 OA
ENDBRANCH  78  81
ENDBRANCH  50  74
BRANCH  62  85
ATOM     85  C   UNL A   1      45.469  32.696  29.018  1.00  0.00     0.023 A 
ATOM     86  C   UNL A   1      46.167  32.934  30.218  1.00  0.00     0.012 A 
ATOM     87  C   UNL A   1      45.284  33.750  28.102  1.00  0.00     0.148 A 
ATOM     88  C   UNL A   1      46.648  34.208  30.516  1.00  0.00     0.002 A 
ATOM     89  C   UNL A   1      45.808  35.007  28.384  1.00  0.00     0.091 A 
ATOM     90  F   UNL A   1      44.600  33.508  26.975  1.00  0.00    -0.205 F 
ATOM     91  C   UNL A   1      46.480  35.240  29.594  1.00  0.00     0.022 A 
BRANCH  89  92
ATOM     92  S   UNL A   1      45.724  36.366  27.212  1.00  0.00     0.127 S 
ATOM     93  O   UNL A   1      46.501  37.398  27.898  1.00  0.00    -0.237 OA
ATOM     94  O   UNL A   1      46.374  35.800  26.029  1.00  0.00    -0.237 OA
ATOM     95  O   UNL A   1      44.308  36.658  27.039  1.00  0.00    -0.744 OA
ENDBRANCH  89  92
ENDBRANCH  62  85
ENDBRANCH  36  37
ENDBRANCH  28  31
ENDBRANCH  26  27
ENDBRANCH   1  26
TORSDOF 15
ENDMDL
