MODEL 1
REMARK VINA RESULT:     -11.6      0.000      0.000
REMARK SMILES COc1cccc(-c2cc(OCC(=O)NCCCCNC(=O)c3ccc(-c4c5nc(c(-c6cccc(S(=O)(=O)[O-])c6F)c6ccc([nH]6)c(-c6cccc(S(=O)(=O)[O-])c6F)c6nc(c(-c7cccc(S(=O)(=O)[O-])c7F)c7ccc4[nH]7)C=C6)C=C5)cc3)nc(Nc3ccccc3Br)n2)c1
REMARK SMILES IDX 17 1 16 2 15 3 13 4 14 5 12 7 11 8 10 9 8 10 9 11 96 12
REMARK SMILES IDX 87 13 86 14 7 15 3 16 4 17 97 18 5 19 6 20 2 21 1 22 88 23
REMARK SMILES IDX 89 25 90 26 94 27 91 28 93 29 95 30 92 31 18 32 19 33 20 34
REMARK SMILES IDX 21 35 22 37 23 38 24 39 85 40 25 41 84 42 26 43 27 44 28 45
REMARK SMILES IDX 78 46 29 47 83 48 77 49 79 50 30 51 82 52 76 53 75 54 31 56
REMARK SMILES IDX 63 57 43 58 62 59 44 60 47 61 61 62 80 63 45 64 46 65 60 67
REMARK SMILES IDX 81 68 48 69 32 70 33 71 41 72 34 73 36 74 42 75 35 76 37 77
REMARK SMILES IDX 38 78 39 79 40 80 64 81 65 82 73 83 66 84 68 85 74 86 67 87
REMARK SMILES IDX 69 88 70 89 71 90 72 91 49 92 50 93 58 94 51 95 53 96 59 97
REMARK SMILES IDX 52 98 54 99 55 100 56 101 57 102
REMARK H PARENT 15 6 88 24 20 36 79 55 47 66
REMARK Flexibility Score: inf
ROOT
ATOM      1  C   UNL A   1      34.987  32.752  28.063  1.00  0.00     0.023 C 
ENDROOT
BRANCH   1   2
ATOM      2  C   UNL A   1      34.866  31.242  27.872  1.00  0.00     0.116 C 
BRANCH   2   3
ATOM      3  N   UNL A   1      33.486  30.811  27.768  1.00  0.00    -0.353 N 
ATOM      4  C   UNL A   1      33.006  29.656  27.227  1.00  0.00     0.258 C 
ATOM      5  O   UNL A   1      31.791  29.450  27.237  1.00  0.00    -0.271 OA
ATOM      6  H   UNL A   1      32.813  31.428  28.132  1.00  0.00     0.163 HD
BRANCH   4   7
ATOM      7  C   UNL A   1      33.981  28.629  26.636  1.00  0.00     0.331 C 
BRANCH   7   8
ATOM      8  O   UNL A   1      34.137  28.623  25.226  1.00  0.00    -0.467 OA
BRANCH   8   9
ATOM      9  C   UNL A   1      33.493  27.648  24.515  1.00  0.00     0.219 A 
ATOM     10  C   UNL A   1      32.920  25.472  23.898  1.00  0.00     0.080 A 
ATOM     11  C   UNL A   1      33.716  26.303  24.652  1.00  0.00     0.097 A 
ATOM     12  N   UNL A   1      32.018  25.940  23.025  1.00  0.00    -0.212 NA
ATOM     13  C   UNL A   1      31.852  27.268  22.957  1.00  0.00     0.231 A 
ATOM     14  N   UNL A   1      32.581  28.144  23.662  1.00  0.00    -0.177 NA
BRANCH  10  15
ATOM     15  C   UNL A   1      32.999  24.018  24.045  1.00  0.00     0.004 A 
ATOM     16  C   UNL A   1      33.812  22.076  25.273  1.00  0.00     0.119 A 
ATOM     17  C   UNL A   1      33.330  21.244  24.263  1.00  0.00     0.046 A 
ATOM     18  C   UNL A   1      33.657  23.456  25.157  1.00  0.00     0.056 A 
ATOM     19  C   UNL A   1      32.647  21.781  23.171  1.00  0.00     0.005 A 
ATOM     20  C   UNL A   1      32.473  23.161  23.069  1.00  0.00     0.010 A 
BRANCH  16  21
ATOM     21  O   UNL A   1      34.474  21.450  26.294  1.00  0.00    -0.497 OA
ATOM     22  C   UNL A   1      34.068  21.832  27.607  1.00  0.00     0.278 C 
ENDBRANCH  16  21
ENDBRANCH  10  15
BRANCH  13  23
ATOM     23  N   UNL A   1      30.908  27.802  22.084  1.00  0.00    -0.323 N 
ATOM     24  H   UNL A   1      30.997  27.535  21.142  1.00  0.00     0.170 HD
BRANCH  23  25
ATOM     25  C   UNL A   1      29.845  28.669  22.372  1.00  0.00     0.055 A 
ATOM     26  C   UNL A   1      29.931  29.991  21.902  1.00  0.00     0.027 A 
ATOM     27  C   UNL A   1      28.664  28.280  23.035  1.00  0.00     0.041 A 
ATOM     28  C   UNL A   1      28.865  30.883  22.050  1.00  0.00     0.002 A 
ATOM     29  C   UNL A   1      27.598  29.177  23.183  1.00  0.00     0.018 A 
ATOM     30  Br  UNL A   1      28.478  26.589  23.891  1.00  0.00    -0.049 Br
ATOM     31  C   UNL A   1      27.695  30.474  22.681  1.00  0.00     0.001 A 
ENDBRANCH  23  25
ENDBRANCH  13  23
ENDBRANCH   8   9
ENDBRANCH   7   8
ENDBRANCH   4   7
ENDBRANCH   2   3
ENDBRANCH   1   2
BRANCH   1  32
ATOM     32  C   UNL A   1      33.655  33.499  28.180  1.00  0.00     0.023 C 
BRANCH  32  33
ATOM     33  C   UNL A   1      33.760  34.978  28.532  1.00  0.00     0.116 C 
BRANCH  33  34
ATOM     34  N   UNL A   1      33.019  35.333  29.732  1.00  0.00    -0.352 N 
ATOM     35  C   UNL A   1      33.258  34.974  31.035  1.00  0.00     0.251 C 
ATOM     36  H   UNL A   1      32.236  35.911  29.590  1.00  0.00     0.163 HD
ATOM     37  O   UNL A   1      32.439  35.268  31.906  1.00  0.00    -0.269 OA
BRANCH  35  38
ATOM     38  C   UNL A   1      34.481  34.219  31.392  1.00  0.00     0.039 A 
ATOM     39  C   UNL A   1      35.723  34.848  31.265  1.00  0.00     0.014 A 
ATOM     40  C   UNL A   1      34.413  32.895  31.832  1.00  0.00     0.014 A 
ATOM     41  C   UNL A   1      36.889  34.161  31.612  1.00  0.00     0.010 A 
ATOM     42  C   UNL A   1      35.568  32.242  32.258  1.00  0.00     0.010 A 
ATOM     43  C   UNL A   1      36.822  32.856  32.128  1.00  0.00    -0.014 A 
BRANCH  43  44
ATOM     44  C   UNL A   1      38.054  32.105  32.488  1.00  0.00     0.031 A 
ATOM     45  C   UNL A   1      38.783  32.426  33.770  1.00  0.00     0.074 A 
ATOM     46  C   UNL A   1      38.544  31.168  31.652  1.00  0.00     0.049 A 
ATOM     47  N   UNL A   1      39.887  31.909  34.245  1.00  0.00    -0.248 NA
ATOM     48  C   UNL A   1      38.208  33.484  34.620  1.00  0.00     0.031 C 
ATOM     49  C   UNL A   1      37.972  30.806  30.353  1.00  0.00     0.029 A 
ATOM     50  N   UNL A   1      39.647  30.358  31.763  1.00  0.00    -0.354 N 
ATOM     51  C   UNL A   1      40.150  32.589  35.428  1.00  0.00     0.074 A 
ATOM     52  C   UNL A   1      39.121  33.595  35.574  1.00  0.00     0.031 C 
ATOM     53  C   UNL A   1      38.718  29.839  29.796  1.00  0.00     0.029 A 
ATOM     54  C   UNL A   1      39.837  29.530  30.680  1.00  0.00     0.049 A 
ATOM     55  H   UNL A   1      40.245  30.368  32.545  1.00  0.00     0.167 HD
ATOM     56  C   UNL A   1      41.130  32.374  36.339  1.00  0.00     0.034 A 
ATOM     57  C   UNL A   1      40.805  28.624  30.432  1.00  0.00     0.034 A 
ATOM     58  C   UNL A   1      42.131  31.350  36.214  1.00  0.00     0.049 A 
ATOM     59  C   UNL A   1      41.872  28.395  31.471  1.00  0.00     0.074 A 
ATOM     60  C   UNL A   1      43.144  31.024  37.097  1.00  0.00     0.029 A 
ATOM     61  N   UNL A   1      42.242  30.480  35.141  1.00  0.00    -0.354 N 
ATOM     62  N   UNL A   1      42.028  28.968  32.640  1.00  0.00    -0.248 NA
ATOM     63  C   UNL A   1      42.871  27.358  31.174  1.00  0.00     0.031 C 
ATOM     64  C   UNL A   1      43.878  29.965  36.551  1.00  0.00     0.029 A 
ATOM     65  C   UNL A   1      43.298  29.609  35.344  1.00  0.00     0.049 A 
ATOM     66  H   UNL A   1      41.656  30.482  34.350  1.00  0.00     0.167 HD
ATOM     67  C   UNL A   1      43.102  28.320  33.241  1.00  0.00     0.074 A 
ATOM     68  C   UNL A   1      43.546  27.301  32.313  1.00  0.00     0.031 C 
ATOM     69  C   UNL A   1      43.680  28.552  34.446  1.00  0.00     0.034 A 
BRANCH  56  70
ATOM     70  C   UNL A   1      41.125  33.220  37.587  1.00  0.00     0.023 A 
ATOM     71  C   UNL A   1      40.325  32.830  38.682  1.00  0.00     0.012 A 
ATOM     72  C   UNL A   1      41.948  34.356  37.704  1.00  0.00     0.148 A 
ATOM     73  C   UNL A   1      40.319  33.576  39.860  1.00  0.00     0.002 A 
ATOM     74  C   UNL A   1      41.974  35.067  38.899  1.00  0.00     0.091 A 
ATOM     75  F   UNL A   1      42.689  34.720  36.649  1.00  0.00    -0.205 F 
ATOM     76  C   UNL A   1      41.150  34.686  39.972  1.00  0.00     0.022 A 
BRANCH  74  77
ATOM     77  S   UNL A   1      43.067  36.464  39.179  1.00  0.00     0.127 S 
ATOM     78  O   UNL A   1      44.382  35.852  38.984  1.00  0.00    -0.237 OA
ATOM     79  O   UNL A   1      42.661  37.387  38.119  1.00  0.00    -0.237 OA
ATOM     80  O   UNL A   1      42.793  36.926  40.532  1.00  0.00    -0.744 OA
ENDBRANCH  74  77
ENDBRANCH  56  70
BRANCH  57  81
ATOM     81  C   UNL A   1      40.786  27.810  29.182  1.00  0.00     0.023 A 
ATOM     82  C   UNL A   1      39.916  26.704  29.090  1.00  0.00     0.012 A 
ATOM     83  C   UNL A   1      41.642  28.099  28.104  1.00  0.00     0.148 A 
ATOM     84  C   UNL A   1      39.944  25.866  27.975  1.00  0.00     0.002 A 
ATOM     85  C   UNL A   1      41.623  27.294  26.970  1.00  0.00     0.091 A 
ATOM     86  F   UNL A   1      42.468  29.149  28.211  1.00  0.00    -0.205 F 
ATOM     87  C   UNL A   1      40.793  26.164  26.913  1.00  0.00     0.022 A 
BRANCH  85  88
ATOM     88  S   UNL A   1      42.593  27.674  25.508  1.00  0.00     0.127 S 
ATOM     89  O   UNL A   1      42.339  26.506  24.668  1.00  0.00    -0.237 OA
ATOM     90  O   UNL A   1      41.971  28.915  25.044  1.00  0.00    -0.237 OA
ATOM     91  O   UNL A   1      43.963  27.832  25.979  1.00  0.00    -0.744 OA
ENDBRANCH  85  88
ENDBRANCH  57  81
BRANCH  69  92
ATOM     92  C   UNL A   1      44.799  27.637  34.871  1.00  0.00     0.023 A 
ATOM     93  C   UNL A   1      46.140  27.982  34.612  1.00  0.00     0.012 A 
ATOM     94  C   UNL A   1      44.514  26.445  35.567  1.00  0.00     0.148 A 
ATOM     95  C   UNL A   1      47.177  27.129  34.990  1.00  0.00     0.002 A 
ATOM     96  C   UNL A   1      45.555  25.628  35.992  1.00  0.00     0.091 A 
ATOM     97  F   UNL A   1      43.232  26.123  35.790  1.00  0.00    -0.205 F 
ATOM     98  C   UNL A   1      46.885  25.959  35.688  1.00  0.00     0.022 A 
BRANCH  96  99
ATOM     99  S   UNL A   1      45.275  24.159  36.986  1.00  0.00     0.127 S 
ATOM    100  O   UNL A   1      44.514  23.317  36.065  1.00  0.00    -0.237 OA
ATOM    101  O   UNL A   1      46.638  23.698  37.250  1.00  0.00    -0.237 OA
ATOM    102  O   UNL A   1      44.554  24.609  38.169  1.00  0.00    -0.744 OA
ENDBRANCH  96  99
ENDBRANCH  69  92
ENDBRANCH  43  44
ENDBRANCH  35  38
ENDBRANCH  33  34
ENDBRANCH  32  33
ENDBRANCH   1  32
TORSDOF 20
ENDMDL
MODEL 2
REMARK VINA RESULT:     -10.9      6.457      8.925
REMARK SMILES COc1cccc(-c2cc(OCC(=O)NCCCCNC(=O)c3ccc(-c4c5nc(c(-c6cccc(S(=O)(=O)[O-])c6F)c6ccc([nH]6)c(-c6cccc(S(=O)(=O)[O-])c6F)c6nc(c(-c7cccc(S(=O)(=O)[O-])c7F)c7ccc4[nH]7)C=C6)C=C5)cc3)nc(Nc3ccccc3Br)n2)c1
REMARK SMILES IDX 17 1 16 2 15 3 13 4 14 5 12 7 11 8 10 9 8 10 9 11 96 12
REMARK SMILES IDX 87 13 86 14 7 15 3 16 4 17 97 18 5 19 6 20 2 21 1 22 88 23
REMARK SMILES IDX 89 25 90 26 94 27 91 28 93 29 95 30 92 31 18 32 19 33 20 34
REMARK SMILES IDX 21 35 22 37 23 38 24 39 85 40 25 41 84 42 26 43 27 44 28 45
REMARK SMILES IDX 78 46 29 47 83 48 77 49 79 50 30 51 82 52 76 53 75 54 31 56
REMARK SMILES IDX 63 57 43 58 62 59 44 60 47 61 61 62 80 63 45 64 46 65 60 67
REMARK SMILES IDX 81 68 48 69 32 70 33 71 41 72 34 73 36 74 42 75 35 76 37 77
REMARK SMILES IDX 38 78 39 79 40 80 64 81 65 82 73 83 66 84 68 85 74 86 67 87
REMARK SMILES IDX 69 88 70 89 71 90 72 91 49 92 50 93 58 94 51 95 53 96 59 97
REMARK SMILES IDX 52 98 54 99 55 100 56 101 57 102
REMARK H PARENT 15 6 88 24 20 36 79 55 47 66
REMARK Flexibility Score: inf
ROOT
ATOM      1  C   UNL A   1      35.942  34.519  31.933  1.00  0.00     0.023 C 
ENDROOT
BRANCH   1   2
ATOM      2  C   UNL A   1      34.639  34.176  31.215  1.00  0.00     0.116 C 
BRANCH   2   3
ATOM      3  N   UNL A   1      34.068  35.323  30.538  1.00  0.00    -0.353 N 
ATOM      4  C   UNL A   1      33.475  35.364  29.312  1.00  0.00     0.258 C 
ATOM      5  O   UNL A   1      33.031  36.436  28.896  1.00  0.00    -0.271 OA
ATOM      6  H   UNL A   1      34.114  36.178  31.022  1.00  0.00     0.163 HD
BRANCH   4   7
ATOM      7  C   UNL A   1      33.354  34.079  28.481  1.00  0.00     0.331 C 
BRANCH   7   8
ATOM      8  O   UNL A   1      34.553  33.372  28.206  1.00  0.00    -0.467 OA
BRANCH   8   9
ATOM      9  C   UNL A   1      34.482  32.011  28.098  1.00  0.00     0.219 A 
ATOM     10  C   UNL A   1      33.640  29.961  27.372  1.00  0.00     0.080 A 
ATOM     11  C   UNL A   1      33.502  31.328  27.428  1.00  0.00     0.097 A 
ATOM     12  N   UNL A   1      34.637  29.314  27.990  1.00  0.00    -0.212 NA
ATOM     13  C   UNL A   1      35.562  30.053  28.616  1.00  0.00     0.231 A 
ATOM     14  N   UNL A   1      35.505  31.389  28.710  1.00  0.00    -0.177 NA
BRANCH  10  15
ATOM     15  C   UNL A   1      32.709  29.143  26.592  1.00  0.00     0.004 A 
ATOM     16  C   UNL A   1      31.540  27.028  26.271  1.00  0.00     0.119 A 
ATOM     17  C   UNL A   1      31.079  27.479  25.035  1.00  0.00     0.046 A 
ATOM     18  C   UNL A   1      32.361  27.852  27.038  1.00  0.00     0.056 A 
ATOM     19  C   UNL A   1      31.387  28.766  24.592  1.00  0.00     0.005 A 
ATOM     20  C   UNL A   1      32.190  29.598  25.373  1.00  0.00     0.010 A 
BRANCH  16  21
ATOM     21  O   UNL A   1      31.189  25.749  26.606  1.00  0.00    -0.497 OA
ATOM     22  C   UNL A   1      29.979  25.276  26.015  1.00  0.00     0.278 C 
ENDBRANCH  16  21
ENDBRANCH  10  15
BRANCH  13  23
ATOM     23  N   UNL A   1      36.632  29.428  29.250  1.00  0.00    -0.323 N 
ATOM     24  H   UNL A   1      36.496  29.205  30.198  1.00  0.00     0.170 HD
BRANCH  23  25
ATOM     25  C   UNL A   1      37.879  29.075  28.714  1.00  0.00     0.055 A 
ATOM     26  C   UNL A   1      38.195  29.540  27.426  1.00  0.00     0.027 A 
ATOM     27  C   UNL A   1      38.864  28.351  29.414  1.00  0.00     0.041 A 
ATOM     28  C   UNL A   1      39.459  29.327  26.869  1.00  0.00     0.002 A 
ATOM     29  C   UNL A   1      40.129  28.138  28.853  1.00  0.00     0.018 A 
ATOM     30  Br  UNL A   1      38.518  27.499  31.083  1.00  0.00    -0.049 Br
ATOM     31  C   UNL A   1      40.429  28.634  27.586  1.00  0.00     0.001 A 
ENDBRANCH  23  25
ENDBRANCH  13  23
ENDBRANCH   8   9
ENDBRANCH   7   8
ENDBRANCH   4   7
ENDBRANCH   2   3
ENDBRANCH   1   2
BRANCH   1  32
ATOM     32  C   UNL A   1      35.934  34.270  33.444  1.00  0.00     0.023 C 
BRANCH  32  33
ATOM     33  C   UNL A   1      36.859  33.161  33.933  1.00  0.00     0.116 C 
BRANCH  33  34
ATOM     34  N   UNL A   1      36.437  31.837  33.510  1.00  0.00    -0.352 N 
ATOM     35  C   UNL A   1      36.979  31.021  32.547  1.00  0.00     0.251 C 
ATOM     36  H   UNL A   1      35.651  31.473  33.978  1.00  0.00     0.163 HD
ATOM     37  O   UNL A   1      36.399  29.980  32.237  1.00  0.00    -0.269 OA
BRANCH  35  38
ATOM     38  C   UNL A   1      38.240  31.398  31.869  1.00  0.00     0.039 A 
ATOM     39  C   UNL A   1      39.452  31.190  32.534  1.00  0.00     0.014 A 
ATOM     40  C   UNL A   1      38.234  31.971  30.595  1.00  0.00     0.014 A 
ATOM     41  C   UNL A   1      40.655  31.522  31.907  1.00  0.00     0.010 A 
ATOM     42  C   UNL A   1      39.438  32.222  29.938  1.00  0.00     0.010 A 
ATOM     43  C   UNL A   1      40.661  32.026  30.595  1.00  0.00    -0.014 A 
BRANCH  43  44
ATOM     44  C   UNL A   1      41.931  32.399  29.919  1.00  0.00     0.031 A 
ATOM     45  C   UNL A   1      42.181  33.834  29.525  1.00  0.00     0.074 A 
ATOM     46  C   UNL A   1      42.843  31.451  29.619  1.00  0.00     0.049 A 
ATOM     47  N   UNL A   1      43.206  34.354  28.900  1.00  0.00    -0.248 NA
ATOM     48  C   UNL A   1      41.127  34.810  29.854  1.00  0.00     0.031 C 
ATOM     49  C   UNL A   1      42.698  30.018  29.888  1.00  0.00     0.029 A 
ATOM     50  N   UNL A   1      44.068  31.549  29.008  1.00  0.00    -0.354 N 
ATOM     51  C   UNL A   1      42.914  35.704  28.743  1.00  0.00     0.074 A 
ATOM     52  C   UNL A   1      41.591  35.915  29.287  1.00  0.00     0.031 C 
ATOM     53  C   UNL A   1      43.795  29.375  29.457  1.00  0.00     0.029 A 
ATOM     54  C   UNL A   1      44.710  30.341  28.856  1.00  0.00     0.049 A 
ATOM     55  H   UNL A   1      44.452  32.404  28.706  1.00  0.00     0.167 HD
ATOM     56  C   UNL A   1      43.688  36.692  28.234  1.00  0.00     0.034 A 
ATOM     57  C   UNL A   1      45.901  30.048  28.296  1.00  0.00     0.034 A 
ATOM     58  C   UNL A   1      45.017  36.491  27.727  1.00  0.00     0.049 A 
ATOM     59  C   UNL A   1      46.746  31.171  27.753  1.00  0.00     0.074 A 
ATOM     60  C   UNL A   1      45.900  37.431  27.224  1.00  0.00     0.029 A 
ATOM     61  N   UNL A   1      45.662  35.266  27.664  1.00  0.00    -0.354 N 
ATOM     62  N   UNL A   1      46.498  32.458  27.727  1.00  0.00    -0.248 NA
ATOM     63  C   UNL A   1      48.060  30.803  27.204  1.00  0.00     0.031 C 
ATOM     64  C   UNL A   1      47.073  36.771  26.844  1.00  0.00     0.029 A 
ATOM     65  C   UNL A   1      46.934  35.426  27.143  1.00  0.00     0.049 A 
ATOM     66  H   UNL A   1      45.271  34.407  27.948  1.00  0.00     0.167 HD
ATOM     67  C   UNL A   1      47.646  33.056  27.217  1.00  0.00     0.074 A 
ATOM     68  C   UNL A   1      48.594  31.991  26.965  1.00  0.00     0.031 C 
ATOM     69  C   UNL A   1      47.892  34.367  26.968  1.00  0.00     0.034 A 
BRANCH  56  70
ATOM     70  C   UNL A   1      43.140  38.097  28.264  1.00  0.00     0.023 A 
ATOM     71  C   UNL A   1      42.406  38.576  27.157  1.00  0.00     0.012 A 
ATOM     72  C   UNL A   1      43.293  38.918  29.397  1.00  0.00     0.148 A 
ATOM     73  C   UNL A   1      41.863  39.860  27.165  1.00  0.00     0.002 A 
ATOM     74  C   UNL A   1      42.707  40.179  29.417  1.00  0.00     0.091 A 
ATOM     75  F   UNL A   1      44.006  38.453  30.432  1.00  0.00    -0.205 F 
ATOM     76  C   UNL A   1      42.005  40.656  28.297  1.00  0.00     0.022 A 
BRANCH  74  77
ATOM     77  S   UNL A   1      42.759  41.256  30.854  1.00  0.00     0.127 S 
ATOM     78  O   UNL A   1      44.056  41.910  30.685  1.00  0.00    -0.237 OA
ATOM     79  O   UNL A   1      41.604  42.125  30.626  1.00  0.00    -0.237 OA
ATOM     80  O   UNL A   1      42.650  40.385  32.015  1.00  0.00    -0.744 OA
ENDBRANCH  74  77
ENDBRANCH  56  70
BRANCH  57  81
ATOM     81  C   UNL A   1      46.410  28.645  28.275  1.00  0.00     0.023 A 
ATOM     82  C   UNL A   1      47.172  28.169  29.361  1.00  0.00     0.012 A 
ATOM     83  C   UNL A   1      46.177  27.797  27.177  1.00  0.00     0.148 A 
ATOM     84  C   UNL A   1      47.744  26.897  29.327  1.00  0.00     0.002 A 
ATOM     85  C   UNL A   1      46.700  26.508  27.176  1.00  0.00     0.091 A 
ATOM     86  F   UNL A   1      45.457  28.268  26.149  1.00  0.00    -0.205 F 
ATOM     87  C   UNL A   1      47.503  26.065  28.238  1.00  0.00     0.022 A 
BRANCH  85  88
ATOM     88  S   UNL A   1      46.339  25.327  25.872  1.00  0.00     0.127 S 
ATOM     89  O   UNL A   1      46.941  25.973  24.708  1.00  0.00    -0.237 OA
ATOM     90  O   UNL A   1      47.036  24.130  26.345  1.00  0.00    -0.237 OA
ATOM     91  O   UNL A   1      44.887  25.203  25.850  1.00  0.00    -0.744 OA
ENDBRANCH  85  88
ENDBRANCH  57  81
BRANCH  69  92
ATOM     92  C   UNL A   1      49.267  34.736  26.473  1.00  0.00     0.023 A 
ATOM     93  C   UNL A   1      49.501  34.933  25.098  1.00  0.00     0.012 A 
ATOM     94  C   UNL A   1      50.322  34.926  27.388  1.00  0.00     0.148 A 
ATOM     95  C   UNL A   1      50.776  35.259  24.636  1.00  0.00     0.002 A 
ATOM     96  C   UNL A   1      51.575  35.308  26.926  1.00  0.00     0.091 A 
ATOM     97  F   UNL A   1      50.086  34.719  28.692  1.00  0.00    -0.205 F 
ATOM     98  C   UNL A   1      51.809  35.456  25.550  1.00  0.00     0.022 A 
BRANCH  96  99
ATOM     99  S   UNL A   1      52.933  35.686  28.040  1.00  0.00     0.127 S 
ATOM    100  O   UNL A   1      53.172  34.387  28.667  1.00  0.00    -0.237 OA
ATOM    101  O   UNL A   1      53.981  36.120  27.116  1.00  0.00    -0.237 OA
ATOM    102  O   UNL A   1      52.442  36.731  28.927  1.00  0.00    -0.744 OA
ENDBRANCH  96  99
ENDBRANCH  69  92
ENDBRANCH  43  44
ENDBRANCH  35  38
ENDBRANCH  33  34
ENDBRANCH  32  33
ENDBRANCH   1  32
TORSDOF 20
ENDMDL
MODEL 3
REMARK VINA RESULT:     -10.5      4.829      9.372
REMARK SMILES COc1cccc(-c2cc(OCC(=O)NCCCCNC(=O)c3ccc(-c4c5nc(c(-c6cccc(S(=O)(=O)[O-])c6F)c6ccc([nH]6)c(-c6cccc(S(=O)(=O)[O-])c6F)c6nc(c(-c7cccc(S(=O)(=O)[O-])c7F)c7ccc4[nH]7)C=C6)C=C5)cc3)nc(Nc3ccccc3Br)n2)c1
REMARK SMILES IDX 17 1 16 2 15 3 13 4 14 5 12 7 11 8 10 9 8 10 9 11 96 12
REMARK SMILES IDX 87 13 86 14 7 15 3 16 4 17 97 18 5 19 6 20 2 21 1 22 88 23
REMARK SMILES IDX 89 25 90 26 94 27 91 28 93 29 95 30 92 31 18 32 19 33 20 34
REMARK SMILES IDX 21 35 22 37 23 38 24 39 85 40 25 41 84 42 26 43 27 44 28 45
REMARK SMILES IDX 78 46 29 47 83 48 77 49 79 50 30 51 82 52 76 53 75 54 31 56
REMARK SMILES IDX 63 57 43 58 62 59 44 60 47 61 61 62 80 63 45 64 46 65 60 67
REMARK SMILES IDX 81 68 48 69 32 70 33 71 41 72 34 73 36 74 42 75 35 76 37 77
REMARK SMILES IDX 38 78 39 79 40 80 64 81 65 82 73 83 66 84 68 85 74 86 67 87
REMARK SMILES IDX 69 88 70 89 71 90 72 91 49 92 50 93 58 94 51 95 53 96 59 97
REMARK SMILES IDX 52 98 54 99 55 100 56 101 57 102
REMARK H PARENT 15 6 88 24 20 36 79 55 47 66
REMARK Flexibility Score: inf
ROOT
ATOM      1  C   UNL A   1      35.451  32.887  28.436  1.00  0.00     0.023 C 
ENDROOT
BRANCH   1   2
ATOM      2  C   UNL A   1      35.007  31.526  27.904  1.00  0.00     0.116 C 
BRANCH   2   3
ATOM      3  N   UNL A   1      33.631  31.537  27.449  1.00  0.00    -0.353 N 
ATOM      4  C   UNL A   1      32.848  30.473  27.114  1.00  0.00     0.258 C 
ATOM      5  O   UNL A   1      31.686  30.673  26.757  1.00  0.00    -0.271 OA
ATOM      6  H   UNL A   1      33.208  32.423  27.373  1.00  0.00     0.163 HD
BRANCH   4   7
ATOM      7  C   UNL A   1      33.419  29.051  27.203  1.00  0.00     0.331 C 
BRANCH   7   8
ATOM      8  O   UNL A   1      34.102  28.556  26.062  1.00  0.00    -0.467 OA
BRANCH   8   9
ATOM      9  C   UNL A   1      33.616  27.426  25.466  1.00  0.00     0.219 A 
ATOM     10  C   UNL A   1      33.330  25.135  25.130  1.00  0.00     0.080 A 
ATOM     11  C   UNL A   1      33.981  26.147  25.797  1.00  0.00     0.097 A 
ATOM     12  N   UNL A   1      32.435  25.372  24.163  1.00  0.00    -0.212 NA
ATOM     13  C   UNL A   1      32.124  26.650  23.904  1.00  0.00     0.231 A 
ATOM     14  N   UNL A   1      32.706  27.692  24.513  1.00  0.00    -0.177 NA
BRANCH  10  15
ATOM     15  C   UNL A   1      33.564  23.733  25.480  1.00  0.00     0.004 A 
ATOM     16  C   UNL A   1      33.406  21.372  24.893  1.00  0.00     0.119 A 
ATOM     17  C   UNL A   1      33.823  21.032  26.180  1.00  0.00     0.046 A 
ATOM     18  C   UNL A   1      33.265  22.715  24.551  1.00  0.00     0.056 A 
ATOM     19  C   UNL A   1      34.155  22.026  27.101  1.00  0.00     0.005 A 
ATOM     20  C   UNL A   1      34.035  23.371  26.748  1.00  0.00     0.010 A 
BRANCH  16  21
ATOM     21  O   UNL A   1      33.098  20.323  24.072  1.00  0.00    -0.497 OA
ATOM     22  C   UNL A   1      32.187  20.624  23.016  1.00  0.00     0.278 C 
ENDBRANCH  16  21
ENDBRANCH  10  15
BRANCH  13  23
ATOM     23  N   UNL A   1      31.179  26.946  22.926  1.00  0.00    -0.323 N 
ATOM     24  H   UNL A   1      31.495  26.892  21.996  1.00  0.00     0.170 HD
BRANCH  23  25
ATOM     25  C   UNL A   1      29.836  27.312  23.093  1.00  0.00     0.055 A 
ATOM     26  C   UNL A   1      28.966  26.370  23.667  1.00  0.00     0.027 A 
ATOM     27  C   UNL A   1      29.321  28.589  22.793  1.00  0.00     0.041 A 
ATOM     28  C   UNL A   1      27.641  26.697  23.969  1.00  0.00     0.002 A 
ATOM     29  C   UNL A   1      27.993  28.914  23.096  1.00  0.00     0.018 A 
ATOM     30  Br  UNL A   1      30.323  29.902  21.844  1.00  0.00    -0.049 Br
ATOM     31  C   UNL A   1      27.157  27.972  23.693  1.00  0.00     0.001 A 
ENDBRANCH  23  25
ENDBRANCH  13  23
ENDBRANCH   8   9
ENDBRANCH   7   8
ENDBRANCH   4   7
ENDBRANCH   2   3
ENDBRANCH   1   2
BRANCH   1  32
ATOM     32  C   UNL A   1      34.923  33.241  29.829  1.00  0.00     0.023 C 
BRANCH  32  33
ATOM     33  C   UNL A   1      34.789  32.072  30.799  1.00  0.00     0.116 C 
BRANCH  33  34
ATOM     34  N   UNL A   1      35.161  32.415  32.161  1.00  0.00    -0.352 N 
ATOM     35  C   UNL A   1      36.354  32.213  32.810  1.00  0.00     0.251 C 
ATOM     36  H   UNL A   1      34.459  32.852  32.695  1.00  0.00     0.163 HD
ATOM     37  O   UNL A   1      36.439  32.455  34.014  1.00  0.00    -0.269 OA
BRANCH  35  38
ATOM     38  C   UNL A   1      37.528  31.688  32.075  1.00  0.00     0.039 A 
ATOM     39  C   UNL A   1      38.208  30.582  32.594  1.00  0.00     0.014 A 
ATOM     40  C   UNL A   1      37.971  32.287  30.894  1.00  0.00     0.014 A 
ATOM     41  C   UNL A   1      39.307  30.058  31.909  1.00  0.00     0.010 A 
ATOM     42  C   UNL A   1      39.014  31.712  30.170  1.00  0.00     0.010 A 
ATOM     43  C   UNL A   1      39.711  30.607  30.681  1.00  0.00    -0.014 A 
BRANCH  43  44
ATOM     44  C   UNL A   1      40.888  30.072  29.947  1.00  0.00     0.031 A 
ATOM     45  C   UNL A   1      40.788  28.749  29.227  1.00  0.00     0.074 A 
ATOM     46  C   UNL A   1      42.056  30.746  29.957  1.00  0.00     0.049 A 
ATOM     47  N   UNL A   1      41.708  28.099  28.561  1.00  0.00    -0.248 NA
ATOM     48  C   UNL A   1      39.491  28.052  29.286  1.00  0.00     0.031 C 
ATOM     49  C   UNL A   1      42.305  32.004  30.666  1.00  0.00     0.029 A 
ATOM     50  N   UNL A   1      43.261  30.458  29.364  1.00  0.00    -0.354 N 
ATOM     51  C   UNL A   1      41.111  26.915  28.142  1.00  0.00     0.074 A 
ATOM     52  C   UNL A   1      39.767  26.909  28.676  1.00  0.00     0.031 C 
ATOM     53  C   UNL A   1      43.575  32.385  30.455  1.00  0.00     0.029 A 
ATOM     54  C   UNL A   1      44.241  31.389  29.623  1.00  0.00     0.049 A 
ATOM     55  H   UNL A   1      43.409  29.661  28.807  1.00  0.00     0.167 HD
ATOM     56  C   UNL A   1      41.613  25.939  27.349  1.00  0.00     0.034 A 
ATOM     57  C   UNL A   1      45.530  31.431  29.230  1.00  0.00     0.034 A 
ATOM     58  C   UNL A   1      42.936  25.962  26.786  1.00  0.00     0.049 A 
ATOM     59  C   UNL A   1      46.056  30.340  28.335  1.00  0.00     0.074 A 
ATOM     60  C   UNL A   1      43.528  25.042  25.940  1.00  0.00     0.029 A 
ATOM     61  N   UNL A   1      43.870  26.961  27.007  1.00  0.00    -0.354 N 
ATOM     62  N   UNL A   1      45.434  29.291  27.852  1.00  0.00    -0.248 NA
ATOM     63  C   UNL A   1      47.453  30.463  27.891  1.00  0.00     0.031 C 
ATOM     64  C   UNL A   1      44.828  25.478  25.660  1.00  0.00     0.029 A 
ATOM     65  C   UNL A   1      45.031  26.687  26.304  1.00  0.00     0.049 A 
ATOM     66  H   UNL A   1      43.730  27.749  27.580  1.00  0.00     0.167 HD
ATOM     67  C   UNL A   1      46.342  28.668  27.003  1.00  0.00     0.074 A 
ATOM     68  C   UNL A   1      47.549  29.466  27.025  1.00  0.00     0.031 C 
ATOM     69  C   UNL A   1      46.197  27.530  26.278  1.00  0.00     0.034 A 
BRANCH  56  70
ATOM     70  C   UNL A   1      40.702  24.794  26.985  1.00  0.00     0.023 A 
ATOM     71  C   UNL A   1      39.416  25.070  26.474  1.00  0.00     0.012 A 
ATOM     72  C   UNL A   1      41.131  23.457  27.086  1.00  0.00     0.148 A 
ATOM     73  C   UNL A   1      38.560  24.034  26.103  1.00  0.00     0.002 A 
ATOM     74  C   UNL A   1      40.291  22.431  26.668  1.00  0.00     0.091 A 
ATOM     75  F   UNL A   1      42.350  23.212  27.588  1.00  0.00    -0.205 F 
ATOM     76  C   UNL A   1      39.001  22.717  26.190  1.00  0.00     0.022 A 
BRANCH  74  77
ATOM     77  S   UNL A   1      40.788  20.705  26.661  1.00  0.00     0.127 S 
ATOM     78  O   UNL A   1      39.667  20.079  25.960  1.00  0.00    -0.237 OA
ATOM     79  O   UNL A   1      42.036  20.750  25.898  1.00  0.00    -0.237 OA
ATOM     80  O   UNL A   1      40.938  20.322  28.058  1.00  0.00    -0.744 OA
ENDBRANCH  74  77
ENDBRANCH  56  70
BRANCH  57  81
ATOM     81  C   UNL A   1      46.408  32.575  29.616  1.00  0.00     0.023 A 
ATOM     82  C   UNL A   1      46.476  33.708  28.781  1.00  0.00     0.012 A 
ATOM     83  C   UNL A   1      47.199  32.534  30.778  1.00  0.00     0.148 A 
ATOM     84  C   UNL A   1      47.359  34.751  29.062  1.00  0.00     0.002 A 
ATOM     85  C   UNL A   1      48.034  33.603  31.085  1.00  0.00     0.091 A 
ATOM     86  F   UNL A   1      47.130  31.445  31.558  1.00  0.00    -0.205 F 
ATOM     87  C   UNL A   1      48.134  34.701  30.217  1.00  0.00     0.022 A 
BRANCH  85  88
ATOM     88  S   UNL A   1      48.976  33.677  32.612  1.00  0.00     0.127 S 
ATOM     89  O   UNL A   1      47.945  33.412  33.613  1.00  0.00    -0.237 OA
ATOM     90  O   UNL A   1      49.946  32.598  32.424  1.00  0.00    -0.237 OA
ATOM     91  O   UNL A   1      49.563  35.010  32.644  1.00  0.00    -0.744 OA
ENDBRANCH  85  88
ENDBRANCH  57  81
BRANCH  69  92
ATOM     92  C   UNL A   1      47.339  27.124  25.382  1.00  0.00     0.023 A 
ATOM     93  C   UNL A   1      48.305  26.202  25.831  1.00  0.00     0.012 A 
ATOM     94  C   UNL A   1      47.428  27.635  24.071  1.00  0.00     0.148 A 
ATOM     95  C   UNL A   1      49.372  25.837  25.010  1.00  0.00     0.002 A 
ATOM     96  C   UNL A   1      48.461  27.222  23.239  1.00  0.00     0.091 A 
ATOM     97  F   UNL A   1      46.510  28.524  23.665  1.00  0.00    -0.205 F 
ATOM     98  C   UNL A   1      49.443  26.338  23.712  1.00  0.00     0.022 A 
BRANCH  96  99
ATOM     99  S   UNL A   1      48.570  27.735  21.521  1.00  0.00     0.127 S 
ATOM    100  O   UNL A   1      49.299  28.997  21.634  1.00  0.00    -0.237 OA
ATOM    101  O   UNL A   1      49.332  26.641  20.918  1.00  0.00    -0.237 OA
ATOM    102  O   UNL A   1      47.196  27.843  21.049  1.00  0.00    -0.744 OA
ENDBRANCH  96  99
ENDBRANCH  69  92
ENDBRANCH  43  44
ENDBRANCH  35  38
ENDBRANCH  33  34
ENDBRANCH  32  33
ENDBRANCH   1  32
TORSDOF 20
ENDMDL
