MODEL 1
REMARK VINA RESULT:     -12.3      0.000      0.000
REMARK SMILES Cc1ccc(/C=C/C(=O)N2C[C@@H](O)C[C@H]2C(=O)NCCCCNC(=O)c2ccc(-c3c4nc(c(-c5cccc(S(=O)(=O)[O-])c5F)c5ccc([nH]5)c(-c5cccc(S(=O)(=O)[O-])c5F)c5nc(c(-c6cccc(S(=O)(=O)[O-])c6F)c6ccc3[nH]6)C=C5)C=C4)cc2)c(C)c1
REMARK SMILES IDX 20 1 19 2 18 3 16 4 17 5 15 7 10 8 11 9 12 10 14 11 8 12
REMARK SMILES IDX 9 13 7 14 6 15 5 16 1 17 2 18 3 19 91 20 4 21 89 22 90 23
REMARK SMILES IDX 13 24 21 26 22 27 23 28 24 29 25 31 26 32 27 33 88 34 28 35
REMARK SMILES IDX 87 36 29 37 30 38 31 39 81 40 32 41 86 42 80 43 82 44 33 45
REMARK SMILES IDX 85 46 79 47 78 48 34 50 66 51 46 52 65 53 47 54 50 55 64 56
REMARK SMILES IDX 83 57 48 58 49 59 63 61 84 62 51 63 35 64 36 65 44 66 37 67
REMARK SMILES IDX 39 68 45 69 38 70 40 71 41 72 42 73 43 74 67 75 68 76 76 77
REMARK SMILES IDX 69 78 71 79 77 80 70 81 72 82 73 83 74 84 75 85 52 86 53 87
REMARK SMILES IDX 61 88 54 89 56 90 62 91 55 92 57 93 58 94 59 95 60 96
REMARK H PARENT 18 6 13 25 23 30 82 49 50 60
REMARK Flexibility Score: inf
ROOT
ATOM      1  C   UNL A   1      31.956  27.869  27.266  1.00  0.00     0.023 C 
ENDROOT
BRANCH   1   2
ATOM      2  C   UNL A   1      32.169  26.577  26.489  1.00  0.00     0.116 C 
BRANCH   2   3
ATOM      3  N   UNL A   1      31.237  25.534  26.852  1.00  0.00    -0.354 N 
ATOM      4  C   UNL A   1      31.256  24.198  26.573  1.00  0.00     0.242 C 
ATOM      5  O   UNL A   1      30.519  23.473  27.250  1.00  0.00    -0.273 OA
ATOM      6  H   UNL A   1      30.466  25.835  27.385  1.00  0.00     0.163 HD
BRANCH   4   7
ATOM      7  C   UNL A   1      32.301  23.566  25.628  1.00  0.00     0.177 C 
ATOM      8  N   UNL A   1      32.523  24.223  24.337  1.00  0.00    -0.324 N 
ATOM      9  C   UNL A   1      33.921  24.558  24.127  1.00  0.00     0.152 C 
ATOM     10  C   UNL A   1      34.682  23.760  25.183  1.00  0.00     0.136 C 
ATOM     11  C   UNL A   1      33.675  23.508  26.303  1.00  0.00     0.069 C 
BRANCH   8  12
ATOM     12  C   UNL A   1      31.516  24.209  23.399  1.00  0.00     0.247 C 
ATOM     13  O   UNL A   1      30.980  23.183  22.997  1.00  0.00    -0.270 OA
BRANCH  12  14
ATOM     14  C   UNL A   1      31.108  25.506  22.818  1.00  0.00     0.072 C 
ATOM     15  C   UNL A   1      30.181  26.207  23.486  1.00  0.00     0.014 C 
BRANCH  15  16
ATOM     16  C   UNL A   1      29.716  27.555  23.138  1.00  0.00    -0.023 A 
ATOM     17  C   UNL A   1      28.516  31.373  21.507  1.00  0.00     0.044 C 
ATOM     18  C   UNL A   1      28.959  30.074  22.112  1.00  0.00    -0.051 A 
ATOM     19  C   UNL A   1      30.280  29.643  22.008  1.00  0.00     0.004 A 
ATOM     20  C   UNL A   1      28.028  29.254  22.761  1.00  0.00     0.007 A 
ATOM     21  C   UNL A   1      30.653  28.397  22.515  1.00  0.00     0.008 A 
ATOM     22  C   UNL A   1      28.389  27.996  23.286  1.00  0.00    -0.044 A 
ATOM     23  C   UNL A   1      27.287  27.157  23.876  1.00  0.00     0.045 C 
ENDBRANCH  15  16
ENDBRANCH  12  14
ENDBRANCH   8  12
BRANCH  10  24
ATOM     24  O   UNL A   1      35.824  24.455  25.658  1.00  0.00    -0.391 OA
ATOM     25  H   UNL A   1      35.556  25.091  26.340  1.00  0.00     0.211 HD
ENDBRANCH  10  24
ENDBRANCH   4   7
ENDBRANCH   2   3
ENDBRANCH   1   2
BRANCH   1  26
ATOM     26  C   UNL A   1      31.778  29.115  26.396  1.00  0.00     0.023 C 
BRANCH  26  27
ATOM     27  C   UNL A   1      33.014  29.998  26.239  1.00  0.00     0.116 C 
BRANCH  27  28
ATOM     28  N   UNL A   1      32.836  31.351  26.745  1.00  0.00    -0.352 N 
ATOM     29  C   UNL A   1      33.649  32.057  27.604  1.00  0.00     0.251 C 
ATOM     30  H   UNL A   1      32.030  31.824  26.433  1.00  0.00     0.163 HD
ATOM     31  O   UNL A   1      33.315  33.165  28.000  1.00  0.00    -0.269 OA
BRANCH  29  32
ATOM     32  C   UNL A   1      34.907  31.438  28.075  1.00  0.00     0.039 A 
ATOM     33  C   UNL A   1      36.059  32.225  28.144  1.00  0.00     0.014 A 
ATOM     34  C   UNL A   1      34.935  30.105  28.492  1.00  0.00     0.014 A 
ATOM     35  C   UNL A   1      37.225  31.694  28.703  1.00  0.00     0.010 A 
ATOM     36  C   UNL A   1      36.076  29.600  29.107  1.00  0.00     0.010 A 
ATOM     37  C   UNL A   1      37.230  30.390  29.224  1.00  0.00    -0.014 A 
BRANCH  37  38
ATOM     38  C   UNL A   1      38.421  29.841  29.920  1.00  0.00     0.031 A 
ATOM     39  C   UNL A   1      38.816  30.363  31.274  1.00  0.00     0.074 A 
ATOM     40  C   UNL A   1      39.206  28.945  29.288  1.00  0.00     0.049 A 
ATOM     41  N   UNL A   1      39.855  30.055  32.005  1.00  0.00    -0.248 NA
ATOM     42  C   UNL A   1      37.944  31.387  31.873  1.00  0.00     0.031 C 
ATOM     43  C   UNL A   1      38.978  28.426  27.937  1.00  0.00     0.029 A 
ATOM     44  N   UNL A   1      40.369  28.334  29.685  1.00  0.00    -0.354 N 
ATOM     45  C   UNL A   1      39.783  30.867  33.129  1.00  0.00     0.074 A 
ATOM     46  C   UNL A   1      38.616  31.707  32.969  1.00  0.00     0.031 C 
ATOM     47  C   UNL A   1      39.968  27.575  27.620  1.00  0.00     0.029 A 
ATOM     48  C   UNL A   1      40.911  27.504  28.733  1.00  0.00     0.049 A 
ATOM     49  H   UNL A   1      40.777  28.476  30.571  1.00  0.00     0.167 HD
ATOM     50  C   UNL A   1      40.594  30.890  34.214  1.00  0.00     0.034 A 
ATOM     51  C   UNL A   1      42.040  26.769  28.750  1.00  0.00     0.034 A 
ATOM     52  C   UNL A   1      41.725  30.020  34.394  1.00  0.00     0.049 A 
ATOM     53  C   UNL A   1      42.895  26.772  29.989  1.00  0.00     0.074 A 
ATOM     54  C   UNL A   1      42.554  29.902  35.495  1.00  0.00     0.029 A 
ATOM     55  N   UNL A   1      42.186  29.118  33.447  1.00  0.00    -0.354 N 
ATOM     56  N   UNL A   1      42.715  27.425  31.112  1.00  0.00    -0.248 NA
ATOM     57  C   UNL A   1      44.085  25.909  29.979  1.00  0.00     0.031 C 
ATOM     58  C   UNL A   1      43.524  28.935  35.209  1.00  0.00     0.029 A 
ATOM     59  C   UNL A   1      43.289  28.441  33.936  1.00  0.00     0.049 A 
ATOM     60  H   UNL A   1      41.786  28.979  32.558  1.00  0.00     0.167 HD
ATOM     61  C   UNL A   1      43.749  27.025  31.954  1.00  0.00     0.074 A 
ATOM     62  C   UNL A   1      44.536  26.059  31.217  1.00  0.00     0.031 C 
ATOM     63  C   UNL A   1      44.029  27.437  33.215  1.00  0.00     0.034 A 
BRANCH  50  64
ATOM     64  C   UNL A   1      40.246  31.846  35.325  1.00  0.00     0.023 A 
ATOM     65  C   UNL A   1      40.990  33.035  35.469  1.00  0.00     0.012 A 
ATOM     66  C   UNL A   1      39.160  31.601  36.186  1.00  0.00     0.148 A 
ATOM     67  C   UNL A   1      40.681  33.949  36.474  1.00  0.00     0.002 A 
ATOM     68  C   UNL A   1      38.832  32.538  37.161  1.00  0.00     0.091 A 
ATOM     69  F   UNL A   1      38.479  30.455  36.049  1.00  0.00    -0.205 F 
ATOM     70  C   UNL A   1      39.597  33.706  37.313  1.00  0.00     0.022 A 
BRANCH  68  71
ATOM     71  S   UNL A   1      37.408  32.352  38.240  1.00  0.00     0.127 S 
ATOM     72  O   UNL A   1      37.869  33.025  39.453  1.00  0.00    -0.237 OA
ATOM     73  O   UNL A   1      36.366  33.069  37.505  1.00  0.00    -0.237 OA
ATOM     74  O   UNL A   1      37.184  30.919  38.364  1.00  0.00    -0.744 OA
ENDBRANCH  68  71
ENDBRANCH  50  64
BRANCH  51  75
ATOM     75  C   UNL A   1      42.382  25.902  27.587  1.00  0.00     0.023 A 
ATOM     76  C   UNL A   1      43.202  26.417  26.564  1.00  0.00     0.012 A 
ATOM     77  C   UNL A   1      41.933  24.571  27.502  1.00  0.00     0.148 A 
ATOM     78  C   UNL A   1      43.545  25.632  25.464  1.00  0.00     0.002 A 
ATOM     79  C   UNL A   1      42.321  23.777  26.428  1.00  0.00     0.091 A 
ATOM     80  F   UNL A   1      41.141  24.102  28.478  1.00  0.00    -0.205 F 
ATOM     81  C   UNL A   1      43.114  24.310  25.400  1.00  0.00     0.022 A 
BRANCH  79  82
ATOM     82  S   UNL A   1      41.921  22.028  26.332  1.00  0.00     0.127 S 
ATOM     83  O   UNL A   1      42.739  21.596  25.202  1.00  0.00    -0.237 OA
ATOM     84  O   UNL A   1      42.367  21.542  27.638  1.00  0.00    -0.237 OA
ATOM     85  O   UNL A   1      40.480  21.970  26.133  1.00  0.00    -0.744 OA
ENDBRANCH  79  82
ENDBRANCH  51  75
BRANCH  63  86
ATOM     86  C   UNL A   1      45.220  26.822  33.902  1.00  0.00     0.023 A 
ATOM     87  C   UNL A   1      46.467  27.475  33.849  1.00  0.00     0.012 A 
ATOM     88  C   UNL A   1      45.085  25.646  34.664  1.00  0.00     0.148 A 
ATOM     89  C   UNL A   1      47.570  26.951  34.522  1.00  0.00     0.002 A 
ATOM     90  C   UNL A   1      46.177  25.152  35.368  1.00  0.00     0.091 A 
ATOM     91  F   UNL A   1      43.895  25.028  34.684  1.00  0.00    -0.205 F 
ATOM     92  C   UNL A   1      47.422  25.798  35.291  1.00  0.00     0.022 A 
BRANCH  90  93
ATOM     93  S   UNL A   1      46.053  23.728  36.456  1.00  0.00     0.127 S 
ATOM     94  O   UNL A   1      45.241  24.258  37.550  1.00  0.00    -0.237 OA
ATOM     95  O   UNL A   1      45.371  22.747  35.611  1.00  0.00    -0.237 OA
ATOM     96  O   UNL A   1      47.422  23.373  36.805  1.00  0.00    -0.744 OA
ENDBRANCH  90  93
ENDBRANCH  63  86
ENDBRANCH  37  38
ENDBRANCH  29  32
ENDBRANCH  27  28
ENDBRANCH  26  27
ENDBRANCH   1  26
TORSDOF 18
ENDMDL
MODEL 2
REMARK VINA RESULT:     -12.2      2.824      8.816
REMARK SMILES Cc1ccc(/C=C/C(=O)N2C[C@@H](O)C[C@H]2C(=O)NCCCCNC(=O)c2ccc(-c3c4nc(c(-c5cccc(S(=O)(=O)[O-])c5F)c5ccc([nH]5)c(-c5cccc(S(=O)(=O)[O-])c5F)c5nc(c(-c6cccc(S(=O)(=O)[O-])c6F)c6ccc3[nH]6)C=C5)C=C4)cc2)c(C)c1
REMARK SMILES IDX 20 1 19 2 18 3 16 4 17 5 15 7 10 8 11 9 12 10 14 11 8 12
REMARK SMILES IDX 9 13 7 14 6 15 5 16 1 17 2 18 3 19 91 20 4 21 89 22 90 23
REMARK SMILES IDX 13 24 21 26 22 27 23 28 24 29 25 31 26 32 27 33 88 34 28 35
REMARK SMILES IDX 87 36 29 37 30 38 31 39 81 40 32 41 86 42 80 43 82 44 33 45
REMARK SMILES IDX 85 46 79 47 78 48 34 50 66 51 46 52 65 53 47 54 50 55 64 56
REMARK SMILES IDX 83 57 48 58 49 59 63 61 84 62 51 63 35 64 36 65 44 66 37 67
REMARK SMILES IDX 39 68 45 69 38 70 40 71 41 72 42 73 43 74 67 75 68 76 76 77
REMARK SMILES IDX 69 78 71 79 77 80 70 81 72 82 73 83 74 84 75 85 52 86 53 87
REMARK SMILES IDX 61 88 54 89 56 90 62 91 55 92 57 93 58 94 59 95 60 96
REMARK H PARENT 18 6 13 25 23 30 82 49 50 60
REMARK Flexibility Score: inf
ROOT
ATOM      1  C   UNL A   1      32.087  29.961  26.954  1.00  0.00     0.023 C 
ENDROOT
BRANCH   1   2
ATOM      2  C   UNL A   1      32.376  29.219  25.656  1.00  0.00     0.116 C 
BRANCH   2   3
ATOM      3  N   UNL A   1      31.258  28.431  25.190  1.00  0.00    -0.354 N 
ATOM      4  C   UNL A   1      31.236  27.266  24.479  1.00  0.00     0.242 C 
ATOM      5  O   UNL A   1      30.174  26.634  24.471  1.00  0.00    -0.273 OA
ATOM      6  H   UNL A   1      30.372  28.791  25.422  1.00  0.00     0.163 HD
BRANCH   4   7
ATOM      7  C   UNL A   1      32.516  26.629  23.896  1.00  0.00     0.177 C 
ATOM      8  N   UNL A   1      32.516  25.176  23.704  1.00  0.00    -0.324 N 
ATOM      9  C   UNL A   1      32.840  24.804  22.338  1.00  0.00     0.152 C 
ATOM     10  C   UNL A   1      33.419  26.069  21.711  1.00  0.00     0.136 C 
ATOM     11  C   UNL A   1      32.840  27.225  22.523  1.00  0.00     0.069 C 
BRANCH   8  12
ATOM     12  C   UNL A   1      32.489  24.357  24.810  1.00  0.00     0.247 C 
ATOM     13  O   UNL A   1      32.584  24.770  25.961  1.00  0.00    -0.270 OA
BRANCH  12  14
ATOM     14  C   UNL A   1      32.393  22.900  24.578  1.00  0.00     0.072 C 
ATOM     15  C   UNL A   1      33.521  22.188  24.711  1.00  0.00     0.014 C 
BRANCH  15  16
ATOM     16  C   UNL A   1      33.622  20.726  24.626  1.00  0.00    -0.023 A 
ATOM     17  C   UNL A   1      33.730  16.493  23.760  1.00  0.00     0.044 C 
ATOM     18  C   UNL A   1      33.665  17.951  24.105  1.00  0.00    -0.051 A 
ATOM     19  C   UNL A   1      32.476  18.669  23.984  1.00  0.00     0.004 A 
ATOM     20  C   UNL A   1      34.821  18.623  24.520  1.00  0.00     0.007 A 
ATOM     21  C   UNL A   1      32.457  20.042  24.240  1.00  0.00     0.008 A 
ATOM     22  C   UNL A   1      34.818  20.006  24.791  1.00  0.00    -0.044 A 
ATOM     23  C   UNL A   1      36.139  20.641  25.137  1.00  0.00     0.045 C 
ENDBRANCH  15  16
ENDBRANCH  12  14
ENDBRANCH   8  12
BRANCH  10  24
ATOM     24  O   UNL A   1      33.089  26.185  20.336  1.00  0.00    -0.391 OA
ATOM     25  H   UNL A   1      32.404  26.863  20.223  1.00  0.00     0.211 HD
ENDBRANCH  10  24
ENDBRANCH   4   7
ENDBRANCH   2   3
ENDBRANCH   1   2
BRANCH   1  26
ATOM     26  C   UNL A   1      31.908  31.473  26.798  1.00  0.00     0.023 C 
BRANCH  26  27
ATOM     27  C   UNL A   1      33.035  32.337  27.360  1.00  0.00     0.116 C 
BRANCH  27  28
ATOM     28  N   UNL A   1      32.643  33.714  27.622  1.00  0.00    -0.352 N 
ATOM     29  C   UNL A   1      33.176  34.596  28.535  1.00  0.00     0.251 C 
ATOM     30  H   UNL A   1      31.901  34.061  27.075  1.00  0.00     0.163 HD
ATOM     31  O   UNL A   1      32.677  35.703  28.689  1.00  0.00    -0.269 OA
BRANCH  29  32
ATOM     32  C   UNL A   1      34.331  34.171  29.357  1.00  0.00     0.039 A 
ATOM     33  C   UNL A   1      34.092  33.449  30.529  1.00  0.00     0.014 A 
ATOM     34  C   UNL A   1      35.638  34.443  28.946  1.00  0.00     0.014 A 
ATOM     35  C   UNL A   1      35.171  32.932  31.251  1.00  0.00     0.010 A 
ATOM     36  C   UNL A   1      36.707  33.873  29.630  1.00  0.00     0.010 A 
ATOM     37  C   UNL A   1      36.485  33.107  30.785  1.00  0.00    -0.014 A 
BRANCH  37  38
ATOM     38  C   UNL A   1      37.639  32.476  31.474  1.00  0.00     0.031 A 
ATOM     39  C   UNL A   1      38.369  31.328  30.835  1.00  0.00     0.074 A 
ATOM     40  C   UNL A   1      37.965  32.873  32.721  1.00  0.00     0.049 A 
ATOM     41  N   UNL A   1      39.354  30.610  31.310  1.00  0.00    -0.248 NA
ATOM     42  C   UNL A   1      37.914  30.911  29.498  1.00  0.00     0.031 C 
ATOM     43  C   UNL A   1      37.278  33.917  33.484  1.00  0.00     0.029 A 
ATOM     44  N   UNL A   1      38.939  32.424  33.578  1.00  0.00    -0.354 N 
ATOM     45  C   UNL A   1      39.612  29.639  30.351  1.00  0.00     0.074 A 
ATOM     46  C   UNL A   1      38.659  29.837  29.281  1.00  0.00     0.031 C 
ATOM     47  C   UNL A   1      37.853  34.030  34.693  1.00  0.00     0.029 A 
ATOM     48  C   UNL A   1      38.933  33.053  34.801  1.00  0.00     0.049 A 
ATOM     49  H   UNL A   1      39.584  31.718  33.339  1.00  0.00     0.167 HD
ATOM     50  C   UNL A   1      40.578  28.689  30.344  1.00  0.00     0.034 A 
ATOM     51  C   UNL A   1      39.706  32.863  35.887  1.00  0.00     0.034 A 
ATOM     52  C   UNL A   1      41.556  28.526  31.385  1.00  0.00     0.049 A 
ATOM     53  C   UNL A   1      40.806  31.838  35.833  1.00  0.00     0.074 A 
ATOM     54  C   UNL A   1      42.629  27.654  31.429  1.00  0.00     0.029 A 
ATOM     55  N   UNL A   1      41.580  29.250  32.567  1.00  0.00    -0.354 N 
ATOM     56  N   UNL A   1      41.141  31.042  34.847  1.00  0.00    -0.248 NA
ATOM     57  C   UNL A   1      41.658  31.711  37.023  1.00  0.00     0.031 C 
ATOM     58  C   UNL A   1      43.297  27.845  32.644  1.00  0.00     0.029 A 
ATOM     59  C   UNL A   1      42.647  28.845  33.349  1.00  0.00     0.049 A 
ATOM     60  H   UNL A   1      40.933  29.951  32.813  1.00  0.00     0.167 HD
ATOM     61  C   UNL A   1      42.263  30.345  35.285  1.00  0.00     0.074 A 
ATOM     62  C   UNL A   1      42.561  30.830  36.616  1.00  0.00     0.031 C 
ATOM     63  C   UNL A   1      42.969  29.378  34.648  1.00  0.00     0.034 A 
BRANCH  50  64
ATOM     64  C   UNL A   1      40.665  27.792  29.136  1.00  0.00     0.023 A 
ATOM     65  C   UNL A   1      39.789  26.692  29.030  1.00  0.00     0.012 A 
ATOM     66  C   UNL A   1      41.565  28.063  28.089  1.00  0.00     0.148 A 
ATOM     67  C   UNL A   1      39.830  25.855  27.917  1.00  0.00     0.002 A 
ATOM     68  C   UNL A   1      41.572  27.247  26.962  1.00  0.00     0.091 A 
ATOM     69  F   UNL A   1      42.406  29.098  28.217  1.00  0.00    -0.205 F 
ATOM     70  C   UNL A   1      40.714  26.138  26.879  1.00  0.00     0.022 A 
BRANCH  68  71
ATOM     71  S   UNL A   1      42.620  27.571  25.540  1.00  0.00     0.127 S 
ATOM     72  O   UNL A   1      42.030  28.800  25.013  1.00  0.00    -0.237 OA
ATOM     73  O   UNL A   1      43.936  27.743  26.157  1.00  0.00    -0.237 OA
ATOM     74  O   UNL A   1      42.503  26.401  24.682  1.00  0.00    -0.744 OA
ENDBRANCH  68  71
ENDBRANCH  50  64
BRANCH  51  75
ATOM     75  C   UNL A   1      39.522  33.725  37.090  1.00  0.00     0.023 A 
ATOM     76  C   UNL A   1      39.980  35.056  37.058  1.00  0.00     0.012 A 
ATOM     77  C   UNL A   1      38.874  33.250  38.246  1.00  0.00     0.148 A 
ATOM     78  C   UNL A   1      39.821  35.891  38.164  1.00  0.00     0.002 A 
ATOM     79  C   UNL A   1      38.672  34.103  39.326  1.00  0.00     0.091 A 
ATOM     80  F   UNL A   1      38.457  31.975  38.264  1.00  0.00    -0.205 F 
ATOM     81  C   UNL A   1      39.160  35.419  39.293  1.00  0.00     0.022 A 
BRANCH  79  82
ATOM     82  S   UNL A   1      37.715  33.619  40.767  1.00  0.00     0.127 S 
ATOM     83  O   UNL A   1      37.648  34.871  41.516  1.00  0.00    -0.237 OA
ATOM     84  O   UNL A   1      36.451  33.193  40.164  1.00  0.00    -0.237 OA
ATOM     85  O   UNL A   1      38.470  32.543  41.392  1.00  0.00    -0.744 OA
ENDBRANCH  79  82
ENDBRANCH  51  75
BRANCH  63  86
ATOM     86  C   UNL A   1      44.159  28.797  35.364  1.00  0.00     0.023 A 
ATOM     87  C   UNL A   1      45.437  29.354  35.158  1.00  0.00     0.012 A 
ATOM     88  C   UNL A   1      44.000  27.755  36.298  1.00  0.00     0.148 A 
ATOM     89  C   UNL A   1      46.543  28.865  35.852  1.00  0.00     0.002 A 
ATOM     90  C   UNL A   1      45.099  27.301  37.018  1.00  0.00     0.091 A 
ATOM     91  F   UNL A   1      42.780  27.224  36.464  1.00  0.00    -0.205 F 
ATOM     92  C   UNL A   1      46.372  27.848  36.789  1.00  0.00     0.022 A 
BRANCH  90  93
ATOM     93  S   UNL A   1      44.954  26.062  38.311  1.00  0.00     0.127 S 
ATOM     94  O   UNL A   1      46.328  25.982  38.803  1.00  0.00    -0.237 OA
ATOM     95  O   UNL A   1      44.010  26.687  39.239  1.00  0.00    -0.237 OA
ATOM     96  O   UNL A   1      44.450  24.862  37.657  1.00  0.00    -0.744 OA
ENDBRANCH  90  93
ENDBRANCH  63  86
ENDBRANCH  37  38
ENDBRANCH  29  32
ENDBRANCH  27  28
ENDBRANCH  26  27
ENDBRANCH   1  26
TORSDOF 18
ENDMDL
MODEL 3
REMARK VINA RESULT:     -12.1      1.893      3.739
REMARK SMILES Cc1ccc(/C=C/C(=O)N2C[C@@H](O)C[C@H]2C(=O)NCCCCNC(=O)c2ccc(-c3c4nc(c(-c5cccc(S(=O)(=O)[O-])c5F)c5ccc([nH]5)c(-c5cccc(S(=O)(=O)[O-])c5F)c5nc(c(-c6cccc(S(=O)(=O)[O-])c6F)c6ccc3[nH]6)C=C5)C=C4)cc2)c(C)c1
REMARK SMILES IDX 20 1 19 2 18 3 16 4 17 5 15 7 10 8 11 9 12 10 14 11 8 12
REMARK SMILES IDX 9 13 7 14 6 15 5 16 1 17 2 18 3 19 91 20 4 21 89 22 90 23
REMARK SMILES IDX 13 24 21 26 22 27 23 28 24 29 25 31 26 32 27 33 88 34 28 35
REMARK SMILES IDX 87 36 29 37 30 38 31 39 81 40 32 41 86 42 80 43 82 44 33 45
REMARK SMILES IDX 85 46 79 47 78 48 34 50 66 51 46 52 65 53 47 54 50 55 64 56
REMARK SMILES IDX 83 57 48 58 49 59 63 61 84 62 51 63 35 64 36 65 44 66 37 67
REMARK SMILES IDX 39 68 45 69 38 70 40 71 41 72 42 73 43 74 67 75 68 76 76 77
REMARK SMILES IDX 69 78 71 79 77 80 70 81 72 82 73 83 74 84 75 85 52 86 53 87
REMARK SMILES IDX 61 88 54 89 56 90 62 91 55 92 57 93 58 94 59 95 60 96
REMARK H PARENT 18 6 13 25 23 30 82 49 50 60
REMARK Flexibility Score: inf
ROOT
ATOM      1  C   UNL A   1      32.301  29.435  24.928  1.00  0.00     0.023 C 
ENDROOT
BRANCH   1   2
ATOM      2  C   UNL A   1      31.361  28.296  24.554  1.00  0.00     0.116 C 
BRANCH   2   3
ATOM      3  N   UNL A   1      31.411  27.189  25.481  1.00  0.00    -0.354 N 
ATOM      4  C   UNL A   1      32.110  26.018  25.417  1.00  0.00     0.242 C 
ATOM      5  O   UNL A   1      32.227  25.377  26.466  1.00  0.00    -0.273 OA
ATOM      6  H   UNL A   1      30.855  27.295  26.285  1.00  0.00     0.163 HD
BRANCH   4   7
ATOM      7  C   UNL A   1      32.919  25.604  24.168  1.00  0.00     0.177 C 
ATOM      8  N   UNL A   1      32.163  25.135  23.003  1.00  0.00    -0.324 N 
ATOM      9  C   UNL A   1      32.484  25.888  21.803  1.00  0.00     0.152 C 
ATOM     10  C   UNL A   1      33.765  26.645  22.141  1.00  0.00     0.136 C 
ATOM     11  C   UNL A   1      33.769  26.775  23.663  1.00  0.00     0.069 C 
BRANCH   8  12
ATOM     12  C   UNL A   1      31.485  23.941  23.085  1.00  0.00     0.247 C 
ATOM     13  O   UNL A   1      30.273  23.859  23.245  1.00  0.00    -0.270 OA
BRANCH  12  14
ATOM     14  C   UNL A   1      32.285  22.698  23.029  1.00  0.00     0.072 C 
ATOM     15  C   UNL A   1      31.985  21.742  23.920  1.00  0.00     0.014 C 
BRANCH  15  16
ATOM     16  C   UNL A   1      32.583  20.402  23.967  1.00  0.00    -0.023 A 
ATOM     17  C   UNL A   1      34.439  16.531  23.467  1.00  0.00     0.044 C 
ATOM     18  C   UNL A   1      33.755  17.851  23.668  1.00  0.00    -0.051 A 
ATOM     19  C   UNL A   1      32.584  18.169  22.982  1.00  0.00     0.004 A 
ATOM     20  C   UNL A   1      34.316  18.803  24.529  1.00  0.00     0.007 A 
ATOM     21  C   UNL A   1      32.007  19.432  23.130  1.00  0.00     0.008 A 
ATOM     22  C   UNL A   1      33.742  20.079  24.696  1.00  0.00    -0.044 A 
ATOM     23  C   UNL A   1      34.482  21.056  25.570  1.00  0.00     0.045 C 
ENDBRANCH  15  16
ENDBRANCH  12  14
ENDBRANCH   8  12
BRANCH  10  24
ATOM     24  O   UNL A   1      33.819  27.915  21.512  1.00  0.00    -0.391 OA
ATOM     25  H   UNL A   1      33.478  28.592  22.118  1.00  0.00     0.211 HD
ENDBRANCH  10  24
ENDBRANCH   4   7
ENDBRANCH   2   3
ENDBRANCH   1   2
BRANCH   1  26
ATOM     26  C   UNL A   1      31.685  30.497  25.841  1.00  0.00     0.023 C 
BRANCH  26  27
ATOM     27  C   UNL A   1      32.536  30.919  27.037  1.00  0.00     0.116 C 
BRANCH  27  28
ATOM     28  N   UNL A   1      32.658  32.362  27.189  1.00  0.00    -0.352 N 
ATOM     29  C   UNL A   1      33.702  33.080  27.730  1.00  0.00     0.251 C 
ATOM     30  H   UNL A   1      31.896  32.894  26.862  1.00  0.00     0.163 HD
ATOM     31  O   UNL A   1      33.616  34.293  27.859  1.00  0.00    -0.269 OA
BRANCH  29  32
ATOM     32  C   UNL A   1      34.908  32.358  28.192  1.00  0.00     0.039 A 
ATOM     33  C   UNL A   1      36.125  33.042  28.234  1.00  0.00     0.014 A 
ATOM     34  C   UNL A   1      34.824  31.033  28.625  1.00  0.00     0.014 A 
ATOM     35  C   UNL A   1      37.248  32.417  28.784  1.00  0.00     0.010 A 
ATOM     36  C   UNL A   1      35.925  30.436  29.231  1.00  0.00     0.010 A 
ATOM     37  C   UNL A   1      37.146  31.123  29.322  1.00  0.00    -0.014 A 
BRANCH  37  38
ATOM     38  C   UNL A   1      38.295  30.480  30.009  1.00  0.00     0.031 A 
ATOM     39  C   UNL A   1      38.667  30.888  31.408  1.00  0.00     0.074 A 
ATOM     40  C   UNL A   1      39.064  29.602  29.335  1.00  0.00     0.049 A 
ATOM     41  N   UNL A   1      39.672  30.488  32.143  1.00  0.00    -0.248 NA
ATOM     42  C   UNL A   1      37.816  31.899  32.055  1.00  0.00     0.031 C 
ATOM     43  C   UNL A   1      38.859  29.190  27.945  1.00  0.00     0.029 A 
ATOM     44  N   UNL A   1      40.191  28.919  29.719  1.00  0.00    -0.354 N 
ATOM     45  C   UNL A   1      39.596  31.220  33.321  1.00  0.00     0.074 A 
ATOM     46  C   UNL A   1      38.466  32.114  33.190  1.00  0.00     0.031 C 
ATOM     47  C   UNL A   1      39.825  28.326  27.594  1.00  0.00     0.029 A 
ATOM     48  C   UNL A   1      40.731  28.138  28.724  1.00  0.00     0.049 A 
ATOM     49  H   UNL A   1      40.577  28.981  30.623  1.00  0.00     0.167 HD
ATOM     50  C   UNL A   1      40.374  31.134  34.426  1.00  0.00     0.034 A 
ATOM     51  C   UNL A   1      41.831  27.361  28.720  1.00  0.00     0.034 A 
ATOM     52  C   UNL A   1      41.465  30.209  34.573  1.00  0.00     0.049 A 
ATOM     53  C   UNL A   1      42.648  27.241  29.978  1.00  0.00     0.074 A 
ATOM     54  C   UNL A   1      42.256  29.981  35.685  1.00  0.00     0.029 A 
ATOM     55  N   UNL A   1      41.921  29.360  33.577  1.00  0.00    -0.354 N 
ATOM     56  N   UNL A   1      42.459  27.819  31.140  1.00  0.00    -0.248 NA
ATOM     57  C   UNL A   1      43.804  26.336  29.939  1.00  0.00     0.031 C 
ATOM     58  C   UNL A   1      43.198  29.000  35.357  1.00  0.00     0.029 A 
ATOM     59  C   UNL A   1      42.983  28.607  34.045  1.00  0.00     0.049 A 
ATOM     60  H   UNL A   1      41.544  29.301  32.669  1.00  0.00     0.167 HD
ATOM     61  C   UNL A   1      43.450  27.320  31.979  1.00  0.00     0.074 A 
ATOM     62  C   UNL A   1      44.223  26.379  31.196  1.00  0.00     0.031 C 
ATOM     63  C   UNL A   1      43.707  27.629  33.274  1.00  0.00     0.034 A 
BRANCH  50  64
ATOM     64  C   UNL A   1      40.028  32.021  35.594  1.00  0.00     0.023 A 
ATOM     65  C   UNL A   1      40.733  33.229  35.774  1.00  0.00     0.012 A 
ATOM     66  C   UNL A   1      38.980  31.693  36.475  1.00  0.00     0.148 A 
ATOM     67  C   UNL A   1      40.424  34.080  36.832  1.00  0.00     0.002 A 
ATOM     68  C   UNL A   1      38.650  32.569  37.504  1.00  0.00     0.091 A 
ATOM     69  F   UNL A   1      38.336  30.530  36.301  1.00  0.00    -0.205 F 
ATOM     70  C   UNL A   1      39.377  33.756  37.691  1.00  0.00     0.022 A 
BRANCH  68  71
ATOM     71  S   UNL A   1      37.270  32.277  38.616  1.00  0.00     0.127 S 
ATOM     72  O   UNL A   1      37.748  32.901  39.849  1.00  0.00    -0.237 OA
ATOM     73  O   UNL A   1      36.181  32.996  37.953  1.00  0.00    -0.237 OA
ATOM     74  O   UNL A   1      37.097  30.832  38.669  1.00  0.00    -0.744 OA
ENDBRANCH  68  71
ENDBRANCH  50  64
BRANCH  51  75
ATOM     75  C   UNL A   1      42.176  26.566  27.507  1.00  0.00     0.023 A 
ATOM     76  C   UNL A   1      42.827  27.202  26.432  1.00  0.00     0.012 A 
ATOM     77  C   UNL A   1      41.896  25.189  27.422  1.00  0.00     0.148 A 
ATOM     78  C   UNL A   1      43.168  26.487  25.283  1.00  0.00     0.002 A 
ATOM     79  C   UNL A   1      42.285  24.472  26.296  1.00  0.00     0.091 A 
ATOM     80  F   UNL A   1      41.263  24.604  28.450  1.00  0.00    -0.205 F 
ATOM     81  C   UNL A   1      42.907  25.122  25.218  1.00  0.00     0.022 A 
BRANCH  79  82
ATOM     82  S   UNL A   1      42.107  22.688  26.184  1.00  0.00     0.127 S 
ATOM     83  O   UNL A   1      40.655  22.532  26.192  1.00  0.00    -0.237 OA
ATOM     84  O   UNL A   1      42.752  22.398  24.902  1.00  0.00    -0.237 OA
ATOM     85  O   UNL A   1      42.811  22.153  27.341  1.00  0.00    -0.744 OA
ENDBRANCH  79  82
ENDBRANCH  51  75
BRANCH  63  86
ATOM     86  C   UNL A   1      44.853  26.921  33.947  1.00  0.00     0.023 A 
ATOM     87  C   UNL A   1      46.158  27.438  33.826  1.00  0.00     0.012 A 
ATOM     88  C   UNL A   1      44.627  25.795  34.762  1.00  0.00     0.148 A 
ATOM     89  C   UNL A   1      47.225  26.828  34.485  1.00  0.00     0.002 A 
ATOM     90  C   UNL A   1      45.688  25.218  35.450  1.00  0.00     0.091 A 
ATOM     91  F   UNL A   1      43.381  25.306  34.846  1.00  0.00    -0.205 F 
ATOM     92  C   UNL A   1      46.988  25.727  35.305  1.00  0.00     0.022 A 
BRANCH  90  93
ATOM     93  S   UNL A   1      45.458  23.857  36.601  1.00  0.00     0.127 S 
ATOM     94  O   UNL A   1      46.817  23.655  37.098  1.00  0.00    -0.237 OA
ATOM     95  O   UNL A   1      44.530  24.427  37.579  1.00  0.00    -0.237 OA
ATOM     96  O   UNL A   1      44.907  22.761  35.816  1.00  0.00    -0.744 OA
ENDBRANCH  90  93
ENDBRANCH  63  86
ENDBRANCH  37  38
ENDBRANCH  29  32
ENDBRANCH  27  28
ENDBRANCH  26  27
ENDBRANCH   1  26
TORSDOF 18
ENDMDL
