MODEL 1
REMARK VINA RESULT:     -12.8      0.000      0.000
REMARK SMILES NC(=O)COc1ccc(/C=C2\SC(=S)N(CCC(=O)NCCCCNC(=O)c3ccc(-c4c5nc(c(-c6cccc(S(=O)(=O)[O-])c6F)c6ccc([nH]6)c(-c6cccc(S(=O)(=O)[O-])c6F)c6nc(c(-c7cccc(S(=O)(=O)[O-])c7F)c7ccc4[nH]7)C=C6)C=C5)cc3)C2=O)cc1
REMARK SMILES IDX 21 1 20 2 18 3 19 4 17 6 16 7 15 8 10 9 11 10 12 11 91 12
REMARK SMILES IDX 13 13 92 14 14 15 9 16 6 17 7 18 94 19 8 20 93 21 5 22 4 23
REMARK SMILES IDX 2 24 1 25 3 28 22 29 23 30 24 31 25 32 26 33 27 35 28 36
REMARK SMILES IDX 29 37 90 38 30 39 89 40 31 41 32 42 33 43 83 44 34 45 88 46
REMARK SMILES IDX 82 47 84 48 35 49 87 50 81 51 80 52 36 54 68 55 48 56 67 57
REMARK SMILES IDX 49 58 52 59 66 60 85 61 50 62 51 63 65 65 86 66 53 67 37 68
REMARK SMILES IDX 38 69 46 70 39 71 41 72 47 73 40 74 42 75 43 76 44 77 45 78
REMARK SMILES IDX 69 79 70 80 78 81 71 82 73 83 79 84 72 85 74 86 75 87 76 88
REMARK SMILES IDX 77 89 54 90 55 91 63 92 56 93 58 94 64 95 57 96 59 97 60 98
REMARK SMILES IDX 61 99 62 100
REMARK H PARENT 20 5 1 26 1 27 25 34 84 53 52 64
REMARK Flexibility Score: inf
ROOT
ATOM      1  C   UNL A   1      32.800  29.908  26.328  1.00  0.00     0.116 C 
ENDROOT
BRANCH   1   2
ATOM      2  N   UNL A   1      33.621  29.678  25.155  1.00  0.00    -0.356 N 
ATOM      3  C   UNL A   1      33.343  28.937  24.045  1.00  0.00     0.221 C 
ATOM      4  O   UNL A   1      34.253  28.683  23.257  1.00  0.00    -0.275 OA
ATOM      5  H   UNL A   1      34.502  30.118  25.162  1.00  0.00     0.163 HD
BRANCH   3   6
ATOM      6  C   UNL A   1      31.925  28.490  23.761  1.00  0.00     0.122 C 
BRANCH   6   7
ATOM      7  C   UNL A   1      31.789  27.632  22.498  1.00  0.00     0.137 C 
BRANCH   7   8
ATOM      8  N   UNL A   1      31.605  26.193  22.750  1.00  0.00    -0.292 N 
ATOM      9  C   UNL A   1      33.237  22.994  22.867  1.00  0.00     0.029 C 
ATOM     10  C   UNL A   1      32.283  23.935  22.818  1.00  0.00     0.081 C 
ATOM     11  S   UNL A   1      30.722  23.895  23.532  1.00  0.00    -0.054 SA
ATOM     12  C   UNL A   1      32.556  25.297  22.284  1.00  0.00     0.266 C 
ATOM     13  C   UNL A   1      30.501  25.631  23.362  1.00  0.00     0.148 C 
ATOM     14  O   UNL A   1      33.525  25.568  21.585  1.00  0.00    -0.268 OA
ATOM     15  S   UNL A   1      29.118  26.395  23.903  1.00  0.00    -0.052 S 
BRANCH   9  16
ATOM     16  C   UNL A   1      33.120  21.731  23.602  1.00  0.00    -0.024 A 
ATOM     17  C   UNL A   1      32.841  19.392  25.107  1.00  0.00     0.120 A 
ATOM     18  C   UNL A   1      33.513  20.480  25.634  1.00  0.00     0.047 A 
ATOM     19  C   UNL A   1      32.279  19.470  23.837  1.00  0.00     0.047 A 
ATOM     20  C   UNL A   1      33.679  21.636  24.879  1.00  0.00     0.012 A 
ATOM     21  C   UNL A   1      32.421  20.640  23.083  1.00  0.00     0.012 A 
BRANCH  17  22
ATOM     22  O   UNL A   1      32.683  18.293  25.907  1.00  0.00    -0.484 OA
BRANCH  22  23
ATOM     23  C   UNL A   1      32.350  17.134  25.135  1.00  0.00     0.329 C 
BRANCH  23  24
ATOM     24  C   UNL A   1      33.405  16.046  25.299  1.00  0.00     0.255 C 
ATOM     25  N   UNL A   1      34.630  16.498  25.711  1.00  0.00    -0.367 N 
ATOM     26  H   UNL A   1      35.370  15.863  25.843  1.00  0.00     0.159 HD
ATOM     27  H   UNL A   1      34.769  17.459  25.874  1.00  0.00     0.159 HD
ATOM     28  O   UNL A   1      33.217  14.859  25.061  1.00  0.00    -0.271 OA
ENDBRANCH  23  24
ENDBRANCH  22  23
ENDBRANCH  17  22
ENDBRANCH   9  16
ENDBRANCH   7   8
ENDBRANCH   6   7
ENDBRANCH   3   6
ENDBRANCH   1   2
BRANCH   1  29
ATOM     29  C   UNL A   1      31.545  30.667  25.931  1.00  0.00     0.023 C 
BRANCH  29  30
ATOM     30  C   UNL A   1      31.435  32.069  26.499  1.00  0.00     0.023 C 
BRANCH  30  31
ATOM     31  C   UNL A   1      32.446  32.396  27.583  1.00  0.00     0.116 C 
BRANCH  31  32
ATOM     32  N   UNL A   1      32.881  33.789  27.620  1.00  0.00    -0.352 N 
ATOM     33  C   UNL A   1      34.072  34.343  28.035  1.00  0.00     0.251 C 
ATOM     34  H   UNL A   1      32.215  34.437  27.298  1.00  0.00     0.163 HD
ATOM     35  O   UNL A   1      34.225  35.560  27.990  1.00  0.00    -0.269 OA
BRANCH  33  36
ATOM     36  C   UNL A   1      35.130  33.484  28.600  1.00  0.00     0.039 A 
ATOM     37  C   UNL A   1      34.789  32.232  29.129  1.00  0.00     0.014 A 
ATOM     38  C   UNL A   1      36.460  33.895  28.580  1.00  0.00     0.014 A 
ATOM     39  C   UNL A   1      35.787  31.352  29.528  1.00  0.00     0.010 A 
ATOM     40  C   UNL A   1      37.462  32.994  28.886  1.00  0.00     0.010 A 
ATOM     41  C   UNL A   1      37.125  31.733  29.400  1.00  0.00    -0.014 A 
BRANCH  41  42
ATOM     42  C   UNL A   1      38.187  30.957  30.057  1.00  0.00     0.031 A 
ATOM     43  C   UNL A   1      38.470  31.292  31.493  1.00  0.00     0.074 A 
ATOM     44  C   UNL A   1      38.890  30.035  29.383  1.00  0.00     0.049 A 
ATOM     45  N   UNL A   1      39.451  30.906  32.256  1.00  0.00    -0.248 NA
ATOM     46  C   UNL A   1      37.537  32.235  32.144  1.00  0.00     0.031 C 
ATOM     47  C   UNL A   1      38.675  29.652  27.987  1.00  0.00     0.029 A 
ATOM     48  N   UNL A   1      39.947  29.266  29.784  1.00  0.00    -0.354 N 
ATOM     49  C   UNL A   1      39.292  31.609  33.443  1.00  0.00     0.074 A 
ATOM     50  C   UNL A   1      38.148  32.474  33.290  1.00  0.00     0.031 C 
ATOM     51  C   UNL A   1      39.583  28.720  27.645  1.00  0.00     0.029 A 
ATOM     52  C   UNL A   1      40.462  28.476  28.784  1.00  0.00     0.049 A 
ATOM     53  H   UNL A   1      40.307  29.279  30.701  1.00  0.00     0.167 HD
ATOM     54  C   UNL A   1      40.025  31.517  34.574  1.00  0.00     0.034 A 
ATOM     55  C   UNL A   1      41.540  27.669  28.801  1.00  0.00     0.034 A 
ATOM     56  C   UNL A   1      41.116  30.600  34.718  1.00  0.00     0.049 A 
ATOM     57  C   UNL A   1      42.324  27.562  30.084  1.00  0.00     0.074 A 
ATOM     58  C   UNL A   1      41.904  30.363  35.825  1.00  0.00     0.029 A 
ATOM     59  N   UNL A   1      41.565  29.758  33.709  1.00  0.00    -0.354 N 
ATOM     60  N   UNL A   1      42.119  28.169  31.232  1.00  0.00    -0.248 NA
ATOM     61  C   UNL A   1      43.468  26.643  30.088  1.00  0.00     0.031 C 
ATOM     62  C   UNL A   1      42.848  29.392  35.478  1.00  0.00     0.029 A 
ATOM     63  C   UNL A   1      42.624  29.000  34.166  1.00  0.00     0.049 A 
ATOM     64  H   UNL A   1      41.184  29.708  32.803  1.00  0.00     0.167 HD
ATOM     65  C   UNL A   1      43.087  27.682  32.102  1.00  0.00     0.074 A 
ATOM     66  C   UNL A   1      43.862  26.711  31.352  1.00  0.00     0.031 C 
ATOM     67  C   UNL A   1      43.333  28.010  33.394  1.00  0.00     0.034 A 
BRANCH  54  68
ATOM     68  C   UNL A   1      39.644  32.413  35.720  1.00  0.00     0.023 A 
ATOM     69  C   UNL A   1      38.837  31.919  36.768  1.00  0.00     0.012 A 
ATOM     70  C   UNL A   1      40.075  33.752  35.753  1.00  0.00     0.148 A 
ATOM     71  C   UNL A   1      38.428  32.757  37.804  1.00  0.00     0.002 A 
ATOM     72  C   UNL A   1      39.708  34.566  36.817  1.00  0.00     0.091 A 
ATOM     73  F   UNL A   1      40.811  34.212  34.731  1.00  0.00    -0.205 F 
ATOM     74  C   UNL A   1      38.871  34.077  37.834  1.00  0.00     0.022 A 
BRANCH  72  75
ATOM     75  S   UNL A   1      40.285  36.257  36.987  1.00  0.00     0.127 S 
ATOM     76  O   UNL A   1      39.852  36.846  35.720  1.00  0.00    -0.237 OA
ATOM     77  O   UNL A   1      39.539  36.716  38.159  1.00  0.00    -0.237 OA
ATOM     78  O   UNL A   1      41.727  36.175  37.174  1.00  0.00    -0.744 OA
ENDBRANCH  72  75
ENDBRANCH  54  68
BRANCH  55  79
ATOM     79  C   UNL A   1      41.912  26.880  27.592  1.00  0.00     0.023 A 
ATOM     80  C   UNL A   1      42.521  27.527  26.500  1.00  0.00     0.012 A 
ATOM     81  C   UNL A   1      41.684  25.491  27.525  1.00  0.00     0.148 A 
ATOM     82  C   UNL A   1      42.864  26.815  25.349  1.00  0.00     0.002 A 
ATOM     83  C   UNL A   1      42.077  24.778  26.398  1.00  0.00     0.091 A 
ATOM     84  F   UNL A   1      41.093  24.894  28.568  1.00  0.00    -0.205 F 
ATOM     85  C   UNL A   1      42.651  25.440  25.302  1.00  0.00     0.022 A 
BRANCH  83  86
ATOM     86  S   UNL A   1      41.956  22.988  26.298  1.00  0.00     0.127 S 
ATOM     87  O   UNL A   1      42.695  22.571  27.487  1.00  0.00    -0.237 OA
ATOM     88  O   UNL A   1      40.510  22.779  26.367  1.00  0.00    -0.237 OA
ATOM     89  O   UNL A   1      42.554  22.625  25.021  1.00  0.00    -0.744 OA
ENDBRANCH  83  86
ENDBRANCH  55  79
BRANCH  67  90
ATOM     90  C   UNL A   1      44.457  27.288  34.087  1.00  0.00     0.023 A 
ATOM     91  C   UNL A   1      45.771  27.785  33.997  1.00  0.00     0.012 A 
ATOM     92  C   UNL A   1      44.189  26.168  34.895  1.00  0.00     0.148 A 
ATOM     93  C   UNL A   1      46.811  27.153  34.674  1.00  0.00     0.002 A 
ATOM     94  C   UNL A   1      45.220  25.578  35.612  1.00  0.00     0.091 A 
ATOM     95  F   UNL A   1      42.931  25.706  34.953  1.00  0.00    -0.205 F 
ATOM     96  C   UNL A   1      46.534  26.059  35.491  1.00  0.00     0.022 A 
BRANCH  94  97
ATOM     97  S   UNL A   1      44.936  24.238  36.772  1.00  0.00     0.127 S 
ATOM     98  O   UNL A   1      44.408  23.193  35.897  1.00  0.00    -0.237 OA
ATOM     99  O   UNL A   1      46.281  23.982  37.287  1.00  0.00    -0.237 OA
ATOM    100  O   UNL A   1      44.000  24.755  37.762  1.00  0.00    -0.744 OA
ENDBRANCH  94  97
ENDBRANCH  67  90
ENDBRANCH  41  42
ENDBRANCH  33  36
ENDBRANCH  31  32
ENDBRANCH  30  31
ENDBRANCH  29  30
ENDBRANCH   1  29
TORSDOF 20
ENDMDL
MODEL 2
REMARK VINA RESULT:     -12.6      2.050      7.622
REMARK SMILES NC(=O)COc1ccc(/C=C2\SC(=S)N(CCC(=O)NCCCCNC(=O)c3ccc(-c4c5nc(c(-c6cccc(S(=O)(=O)[O-])c6F)c6ccc([nH]6)c(-c6cccc(S(=O)(=O)[O-])c6F)c6nc(c(-c7cccc(S(=O)(=O)[O-])c7F)c7ccc4[nH]7)C=C6)C=C5)cc3)C2=O)cc1
REMARK SMILES IDX 21 1 20 2 18 3 19 4 17 6 16 7 15 8 10 9 11 10 12 11 91 12
REMARK SMILES IDX 13 13 92 14 14 15 9 16 6 17 7 18 94 19 8 20 93 21 5 22 4 23
REMARK SMILES IDX 2 24 1 25 3 28 22 29 23 30 24 31 25 32 26 33 27 35 28 36
REMARK SMILES IDX 29 37 90 38 30 39 89 40 31 41 32 42 33 43 83 44 34 45 88 46
REMARK SMILES IDX 82 47 84 48 35 49 87 50 81 51 80 52 36 54 68 55 48 56 67 57
REMARK SMILES IDX 49 58 52 59 66 60 85 61 50 62 51 63 65 65 86 66 53 67 37 68
REMARK SMILES IDX 38 69 46 70 39 71 41 72 47 73 40 74 42 75 43 76 44 77 45 78
REMARK SMILES IDX 69 79 70 80 78 81 71 82 73 83 79 84 72 85 74 86 75 87 76 88
REMARK SMILES IDX 77 89 54 90 55 91 63 92 56 93 58 94 64 95 57 96 59 97 60 98
REMARK SMILES IDX 61 99 62 100
REMARK H PARENT 20 5 1 26 1 27 25 34 84 53 52 64
REMARK Flexibility Score: inf
ROOT
ATOM      1  C   UNL A   1      32.612  28.146  26.273  1.00  0.00     0.116 C 
ENDROOT
BRANCH   1   2
ATOM      2  N   UNL A   1      33.545  28.489  25.217  1.00  0.00    -0.356 N 
ATOM      3  C   UNL A   1      33.301  28.709  23.894  1.00  0.00     0.221 C 
ATOM      4  O   UNL A   1      34.252  28.771  23.116  1.00  0.00    -0.275 OA
ATOM      5  H   UNL A   1      34.485  28.575  25.494  1.00  0.00     0.163 HD
BRANCH   3   6
ATOM      6  C   UNL A   1      31.886  28.935  23.406  1.00  0.00     0.122 C 
BRANCH   6   7
ATOM      7  C   UNL A   1      31.495  28.053  22.215  1.00  0.00     0.137 C 
BRANCH   7   8
ATOM      8  N   UNL A   1      31.434  26.612  22.509  1.00  0.00    -0.292 N 
ATOM      9  C   UNL A   1      33.279  23.528  22.508  1.00  0.00     0.029 C 
ATOM     10  C   UNL A   1      32.264  24.405  22.545  1.00  0.00     0.081 C 
ATOM     11  S   UNL A   1      30.793  24.282  23.420  1.00  0.00    -0.054 SA
ATOM     12  C   UNL A   1      32.389  25.768  21.961  1.00  0.00     0.266 C 
ATOM     13  C   UNL A   1      30.440  25.996  23.245  1.00  0.00     0.148 C 
ATOM     14  O   UNL A   1      33.259  26.084  21.159  1.00  0.00    -0.268 OA
ATOM     15  S   UNL A   1      29.073  26.682  23.915  1.00  0.00    -0.052 S 
BRANCH   9  16
ATOM     16  C   UNL A   1      33.324  22.279  23.274  1.00  0.00    -0.024 A 
ATOM     17  C   UNL A   1      33.416  19.829  24.617  1.00  0.00     0.120 A 
ATOM     18  C   UNL A   1      32.439  20.062  23.665  1.00  0.00     0.047 A 
ATOM     19  C   UNL A   1      34.371  20.804  24.887  1.00  0.00     0.047 A 
ATOM     20  C   UNL A   1      32.372  21.290  23.015  1.00  0.00     0.012 A 
ATOM     21  C   UNL A   1      34.324  22.031  24.216  1.00  0.00     0.012 A 
BRANCH  17  22
ATOM     22  O   UNL A   1      33.451  18.593  25.202  1.00  0.00    -0.484 OA
BRANCH  22  23
ATOM     23  C   UNL A   1      32.601  17.670  24.513  1.00  0.00     0.329 C 
BRANCH  23  24
ATOM     24  C   UNL A   1      33.351  16.388  24.168  1.00  0.00     0.255 C 
ATOM     25  N   UNL A   1      33.244  15.396  25.105  1.00  0.00    -0.367 N 
ATOM     26  H   UNL A   1      33.697  14.534  24.962  1.00  0.00     0.159 HD
ATOM     27  H   UNL A   1      32.715  15.546  25.921  1.00  0.00     0.159 HD
ATOM     28  O   UNL A   1      34.028  16.235  23.158  1.00  0.00    -0.271 OA
ENDBRANCH  23  24
ENDBRANCH  22  23
ENDBRANCH  17  22
ENDBRANCH   9  16
ENDBRANCH   7   8
ENDBRANCH   6   7
ENDBRANCH   3   6
ENDBRANCH   1   2
BRANCH   1  29
ATOM     29  C   UNL A   1      32.624  29.232  27.337  1.00  0.00     0.023 C 
BRANCH  29  30
ATOM     30  C   UNL A   1      32.160  30.597  26.868  1.00  0.00     0.023 C 
BRANCH  30  31
ATOM     31  C   UNL A   1      33.214  31.687  26.947  1.00  0.00     0.116 C 
BRANCH  31  32
ATOM     32  N   UNL A   1      32.727  32.982  27.413  1.00  0.00    -0.352 N 
ATOM     33  C   UNL A   1      33.229  33.835  28.371  1.00  0.00     0.251 C 
ATOM     34  H   UNL A   1      31.904  33.296  26.973  1.00  0.00     0.163 HD
ATOM     35  O   UNL A   1      32.645  34.887  28.616  1.00  0.00    -0.269 OA
BRANCH  33  36
ATOM     36  C   UNL A   1      34.421  33.451  29.150  1.00  0.00     0.039 A 
ATOM     37  C   UNL A   1      35.662  34.017  28.831  1.00  0.00     0.014 A 
ATOM     38  C   UNL A   1      34.313  32.558  30.213  1.00  0.00     0.014 A 
ATOM     39  C   UNL A   1      36.763  33.781  29.645  1.00  0.00     0.010 A 
ATOM     40  C   UNL A   1      35.377  32.392  31.080  1.00  0.00     0.010 A 
ATOM     41  C   UNL A   1      36.617  32.972  30.773  1.00  0.00    -0.014 A 
BRANCH  41  42
ATOM     42  C   UNL A   1      37.799  32.478  31.495  1.00  0.00     0.031 A 
ATOM     43  C   UNL A   1      38.569  31.369  30.838  1.00  0.00     0.074 A 
ATOM     44  C   UNL A   1      38.132  32.969  32.698  1.00  0.00     0.049 A 
ATOM     45  N   UNL A   1      39.527  30.629  31.316  1.00  0.00    -0.248 NA
ATOM     46  C   UNL A   1      38.166  31.016  29.461  1.00  0.00     0.031 C 
ATOM     47  C   UNL A   1      37.435  34.046  33.402  1.00  0.00     0.029 A 
ATOM     48  N   UNL A   1      39.136  32.603  33.551  1.00  0.00    -0.354 N 
ATOM     49  C   UNL A   1      39.790  29.686  30.332  1.00  0.00     0.074 A 
ATOM     50  C   UNL A   1      38.867  29.917  29.247  1.00  0.00     0.031 C 
ATOM     51  C   UNL A   1      38.033  34.250  34.589  1.00  0.00     0.029 A 
ATOM     52  C   UNL A   1      39.124  33.292  34.741  1.00  0.00     0.049 A 
ATOM     53  H   UNL A   1      39.804  31.912  33.335  1.00  0.00     0.167 HD
ATOM     54  C   UNL A   1      40.740  28.727  30.325  1.00  0.00     0.034 A 
ATOM     55  C   UNL A   1      39.901  33.135  35.829  1.00  0.00     0.034 A 
ATOM     56  C   UNL A   1      41.685  28.564  31.389  1.00  0.00     0.049 A 
ATOM     57  C   UNL A   1      40.974  32.076  35.785  1.00  0.00     0.074 A 
ATOM     58  C   UNL A   1      42.734  27.673  31.484  1.00  0.00     0.029 A 
ATOM     59  N   UNL A   1      41.693  29.328  32.548  1.00  0.00    -0.354 N 
ATOM     60  N   UNL A   1      41.271  31.239  34.816  1.00  0.00    -0.248 NA
ATOM     61  C   UNL A   1      41.835  31.954  36.967  1.00  0.00     0.031 C 
ATOM     62  C   UNL A   1      43.363  27.881  32.715  1.00  0.00     0.029 A 
ATOM     63  C   UNL A   1      42.727  28.927  33.370  1.00  0.00     0.049 A 
ATOM     64  H   UNL A   1      41.055  30.050  32.754  1.00  0.00     0.167 HD
ATOM     65  C   UNL A   1      42.372  30.515  35.258  1.00  0.00     0.074 A 
ATOM     66  C   UNL A   1      42.701  31.031  36.573  1.00  0.00     0.031 C 
ATOM     67  C   UNL A   1      43.044  29.506  34.651  1.00  0.00     0.034 A 
BRANCH  54  68
ATOM     68  C   UNL A   1      40.798  27.818  29.128  1.00  0.00     0.023 A 
ATOM     69  C   UNL A   1      39.991  26.661  29.077  1.00  0.00     0.012 A 
ATOM     70  C   UNL A   1      41.664  28.103  28.056  1.00  0.00     0.148 A 
ATOM     71  C   UNL A   1      40.080  25.779  28.001  1.00  0.00     0.002 A 
ATOM     72  C   UNL A   1      41.708  27.248  26.962  1.00  0.00     0.091 A 
ATOM     73  F   UNL A   1      42.447  29.187  28.138  1.00  0.00    -0.205 F 
ATOM     74  C   UNL A   1      40.930  26.078  26.939  1.00  0.00     0.022 A 
BRANCH  72  75
ATOM     75  S   UNL A   1      42.713  27.581  25.513  1.00  0.00     0.127 S 
ATOM     76  O   UNL A   1      42.492  26.375  24.716  1.00  0.00    -0.237 OA
ATOM     77  O   UNL A   1      42.084  28.789  24.978  1.00  0.00    -0.237 OA
ATOM     78  O   UNL A   1      44.073  27.765  25.998  1.00  0.00    -0.744 OA
ENDBRANCH  72  75
ENDBRANCH  54  68
BRANCH  55  79
ATOM     79  C   UNL A   1      39.723  34.014  37.019  1.00  0.00     0.023 A 
ATOM     80  C   UNL A   1      40.158  35.353  36.966  1.00  0.00     0.012 A 
ATOM     81  C   UNL A   1      39.112  33.539  38.196  1.00  0.00     0.148 A 
ATOM     82  C   UNL A   1      40.019  36.193  38.073  1.00  0.00     0.002 A 
ATOM     83  C   UNL A   1      38.927  34.396  39.276  1.00  0.00     0.091 A 
ATOM     84  F   UNL A   1      38.716  32.260  38.234  1.00  0.00    -0.205 F 
ATOM     85  C   UNL A   1      39.396  35.718  39.223  1.00  0.00     0.022 A 
BRANCH  83  86
ATOM     86  S   UNL A   1      38.026  33.908  40.751  1.00  0.00     0.127 S 
ATOM     87  O   UNL A   1      38.956  32.970  41.374  1.00  0.00    -0.237 OA
ATOM     88  O   UNL A   1      37.877  35.184  41.450  1.00  0.00    -0.237 OA
ATOM     89  O   UNL A   1      36.775  33.335  40.275  1.00  0.00    -0.744 OA
ENDBRANCH  83  86
ENDBRANCH  55  79
BRANCH  67  90
ATOM     90  C   UNL A   1      44.222  28.923  35.384  1.00  0.00     0.023 A 
ATOM     91  C   UNL A   1      45.504  29.476  35.203  1.00  0.00     0.012 A 
ATOM     92  C   UNL A   1      44.035  27.885  36.316  1.00  0.00     0.148 A 
ATOM     93  C   UNL A   1      46.593  28.976  35.914  1.00  0.00     0.002 A 
ATOM     94  C   UNL A   1      45.114  27.431  37.062  1.00  0.00     0.091 A 
ATOM     95  F   UNL A   1      42.806  27.367  36.460  1.00  0.00    -0.205 F 
ATOM     96  C   UNL A   1      46.396  27.965  36.851  1.00  0.00     0.022 A 
BRANCH  94  97
ATOM     97  S   UNL A   1      44.931  26.213  38.367  1.00  0.00     0.127 S 
ATOM     98  O   UNL A   1      44.507  25.033  37.615  1.00  0.00    -0.237 OA
ATOM     99  O   UNL A   1      46.287  26.136  38.911  1.00  0.00    -0.237 OA
ATOM    100  O   UNL A   1      43.941  26.756  39.288  1.00  0.00    -0.744 OA
ENDBRANCH  94  97
ENDBRANCH  67  90
ENDBRANCH  41  42
ENDBRANCH  33  36
ENDBRANCH  31  32
ENDBRANCH  30  31
ENDBRANCH  29  30
ENDBRANCH   1  29
TORSDOF 20
ENDMDL
MODEL 3
REMARK VINA RESULT:     -12.6      2.839      8.037
REMARK SMILES NC(=O)COc1ccc(/C=C2\SC(=S)N(CCC(=O)NCCCCNC(=O)c3ccc(-c4c5nc(c(-c6cccc(S(=O)(=O)[O-])c6F)c6ccc([nH]6)c(-c6cccc(S(=O)(=O)[O-])c6F)c6nc(c(-c7cccc(S(=O)(=O)[O-])c7F)c7ccc4[nH]7)C=C6)C=C5)cc3)C2=O)cc1
REMARK SMILES IDX 21 1 20 2 18 3 19 4 17 6 16 7 15 8 10 9 11 10 12 11 91 12
REMARK SMILES IDX 13 13 92 14 14 15 9 16 6 17 7 18 94 19 8 20 93 21 5 22 4 23
REMARK SMILES IDX 2 24 1 25 3 28 22 29 23 30 24 31 25 32 26 33 27 35 28 36
REMARK SMILES IDX 29 37 90 38 30 39 89 40 31 41 32 42 33 43 83 44 34 45 88 46
REMARK SMILES IDX 82 47 84 48 35 49 87 50 81 51 80 52 36 54 68 55 48 56 67 57
REMARK SMILES IDX 49 58 52 59 66 60 85 61 50 62 51 63 65 65 86 66 53 67 37 68
REMARK SMILES IDX 38 69 46 70 39 71 41 72 47 73 40 74 42 75 43 76 44 77 45 78
REMARK SMILES IDX 69 79 70 80 78 81 71 82 73 83 79 84 72 85 74 86 75 87 76 88
REMARK SMILES IDX 77 89 54 90 55 91 63 92 56 93 58 94 64 95 57 96 59 97 60 98
REMARK SMILES IDX 61 99 62 100
REMARK H PARENT 20 5 1 26 1 27 25 34 84 53 52 64
REMARK Flexibility Score: inf
ROOT
ATOM      1  C   UNL A   1      33.127  28.799  26.534  1.00  0.00     0.116 C 
ENDROOT
BRANCH   1   2
ATOM      2  N   UNL A   1      33.085  28.959  25.094  1.00  0.00    -0.356 N 
ATOM      3  C   UNL A   1      32.459  28.185  24.162  1.00  0.00     0.221 C 
ATOM      4  O   UNL A   1      32.722  28.357  22.972  1.00  0.00    -0.275 OA
ATOM      5  H   UNL A   1      33.577  29.735  24.739  1.00  0.00     0.163 HD
BRANCH   3   6
ATOM      6  C   UNL A   1      31.413  27.177  24.585  1.00  0.00     0.122 C 
BRANCH   6   7
ATOM      7  C   UNL A   1      31.381  25.916  23.713  1.00  0.00     0.137 C 
BRANCH   7   8
ATOM      8  N   UNL A   1      32.361  24.884  24.089  1.00  0.00    -0.292 N 
ATOM      9  C   UNL A   1      35.715  23.692  23.596  1.00  0.00     0.029 C 
ATOM     10  C   UNL A   1      34.421  23.745  23.945  1.00  0.00     0.081 C 
ATOM     11  S   UNL A   1      33.661  23.006  25.295  1.00  0.00    -0.054 SA
ATOM     12  C   UNL A   1      33.471  24.678  23.281  1.00  0.00     0.266 C 
ATOM     13  C   UNL A   1      32.234  24.025  25.164  1.00  0.00     0.148 C 
ATOM     14  O   UNL A   1      33.693  25.218  22.205  1.00  0.00    -0.268 OA
ATOM     15  S   UNL A   1      30.964  23.898  26.241  1.00  0.00    -0.052 S 
BRANCH   9  16
ATOM     16  C   UNL A   1      36.754  22.997  24.362  1.00  0.00    -0.024 A 
ATOM     17  C   UNL A   1      38.672  21.709  25.936  1.00  0.00     0.120 A 
ATOM     18  C   UNL A   1      38.403  23.053  26.130  1.00  0.00     0.047 A 
ATOM     19  C   UNL A   1      37.968  20.991  24.975  1.00  0.00     0.047 A 
ATOM     20  C   UNL A   1      37.470  23.704  25.330  1.00  0.00     0.012 A 
ATOM     21  C   UNL A   1      37.009  21.636  24.186  1.00  0.00     0.012 A 
BRANCH  17  22
ATOM     22  O   UNL A   1      39.577  21.115  26.771  1.00  0.00    -0.484 OA
BRANCH  22  23
ATOM     23  C   UNL A   1      40.277  20.056  26.108  1.00  0.00     0.329 C 
BRANCH  23  24
ATOM     24  C   UNL A   1      41.651  19.834  26.730  1.00  0.00     0.255 C 
ATOM     25  N   UNL A   1      41.624  19.393  28.026  1.00  0.00    -0.367 N 
ATOM     26  H   UNL A   1      42.467  19.223  28.505  1.00  0.00     0.159 HD
ATOM     27  H   UNL A   1      40.762  19.247  28.478  1.00  0.00     0.159 HD
ATOM     28  O   UNL A   1      42.712  20.052  26.158  1.00  0.00    -0.271 OA
ENDBRANCH  23  24
ENDBRANCH  22  23
ENDBRANCH  17  22
ENDBRANCH   9  16
ENDBRANCH   7   8
ENDBRANCH   6   7
ENDBRANCH   3   6
ENDBRANCH   1   2
BRANCH   1  29
ATOM     29  C   UNL A   1      31.975  29.563  27.166  1.00  0.00     0.023 C 
BRANCH  29  30
ATOM     30  C   UNL A   1      31.857  31.014  26.742  1.00  0.00     0.023 C 
BRANCH  30  31
ATOM     31  C   UNL A   1      33.015  31.897  27.168  1.00  0.00     0.116 C 
BRANCH  31  32
ATOM     32  N   UNL A   1      32.646  33.257  27.548  1.00  0.00    -0.352 N 
ATOM     33  C   UNL A   1      33.242  34.133  28.428  1.00  0.00     0.251 C 
ATOM     34  H   UNL A   1      31.839  33.604  27.105  1.00  0.00     0.163 HD
ATOM     35  O   UNL A   1      32.751  35.244  28.609  1.00  0.00    -0.269 OA
BRANCH  33  36
ATOM     36  C   UNL A   1      34.422  33.710  29.206  1.00  0.00     0.039 A 
ATOM     37  C   UNL A   1      35.682  34.227  28.878  1.00  0.00     0.014 A 
ATOM     38  C   UNL A   1      34.285  32.830  30.276  1.00  0.00     0.014 A 
ATOM     39  C   UNL A   1      36.776  33.955  29.690  1.00  0.00     0.010 A 
ATOM     40  C   UNL A   1      35.345  32.630  31.140  1.00  0.00     0.010 A 
ATOM     41  C   UNL A   1      36.604  33.160  30.825  1.00  0.00    -0.014 A 
BRANCH  41  42
ATOM     42  C   UNL A   1      37.770  32.628  31.546  1.00  0.00     0.031 A 
ATOM     43  C   UNL A   1      38.519  31.513  30.876  1.00  0.00     0.074 A 
ATOM     44  C   UNL A   1      38.106  33.091  32.760  1.00  0.00     0.049 A 
ATOM     45  N   UNL A   1      39.457  30.743  31.348  1.00  0.00    -0.248 NA
ATOM     46  C   UNL A   1      38.118  31.191  29.490  1.00  0.00     0.031 C 
ATOM     47  C   UNL A   1      37.428  34.172  33.477  1.00  0.00     0.029 A 
ATOM     48  N   UNL A   1      39.095  32.688  33.613  1.00  0.00    -0.354 N 
ATOM     49  C   UNL A   1      39.705  29.811  30.350  1.00  0.00     0.074 A 
ATOM     50  C   UNL A   1      38.795  30.081  29.263  1.00  0.00     0.031 C 
ATOM     51  C   UNL A   1      38.022  34.342  34.671  1.00  0.00     0.029 A 
ATOM     52  C   UNL A   1      39.090  33.357  34.814  1.00  0.00     0.049 A 
ATOM     53  H   UNL A   1      39.749  31.986  33.390  1.00  0.00     0.167 HD
ATOM     54  C   UNL A   1      40.633  28.830  30.333  1.00  0.00     0.034 A 
ATOM     55  C   UNL A   1      39.856  33.164  35.905  1.00  0.00     0.034 A 
ATOM     56  C   UNL A   1      41.566  28.629  31.401  1.00  0.00     0.049 A 
ATOM     57  C   UNL A   1      40.904  32.082  35.850  1.00  0.00     0.074 A 
ATOM     58  C   UNL A   1      42.594  27.712  31.488  1.00  0.00     0.029 A 
ATOM     59  N   UNL A   1      41.583  29.373  32.573  1.00  0.00    -0.354 N 
ATOM     60  N   UNL A   1      41.189  31.255  34.869  1.00  0.00    -0.248 NA
ATOM     61  C   UNL A   1      41.753  31.920  37.036  1.00  0.00     0.031 C 
ATOM     62  C   UNL A   1      43.219  27.886  32.726  1.00  0.00     0.029 A 
ATOM     63  C   UNL A   1      42.602  28.934  33.394  1.00  0.00     0.049 A 
ATOM     64  H   UNL A   1      40.961  30.105  32.786  1.00  0.00     0.167 HD
ATOM     65  C   UNL A   1      42.270  30.498  35.307  1.00  0.00     0.074 A 
ATOM     66  C   UNL A   1      42.602  30.985  36.632  1.00  0.00     0.031 C 
ATOM     67  C   UNL A   1      42.923  29.484  34.687  1.00  0.00     0.034 A 
BRANCH  54  68
ATOM     68  C   UNL A   1      40.679  27.941  29.121  1.00  0.00     0.023 A 
ATOM     69  C   UNL A   1      39.822  26.822  29.031  1.00  0.00     0.012 A 
ATOM     70  C   UNL A   1      41.582  28.205  28.075  1.00  0.00     0.148 A 
ATOM     71  C   UNL A   1      39.898  25.956  27.941  1.00  0.00     0.002 A 
ATOM     72  C   UNL A   1      41.613  27.368  26.967  1.00  0.00     0.091 A 
ATOM     73  F   UNL A   1      42.411  29.251  28.195  1.00  0.00    -0.205 F 
ATOM     74  C   UNL A   1      40.785  26.234  26.905  1.00  0.00     0.022 A 
BRANCH  72  75
ATOM     75  S   UNL A   1      42.667  27.679  25.548  1.00  0.00     0.127 S 
ATOM     76  O   UNL A   1      42.438  26.481  24.741  1.00  0.00    -0.237 OA
ATOM     77  O   UNL A   1      42.083  28.904  24.999  1.00  0.00    -0.237 OA
ATOM     78  O   UNL A   1      44.017  27.829  26.071  1.00  0.00    -0.744 OA
ENDBRANCH  72  75
ENDBRANCH  54  68
BRANCH  55  79
ATOM     79  C   UNL A   1      39.689  34.027  37.108  1.00  0.00     0.023 A 
ATOM     80  C   UNL A   1      40.160  35.355  37.082  1.00  0.00     0.012 A 
ATOM     81  C   UNL A   1      39.054  33.549  38.271  1.00  0.00     0.148 A 
ATOM     82  C   UNL A   1      40.032  36.179  38.202  1.00  0.00     0.002 A 
ATOM     83  C   UNL A   1      38.881  34.391  39.364  1.00  0.00     0.091 A 
ATOM     84  F   UNL A   1      38.623  32.280  38.283  1.00  0.00    -0.205 F 
ATOM     85  C   UNL A   1      39.385  35.701  39.339  1.00  0.00     0.022 A 
BRANCH  83  86
ATOM     86  S   UNL A   1      37.953  33.902  40.822  1.00  0.00     0.127 S 
ATOM     87  O   UNL A   1      36.798  33.232  40.231  1.00  0.00    -0.237 OA
ATOM     88  O   UNL A   1      38.900  33.017  41.500  1.00  0.00    -0.237 OA
ATOM     89  O   UNL A   1      37.668  35.138  41.538  1.00  0.00    -0.744 OA
ENDBRANCH  83  86
ENDBRANCH  55  79
BRANCH  67  90
ATOM     90  C   UNL A   1      44.082  28.863  35.418  1.00  0.00     0.023 A 
ATOM     91  C   UNL A   1      45.372  29.412  35.285  1.00  0.00     0.012 A 
ATOM     92  C   UNL A   1      43.870  27.789  36.302  1.00  0.00     0.148 A 
ATOM     93  C   UNL A   1      46.443  28.875  35.995  1.00  0.00     0.002 A 
ATOM     94  C   UNL A   1      44.930  27.296  37.050  1.00  0.00     0.091 A 
ATOM     95  F   UNL A   1      42.635  27.275  36.401  1.00  0.00    -0.205 F 
ATOM     96  C   UNL A   1      46.221  27.828  36.886  1.00  0.00     0.022 A 
BRANCH  94  97
ATOM     97  S   UNL A   1      44.713  26.027  38.300  1.00  0.00     0.127 S 
ATOM     98  O   UNL A   1      43.603  26.567  39.083  1.00  0.00    -0.237 OA
ATOM     99  O   UNL A   1      44.378  24.853  37.495  1.00  0.00    -0.237 OA
ATOM    100  O   UNL A   1      45.986  25.933  39.003  1.00  0.00    -0.744 OA
ENDBRANCH  94  97
ENDBRANCH  67  90
ENDBRANCH  41  42
ENDBRANCH  33  36
ENDBRANCH  31  32
ENDBRANCH  30  31
ENDBRANCH  29  30
ENDBRANCH   1  29
TORSDOF 20
ENDMDL
