MODEL 1
REMARK VINA RESULT:     -12.3      0.000      0.000
REMARK SMILES C[C@H](NC(=O)c1ccc(C(C)(C)C)cc1)C(=O)N[C@@H](C(=O)NCCCCNC(=O)c1ccc(-c2c3nc(c(-c4cccc(S(=O)(=O)[O-])c4F)c4ccc([nH]4)c(-c4cccc(S(=O)(=O)[O-])c4F)c4nc(c(-c5cccc(S(=O)(=O)[O-])c5F)c5ccc2[nH]5)C=C4)C=C3)cc1)[C@H](C)O
REMARK SMILES IDX 23 1 22 2 20 3 21 4 19 6 18 7 16 8 17 9 2 11 1 12 3 13 4 14
REMARK SMILES IDX 5 16 6 17 7 18 15 19 8 20 14 21 9 22 10 23 11 24 12 25 13 26
REMARK SMILES IDX 93 27 94 28 95 29 24 31 25 32 26 33 27 34 28 35 29 37 30 38
REMARK SMILES IDX 31 39 92 40 32 41 91 42 33 43 34 44 35 45 85 46 36 47 90 48
REMARK SMILES IDX 84 49 86 50 37 51 89 52 83 53 82 54 38 56 70 57 50 58 69 59
REMARK SMILES IDX 51 60 54 61 68 62 87 63 52 64 53 65 67 67 88 68 55 69 39 70
REMARK SMILES IDX 40 71 48 72 41 73 43 74 49 75 42 76 44 77 45 78 46 79 47 80
REMARK SMILES IDX 71 81 72 82 80 83 73 84 75 85 81 86 74 87 76 88 77 89 78 90
REMARK SMILES IDX 79 91 56 92 57 93 65 94 58 95 60 96 66 97 59 98 61 99 62 100
REMARK SMILES IDX 63 101 64 102
REMARK H PARENT 22 5 18 10 3 15 95 30 27 36 86 55 54 66
REMARK Flexibility Score: inf
ROOT
ATOM      1  C   UNL A   1      32.764  29.290  25.926  1.00  0.00     0.116 C 
ENDROOT
BRANCH   1   2
ATOM      2  N   UNL A   1      33.630  29.344  24.770  1.00  0.00    -0.354 N 
ATOM      3  C   UNL A   1      33.539  28.736  23.558  1.00  0.00     0.245 C 
ATOM      4  O   UNL A   1      34.439  28.996  22.749  1.00  0.00    -0.273 OA
ATOM      5  H   UNL A   1      34.419  29.922  24.878  1.00  0.00     0.163 HD
BRANCH   3   6
ATOM      6  C   UNL A   1      32.298  27.915  23.103  1.00  0.00     0.200 C 
BRANCH   6   7
ATOM      7  N   UNL A   1      32.465  27.051  21.932  1.00  0.00    -0.340 N 
ATOM      8  C   UNL A   1      32.222  25.724  21.735  1.00  0.00     0.243 C 
ATOM      9  O   UNL A   1      32.269  25.312  20.571  1.00  0.00    -0.273 OA
ATOM     10  H   UNL A   1      32.818  27.515  21.139  1.00  0.00     0.164 HD
BRANCH   8  11
ATOM     11  C   UNL A   1      31.911  24.733  22.888  1.00  0.00     0.168 C 
ATOM     12  C   UNL A   1      30.446  24.650  23.282  1.00  0.00     0.041 C 
BRANCH  11  13
ATOM     13  N   UNL A   1      32.770  24.991  24.042  1.00  0.00    -0.341 N 
ATOM     14  C   UNL A   1      33.641  24.148  24.689  1.00  0.00     0.251 C 
ATOM     15  H   UNL A   1      32.717  25.903  24.410  1.00  0.00     0.164 HD
ATOM     16  O   UNL A   1      34.385  24.599  25.555  1.00  0.00    -0.269 OA
BRANCH  14  17
ATOM     17  C   UNL A   1      33.616  22.697  24.424  1.00  0.00     0.039 A 
ATOM     18  C   UNL A   1      34.707  21.948  24.862  1.00  0.00     0.014 A 
ATOM     19  C   UNL A   1      32.551  22.065  23.787  1.00  0.00     0.014 A 
ATOM     20  C   UNL A   1      34.675  20.556  24.770  1.00  0.00     0.005 A 
ATOM     21  C   UNL A   1      32.518  20.667  23.712  1.00  0.00     0.005 A 
ATOM     22  C   UNL A   1      33.555  19.881  24.245  1.00  0.00    -0.043 A 
BRANCH  22  23
ATOM     23  C   UNL A   1      33.495  18.344  24.292  1.00  0.00    -0.013 C 
ATOM     24  C   UNL A   1      32.718  17.893  25.543  1.00  0.00     0.016 C 
ATOM     25  C   UNL A   1      32.778  17.812  23.028  1.00  0.00     0.016 C 
ATOM     26  C   UNL A   1      34.884  17.668  24.328  1.00  0.00     0.016 C 
ENDBRANCH  22  23
ENDBRANCH  14  17
ENDBRANCH  11  13
ENDBRANCH   8  11
ENDBRANCH   6   7
BRANCH   6  27
ATOM     27  C   UNL A   1      31.145  28.933  22.840  1.00  0.00     0.143 C 
ATOM     28  C   UNL A   1      29.781  28.283  22.645  1.00  0.00     0.041 C 
BRANCH  27  29
ATOM     29  O   UNL A   1      31.412  29.683  21.644  1.00  0.00    -0.391 OA
ATOM     30  H   UNL A   1      30.811  30.442  21.599  1.00  0.00     0.211 HD
ENDBRANCH  27  29
ENDBRANCH   6  27
ENDBRANCH   3   6
ENDBRANCH   1   2
BRANCH   1  31
ATOM     31  C   UNL A   1      31.948  30.564  26.100  1.00  0.00     0.023 C 
BRANCH  31  32
ATOM     32  C   UNL A   1      32.223  31.310  27.404  1.00  0.00     0.023 C 
BRANCH  32  33
ATOM     33  C   UNL A   1      33.281  32.407  27.319  1.00  0.00     0.116 C 
BRANCH  33  34
ATOM     34  N   UNL A   1      32.767  33.743  27.598  1.00  0.00    -0.352 N 
ATOM     35  C   UNL A   1      33.173  34.618  28.578  1.00  0.00     0.251 C 
ATOM     36  H   UNL A   1      32.040  34.056  27.013  1.00  0.00     0.163 HD
ATOM     37  O   UNL A   1      32.583  35.679  28.757  1.00  0.00    -0.269 OA
BRANCH  35  38
ATOM     38  C   UNL A   1      34.308  34.238  29.442  1.00  0.00     0.039 A 
ATOM     39  C   UNL A   1      34.060  33.484  30.591  1.00  0.00     0.014 A 
ATOM     40  C   UNL A   1      35.615  34.558  29.067  1.00  0.00     0.014 A 
ATOM     41  C   UNL A   1      35.134  32.975  31.322  1.00  0.00     0.010 A 
ATOM     42  C   UNL A   1      36.682  33.992  29.757  1.00  0.00     0.010 A 
ATOM     43  C   UNL A   1      36.453  33.189  30.884  1.00  0.00    -0.014 A 
BRANCH  43  44
ATOM     44  C   UNL A   1      37.606  32.553  31.567  1.00  0.00     0.031 A 
ATOM     45  C   UNL A   1      38.336  31.412  30.914  1.00  0.00     0.074 A 
ATOM     46  C   UNL A   1      37.921  32.927  32.823  1.00  0.00     0.049 A 
ATOM     47  N   UNL A   1      39.315  30.685  31.385  1.00  0.00    -0.248 NA
ATOM     48  C   UNL A   1      37.886  31.016  29.569  1.00  0.00     0.031 C 
ATOM     49  C   UNL A   1      37.223  33.954  33.601  1.00  0.00     0.029 A 
ATOM     50  N   UNL A   1      38.890  32.467  33.679  1.00  0.00    -0.354 N 
ATOM     51  C   UNL A   1      39.571  29.722  30.417  1.00  0.00     0.074 A 
ATOM     52  C   UNL A   1      38.624  29.938  29.344  1.00  0.00     0.031 C 
ATOM     53  C   UNL A   1      37.789  34.047  34.816  1.00  0.00     0.029 A 
ATOM     54  C   UNL A   1      38.875  33.076  34.912  1.00  0.00     0.049 A 
ATOM     55  H   UNL A   1      39.537  31.766  33.433  1.00  0.00     0.167 HD
ATOM     56  C   UNL A   1      40.529  28.767  30.404  1.00  0.00     0.034 A 
ATOM     57  C   UNL A   1      39.649  32.877  35.997  1.00  0.00     0.034 A 
ATOM     58  C   UNL A   1      41.511  28.599  31.440  1.00  0.00     0.049 A 
ATOM     59  C   UNL A   1      40.759  31.864  35.924  1.00  0.00     0.074 A 
ATOM     60  C   UNL A   1      42.589  27.732  31.473  1.00  0.00     0.029 A 
ATOM     61  N   UNL A   1      41.538  29.318  32.625  1.00  0.00    -0.354 N 
ATOM     62  N   UNL A   1      41.097  31.083  34.928  1.00  0.00    -0.248 NA
ATOM     63  C   UNL A   1      41.621  31.733  37.109  1.00  0.00     0.031 C 
ATOM     64  C   UNL A   1      43.266  27.924  32.681  1.00  0.00     0.029 A 
ATOM     65  C   UNL A   1      42.614  28.915  33.398  1.00  0.00     0.049 A 
ATOM     66  H   UNL A   1      40.889  30.012  32.880  1.00  0.00     0.167 HD
ATOM     67  C   UNL A   1      42.228  30.392  35.350  1.00  0.00     0.074 A 
ATOM     68  C   UNL A   1      42.529  30.864  36.687  1.00  0.00     0.031 C 
ATOM     69  C   UNL A   1      42.940  29.441  34.698  1.00  0.00     0.034 A 
BRANCH  56  70
ATOM     70  C   UNL A   1      40.612  27.879  29.192  1.00  0.00     0.023 A 
ATOM     71  C   UNL A   1      39.732  26.782  29.084  1.00  0.00     0.012 A 
ATOM     72  C   UNL A   1      41.512  28.149  28.145  1.00  0.00     0.148 A 
ATOM     73  C   UNL A   1      39.769  25.950  27.967  1.00  0.00     0.002 A 
ATOM     74  C   UNL A   1      41.516  27.337  27.016  1.00  0.00     0.091 A 
ATOM     75  F   UNL A   1      42.359  29.180  28.277  1.00  0.00    -0.205 F 
ATOM     76  C   UNL A   1      40.653  26.233  26.930  1.00  0.00     0.022 A 
BRANCH  74  77
ATOM     77  S   UNL A   1      42.569  27.665  25.597  1.00  0.00     0.127 S 
ATOM     78  O   UNL A   1      42.371  26.458  24.797  1.00  0.00    -0.237 OA
ATOM     79  O   UNL A   1      41.966  28.874  25.035  1.00  0.00    -0.237 OA
ATOM     80  O   UNL A   1      43.910  27.854  26.132  1.00  0.00    -0.744 OA
ENDBRANCH  74  77
ENDBRANCH  56  70
BRANCH  57  81
ATOM     81  C   UNL A   1      39.461  33.725  37.208  1.00  0.00     0.023 A 
ATOM     82  C   UNL A   1      39.954  35.045  37.201  1.00  0.00     0.012 A 
ATOM     83  C   UNL A   1      38.769  33.256  38.341  1.00  0.00     0.148 A 
ATOM     84  C   UNL A   1      39.783  35.873  38.310  1.00  0.00     0.002 A 
ATOM     85  C   UNL A   1      38.559  34.103  39.423  1.00  0.00     0.091 A 
ATOM     86  F   UNL A   1      38.321  31.993  38.335  1.00  0.00    -0.205 F 
ATOM     87  C   UNL A   1      39.078  35.408  39.416  1.00  0.00     0.022 A 
BRANCH  85  88
ATOM     88  S   UNL A   1      37.548  33.624  40.829  1.00  0.00     0.127 S 
ATOM     89  O   UNL A   1      38.389  32.618  41.474  1.00  0.00    -0.237 OA
ATOM     90  O   UNL A   1      37.422  34.884  41.562  1.00  0.00    -0.237 OA
ATOM     91  O   UNL A   1      36.298  33.142  40.258  1.00  0.00    -0.744 OA
ENDBRANCH  85  88
ENDBRANCH  57  81
BRANCH  69  92
ATOM     92  C   UNL A   1      44.135  28.858  35.401  1.00  0.00     0.023 A 
ATOM     93  C   UNL A   1      45.392  29.476  35.260  1.00  0.00     0.012 A 
ATOM     94  C   UNL A   1      43.996  27.757  36.269  1.00  0.00     0.148 A 
ATOM     95  C   UNL A   1      46.500  28.993  35.956  1.00  0.00     0.002 A 
ATOM     96  C   UNL A   1      45.096  27.307  36.991  1.00  0.00     0.091 A 
ATOM     97  F   UNL A   1      42.796  27.170  36.372  1.00  0.00    -0.205 F 
ATOM     98  C   UNL A   1      46.350  27.920  36.830  1.00  0.00     0.022 A 
BRANCH  96  99
ATOM     99  S   UNL A   1      44.968  25.989  38.205  1.00  0.00     0.127 S 
ATOM    100  O   UNL A   1      43.955  26.518  39.115  1.00  0.00    -0.237 OA
ATOM    101  O   UNL A   1      44.525  24.855  37.392  1.00  0.00    -0.237 OA
ATOM    102  O   UNL A   1      46.303  25.837  38.766  1.00  0.00    -0.744 OA
ENDBRANCH  96  99
ENDBRANCH  69  92
ENDBRANCH  43  44
ENDBRANCH  35  38
ENDBRANCH  33  34
ENDBRANCH  32  33
ENDBRANCH  31  32
ENDBRANCH   1  31
TORSDOF 21
ENDMDL
MODEL 2
REMARK VINA RESULT:     -12.2      2.103      7.788
REMARK SMILES C[C@H](NC(=O)c1ccc(C(C)(C)C)cc1)C(=O)N[C@@H](C(=O)NCCCCNC(=O)c1ccc(-c2c3nc(c(-c4cccc(S(=O)(=O)[O-])c4F)c4ccc([nH]4)c(-c4cccc(S(=O)(=O)[O-])c4F)c4nc(c(-c5cccc(S(=O)(=O)[O-])c5F)c5ccc2[nH]5)C=C4)C=C3)cc1)[C@H](C)O
REMARK SMILES IDX 23 1 22 2 20 3 21 4 19 6 18 7 16 8 17 9 2 11 1 12 3 13 4 14
REMARK SMILES IDX 5 16 6 17 7 18 15 19 8 20 14 21 9 22 10 23 11 24 12 25 13 26
REMARK SMILES IDX 93 27 94 28 95 29 24 31 25 32 26 33 27 34 28 35 29 37 30 38
REMARK SMILES IDX 31 39 92 40 32 41 91 42 33 43 34 44 35 45 85 46 36 47 90 48
REMARK SMILES IDX 84 49 86 50 37 51 89 52 83 53 82 54 38 56 70 57 50 58 69 59
REMARK SMILES IDX 51 60 54 61 68 62 87 63 52 64 53 65 67 67 88 68 55 69 39 70
REMARK SMILES IDX 40 71 48 72 41 73 43 74 49 75 42 76 44 77 45 78 46 79 47 80
REMARK SMILES IDX 71 81 72 82 80 83 73 84 75 85 81 86 74 87 76 88 77 89 78 90
REMARK SMILES IDX 79 91 56 92 57 93 65 94 58 95 60 96 66 97 59 98 61 99 62 100
REMARK SMILES IDX 63 101 64 102
REMARK H PARENT 22 5 18 10 3 15 95 30 27 36 86 55 54 66
REMARK Flexibility Score: inf
ROOT
ATOM      1  C   UNL A   1      32.383  30.013  25.972  1.00  0.00     0.116 C 
ENDROOT
BRANCH   1   2
ATOM      2  N   UNL A   1      32.800  29.696  24.625  1.00  0.00    -0.354 N 
ATOM      3  C   UNL A   1      32.183  28.987  23.643  1.00  0.00     0.245 C 
ATOM      4  O   UNL A   1      32.790  28.901  22.568  1.00  0.00    -0.273 OA
ATOM      5  H   UNL A   1      33.681  30.057  24.374  1.00  0.00     0.163 HD
BRANCH   3   6
ATOM      6  C   UNL A   1      30.719  28.469  23.753  1.00  0.00     0.200 C 
BRANCH   6   7
ATOM      7  N   UNL A   1      30.489  27.056  23.442  1.00  0.00    -0.340 N 
ATOM      8  C   UNL A   1      30.231  25.978  24.236  1.00  0.00     0.243 C 
ATOM      9  O   UNL A   1      29.878  24.937  23.670  1.00  0.00    -0.273 OA
ATOM     10  H   UNL A   1      30.526  26.846  22.481  1.00  0.00     0.164 HD
BRANCH   8  11
ATOM     11  C   UNL A   1      30.376  26.000  25.780  1.00  0.00     0.168 C 
ATOM     12  C   UNL A   1      31.760  26.367  26.288  1.00  0.00     0.041 C 
BRANCH  11  13
ATOM     13  N   UNL A   1      29.898  24.749  26.365  1.00  0.00    -0.341 N 
ATOM     14  C   UNL A   1      30.586  23.589  26.627  1.00  0.00     0.251 C 
ATOM     15  H   UNL A   1      28.944  24.735  26.607  1.00  0.00     0.164 HD
ATOM     16  O   UNL A   1      30.036  22.691  27.260  1.00  0.00    -0.269 OA
BRANCH  14  17
ATOM     17  C   UNL A   1      31.934  23.374  26.069  1.00  0.00     0.039 A 
ATOM     18  C   UNL A   1      33.022  23.677  26.887  1.00  0.00     0.014 A 
ATOM     19  C   UNL A   1      32.149  22.866  24.789  1.00  0.00     0.014 A 
ATOM     20  C   UNL A   1      34.314  23.359  26.469  1.00  0.00     0.005 A 
ATOM     21  C   UNL A   1      33.447  22.535  24.383  1.00  0.00     0.005 A 
ATOM     22  C   UNL A   1      34.551  22.729  25.232  1.00  0.00    -0.043 A 
BRANCH  22  23
ATOM     23  C   UNL A   1      35.972  22.264  24.868  1.00  0.00    -0.013 C 
ATOM     24  C   UNL A   1      36.056  20.728  24.963  1.00  0.00     0.016 C 
ATOM     25  C   UNL A   1      36.311  22.704  23.424  1.00  0.00     0.016 C 
ATOM     26  C   UNL A   1      37.072  22.855  25.779  1.00  0.00     0.016 C 
ENDBRANCH  22  23
ENDBRANCH  14  17
ENDBRANCH  11  13
ENDBRANCH   8  11
ENDBRANCH   6   7
BRANCH   6  27
ATOM     27  C   UNL A   1      29.846  29.358  22.814  1.00  0.00     0.143 C 
ATOM     28  C   UNL A   1      28.373  28.967  22.789  1.00  0.00     0.041 C 
BRANCH  27  29
ATOM     29  O   UNL A   1      30.316  29.258  21.461  1.00  0.00    -0.391 OA
ATOM     30  H   UNL A   1      31.059  28.636  21.423  1.00  0.00     0.211 HD
ENDBRANCH  27  29
ENDBRANCH   6  27
ENDBRANCH   3   6
ENDBRANCH   1   2
BRANCH   1  31
ATOM     31  C   UNL A   1      31.107  30.844  26.004  1.00  0.00     0.023 C 
BRANCH  31  32
ATOM     32  C   UNL A   1      31.296  32.260  26.544  1.00  0.00     0.023 C 
BRANCH  32  33
ATOM     33  C   UNL A   1      32.688  32.572  27.086  1.00  0.00     0.116 C 
BRANCH  33  34
ATOM     34  N   UNL A   1      32.807  33.901  27.675  1.00  0.00    -0.352 N 
ATOM     35  C   UNL A   1      33.771  34.360  28.541  1.00  0.00     0.251 C 
ATOM     36  H   UNL A   1      32.110  34.548  27.421  1.00  0.00     0.163 HD
ATOM     37  O   UNL A   1      33.692  35.482  29.033  1.00  0.00    -0.269 OA
BRANCH  35  38
ATOM     38  C   UNL A   1      34.885  33.462  28.903  1.00  0.00     0.039 A 
ATOM     39  C   UNL A   1      36.186  33.814  28.537  1.00  0.00     0.014 A 
ATOM     40  C   UNL A   1      34.646  32.321  29.674  1.00  0.00     0.014 A 
ATOM     41  C   UNL A   1      37.260  33.065  29.018  1.00  0.00     0.010 A 
ATOM     42  C   UNL A   1      35.720  31.618  30.208  1.00  0.00     0.010 A 
ATOM     43  C   UNL A   1      37.036  31.988  29.893  1.00  0.00    -0.014 A 
BRANCH  43  44
ATOM     44  C   UNL A   1      38.164  31.256  30.522  1.00  0.00     0.031 A 
ATOM     45  C   UNL A   1      38.591  31.586  31.925  1.00  0.00     0.074 A 
ATOM     46  C   UNL A   1      38.874  30.377  29.787  1.00  0.00     0.049 A 
ATOM     47  N   UNL A   1      39.595  31.109  32.613  1.00  0.00    -0.248 NA
ATOM     48  C   UNL A   1      37.807  32.609  32.637  1.00  0.00     0.031 C 
ATOM     49  C   UNL A   1      38.619  30.045  28.383  1.00  0.00     0.029 A 
ATOM     50  N   UNL A   1      39.975  29.623  30.110  1.00  0.00    -0.354 N 
ATOM     51  C   UNL A   1      39.590  31.800  33.818  1.00  0.00     0.074 A 
ATOM     52  C   UNL A   1      38.501  32.751  33.757  1.00  0.00     0.031 C 
ATOM     53  C   UNL A   1      39.534  29.154  27.968  1.00  0.00     0.029 A 
ATOM     54  C   UNL A   1      40.451  28.865  29.066  1.00  0.00     0.049 A 
ATOM     55  H   UNL A   1      40.385  29.625  31.005  1.00  0.00     0.167 HD
ATOM     56  C   UNL A   1      40.394  31.634  34.893  1.00  0.00     0.034 A 
ATOM     57  C   UNL A   1      41.507  28.029  29.002  1.00  0.00     0.034 A 
ATOM     58  C   UNL A   1      41.431  30.642  34.976  1.00  0.00     0.049 A 
ATOM     59  C   UNL A   1      42.335  27.803  30.237  1.00  0.00     0.074 A 
ATOM     60  C   UNL A   1      42.233  30.322  36.058  1.00  0.00     0.029 A 
ATOM     61  N   UNL A   1      41.808  29.805  33.937  1.00  0.00    -0.354 N 
ATOM     62  N   UNL A   1      42.203  28.339  31.426  1.00  0.00    -0.248 NA
ATOM     63  C   UNL A   1      43.432  26.829  30.136  1.00  0.00     0.031 C 
ATOM     64  C   UNL A   1      43.096  29.292  35.671  1.00  0.00     0.029 A 
ATOM     65  C   UNL A   1      42.830  28.968  34.351  1.00  0.00     0.049 A 
ATOM     66  H   UNL A   1      41.408  29.807  33.038  1.00  0.00     0.167 HD
ATOM     67  C   UNL A   1      43.175  27.744  32.223  1.00  0.00     0.074 A 
ATOM     68  C   UNL A   1      43.876  26.792  31.385  1.00  0.00     0.031 C 
ATOM     69  C   UNL A   1      43.472  27.979  33.524  1.00  0.00     0.034 A 
BRANCH  56  70
ATOM     70  C   UNL A   1      40.133  32.495  36.100  1.00  0.00     0.023 A 
ATOM     71  C   UNL A   1      40.865  33.688  36.264  1.00  0.00     0.012 A 
ATOM     72  C   UNL A   1      39.140  32.158  37.038  1.00  0.00     0.148 A 
ATOM     73  C   UNL A   1      40.635  34.518  37.359  1.00  0.00     0.002 A 
ATOM     74  C   UNL A   1      38.889  33.011  38.108  1.00  0.00     0.091 A 
ATOM     75  F   UNL A   1      38.471  31.006  36.881  1.00  0.00    -0.205 F 
ATOM     76  C   UNL A   1      39.641  34.185  38.275  1.00  0.00     0.022 A 
BRANCH  74  77
ATOM     77  S   UNL A   1      37.579  32.703  39.299  1.00  0.00     0.127 S 
ATOM     78  O   UNL A   1      37.722  33.846  40.198  1.00  0.00    -0.237 OA
ATOM     79  O   UNL A   1      36.380  32.734  38.460  1.00  0.00    -0.237 OA
ATOM     80  O   UNL A   1      37.871  31.401  39.883  1.00  0.00    -0.744 OA
ENDBRANCH  74  77
ENDBRANCH  56  70
BRANCH  57  81
ATOM     81  C   UNL A   1      41.776  27.271  27.747  1.00  0.00     0.023 A 
ATOM     82  C   UNL A   1      42.255  27.965  26.618  1.00  0.00     0.012 A 
ATOM     83  C   UNL A   1      41.603  25.876  27.672  1.00  0.00     0.148 A 
ATOM     84  C   UNL A   1      42.532  27.288  25.431  1.00  0.00     0.002 A 
ATOM     85  C   UNL A   1      41.929  25.200  26.502  1.00  0.00     0.091 A 
ATOM     86  F   UNL A   1      41.132  25.234  28.750  1.00  0.00    -0.205 F 
ATOM     87  C   UNL A   1      42.380  25.906  25.375  1.00  0.00     0.022 A 
BRANCH  85  88
ATOM     88  S   UNL A   1      41.886  23.407  26.390  1.00  0.00     0.127 S 
ATOM     89  O   UNL A   1      42.624  23.167  25.152  1.00  0.00    -0.237 OA
ATOM     90  O   UNL A   1      42.585  23.005  27.611  1.00  0.00    -0.237 OA
ATOM     91  O   UNL A   1      40.472  23.056  26.371  1.00  0.00    -0.744 OA
ENDBRANCH  85  88
ENDBRANCH  57  81
BRANCH  69  92
ATOM     92  C   UNL A   1      44.587  27.179  34.142  1.00  0.00     0.023 A 
ATOM     93  C   UNL A   1      45.913  27.636  34.029  1.00  0.00     0.012 A 
ATOM     94  C   UNL A   1      44.311  26.028  34.907  1.00  0.00     0.148 A 
ATOM     95  C   UNL A   1      46.955  26.948  34.651  1.00  0.00     0.002 A 
ATOM     96  C   UNL A   1      45.349  25.371  35.557  1.00  0.00     0.091 A 
ATOM     97  F   UNL A   1      43.045  25.597  34.982  1.00  0.00    -0.205 F 
ATOM     98  C   UNL A   1      46.672  25.825  35.424  1.00  0.00     0.022 A 
BRANCH  96  99
ATOM     99  S   UNL A   1      45.059  23.970  36.646  1.00  0.00     0.127 S 
ATOM    100  O   UNL A   1      46.410  23.671  37.113  1.00  0.00    -0.237 OA
ATOM    101  O   UNL A   1      44.174  24.540  37.662  1.00  0.00    -0.237 OA
ATOM    102  O   UNL A   1      44.438  22.947  35.816  1.00  0.00    -0.744 OA
ENDBRANCH  96  99
ENDBRANCH  69  92
ENDBRANCH  43  44
ENDBRANCH  35  38
ENDBRANCH  33  34
ENDBRANCH  32  33
ENDBRANCH  31  32
ENDBRANCH   1  31
TORSDOF 21
ENDMDL
MODEL 3
REMARK VINA RESULT:     -12.2      5.766     12.098
REMARK SMILES C[C@H](NC(=O)c1ccc(C(C)(C)C)cc1)C(=O)N[C@@H](C(=O)NCCCCNC(=O)c1ccc(-c2c3nc(c(-c4cccc(S(=O)(=O)[O-])c4F)c4ccc([nH]4)c(-c4cccc(S(=O)(=O)[O-])c4F)c4nc(c(-c5cccc(S(=O)(=O)[O-])c5F)c5ccc2[nH]5)C=C4)C=C3)cc1)[C@H](C)O
REMARK SMILES IDX 23 1 22 2 20 3 21 4 19 6 18 7 16 8 17 9 2 11 1 12 3 13 4 14
REMARK SMILES IDX 5 16 6 17 7 18 15 19 8 20 14 21 9 22 10 23 11 24 12 25 13 26
REMARK SMILES IDX 93 27 94 28 95 29 24 31 25 32 26 33 27 34 28 35 29 37 30 38
REMARK SMILES IDX 31 39 92 40 32 41 91 42 33 43 34 44 35 45 85 46 36 47 90 48
REMARK SMILES IDX 84 49 86 50 37 51 89 52 83 53 82 54 38 56 70 57 50 58 69 59
REMARK SMILES IDX 51 60 54 61 68 62 87 63 52 64 53 65 67 67 88 68 55 69 39 70
REMARK SMILES IDX 40 71 48 72 41 73 43 74 49 75 42 76 44 77 45 78 46 79 47 80
REMARK SMILES IDX 71 81 72 82 80 83 73 84 75 85 81 86 74 87 76 88 77 89 78 90
REMARK SMILES IDX 79 91 56 92 57 93 65 94 58 95 60 96 66 97 59 98 61 99 62 100
REMARK SMILES IDX 63 101 64 102
REMARK H PARENT 22 5 18 10 3 15 95 30 27 36 86 55 54 66
REMARK Flexibility Score: inf
ROOT
ATOM      1  C   UNL A   1      36.896  22.826  25.356  1.00  0.00     0.116 C 
ENDROOT
BRANCH   1   2
ATOM      2  N   UNL A   1      36.073  22.271  26.406  1.00  0.00    -0.354 N 
ATOM      3  C   UNL A   1      34.756  21.934  26.424  1.00  0.00     0.245 C 
ATOM      4  O   UNL A   1      34.331  21.454  27.483  1.00  0.00    -0.273 OA
ATOM      5  H   UNL A   1      36.547  22.106  27.253  1.00  0.00     0.163 HD
BRANCH   3   6
ATOM      6  C   UNL A   1      33.852  21.947  25.158  1.00  0.00     0.200 C 
BRANCH   6   7
ATOM      7  N   UNL A   1      32.495  22.476  25.315  1.00  0.00    -0.340 N 
ATOM      8  C   UNL A   1      31.786  23.395  24.601  1.00  0.00     0.243 C 
ATOM      9  O   UNL A   1      30.579  23.491  24.852  1.00  0.00    -0.273 OA
ATOM     10  H   UNL A   1      32.003  22.096  26.079  1.00  0.00     0.164 HD
BRANCH   8  11
ATOM     11  C   UNL A   1      32.420  24.313  23.523  1.00  0.00     0.168 C 
ATOM     12  C   UNL A   1      33.057  23.581  22.353  1.00  0.00     0.041 C 
BRANCH  11  13
ATOM     13  N   UNL A   1      33.343  25.269  24.131  1.00  0.00    -0.341 N 
ATOM     14  C   UNL A   1      33.159  26.601  24.415  1.00  0.00     0.251 C 
ATOM     15  H   UNL A   1      34.226  24.906  24.373  1.00  0.00     0.164 HD
ATOM     16  O   UNL A   1      34.010  27.202  25.065  1.00  0.00    -0.269 OA
BRANCH  14  17
ATOM     17  C   UNL A   1      32.004  27.333  23.863  1.00  0.00     0.039 A 
ATOM     18  C   UNL A   1      30.783  27.194  24.521  1.00  0.00     0.014 A 
ATOM     19  C   UNL A   1      32.101  28.161  22.745  1.00  0.00     0.014 A 
ATOM     20  C   UNL A   1      29.693  27.973  24.132  1.00  0.00     0.005 A 
ATOM     21  C   UNL A   1      31.007  28.951  22.372  1.00  0.00     0.005 A 
ATOM     22  C   UNL A   1      29.796  28.911  23.086  1.00  0.00    -0.043 A 
BRANCH  22  23
ATOM     23  C   UNL A   1      28.618  29.852  22.782  1.00  0.00    -0.013 C 
ATOM     24  C   UNL A   1      27.288  29.126  23.061  1.00  0.00     0.016 C 
ATOM     25  C   UNL A   1      28.710  31.109  23.680  1.00  0.00     0.016 C 
ATOM     26  C   UNL A   1      28.585  30.356  21.321  1.00  0.00     0.016 C 
ENDBRANCH  22  23
ENDBRANCH  14  17
ENDBRANCH  11  13
ENDBRANCH   8  11
ENDBRANCH   6   7
BRANCH   6  27
ATOM     27  C   UNL A   1      33.783  20.481  24.628  1.00  0.00     0.143 C 
ATOM     28  C   UNL A   1      32.406  19.842  24.763  1.00  0.00     0.041 C 
BRANCH  27  29
ATOM     29  O   UNL A   1      34.692  19.647  25.363  1.00  0.00    -0.391 OA
ATOM     30  H   UNL A   1      34.230  19.259  26.123  1.00  0.00     0.211 HD
ENDBRANCH  27  29
ENDBRANCH   6  27
ENDBRANCH   3   6
ENDBRANCH   1   2
BRANCH   1  31
ATOM     31  C   UNL A   1      37.603  21.749  24.544  1.00  0.00     0.023 C 
BRANCH  31  32
ATOM     32  C   UNL A   1      38.093  20.562  25.370  1.00  0.00     0.023 C 
BRANCH  32  33
ATOM     33  C   UNL A   1      39.445  20.753  26.051  1.00  0.00     0.116 C 
BRANCH  33  34
ATOM     34  N   UNL A   1      40.284  19.560  26.039  1.00  0.00    -0.352 N 
ATOM     35  C   UNL A   1      41.651  19.484  26.176  1.00  0.00     0.251 C 
ATOM     36  H   UNL A   1      39.814  18.704  25.917  1.00  0.00     0.163 HD
ATOM     37  O   UNL A   1      42.236  18.413  26.051  1.00  0.00    -0.269 OA
BRANCH  35  38
ATOM     38  C   UNL A   1      42.407  20.725  26.434  1.00  0.00     0.039 A 
ATOM     39  C   UNL A   1      42.875  21.470  25.349  1.00  0.00     0.014 A 
ATOM     40  C   UNL A   1      42.576  21.187  27.741  1.00  0.00     0.014 A 
ATOM     41  C   UNL A   1      43.440  22.726  25.573  1.00  0.00     0.010 A 
ATOM     42  C   UNL A   1      43.075  22.467  27.956  1.00  0.00     0.010 A 
ATOM     43  C   UNL A   1      43.503  23.252  26.875  1.00  0.00    -0.014 A 
BRANCH  43  44
ATOM     44  C   UNL A   1      43.979  24.635  27.127  1.00  0.00     0.031 A 
ATOM     45  C   UNL A   1      43.031  25.676  27.652  1.00  0.00     0.074 A 
ATOM     46  C   UNL A   1      45.233  24.979  26.773  1.00  0.00     0.049 A 
ATOM     47  N   UNL A   1      43.241  26.949  27.864  1.00  0.00    -0.248 NA
ATOM     48  C   UNL A   1      41.657  25.238  27.948  1.00  0.00     0.031 C 
ATOM     49  C   UNL A   1      46.217  24.081  26.161  1.00  0.00     0.029 A 
ATOM     50  N   UNL A   1      45.888  26.182  26.850  1.00  0.00    -0.354 N 
ATOM     51  C   UNL A   1      42.022  27.471  28.277  1.00  0.00     0.074 A 
ATOM     52  C   UNL A   1      41.067  26.384  28.257  1.00  0.00     0.031 C 
ATOM     53  C   UNL A   1      47.348  24.765  25.921  1.00  0.00     0.029 A 
ATOM     54  C   UNL A   1      47.166  26.150  26.344  1.00  0.00     0.049 A 
ATOM     55  H   UNL A   1      45.480  26.994  27.232  1.00  0.00     0.167 HD
ATOM     56  C   UNL A   1      41.731  28.732  28.671  1.00  0.00     0.034 A 
ATOM     57  C   UNL A   1      48.089  27.127  26.233  1.00  0.00     0.034 A 
ATOM     58  C   UNL A   1      42.698  29.793  28.754  1.00  0.00     0.049 A 
ATOM     59  C   UNL A   1      47.764  28.500  26.755  1.00  0.00     0.074 A 
ATOM     60  C   UNL A   1      42.528  31.077  29.241  1.00  0.00     0.029 A 
ATOM     61  N   UNL A   1      44.018  29.690  28.345  1.00  0.00    -0.354 N 
ATOM     62  N   UNL A   1      46.656  28.929  27.308  1.00  0.00    -0.248 NA
ATOM     63  C   UNL A   1      48.827  29.512  26.676  1.00  0.00     0.031 C 
ATOM     64  C   UNL A   1      43.747  31.753  29.123  1.00  0.00     0.029 A 
ATOM     65  C   UNL A   1      44.676  30.888  28.569  1.00  0.00     0.049 A 
ATOM     66  H   UNL A   1      44.427  28.886  27.954  1.00  0.00     0.167 HD
ATOM     67  C   UNL A   1      46.898  30.249  27.673  1.00  0.00     0.074 A 
ATOM     68  C   UNL A   1      48.266  30.541  27.297  1.00  0.00     0.031 C 
ATOM     69  C   UNL A   1      46.057  31.143  28.250  1.00  0.00     0.034 A 
BRANCH  56  70
ATOM     70  C   UNL A   1      40.322  29.014  29.120  1.00  0.00     0.023 A 
ATOM     71  C   UNL A   1      39.349  29.351  28.156  1.00  0.00     0.012 A 
ATOM     72  C   UNL A   1      39.946  28.901  30.471  1.00  0.00     0.148 A 
ATOM     73  C   UNL A   1      38.031  29.600  28.533  1.00  0.00     0.002 A 
ATOM     74  C   UNL A   1      38.621  29.113  30.835  1.00  0.00     0.091 A 
ATOM     75  F   UNL A   1      40.890  28.606  31.377  1.00  0.00    -0.205 F 
ATOM     76  C   UNL A   1      37.666  29.471  29.870  1.00  0.00     0.022 A 
BRANCH  74  77
ATOM     77  S   UNL A   1      38.040  28.899  32.521  1.00  0.00     0.127 S 
ATOM     78  O   UNL A   1      38.234  27.465  32.723  1.00  0.00    -0.237 OA
ATOM     79  O   UNL A   1      38.958  29.751  33.279  1.00  0.00    -0.237 OA
ATOM     80  O   UNL A   1      36.656  29.354  32.526  1.00  0.00    -0.744 OA
ENDBRANCH  74  77
ENDBRANCH  56  70
BRANCH  57  81
ATOM     81  C   UNL A   1      49.441  26.811  25.693  1.00  0.00     0.023 A 
ATOM     82  C   UNL A   1      50.341  26.076  26.489  1.00  0.00     0.012 A 
ATOM     83  C   UNL A   1      49.828  27.192  24.394  1.00  0.00     0.148 A 
ATOM     84  C   UNL A   1      51.610  25.748  26.012  1.00  0.00     0.002 A 
ATOM     85  C   UNL A   1      51.075  26.819  23.906  1.00  0.00     0.091 A 
ATOM     86  F   UNL A   1      48.964  27.904  23.656  1.00  0.00    -0.205 F 
ATOM     87  C   UNL A   1      51.973  26.109  24.718  1.00  0.00     0.022 A 
BRANCH  85  88
ATOM     88  S   UNL A   1      51.568  27.131  22.206  1.00  0.00     0.127 S 
ATOM     89  O   UNL A   1      52.768  26.307  22.086  1.00  0.00    -0.237 OA
ATOM     90  O   UNL A   1      50.410  26.646  21.454  1.00  0.00    -0.237 OA
ATOM     91  O   UNL A   1      51.771  28.571  22.123  1.00  0.00    -0.744 OA
ENDBRANCH  85  88
ENDBRANCH  57  81
BRANCH  69  92
ATOM     92  C   UNL A   1      46.592  32.519  28.540  1.00  0.00     0.023 A 
ATOM     93  C   UNL A   1      47.160  32.790  29.799  1.00  0.00     0.012 A 
ATOM     94  C   UNL A   1      46.613  33.511  27.539  1.00  0.00     0.148 A 
ATOM     95  C   UNL A   1      47.724  34.038  30.067  1.00  0.00     0.002 A 
ATOM     96  C   UNL A   1      47.213  34.737  27.800  1.00  0.00     0.091 A 
ATOM     97  F   UNL A   1      46.047  33.239  26.356  1.00  0.00    -0.205 F 
ATOM     98  C   UNL A   1      47.761  35.005  29.066  1.00  0.00     0.022 A 
BRANCH  96  99
ATOM     99  S   UNL A   1      47.385  36.004  26.538  1.00  0.00     0.127 S 
ATOM    100  O   UNL A   1      48.088  37.057  27.266  1.00  0.00    -0.237 OA
ATOM    101  O   UNL A   1      48.187  35.327  25.518  1.00  0.00    -0.237 OA
ATOM    102  O   UNL A   1      46.029  36.328  26.115  1.00  0.00    -0.744 OA
ENDBRANCH  96  99
ENDBRANCH  69  92
ENDBRANCH  43  44
ENDBRANCH  35  38
ENDBRANCH  33  34
ENDBRANCH  32  33
ENDBRANCH  31  32
ENDBRANCH   1  31
TORSDOF 21
ENDMDL
