MODEL 1
REMARK VINA RESULT:     -11.6      0.000      0.000
REMARK SMILES O=C(CCc1cccnc1)Nc1cccc(F)c1C(=O)NCCCCNC(=O)c1ccc(-c2c3nc(c(-c4cccc(S(=O)(=O)[O-])c4F)c4ccc([nH]4)c(-c4cccc(S(=O)(=O)[O-])c4F)c4nc(c(-c5cccc(S(=O)(=O)[O-])c5F)c5ccc2[nH]5)C=C4)C=C3)cc1
REMARK SMILES IDX 23 1 22 2 21 3 19 4 20 5 18 7 12 8 13 9 14 10 16 11 15 12
REMARK SMILES IDX 17 13 11 14 1 15 2 16 3 18 4 19 5 20 6 21 10 22 7 23 9 24
REMARK SMILES IDX 8 25 24 26 25 27 26 28 27 29 28 31 29 32 30 33 91 34 31 35
REMARK SMILES IDX 90 36 32 37 33 38 34 39 84 40 35 41 89 42 83 43 85 44 36 45
REMARK SMILES IDX 88 46 82 47 81 48 37 50 69 51 49 52 68 53 50 54 53 55 67 56
REMARK SMILES IDX 86 57 51 58 52 59 66 61 87 62 54 63 38 64 39 65 47 66 40 67
REMARK SMILES IDX 42 68 48 69 41 70 43 71 44 72 45 73 46 74 70 75 71 76 79 77
REMARK SMILES IDX 72 78 74 79 80 80 73 81 75 82 76 83 77 84 78 85 55 86 56 87
REMARK SMILES IDX 64 88 57 89 59 90 65 91 58 92 60 93 61 94 62 95 63 96
REMARK H PARENT 21 6 11 17 26 30 85 49 53 60
REMARK Flexibility Score: inf
ROOT
ATOM      1  C   UNL A   1      31.970  27.890  26.909  1.00  0.00     0.023 C 
ENDROOT
BRANCH   1   2
ATOM      2  C   UNL A   1      33.189  27.112  26.418  1.00  0.00     0.116 C 
BRANCH   2   3
ATOM      3  N   UNL A   1      33.632  27.421  25.066  1.00  0.00    -0.352 N 
ATOM      4  C   UNL A   1      33.447  26.748  23.873  1.00  0.00     0.256 C 
ATOM      5  O   UNL A   1      33.858  27.281  22.840  1.00  0.00    -0.269 OA
ATOM      6  H   UNL A   1      34.155  28.251  24.990  1.00  0.00     0.163 HD
BRANCH   4   7
ATOM      7  C   UNL A   1      32.860  25.381  23.775  1.00  0.00     0.099 A 
ATOM      8  C   UNL A   1      31.517  25.200  23.358  1.00  0.00     0.056 A 
ATOM      9  C   UNL A   1      31.059  23.896  23.097  1.00  0.00     0.027 A 
ATOM     10  C   UNL A   1      31.860  22.782  23.340  1.00  0.00     0.005 A 
ATOM     11  C   UNL A   1      33.588  24.245  24.144  1.00  0.00     0.138 A 
ATOM     12  C   UNL A   1      33.112  22.957  23.905  1.00  0.00     0.040 A 
ATOM     13  F   UNL A   1      34.759  24.345  24.790  1.00  0.00    -0.206 F 
BRANCH   8  14
ATOM     14  N   UNL A   1      30.634  26.312  23.208  1.00  0.00    -0.325 N 
ATOM     15  O   UNL A   1      29.397  26.110  25.155  1.00  0.00    -0.275 OA
ATOM     16  C   UNL A   1      29.603  26.648  24.064  1.00  0.00     0.224 C 
ATOM     17  H   UNL A   1      30.772  26.890  22.423  1.00  0.00     0.169 HD
BRANCH  16  18
ATOM     18  C   UNL A   1      28.604  27.696  23.591  1.00  0.00     0.105 C 
BRANCH  18  19
ATOM     19  C   UNL A   1      28.910  28.491  22.328  1.00  0.00     0.047 C 
BRANCH  19  20
ATOM     20  C   UNL A   1      28.747  29.987  22.390  1.00  0.00    -0.029 A 
ATOM     21  C   UNL A   1      29.024  30.651  23.588  1.00  0.00     0.007 A 
ATOM     22  C   UNL A   1      28.324  30.772  21.319  1.00  0.00     0.114 A 
ATOM     23  C   UNL A   1      28.926  32.036  23.656  1.00  0.00     0.020 A 
ATOM     24  N   UNL A   1      28.227  32.119  21.353  1.00  0.00    -0.264 NA
ATOM     25  C   UNL A   1      28.539  32.722  22.519  1.00  0.00     0.111 A 
ENDBRANCH  19  20
ENDBRANCH  18  19
ENDBRANCH  16  18
ENDBRANCH   8  14
ENDBRANCH   4   7
ENDBRANCH   2   3
ENDBRANCH   1   2
BRANCH   1  26
ATOM     26  C   UNL A   1      31.497  29.072  26.066  1.00  0.00     0.023 C 
BRANCH  26  27
ATOM     27  C   UNL A   1      32.541  30.113  25.675  1.00  0.00     0.116 C 
BRANCH  27  28
ATOM     28  N   UNL A   1      32.322  31.428  26.255  1.00  0.00    -0.352 N 
ATOM     29  C   UNL A   1      33.068  32.135  27.178  1.00  0.00     0.251 C 
ATOM     30  H   UNL A   1      31.512  31.891  25.939  1.00  0.00     0.163 HD
ATOM     31  O   UNL A   1      32.669  33.222  27.569  1.00  0.00    -0.269 OA
BRANCH  29  32
ATOM     32  C   UNL A   1      34.326  31.569  27.730  1.00  0.00     0.039 A 
ATOM     33  C   UNL A   1      35.401  32.434  27.963  1.00  0.00     0.014 A 
ATOM     34  C   UNL A   1      34.457  30.210  28.016  1.00  0.00     0.014 A 
ATOM     35  C   UNL A   1      36.567  31.952  28.568  1.00  0.00     0.010 A 
ATOM     36  C   UNL A   1      35.588  29.747  28.688  1.00  0.00     0.010 A 
ATOM     37  C   UNL A   1      36.654  30.612  28.979  1.00  0.00    -0.014 A 
BRANCH  37  38
ATOM     38  C   UNL A   1      37.830  30.104  29.737  1.00  0.00     0.031 A 
ATOM     39  C   UNL A   1      38.098  30.580  31.140  1.00  0.00     0.074 A 
ATOM     40  C   UNL A   1      38.720  29.295  29.125  1.00  0.00     0.049 A 
ATOM     41  N   UNL A   1      39.117  30.319  31.917  1.00  0.00    -0.248 NA
ATOM     42  C   UNL A   1      37.110  31.493  31.738  1.00  0.00     0.031 C 
ATOM     43  C   UNL A   1      38.627  28.830  27.741  1.00  0.00     0.029 A 
ATOM     44  N   UNL A   1      39.897  28.747  29.578  1.00  0.00    -0.354 N 
ATOM     45  C   UNL A   1      38.919  31.067  33.071  1.00  0.00     0.074 A 
ATOM     46  C   UNL A   1      37.693  31.812  32.885  1.00  0.00     0.031 C 
ATOM     47  C   UNL A   1      39.697  28.071  27.457  1.00  0.00     0.029 A 
ATOM     48  C   UNL A   1      40.568  28.014  28.626  1.00  0.00     0.049 A 
ATOM     49  H   UNL A   1      40.228  28.867  30.497  1.00  0.00     0.167 HD
ATOM     50  C   UNL A   1      39.672  31.107  34.195  1.00  0.00     0.034 A 
ATOM     51  C   UNL A   1      41.754  27.374  28.681  1.00  0.00     0.034 A 
ATOM     52  C   UNL A   1      40.847  30.307  34.409  1.00  0.00     0.049 A 
ATOM     53  C   UNL A   1      42.533  27.375  29.969  1.00  0.00     0.074 A 
ATOM     54  C   UNL A   1      41.601  30.187  35.564  1.00  0.00     0.029 A 
ATOM     55  N   UNL A   1      41.438  29.493  33.458  1.00  0.00    -0.354 N 
ATOM     56  N   UNL A   1      42.236  27.951  31.108  1.00  0.00    -0.248 NA
ATOM     57  C   UNL A   1      43.792  26.614  29.993  1.00  0.00     0.031 C 
ATOM     58  C   UNL A   1      42.659  29.313  35.305  1.00  0.00     0.029 A 
ATOM     59  C   UNL A   1      42.554  28.875  33.994  1.00  0.00     0.049 A 
ATOM     60  H   UNL A   1      41.113  29.372  32.536  1.00  0.00     0.167 HD
ATOM     61  C   UNL A   1      43.254  27.604  31.989  1.00  0.00     0.074 A 
ATOM     62  C   UNL A   1      44.165  26.746  31.261  1.00  0.00     0.031 C 
ATOM     63  C   UNL A   1      43.426  27.979  33.280  1.00  0.00     0.034 A 
BRANCH  50  64
ATOM     64  C   UNL A   1      39.215  31.989  35.326  1.00  0.00     0.023 A 
ATOM     65  C   UNL A   1      38.361  31.457  36.314  1.00  0.00     0.012 A 
ATOM     66  C   UNL A   1      39.713  33.299  35.473  1.00  0.00     0.148 A 
ATOM     67  C   UNL A   1      37.994  32.221  37.419  1.00  0.00     0.002 A 
ATOM     68  C   UNL A   1      39.376  34.039  36.599  1.00  0.00     0.091 A 
ATOM     69  F   UNL A   1      40.510  33.790  34.513  1.00  0.00    -0.205 F 
ATOM     70  C   UNL A   1      38.510  33.506  37.569  1.00  0.00     0.022 A 
BRANCH  68  71
ATOM     71  S   UNL A   1      40.050  35.672  36.929  1.00  0.00     0.127 S 
ATOM     72  O   UNL A   1      39.572  36.427  35.771  1.00  0.00    -0.237 OA
ATOM     73  O   UNL A   1      39.404  36.021  38.194  1.00  0.00    -0.237 OA
ATOM     74  O   UNL A   1      41.495  35.504  37.007  1.00  0.00    -0.744 OA
ENDBRANCH  68  71
ENDBRANCH  50  64
BRANCH  51  75
ATOM     75  C   UNL A   1      42.235  26.613  27.493  1.00  0.00     0.023 A 
ATOM     76  C   UNL A   1      43.036  27.265  26.535  1.00  0.00     0.012 A 
ATOM     77  C   UNL A   1      41.957  25.241  27.334  1.00  0.00     0.148 A 
ATOM     78  C   UNL A   1      43.536  26.571  25.432  1.00  0.00     0.002 A 
ATOM     79  C   UNL A   1      42.503  24.543  26.264  1.00  0.00     0.091 A 
ATOM     80  F   UNL A   1      41.179  24.641  28.247  1.00  0.00    -0.205 F 
ATOM     81  C   UNL A   1      43.281  25.208  25.304  1.00  0.00     0.022 A 
BRANCH  79  82
ATOM     82  S   UNL A   1      42.346  22.760  26.099  1.00  0.00     0.127 S 
ATOM     83  O   UNL A   1      42.981  22.521  24.806  1.00  0.00    -0.237 OA
ATOM     84  O   UNL A   1      43.104  22.281  27.256  1.00  0.00    -0.237 OA
ATOM     85  O   UNL A   1      40.918  22.485  26.166  1.00  0.00    -0.744 OA
ENDBRANCH  79  82
ENDBRANCH  51  75
BRANCH  63  86
ATOM     86  C   UNL A   1      44.636  27.469  34.017  1.00  0.00     0.023 A 
ATOM     87  C   UNL A   1      45.804  28.256  34.054  1.00  0.00     0.012 A 
ATOM     88  C   UNL A   1      44.574  26.286  34.779  1.00  0.00     0.148 A 
ATOM     89  C   UNL A   1      46.895  27.867  34.829  1.00  0.00     0.002 A 
ATOM     90  C   UNL A   1      45.647  25.929  35.585  1.00  0.00     0.091 A 
ATOM     91  F   UNL A   1      43.458  25.545  34.716  1.00  0.00    -0.205 F 
ATOM     92  C   UNL A   1      46.811  26.713  35.605  1.00  0.00     0.022 A 
BRANCH  90  93
ATOM     93  S   UNL A   1      45.592  24.517  36.696  1.00  0.00     0.127 S 
ATOM     94  O   UNL A   1      46.911  24.580  37.323  1.00  0.00    -0.237 OA
ATOM     95  O   UNL A   1      44.479  24.861  37.582  1.00  0.00    -0.237 OA
ATOM     96  O   UNL A   1      45.357  23.352  35.853  1.00  0.00    -0.744 OA
ENDBRANCH  90  93
ENDBRANCH  63  86
ENDBRANCH  37  38
ENDBRANCH  29  32
ENDBRANCH  27  28
ENDBRANCH  26  27
ENDBRANCH   1  26
TORSDOF 18
ENDMDL
MODEL 2
REMARK VINA RESULT:     -11.4      4.998      8.297
REMARK SMILES O=C(CCc1cccnc1)Nc1cccc(F)c1C(=O)NCCCCNC(=O)c1ccc(-c2c3nc(c(-c4cccc(S(=O)(=O)[O-])c4F)c4ccc([nH]4)c(-c4cccc(S(=O)(=O)[O-])c4F)c4nc(c(-c5cccc(S(=O)(=O)[O-])c5F)c5ccc2[nH]5)C=C4)C=C3)cc1
REMARK SMILES IDX 23 1 22 2 21 3 19 4 20 5 18 7 12 8 13 9 14 10 16 11 15 12
REMARK SMILES IDX 17 13 11 14 1 15 2 16 3 18 4 19 5 20 6 21 10 22 7 23 9 24
REMARK SMILES IDX 8 25 24 26 25 27 26 28 27 29 28 31 29 32 30 33 91 34 31 35
REMARK SMILES IDX 90 36 32 37 33 38 34 39 84 40 35 41 89 42 83 43 85 44 36 45
REMARK SMILES IDX 88 46 82 47 81 48 37 50 69 51 49 52 68 53 50 54 53 55 67 56
REMARK SMILES IDX 86 57 51 58 52 59 66 61 87 62 54 63 38 64 39 65 47 66 40 67
REMARK SMILES IDX 42 68 48 69 41 70 43 71 44 72 45 73 46 74 70 75 71 76 79 77
REMARK SMILES IDX 72 78 74 79 80 80 73 81 75 82 76 83 77 84 78 85 55 86 56 87
REMARK SMILES IDX 64 88 57 89 59 90 65 91 58 92 60 93 61 94 62 95 63 96
REMARK H PARENT 21 6 11 17 26 30 85 49 53 60
REMARK Flexibility Score: inf
ROOT
ATOM      1  C   UNL A   1      34.391  22.668  25.562  1.00  0.00     0.023 C 
ENDROOT
BRANCH   1   2
ATOM      2  C   UNL A   1      33.889  23.716  26.553  1.00  0.00     0.116 C 
BRANCH   2   3
ATOM      3  N   UNL A   1      32.555  23.491  27.087  1.00  0.00    -0.352 N 
ATOM      4  C   UNL A   1      31.316  23.919  26.649  1.00  0.00     0.256 C 
ATOM      5  O   UNL A   1      30.318  23.506  27.245  1.00  0.00    -0.269 OA
ATOM      6  H   UNL A   1      32.531  22.939  27.902  1.00  0.00     0.163 HD
BRANCH   4   7
ATOM      7  C   UNL A   1      31.122  24.918  25.560  1.00  0.00     0.099 A 
ATOM      8  C   UNL A   1      31.016  24.502  24.208  1.00  0.00     0.056 A 
ATOM      9  C   UNL A   1      30.648  25.447  23.235  1.00  0.00     0.027 A 
ATOM     10  C   UNL A   1      30.489  26.795  23.554  1.00  0.00     0.005 A 
ATOM     11  C   UNL A   1      31.097  26.292  25.824  1.00  0.00     0.138 A 
ATOM     12  C   UNL A   1      30.756  27.222  24.844  1.00  0.00     0.040 A 
ATOM     13  F   UNL A   1      31.447  26.780  27.022  1.00  0.00    -0.206 F 
BRANCH   8  14
ATOM     14  N   UNL A   1      31.284  23.152  23.829  1.00  0.00    -0.325 N 
ATOM     15  O   UNL A   1      33.055  23.485  22.375  1.00  0.00    -0.275 OA
ATOM     16  C   UNL A   1      32.221  22.742  22.900  1.00  0.00     0.224 C 
ATOM     17  H   UNL A   1      30.752  22.450  24.269  1.00  0.00     0.169 HD
BRANCH  16  18
ATOM     18  C   UNL A   1      32.166  21.294  22.430  1.00  0.00     0.105 C 
BRANCH  18  19
ATOM     19  C   UNL A   1      31.853  20.201  23.444  1.00  0.00     0.047 C 
BRANCH  19  20
ATOM     20  C   UNL A   1      32.791  19.024  23.511  1.00  0.00    -0.029 A 
ATOM     21  C   UNL A   1      33.948  19.122  24.291  1.00  0.00     0.007 A 
ATOM     22  C   UNL A   1      32.589  17.824  22.834  1.00  0.00     0.114 A 
ATOM     23  C   UNL A   1      34.804  18.033  24.407  1.00  0.00     0.020 A 
ATOM     24  N   UNL A   1      33.399  16.747  22.933  1.00  0.00    -0.264 NA
ATOM     25  C   UNL A   1      34.484  16.873  23.725  1.00  0.00     0.111 A 
ENDBRANCH  19  20
ENDBRANCH  18  19
ENDBRANCH  16  18
ENDBRANCH   8  14
ENDBRANCH   4   7
ENDBRANCH   2   3
ENDBRANCH   1   2
BRANCH   1  26
ATOM     26  C   UNL A   1      35.607  21.837  25.964  1.00  0.00     0.023 C 
BRANCH  26  27
ATOM     27  C   UNL A   1      36.779  21.796  24.988  1.00  0.00     0.116 C 
BRANCH  27  28
ATOM     28  N   UNL A   1      37.740  20.736  25.251  1.00  0.00    -0.352 N 
ATOM     29  C   UNL A   1      38.964  20.776  25.887  1.00  0.00     0.251 C 
ATOM     30  H   UNL A   1      37.474  19.846  24.923  1.00  0.00     0.163 HD
ATOM     31  O   UNL A   1      39.639  19.759  25.957  1.00  0.00    -0.269 OA
BRANCH  29  32
ATOM     32  C   UNL A   1      39.486  22.048  26.450  1.00  0.00     0.039 A 
ATOM     33  C   UNL A   1      40.503  21.987  27.409  1.00  0.00     0.014 A 
ATOM     34  C   UNL A   1      38.988  23.288  26.049  1.00  0.00     0.014 A 
ATOM     35  C   UNL A   1      41.081  23.166  27.892  1.00  0.00     0.010 A 
ATOM     36  C   UNL A   1      39.617  24.459  26.472  1.00  0.00     0.010 A 
ATOM     37  C   UNL A   1      40.675  24.414  27.392  1.00  0.00    -0.014 A 
BRANCH  37  38
ATOM     38  C   UNL A   1      41.357  25.674  27.792  1.00  0.00     0.031 A 
ATOM     39  C   UNL A   1      40.608  26.744  28.541  1.00  0.00     0.074 A 
ATOM     40  C   UNL A   1      42.624  25.905  27.386  1.00  0.00     0.049 A 
ATOM     41  N   UNL A   1      41.010  27.939  28.890  1.00  0.00    -0.248 NA
ATOM     42  C   UNL A   1      39.217  26.448  28.920  1.00  0.00     0.031 C 
ATOM     43  C   UNL A   1      43.433  24.991  26.580  1.00  0.00     0.029 A 
ATOM     44  N   UNL A   1      43.441  26.995  27.569  1.00  0.00    -0.354 N 
ATOM     45  C   UNL A   1      39.914  28.552  29.485  1.00  0.00     0.074 A 
ATOM     46  C   UNL A   1      38.821  27.606  29.430  1.00  0.00     0.031 C 
ATOM     47  C   UNL A   1      44.626  25.554  26.337  1.00  0.00     0.029 A 
ATOM     48  C   UNL A   1      44.663  26.881  26.944  1.00  0.00     0.049 A 
ATOM     49  H   UNL A   1      43.179  27.783  28.097  1.00  0.00     0.167 HD
ATOM     50  C   UNL A   1      39.832  29.777  30.053  1.00  0.00     0.034 A 
ATOM     51  C   UNL A   1      45.694  27.747  26.860  1.00  0.00     0.034 A 
ATOM     52  C   UNL A   1      40.941  30.685  30.178  1.00  0.00     0.049 A 
ATOM     53  C   UNL A   1      45.602  29.073  27.565  1.00  0.00     0.074 A 
ATOM     54  C   UNL A   1      40.983  31.895  30.849  1.00  0.00     0.029 A 
ATOM     55  N   UNL A   1      42.195  30.489  29.624  1.00  0.00    -0.354 N 
ATOM     56  N   UNL A   1      44.613  29.560  28.273  1.00  0.00    -0.248 NA
ATOM     57  C   UNL A   1      46.776  29.956  27.491  1.00  0.00     0.031 C 
ATOM     58  C   UNL A   1      42.260  32.438  30.688  1.00  0.00     0.029 A 
ATOM     59  C   UNL A   1      43.017  31.559  29.929  1.00  0.00     0.049 A 
ATOM     60  H   UNL A   1      42.461  29.704  29.092  1.00  0.00     0.167 HD
ATOM     61  C   UNL A   1      45.051  30.792  28.747  1.00  0.00     0.074 A 
ATOM     62  C   UNL A   1      46.406  30.967  28.267  1.00  0.00     0.031 C 
ATOM     63  C   UNL A   1      44.382  31.701  29.496  1.00  0.00     0.034 A 
BRANCH  50  64
ATOM     64  C   UNL A   1      38.520  30.194  30.661  1.00  0.00     0.023 A 
ATOM     65  C   UNL A   1      38.271  29.919  32.021  1.00  0.00     0.012 A 
ATOM     66  C   UNL A   1      37.586  30.949  29.925  1.00  0.00     0.148 A 
ATOM     67  C   UNL A   1      37.105  30.371  32.634  1.00  0.00     0.002 A 
ATOM     68  C   UNL A   1      36.445  31.432  30.554  1.00  0.00     0.091 A 
ATOM     69  F   UNL A   1      37.835  31.184  28.628  1.00  0.00    -0.205 F 
ATOM     70  C   UNL A   1      36.199  31.137  31.906  1.00  0.00     0.022 A 
BRANCH  68  71
ATOM     71  S   UNL A   1      35.255  32.496  29.730  1.00  0.00     0.127 S 
ATOM     72  O   UNL A   1      36.115  33.569  29.230  1.00  0.00    -0.237 OA
ATOM     73  O   UNL A   1      34.719  31.612  28.694  1.00  0.00    -0.237 OA
ATOM     74  O   UNL A   1      34.295  32.894  30.749  1.00  0.00    -0.744 OA
ENDBRANCH  68  71
ENDBRANCH  50  64
BRANCH  51  75
ATOM     75  C   UNL A   1      46.935  27.344  26.137  1.00  0.00     0.023 A 
ATOM     76  C   UNL A   1      47.057  27.634  24.765  1.00  0.00     0.012 A 
ATOM     77  C   UNL A   1      48.012  26.733  26.808  1.00  0.00     0.148 A 
ATOM     78  C   UNL A   1      48.221  27.307  24.069  1.00  0.00     0.002 A 
ATOM     79  C   UNL A   1      49.190  26.461  26.122  1.00  0.00     0.091 A 
ATOM     80  F   UNL A   1      47.871  26.450  28.112  1.00  0.00    -0.205 F 
ATOM     81  C   UNL A   1      49.292  26.734  24.749  1.00  0.00     0.022 A 
BRANCH  79  82
ATOM     82  S   UNL A   1      50.667  25.857  26.950  1.00  0.00     0.127 S 
ATOM     83  O   UNL A   1      51.679  26.014  25.910  1.00  0.00    -0.237 OA
ATOM     84  O   UNL A   1      50.787  26.788  28.073  1.00  0.00    -0.237 OA
ATOM     85  O   UNL A   1      50.364  24.487  27.340  1.00  0.00    -0.744 OA
ENDBRANCH  79  82
ENDBRANCH  51  75
BRANCH  63  86
ATOM     86  C   UNL A   1      45.089  32.979  29.867  1.00  0.00     0.023 A 
ATOM     87  C   UNL A   1      45.828  33.037  31.064  1.00  0.00     0.012 A 
ATOM     88  C   UNL A   1      45.133  34.066  28.972  1.00  0.00     0.148 A 
ATOM     89  C   UNL A   1      46.591  34.162  31.371  1.00  0.00     0.002 A 
ATOM     90  C   UNL A   1      45.932  35.165  29.262  1.00  0.00     0.091 A 
ATOM     91  F   UNL A   1      44.409  33.995  27.845  1.00  0.00    -0.205 F 
ATOM     92  C   UNL A   1      46.655  35.219  30.465  1.00  0.00     0.022 A 
BRANCH  90  93
ATOM     93  S   UNL A   1      46.158  36.526  28.111  1.00  0.00     0.127 S 
ATOM     94  O   UNL A   1      47.208  37.302  28.768  1.00  0.00    -0.237 OA
ATOM     95  O   UNL A   1      46.582  35.836  26.892  1.00  0.00    -0.237 OA
ATOM     96  O   UNL A   1      44.862  37.187  28.011  1.00  0.00    -0.744 OA
ENDBRANCH  90  93
ENDBRANCH  63  86
ENDBRANCH  37  38
ENDBRANCH  29  32
ENDBRANCH  27  28
ENDBRANCH  26  27
ENDBRANCH   1  26
TORSDOF 18
ENDMDL
MODEL 3
REMARK VINA RESULT:     -11.3      5.451     10.787
REMARK SMILES O=C(CCc1cccnc1)Nc1cccc(F)c1C(=O)NCCCCNC(=O)c1ccc(-c2c3nc(c(-c4cccc(S(=O)(=O)[O-])c4F)c4ccc([nH]4)c(-c4cccc(S(=O)(=O)[O-])c4F)c4nc(c(-c5cccc(S(=O)(=O)[O-])c5F)c5ccc2[nH]5)C=C4)C=C3)cc1
REMARK SMILES IDX 23 1 22 2 21 3 19 4 20 5 18 7 12 8 13 9 14 10 16 11 15 12
REMARK SMILES IDX 17 13 11 14 1 15 2 16 3 18 4 19 5 20 6 21 10 22 7 23 9 24
REMARK SMILES IDX 8 25 24 26 25 27 26 28 27 29 28 31 29 32 30 33 91 34 31 35
REMARK SMILES IDX 90 36 32 37 33 38 34 39 84 40 35 41 89 42 83 43 85 44 36 45
REMARK SMILES IDX 88 46 82 47 81 48 37 50 69 51 49 52 68 53 50 54 53 55 67 56
REMARK SMILES IDX 86 57 51 58 52 59 66 61 87 62 54 63 38 64 39 65 47 66 40 67
REMARK SMILES IDX 42 68 48 69 41 70 43 71 44 72 45 73 46 74 70 75 71 76 79 77
REMARK SMILES IDX 72 78 74 79 80 80 73 81 75 82 76 83 77 84 78 85 55 86 56 87
REMARK SMILES IDX 64 88 57 89 59 90 65 91 58 92 60 93 61 94 62 95 63 96
REMARK H PARENT 21 6 11 17 26 30 85 49 53 60
REMARK Flexibility Score: inf
ROOT
ATOM      1  C   UNL A   1      35.334  22.362  25.056  1.00  0.00     0.023 C 
ENDROOT
BRANCH   1   2
ATOM      2  C   UNL A   1      35.213  23.364  26.202  1.00  0.00     0.116 C 
BRANCH   2   3
ATOM      3  N   UNL A   1      34.116  23.131  27.130  1.00  0.00    -0.352 N 
ATOM      4  C   UNL A   1      32.749  23.270  26.975  1.00  0.00     0.256 C 
ATOM      5  O   UNL A   1      32.024  22.916  27.907  1.00  0.00    -0.269 OA
ATOM      6  H   UNL A   1      34.396  22.823  28.022  1.00  0.00     0.163 HD
BRANCH   4   7
ATOM      7  C   UNL A   1      32.110  23.904  25.787  1.00  0.00     0.099 A 
ATOM      8  C   UNL A   1      31.511  23.107  24.778  1.00  0.00     0.056 A 
ATOM      9  C   UNL A   1      30.757  23.740  23.774  1.00  0.00     0.027 A 
ATOM     10  C   UNL A   1      30.677  25.129  23.692  1.00  0.00     0.005 A 
ATOM     11  C   UNL A   1      32.130  25.290  25.599  1.00  0.00     0.138 A 
ATOM     12  C   UNL A   1      31.400  25.904  24.583  1.00  0.00     0.040 A 
ATOM     13  F   UNL A   1      32.894  26.087  26.359  1.00  0.00    -0.206 F 
BRANCH   8  14
ATOM     14  N   UNL A   1      31.669  21.688  24.767  1.00  0.00    -0.325 N 
ATOM     15  O   UNL A   1      32.856  21.430  22.796  1.00  0.00    -0.275 OA
ATOM     16  C   UNL A   1      32.257  20.947  23.762  1.00  0.00     0.224 C 
ATOM     17  H   UNL A   1      31.327  21.195  25.547  1.00  0.00     0.169 HD
BRANCH  16  18
ATOM     18  C   UNL A   1      32.083  19.434  23.803  1.00  0.00     0.105 C 
BRANCH  18  19
ATOM     19  C   UNL A   1      33.089  18.556  23.071  1.00  0.00     0.047 C 
BRANCH  19  20
ATOM     20  C   UNL A   1      33.813  17.508  23.876  1.00  0.00    -0.029 A 
ATOM     21  C   UNL A   1      35.085  17.797  24.379  1.00  0.00     0.007 A 
ATOM     22  C   UNL A   1      33.300  16.244  24.155  1.00  0.00     0.114 A 
ATOM     23  C   UNL A   1      35.753  16.864  25.164  1.00  0.00     0.020 A 
ATOM     24  N   UNL A   1      33.921  15.319  24.920  1.00  0.00    -0.264 NA
ATOM     25  C   UNL A   1      35.131  15.654  25.415  1.00  0.00     0.111 A 
ENDBRANCH  19  20
ENDBRANCH  18  19
ENDBRANCH  16  18
ENDBRANCH   8  14
ENDBRANCH   4   7
ENDBRANCH   2   3
ENDBRANCH   1   2
BRANCH   1  26
ATOM     26  C   UNL A   1      36.247  21.157  25.262  1.00  0.00     0.023 C 
BRANCH  26  27
ATOM     27  C   UNL A   1      37.693  21.287  24.791  1.00  0.00     0.116 C 
BRANCH  27  28
ATOM     28  N   UNL A   1      38.612  20.347  25.412  1.00  0.00    -0.352 N 
ATOM     29  C   UNL A   1      39.679  20.566  26.260  1.00  0.00     0.251 C 
ATOM     30  H   UNL A   1      38.447  19.401  25.194  1.00  0.00     0.163 HD
ATOM     31  O   UNL A   1      40.357  19.620  26.632  1.00  0.00    -0.269 OA
BRANCH  29  32
ATOM     32  C   UNL A   1      40.036  21.943  26.691  1.00  0.00     0.039 A 
ATOM     33  C   UNL A   1      41.053  22.105  27.637  1.00  0.00     0.014 A 
ATOM     34  C   UNL A   1      39.384  23.065  26.177  1.00  0.00     0.014 A 
ATOM     35  C   UNL A   1      41.477  23.389  27.996  1.00  0.00     0.010 A 
ATOM     36  C   UNL A   1      39.859  24.342  26.476  1.00  0.00     0.010 A 
ATOM     37  C   UNL A   1      40.915  24.521  27.383  1.00  0.00    -0.014 A 
BRANCH  37  38
ATOM     38  C   UNL A   1      41.433  25.890  27.650  1.00  0.00     0.031 A 
ATOM     39  C   UNL A   1      42.825  26.276  27.227  1.00  0.00     0.074 A 
ATOM     40  C   UNL A   1      40.690  26.756  28.371  1.00  0.00     0.049 A 
ATOM     41  N   UNL A   1      43.476  27.388  27.455  1.00  0.00    -0.248 NA
ATOM     42  C   UNL A   1      43.601  25.274  26.478  1.00  0.00     0.031 C 
ATOM     43  C   UNL A   1      39.362  26.478  28.918  1.00  0.00     0.029 A 
ATOM     44  N   UNL A   1      40.961  28.035  28.797  1.00  0.00    -0.354 N 
ATOM     45  C   UNL A   1      44.746  27.203  26.922  1.00  0.00     0.074 A 
ATOM     46  C   UNL A   1      44.784  25.863  26.378  1.00  0.00     0.031 C 
ATOM     47  C   UNL A   1      38.934  27.548  29.606  1.00  0.00     0.029 A 
ATOM     48  C   UNL A   1      39.965  28.581  29.574  1.00  0.00     0.049 A 
ATOM     49  H   UNL A   1      41.789  28.515  28.568  1.00  0.00     0.167 HD
ATOM     50  C   UNL A   1      45.776  28.077  26.863  1.00  0.00     0.034 A 
ATOM     51  C   UNL A   1      39.889  29.774  30.200  1.00  0.00     0.034 A 
ATOM     52  C   UNL A   1      45.712  29.435  27.332  1.00  0.00     0.049 A 
ATOM     53  C   UNL A   1      41.020  30.756  30.053  1.00  0.00     0.074 A 
ATOM     54  C   UNL A   1      46.663  30.432  27.200  1.00  0.00     0.029 A 
ATOM     55  N   UNL A   1      44.645  29.987  28.021  1.00  0.00    -0.354 N 
ATOM     56  N   UNL A   1      42.144  30.621  29.393  1.00  0.00    -0.248 NA
ATOM     57  C   UNL A   1      40.863  32.064  30.707  1.00  0.00     0.031 C 
ATOM     58  C   UNL A   1      46.177  31.584  27.824  1.00  0.00     0.029 A 
ATOM     59  C   UNL A   1      44.916  31.308  28.331  1.00  0.00     0.049 A 
ATOM     60  H   UNL A   1      43.816  29.510  28.256  1.00  0.00     0.167 HD
ATOM     61  C   UNL A   1      42.816  31.831  29.531  1.00  0.00     0.074 A 
ATOM     62  C   UNL A   1      41.963  32.697  30.317  1.00  0.00     0.031 C 
ATOM     63  C   UNL A   1      44.039  32.182  29.064  1.00  0.00     0.034 A 
BRANCH  50  64
ATOM     64  C   UNL A   1      47.051  27.633  26.197  1.00  0.00     0.023 A 
ATOM     65  C   UNL A   1      47.984  26.872  26.930  1.00  0.00     0.012 A 
ATOM     66  C   UNL A   1      47.275  27.870  24.826  1.00  0.00     0.148 A 
ATOM     67  C   UNL A   1      49.129  26.370  26.317  1.00  0.00     0.002 A 
ATOM     68  C   UNL A   1      48.399  27.331  24.211  1.00  0.00     0.091 A 
ATOM     69  F   UNL A   1      46.383  28.611  24.152  1.00  0.00    -0.205 F 
ATOM     70  C   UNL A   1      49.331  26.589  24.956  1.00  0.00     0.022 A 
BRANCH  68  71
ATOM     71  S   UNL A   1      48.712  27.485  22.449  1.00  0.00     0.127 S 
ATOM     72  O   UNL A   1      47.585  28.315  22.021  1.00  0.00    -0.237 OA
ATOM     73  O   UNL A   1      50.010  28.159  22.425  1.00  0.00    -0.237 OA
ATOM     74  O   UNL A   1      48.718  26.128  21.920  1.00  0.00    -0.744 OA
ENDBRANCH  68  71
ENDBRANCH  50  64
BRANCH  51  75
ATOM     75  C   UNL A   1      38.656  30.129  30.959  1.00  0.00     0.023 A 
ATOM     76  C   UNL A   1      38.525  29.709  32.296  1.00  0.00     0.012 A 
ATOM     77  C   UNL A   1      37.644  30.926  30.388  1.00  0.00     0.148 A 
ATOM     78  C   UNL A   1      37.402  30.060  33.047  1.00  0.00     0.002 A 
ATOM     79  C   UNL A   1      36.555  31.318  31.157  1.00  0.00     0.091 A 
ATOM     80  F   UNL A   1      37.778  31.302  29.107  1.00  0.00    -0.205 F 
ATOM     81  C   UNL A   1      36.424  30.875  32.482  1.00  0.00     0.022 A 
BRANCH  79  82
ATOM     82  S   UNL A   1      35.323  32.482  30.557  1.00  0.00     0.127 S 
ATOM     83  O   UNL A   1      34.387  32.531  31.676  1.00  0.00    -0.237 OA
ATOM     84  O   UNL A   1      36.120  33.694  30.366  1.00  0.00    -0.237 OA
ATOM     85  O   UNL A   1      34.808  31.905  29.323  1.00  0.00    -0.744 OA
ENDBRANCH  79  82
ENDBRANCH  51  75
BRANCH  63  86
ATOM     86  C   UNL A   1      44.549  33.566  29.369  1.00  0.00     0.023 A 
ATOM     87  C   UNL A   1      45.189  33.810  30.599  1.00  0.00     0.012 A 
ATOM     88  C   UNL A   1      44.516  34.580  28.392  1.00  0.00     0.148 A 
ATOM     89  C   UNL A   1      45.779  35.047  30.857  1.00  0.00     0.002 A 
ATOM     90  C   UNL A   1      45.145  35.794  28.637  1.00  0.00     0.091 A 
ATOM     91  F   UNL A   1      43.887  34.331  27.234  1.00  0.00    -0.205 F 
ATOM     92  C   UNL A   1      45.770  36.032  29.872  1.00  0.00     0.022 A 
BRANCH  90  93
ATOM     93  S   UNL A   1      45.275  37.084  27.393  1.00  0.00     0.127 S 
ATOM     94  O   UNL A   1      45.768  36.336  26.238  1.00  0.00    -0.237 OA
ATOM     95  O   UNL A   1      43.891  37.544  27.276  1.00  0.00    -0.237 OA
ATOM     96  O   UNL A   1      46.197  38.074  27.936  1.00  0.00    -0.744 OA
ENDBRANCH  90  93
ENDBRANCH  63  86
ENDBRANCH  37  38
ENDBRANCH  29  32
ENDBRANCH  27  28
ENDBRANCH  26  27
ENDBRANCH   1  26
TORSDOF 18
ENDMDL
