MODEL 1
REMARK VINA RESULT:     -13.1      0.000      0.000
REMARK SMILES CCc1nn2c(nnc3c(=O)n([C@H](C(=O)NCCCCNC(=O)c4ccc(-c5c6nc(c(-c7cccc(S(=O)(=O)[O-])c7F)c7ccc([nH]7)c(-c7cccc(S(=O)(=O)[O-])c7F)c7nc(c(-c8cccc(S(=O)(=O)[O-])c8F)c8ccc5[nH]8)C=C7)C=C6)cc4)C(C)C)ccc32)c1-c1ccc(Cl)cc1
REMARK SMILES IDX 19 1 18 2 17 3 16 4 14 5 15 6 13 8 12 9 3 10 4 11 93 12 5 13
REMARK SMILES IDX 6 14 92 15 7 16 9 17 91 18 8 19 10 20 90 21 11 22 2 23 1 24
REMARK SMILES IDX 94 25 95 26 100 27 96 28 99 29 97 30 98 31 87 32 88 33 89 34
REMARK SMILES IDX 20 35 21 36 22 37 23 39 24 40 25 41 86 42 26 43 85 44 27 45
REMARK SMILES IDX 28 46 29 47 79 48 30 49 84 50 78 51 80 52 31 53 83 54 77 55
REMARK SMILES IDX 76 56 32 58 64 59 44 60 63 61 45 62 48 63 62 64 81 65 46 66
REMARK SMILES IDX 47 67 61 69 82 70 49 71 33 72 34 73 42 74 35 75 37 76 43 77
REMARK SMILES IDX 36 78 38 79 39 80 40 81 41 82 65 83 66 84 74 85 67 86 69 87
REMARK SMILES IDX 75 88 68 89 70 90 71 91 72 92 73 93 50 94 51 95 59 96 52 97
REMARK SMILES IDX 54 98 60 99 53 100 55 101 56 102 57 103 58 104
REMARK H PARENT 16 7 21 38 80 57 48 68
REMARK Flexibility Score: inf
ROOT
ATOM      1  C   UNL A   1      33.232  30.151  27.264  1.00  0.00     0.023 C 
ENDROOT
BRANCH   1   2
ATOM      2  C   UNL A   1      33.105  29.500  25.879  1.00  0.00     0.023 C 
BRANCH   2   3
ATOM      3  C   UNL A   1      31.677  29.086  25.505  1.00  0.00     0.116 C 
BRANCH   3   4
ATOM      4  N   UNL A   1      30.841  30.234  25.216  1.00  0.00    -0.354 N 
ATOM      5  C   UNL A   1      30.179  30.660  24.111  1.00  0.00     0.243 C 
ATOM      6  O   UNL A   1      29.627  31.766  24.232  1.00  0.00    -0.273 OA
ATOM      7  H   UNL A   1      30.731  30.833  25.989  1.00  0.00     0.163 HD
BRANCH   5   8
ATOM      8  C   UNL A   1      29.968  29.862  22.785  1.00  0.00     0.182 C 
BRANCH   8   9
ATOM      9  N   UNL A   1      30.734  28.581  22.695  1.00  0.00    -0.301 N 
ATOM     10  C   UNL A   1      34.679  23.686  23.099  1.00  0.00     0.073 A 
ATOM     11  N   UNL A   1      34.447  24.957  22.738  1.00  0.00    -0.170 NA
ATOM     12  C   UNL A   1      33.547  23.094  23.711  1.00  0.00     0.052 A 
ATOM     13  N   UNL A   1      33.131  25.167  23.034  1.00  0.00    -0.210 N 
ATOM     14  C   UNL A   1      32.552  24.036  23.591  1.00  0.00     0.186 A 
ATOM     15  C   UNL A   1      32.349  26.306  22.835  1.00  0.00     0.102 A 
ATOM     16  N   UNL A   1      31.225  24.018  23.902  1.00  0.00    -0.129 NA
ATOM     17  C   UNL A   1      31.044  26.173  23.128  1.00  0.00     0.177 A 
ATOM     18  C   UNL A   1      32.880  27.579  22.399  1.00  0.00     0.049 A 
ATOM     19  N   UNL A   1      30.501  25.009  23.634  1.00  0.00    -0.141 NA
ATOM     20  C   UNL A   1      30.127  27.347  22.971  1.00  0.00     0.281 A 
ATOM     21  C   UNL A   1      32.089  28.659  22.383  1.00  0.00     0.092 A 
ATOM     22  O   UNL A   1      28.926  27.183  23.167  1.00  0.00    -0.267 OA
BRANCH  10  23
ATOM     23  C   UNL A   1      35.979  23.031  22.759  1.00  0.00     0.055 C 
ATOM     24  C   UNL A   1      36.842  22.710  23.966  1.00  0.00     0.011 C 
ENDBRANCH  10  23
BRANCH  12  25
ATOM     25  C   UNL A   1      33.327  21.779  24.274  1.00  0.00    -0.013 A 
ATOM     26  C   UNL A   1      33.644  21.528  25.615  1.00  0.00     0.010 A 
ATOM     27  C   UNL A   1      32.754  20.764  23.497  1.00  0.00     0.010 A 
ATOM     28  C   UNL A   1      33.395  20.270  26.170  1.00  0.00     0.021 A 
ATOM     29  C   UNL A   1      32.508  19.506  24.052  1.00  0.00     0.021 A 
ATOM     30  C   UNL A   1      32.833  19.264  25.386  1.00  0.00     0.041 A 
ATOM     31  Cl  UNL A   1      32.538  17.711  26.064  1.00  0.00    -0.084 Cl
ENDBRANCH  12  25
ENDBRANCH   8   9
BRANCH   8  32
ATOM     32  C   UNL A   1      28.466  29.801  22.352  1.00  0.00     0.015 C 
ATOM     33  C   UNL A   1      27.486  30.193  23.469  1.00  0.00     0.010 C 
ATOM     34  C   UNL A   1      28.194  30.730  21.156  1.00  0.00     0.010 C 
ENDBRANCH   8  32
ENDBRANCH   5   8
ENDBRANCH   3   4
ENDBRANCH   2   3
ENDBRANCH   1   2
BRANCH   1  35
ATOM     35  C   UNL A   1      34.470  31.032  27.435  1.00  0.00     0.116 C 
BRANCH  35  36
ATOM     36  N   UNL A   1      34.323  31.979  28.532  1.00  0.00    -0.352 N 
ATOM     37  C   UNL A   1      34.979  31.979  29.743  1.00  0.00     0.251 C 
ATOM     38  H   UNL A   1      33.676  32.707  28.390  1.00  0.00     0.163 HD
ATOM     39  O   UNL A   1      34.486  32.549  30.705  1.00  0.00    -0.269 OA
BRANCH  37  40
ATOM     40  C   UNL A   1      36.278  31.287  29.866  1.00  0.00     0.039 A 
ATOM     41  C   UNL A   1      36.308  29.946  30.260  1.00  0.00     0.014 A 
ATOM     42  C   UNL A   1      37.462  31.989  29.623  1.00  0.00     0.014 A 
ATOM     43  C   UNL A   1      37.535  29.298  30.349  1.00  0.00     0.010 A 
ATOM     44  C   UNL A   1      38.676  31.330  29.650  1.00  0.00     0.010 A 
ATOM     45  C   UNL A   1      38.713  29.991  30.028  1.00  0.00    -0.014 A 
BRANCH  45  46
ATOM     46  C   UNL A   1      39.965  29.249  29.926  1.00  0.00     0.031 A 
ATOM     47  C   UNL A   1      40.625  29.013  31.239  1.00  0.00     0.074 A 
ATOM     48  C   UNL A   1      40.419  28.674  28.794  1.00  0.00     0.049 A 
ATOM     49  N   UNL A   1      41.686  29.591  31.699  1.00  0.00    -0.248 NA
ATOM     50  C   UNL A   1      39.938  28.158  32.220  1.00  0.00     0.031 C 
ATOM     51  C   UNL A   1      39.726  28.548  27.510  1.00  0.00     0.029 A 
ATOM     52  N   UNL A   1      41.569  27.970  28.590  1.00  0.00    -0.354 N 
ATOM     53  C   UNL A   1      41.943  28.975  32.920  1.00  0.00     0.074 A 
ATOM     54  C   UNL A   1      40.741  28.270  33.281  1.00  0.00     0.031 C 
ATOM     55  C   UNL A   1      40.363  27.633  26.744  1.00  0.00     0.029 A 
ATOM     56  C   UNL A   1      41.584  27.225  27.412  1.00  0.00     0.049 A 
ATOM     57  H   UNL A   1      42.325  27.988  29.221  1.00  0.00     0.167 HD
ATOM     58  C   UNL A   1      43.213  28.860  33.398  1.00  0.00     0.034 A 
ATOM     59  C   UNL A   1      42.522  26.314  27.050  1.00  0.00     0.034 A 
ATOM     60  C   UNL A   1      44.126  29.713  32.684  1.00  0.00     0.049 A 
ATOM     61  C   UNL A   1      43.745  26.653  27.810  1.00  0.00     0.074 A 
ATOM     62  C   UNL A   1      44.239  31.069  32.459  1.00  0.00     0.029 A 
ATOM     63  N   UNL A   1      44.895  29.094  31.731  1.00  0.00    -0.354 N 
ATOM     64  N   UNL A   1      44.428  27.750  27.635  1.00  0.00    -0.248 NA
ATOM     65  C   UNL A   1      44.026  25.925  29.036  1.00  0.00     0.031 C 
ATOM     66  C   UNL A   1      44.721  31.181  31.121  1.00  0.00     0.029 A 
ATOM     67  C   UNL A   1      44.934  29.893  30.623  1.00  0.00     0.049 A 
ATOM     68  H   UNL A   1      45.343  28.222  31.828  1.00  0.00     0.167 HD
ATOM     69  C   UNL A   1      44.866  28.082  28.908  1.00  0.00     0.074 A 
ATOM     70  C   UNL A   1      44.718  26.859  29.692  1.00  0.00     0.031 C 
ATOM     71  C   UNL A   1      45.026  29.386  29.271  1.00  0.00     0.034 A 
BRANCH  58  72
ATOM     72  C   UNL A   1      43.720  27.692  34.213  1.00  0.00     0.023 A 
ATOM     73  C   UNL A   1      44.435  27.982  35.397  1.00  0.00     0.012 A 
ATOM     74  C   UNL A   1      43.780  26.362  33.738  1.00  0.00     0.148 A 
ATOM     75  C   UNL A   1      45.190  27.005  36.057  1.00  0.00     0.002 A 
ATOM     76  C   UNL A   1      44.461  25.376  34.442  1.00  0.00     0.091 A 
ATOM     77  F   UNL A   1      43.303  26.065  32.527  1.00  0.00    -0.205 F 
ATOM     78  C   UNL A   1      45.191  25.697  35.588  1.00  0.00     0.022 A 
BRANCH  76  79
ATOM     79  S   UNL A   1      44.459  23.664  33.896  1.00  0.00     0.127 S 
ATOM     80  O   UNL A   1      45.472  23.079  34.769  1.00  0.00    -0.237 OA
ATOM     81  O   UNL A   1      43.082  23.262  34.184  1.00  0.00    -0.237 OA
ATOM     82  O   UNL A   1      44.781  23.710  32.476  1.00  0.00    -0.744 OA
ENDBRANCH  76  79
ENDBRANCH  58  72
BRANCH  59  83
ATOM     83  C   UNL A   1      42.420  25.042  26.286  1.00  0.00     0.023 A 
ATOM     84  C   UNL A   1      43.434  24.729  25.352  1.00  0.00     0.012 A 
ATOM     85  C   UNL A   1      41.549  24.006  26.683  1.00  0.00     0.148 A 
ATOM     86  C   UNL A   1      43.626  23.419  24.896  1.00  0.00     0.002 A 
ATOM     87  C   UNL A   1      41.736  22.706  26.216  1.00  0.00     0.091 A 
ATOM     88  F   UNL A   1      40.600  24.267  27.592  1.00  0.00    -0.205 F 
ATOM     89  C   UNL A   1      42.786  22.404  25.341  1.00  0.00     0.022 A 
BRANCH  87  90
ATOM     90  S   UNL A   1      40.695  21.340  26.752  1.00  0.00     0.127 S 
ATOM     91  O   UNL A   1      39.382  21.734  26.239  1.00  0.00    -0.237 OA
ATOM     92  O   UNL A   1      41.305  20.206  26.065  1.00  0.00    -0.237 OA
ATOM     93  O   UNL A   1      40.786  21.326  28.207  1.00  0.00    -0.744 OA
ENDBRANCH  87  90
ENDBRANCH  59  83
BRANCH  71  94
ATOM     94  C   UNL A   1      45.066  30.425  28.182  1.00  0.00     0.023 A 
ATOM     95  C   UNL A   1      43.901  30.970  27.605  1.00  0.00     0.012 A 
ATOM     96  C   UNL A   1      46.313  31.001  27.886  1.00  0.00     0.148 A 
ATOM     97  C   UNL A   1      43.982  32.076  26.752  1.00  0.00     0.002 A 
ATOM     98  C   UNL A   1      46.385  32.123  27.075  1.00  0.00     0.091 A 
ATOM     99  F   UNL A   1      47.404  30.463  28.452  1.00  0.00    -0.205 F 
ATOM    100  C   UNL A   1      45.222  32.662  26.501  1.00  0.00     0.022 A 
BRANCH  98 101
ATOM    101  S   UNL A   1      47.930  32.994  26.808  1.00  0.00     0.127 S 
ATOM    102  O   UNL A   1      47.566  33.949  25.763  1.00  0.00    -0.237 OA
ATOM    103  O   UNL A   1      48.180  33.589  28.121  1.00  0.00    -0.237 OA
ATOM    104  O   UNL A   1      48.904  31.985  26.412  1.00  0.00    -0.744 OA
ENDBRANCH  98 101
ENDBRANCH  71  94
ENDBRANCH  45  46
ENDBRANCH  37  40
ENDBRANCH  35  36
ENDBRANCH   1  35
TORSDOF 18
ENDMDL
MODEL 2
REMARK VINA RESULT:     -12.5      6.066     12.595
REMARK SMILES CCc1nn2c(nnc3c(=O)n([C@H](C(=O)NCCCCNC(=O)c4ccc(-c5c6nc(c(-c7cccc(S(=O)(=O)[O-])c7F)c7ccc([nH]7)c(-c7cccc(S(=O)(=O)[O-])c7F)c7nc(c(-c8cccc(S(=O)(=O)[O-])c8F)c8ccc5[nH]8)C=C7)C=C6)cc4)C(C)C)ccc32)c1-c1ccc(Cl)cc1
REMARK SMILES IDX 19 1 18 2 17 3 16 4 14 5 15 6 13 8 12 9 3 10 4 11 93 12 5 13
REMARK SMILES IDX 6 14 92 15 7 16 9 17 91 18 8 19 10 20 90 21 11 22 2 23 1 24
REMARK SMILES IDX 94 25 95 26 100 27 96 28 99 29 97 30 98 31 87 32 88 33 89 34
REMARK SMILES IDX 20 35 21 36 22 37 23 39 24 40 25 41 86 42 26 43 85 44 27 45
REMARK SMILES IDX 28 46 29 47 79 48 30 49 84 50 78 51 80 52 31 53 83 54 77 55
REMARK SMILES IDX 76 56 32 58 64 59 44 60 63 61 45 62 48 63 62 64 81 65 46 66
REMARK SMILES IDX 47 67 61 69 82 70 49 71 33 72 34 73 42 74 35 75 37 76 43 77
REMARK SMILES IDX 36 78 38 79 39 80 40 81 41 82 65 83 66 84 74 85 67 86 69 87
REMARK SMILES IDX 75 88 68 89 70 90 71 91 72 92 73 93 50 94 51 95 59 96 52 97
REMARK SMILES IDX 54 98 60 99 53 100 55 101 56 102 57 103 58 104
REMARK H PARENT 16 7 21 38 80 57 48 68
REMARK Flexibility Score: inf
ROOT
ATOM      1  C   UNL A   1      43.422  23.283  24.589  1.00  0.00     0.023 C 
ENDROOT
BRANCH   1   2
ATOM      2  C   UNL A   1      43.810  24.692  25.061  1.00  0.00     0.023 C 
BRANCH   2   3
ATOM      3  C   UNL A   1      45.318  24.968  25.051  1.00  0.00     0.116 C 
BRANCH   3   4
ATOM      4  N   UNL A   1      45.608  26.382  25.169  1.00  0.00    -0.354 N 
ATOM      5  C   UNL A   1      46.370  27.118  26.018  1.00  0.00     0.243 C 
ATOM      6  O   UNL A   1      46.295  28.345  25.849  1.00  0.00    -0.273 OA
ATOM      7  H   UNL A   1      45.154  26.926  24.486  1.00  0.00     0.163 HD
BRANCH   5   8
ATOM      8  C   UNL A   1      47.377  26.570  27.079  1.00  0.00     0.182 C 
BRANCH   8   9
ATOM      9  N   UNL A   1      46.777  26.258  28.412  1.00  0.00    -0.301 N 
ATOM     10  C   UNL A   1      44.489  23.828  33.755  1.00  0.00     0.073 A 
ATOM     11  N   UNL A   1      44.411  23.971  32.423  1.00  0.00    -0.170 NA
ATOM     12  C   UNL A   1      45.611  24.502  34.296  1.00  0.00     0.052 A 
ATOM     13  N   UNL A   1      45.435  24.814  32.104  1.00  0.00    -0.210 N 
ATOM     14  C   UNL A   1      46.156  25.182  33.231  1.00  0.00     0.186 A 
ATOM     15  C   UNL A   1      45.803  25.330  30.861  1.00  0.00     0.102 A 
ATOM     16  N   UNL A   1      47.185  26.071  33.137  1.00  0.00    -0.129 NA
ATOM     17  C   UNL A   1      46.798  26.235  30.878  1.00  0.00     0.177 A 
ATOM     18  C   UNL A   1      45.217  24.905  29.609  1.00  0.00     0.049 A 
ATOM     19  N   UNL A   1      47.454  26.608  32.034  1.00  0.00    -0.141 NA
ATOM     20  C   UNL A   1      47.281  26.828  29.590  1.00  0.00     0.281 A 
ATOM     21  C   UNL A   1      45.734  25.336  28.451  1.00  0.00     0.092 A 
ATOM     22  O   UNL A   1      48.135  27.709  29.636  1.00  0.00    -0.267 OA
BRANCH  10  23
ATOM     23  C   UNL A   1      43.411  23.109  34.501  1.00  0.00     0.055 C 
ATOM     24  C   UNL A   1      42.476  24.024  35.269  1.00  0.00     0.011 C 
ENDBRANCH  10  23
BRANCH  12  25
ATOM     25  C   UNL A   1      46.116  24.614  35.647  1.00  0.00    -0.013 A 
ATOM     26  C   UNL A   1      45.669  25.648  36.479  1.00  0.00     0.010 A 
ATOM     27  C   UNL A   1      47.018  23.666  36.147  1.00  0.00     0.010 A 
ATOM     28  C   UNL A   1      46.126  25.734  37.797  1.00  0.00     0.021 A 
ATOM     29  C   UNL A   1      47.476  23.753  37.463  1.00  0.00     0.021 A 
ATOM     30  C   UNL A   1      47.031  24.789  38.281  1.00  0.00     0.041 A 
ATOM     31  Cl  UNL A   1      47.604  24.902  39.899  1.00  0.00    -0.084 Cl
ENDBRANCH  12  25
ENDBRANCH   8   9
BRANCH   8  32
ATOM     32  C   UNL A   1      48.346  25.492  26.488  1.00  0.00     0.015 C 
ATOM     33  C   UNL A   1      49.131  25.977  25.260  1.00  0.00     0.010 C 
ATOM     34  C   UNL A   1      49.374  25.035  27.538  1.00  0.00     0.010 C 
ENDBRANCH   8  32
ENDBRANCH   5   8
ENDBRANCH   3   4
ENDBRANCH   2   3
ENDBRANCH   1   2
BRANCH   1  35
ATOM     35  C   UNL A   1      43.206  22.276  25.719  1.00  0.00     0.116 C 
BRANCH  35  36
ATOM     36  N   UNL A   1      41.815  21.857  25.822  1.00  0.00    -0.352 N 
ATOM     37  C   UNL A   1      40.825  22.398  26.613  1.00  0.00     0.251 C 
ATOM     38  H   UNL A   1      41.551  21.095  25.259  1.00  0.00     0.163 HD
ATOM     39  O   UNL A   1      39.851  21.725  26.919  1.00  0.00    -0.269 OA
BRANCH  37  40
ATOM     40  C   UNL A   1      40.951  23.792  27.084  1.00  0.00     0.039 A 
ATOM     41  C   UNL A   1      40.266  24.809  26.413  1.00  0.00     0.014 A 
ATOM     42  C   UNL A   1      41.782  24.084  28.170  1.00  0.00     0.014 A 
ATOM     43  C   UNL A   1      40.372  26.114  26.879  1.00  0.00     0.010 A 
ATOM     44  C   UNL A   1      41.839  25.369  28.672  1.00  0.00     0.010 A 
ATOM     45  C   UNL A   1      41.148  26.385  28.018  1.00  0.00    -0.014 A 
BRANCH  45  46
ATOM     46  C   UNL A   1      41.088  27.715  28.615  1.00  0.00     0.031 A 
ATOM     47  C   UNL A   1      42.090  28.663  28.059  1.00  0.00     0.074 A 
ATOM     48  C   UNL A   1      40.124  28.123  29.465  1.00  0.00     0.049 A 
ATOM     49  N   UNL A   1      43.164  29.096  28.632  1.00  0.00    -0.248 NA
ATOM     50  C   UNL A   1      41.971  29.049  26.644  1.00  0.00     0.031 C 
ATOM     51  C   UNL A   1      38.904  27.411  29.851  1.00  0.00     0.029 A 
ATOM     52  N   UNL A   1      39.979  29.331  30.081  1.00  0.00    -0.354 N 
ATOM     53  C   UNL A   1      43.715  30.013  27.742  1.00  0.00     0.074 A 
ATOM     54  C   UNL A   1      43.071  29.787  26.475  1.00  0.00     0.031 C 
ATOM     55  C   UNL A   1      38.048  28.274  30.445  1.00  0.00     0.029 A 
ATOM     56  C   UNL A   1      38.713  29.551  30.621  1.00  0.00     0.049 A 
ATOM     57  H   UNL A   1      40.707  29.991  30.141  1.00  0.00     0.167 HD
ATOM     58  C   UNL A   1      44.449  31.071  28.186  1.00  0.00     0.034 A 
ATOM     59  C   UNL A   1      38.250  30.719  31.133  1.00  0.00     0.034 A 
ATOM     60  C   UNL A   1      44.835  30.908  29.563  1.00  0.00     0.049 A 
ATOM     61  C   UNL A   1      39.443  31.504  31.520  1.00  0.00     0.074 A 
ATOM     62  C   UNL A   1      45.567  29.986  30.280  1.00  0.00     0.029 A 
ATOM     63  N   UNL A   1      44.084  31.606  30.475  1.00  0.00    -0.354 N 
ATOM     64  N   UNL A   1      40.263  31.158  32.472  1.00  0.00    -0.248 NA
ATOM     65  C   UNL A   1      39.936  32.517  30.602  1.00  0.00     0.031 C 
ATOM     66  C   UNL A   1      44.901  29.884  31.537  1.00  0.00     0.029 A 
ATOM     67  C   UNL A   1      43.837  30.790  31.543  1.00  0.00     0.049 A 
ATOM     68  H   UNL A   1      43.777  32.537  30.378  1.00  0.00     0.167 HD
ATOM     69  C   UNL A   1      41.507  31.554  32.008  1.00  0.00     0.074 A 
ATOM     70  C   UNL A   1      41.228  32.506  30.937  1.00  0.00     0.031 C 
ATOM     71  C   UNL A   1      42.628  30.852  32.337  1.00  0.00     0.034 A 
BRANCH  58  72
ATOM     72  C   UNL A   1      44.473  32.433  27.530  1.00  0.00     0.023 A 
ATOM     73  C   UNL A   1      45.570  32.739  26.696  1.00  0.00     0.012 A 
ATOM     74  C   UNL A   1      43.639  33.509  27.913  1.00  0.00     0.148 A 
ATOM     75  C   UNL A   1      45.838  34.051  26.285  1.00  0.00     0.002 A 
ATOM     76  C   UNL A   1      43.859  34.795  27.435  1.00  0.00     0.091 A 
ATOM     77  F   UNL A   1      42.712  33.332  28.857  1.00  0.00    -0.205 F 
ATOM     78  C   UNL A   1      44.973  35.078  26.642  1.00  0.00     0.022 A 
BRANCH  76  79
ATOM     79  S   UNL A   1      42.747  36.148  27.838  1.00  0.00     0.127 S 
ATOM     80  O   UNL A   1      43.422  36.749  28.984  1.00  0.00    -0.237 OA
ATOM     81  O   UNL A   1      42.785  36.940  26.608  1.00  0.00    -0.237 OA
ATOM     82  O   UNL A   1      41.458  35.523  28.103  1.00  0.00    -0.744 OA
ENDBRANCH  76  79
ENDBRANCH  58  72
BRANCH  59  83
ATOM     83  C   UNL A   1      36.896  31.334  31.126  1.00  0.00     0.023 A 
ATOM     84  C   UNL A   1      36.403  31.906  32.321  1.00  0.00     0.012 A 
ATOM     85  C   UNL A   1      36.232  31.653  29.922  1.00  0.00     0.148 A 
ATOM     86  C   UNL A   1      35.348  32.826  32.308  1.00  0.00     0.002 A 
ATOM     87  C   UNL A   1      35.173  32.559  29.916  1.00  0.00     0.091 A 
ATOM     88  F   UNL A   1      36.697  31.149  28.771  1.00  0.00    -0.205 F 
ATOM     89  C   UNL A   1      34.743  33.165  31.103  1.00  0.00     0.022 A 
BRANCH  87  90
ATOM     90  S   UNL A   1      34.347  33.050  28.397  1.00  0.00     0.127 S 
ATOM     91  O   UNL A   1      33.399  34.058  28.874  1.00  0.00    -0.237 OA
ATOM     92  O   UNL A   1      35.454  33.579  27.606  1.00  0.00    -0.237 OA
ATOM     93  O   UNL A   1      33.720  31.839  27.882  1.00  0.00    -0.744 OA
ENDBRANCH  87  90
ENDBRANCH  59  83
BRANCH  71  94
ATOM     94  C   UNL A   1      42.544  29.875  33.480  1.00  0.00     0.023 A 
ATOM     95  C   UNL A   1      42.128  28.539  33.312  1.00  0.00     0.012 A 
ATOM     96  C   UNL A   1      43.092  30.274  34.710  1.00  0.00     0.148 A 
ATOM     97  C   UNL A   1      42.264  27.617  34.354  1.00  0.00     0.002 A 
ATOM     98  C   UNL A   1      43.266  29.347  35.727  1.00  0.00     0.091 A 
ATOM     99  F   UNL A   1      43.482  31.551  34.840  1.00  0.00    -0.205 F 
ATOM    100  C   UNL A   1      42.848  28.017  35.555  1.00  0.00     0.022 A 
BRANCH  98 101
ATOM    101  S   UNL A   1      44.116  29.766  37.248  1.00  0.00     0.127 S 
ATOM    102  O   UNL A   1      44.123  28.489  37.958  1.00  0.00    -0.237 OA
ATOM    103  O   UNL A   1      45.425  30.203  36.761  1.00  0.00    -0.237 OA
ATOM    104  O   UNL A   1      43.330  30.820  37.878  1.00  0.00    -0.744 OA
ENDBRANCH  98 101
ENDBRANCH  71  94
ENDBRANCH  45  46
ENDBRANCH  37  40
ENDBRANCH  35  36
ENDBRANCH   1  35
TORSDOF 18
ENDMDL
MODEL 3
REMARK VINA RESULT:     -12.3      5.567      9.939
REMARK SMILES CCc1nn2c(nnc3c(=O)n([C@H](C(=O)NCCCCNC(=O)c4ccc(-c5c6nc(c(-c7cccc(S(=O)(=O)[O-])c7F)c7ccc([nH]7)c(-c7cccc(S(=O)(=O)[O-])c7F)c7nc(c(-c8cccc(S(=O)(=O)[O-])c8F)c8ccc5[nH]8)C=C7)C=C6)cc4)C(C)C)ccc32)c1-c1ccc(Cl)cc1
REMARK SMILES IDX 19 1 18 2 17 3 16 4 14 5 15 6 13 8 12 9 3 10 4 11 93 12 5 13
REMARK SMILES IDX 6 14 92 15 7 16 9 17 91 18 8 19 10 20 90 21 11 22 2 23 1 24
REMARK SMILES IDX 94 25 95 26 100 27 96 28 99 29 97 30 98 31 87 32 88 33 89 34
REMARK SMILES IDX 20 35 21 36 22 37 23 39 24 40 25 41 86 42 26 43 85 44 27 45
REMARK SMILES IDX 28 46 29 47 79 48 30 49 84 50 78 51 80 52 31 53 83 54 77 55
REMARK SMILES IDX 76 56 32 58 64 59 44 60 63 61 45 62 48 63 62 64 81 65 46 66
REMARK SMILES IDX 47 67 61 69 82 70 49 71 33 72 34 73 42 74 35 75 37 76 43 77
REMARK SMILES IDX 36 78 38 79 39 80 40 81 41 82 65 83 66 84 74 85 67 86 69 87
REMARK SMILES IDX 75 88 68 89 70 90 71 91 72 92 73 93 50 94 51 95 59 96 52 97
REMARK SMILES IDX 54 98 60 99 53 100 55 101 56 102 57 103 58 104
REMARK H PARENT 16 7 21 38 80 57 48 68
REMARK Flexibility Score: inf
ROOT
ATOM      1  C   UNL A   1      34.860  32.631  32.309  1.00  0.00     0.023 C 
ENDROOT
BRANCH   1   2
ATOM      2  C   UNL A   1      36.116  31.946  32.867  1.00  0.00     0.023 C 
BRANCH   2   3
ATOM      3  C   UNL A   1      36.607  32.518  34.202  1.00  0.00     0.116 C 
BRANCH   3   4
ATOM      4  N   UNL A   1      37.560  31.640  34.847  1.00  0.00    -0.354 N 
ATOM      5  C   UNL A   1      38.854  31.778  35.235  1.00  0.00     0.243 C 
ATOM      6  O   UNL A   1      39.372  30.746  35.688  1.00  0.00    -0.273 OA
ATOM      7  H   UNL A   1      37.189  30.751  35.048  1.00  0.00     0.163 HD
BRANCH   5   8
ATOM      8  C   UNL A   1      39.683  33.102  35.258  1.00  0.00     0.182 C 
BRANCH   8   9
ATOM      9  N   UNL A   1      40.401  33.416  33.984  1.00  0.00    -0.301 N 
ATOM     10  C   UNL A   1      42.685  35.649  28.555  1.00  0.00     0.073 A 
ATOM     11  N   UNL A   1      41.679  35.086  29.242  1.00  0.00    -0.170 NA
ATOM     12  C   UNL A   1      43.803  35.923  29.381  1.00  0.00     0.052 A 
ATOM     13  N   UNL A   1      42.174  34.911  30.502  1.00  0.00    -0.210 N 
ATOM     14  C   UNL A   1      43.478  35.378  30.601  1.00  0.00     0.186 A 
ATOM     15  C   UNL A   1      41.568  34.338  31.620  1.00  0.00     0.102 A 
ATOM     16  N   UNL A   1      44.177  35.239  31.762  1.00  0.00    -0.129 NA
ATOM     17  C   UNL A   1      42.355  34.203  32.702  1.00  0.00     0.177 A 
ATOM     18  C   UNL A   1      40.175  33.953  31.670  1.00  0.00     0.049 A 
ATOM     19  N   UNL A   1      43.665  34.637  32.739  1.00  0.00    -0.141 NA
ATOM     20  C   UNL A   1      41.788  33.621  33.960  1.00  0.00     0.281 A 
ATOM     21  C   UNL A   1      39.636  33.555  32.830  1.00  0.00     0.092 A 
ATOM     22  O   UNL A   1      42.543  33.433  34.910  1.00  0.00    -0.267 OA
BRANCH  10  23
ATOM     23  C   UNL A   1      42.579  35.830  27.075  1.00  0.00     0.055 C 
ATOM     24  C   UNL A   1      42.238  37.246  26.649  1.00  0.00     0.011 C 
ENDBRANCH  10  23
BRANCH  12  25
ATOM     25  C   UNL A   1      45.085  36.534  29.104  1.00  0.00    -0.013 A 
ATOM     26  C   UNL A   1      45.310  37.875  29.436  1.00  0.00     0.010 A 
ATOM     27  C   UNL A   1      46.123  35.776  28.546  1.00  0.00     0.010 A 
ATOM     28  C   UNL A   1      46.562  38.454  29.205  1.00  0.00     0.021 A 
ATOM     29  C   UNL A   1      47.372  36.355  28.313  1.00  0.00     0.021 A 
ATOM     30  C   UNL A   1      47.585  37.693  28.641  1.00  0.00     0.041 A 
ATOM     31  Cl  UNL A   1      49.121  38.407  28.344  1.00  0.00    -0.084 Cl
ENDBRANCH  12  25
ENDBRANCH   8   9
BRANCH   8  32
ATOM     32  C   UNL A   1      38.906  34.287  35.923  1.00  0.00     0.015 C 
ATOM     33  C   UNL A   1      38.555  34.041  37.399  1.00  0.00     0.010 C 
ATOM     34  C   UNL A   1      39.720  35.591  35.856  1.00  0.00     0.010 C 
ENDBRANCH   8  32
ENDBRANCH   5   8
ENDBRANCH   3   4
ENDBRANCH   2   3
ENDBRANCH   1   2
BRANCH   1  35
ATOM     35  C   UNL A   1      35.112  33.504  31.080  1.00  0.00     0.116 C 
BRANCH  35  36
ATOM     36  N   UNL A   1      34.472  32.969  29.886  1.00  0.00    -0.352 N 
ATOM     37  C   UNL A   1      35.052  32.240  28.871  1.00  0.00     0.251 C 
ATOM     38  H   UNL A   1      33.509  33.151  29.793  1.00  0.00     0.163 HD
ATOM     39  O   UNL A   1      34.532  32.212  27.764  1.00  0.00    -0.269 OA
BRANCH  37  40
ATOM     40  C   UNL A   1      36.300  31.495  29.132  1.00  0.00     0.039 A 
ATOM     41  C   UNL A   1      36.246  30.114  29.343  1.00  0.00     0.014 A 
ATOM     42  C   UNL A   1      37.515  32.183  29.201  1.00  0.00     0.014 A 
ATOM     43  C   UNL A   1      37.430  29.420  29.564  1.00  0.00     0.010 A 
ATOM     44  C   UNL A   1      38.697  31.487  29.358  1.00  0.00     0.010 A 
ATOM     45  C   UNL A   1      38.653  30.109  29.555  1.00  0.00    -0.014 A 
BRANCH  45  46
ATOM     46  C   UNL A   1      39.896  29.346  29.582  1.00  0.00     0.031 A 
ATOM     47  C   UNL A   1      40.424  29.118  30.954  1.00  0.00     0.074 A 
ATOM     48  C   UNL A   1      40.445  28.747  28.506  1.00  0.00     0.049 A 
ATOM     49  N   UNL A   1      41.446  29.684  31.506  1.00  0.00    -0.248 NA
ATOM     50  C   UNL A   1      39.632  28.288  31.876  1.00  0.00     0.031 C 
ATOM     51  C   UNL A   1      39.875  28.615  27.163  1.00  0.00     0.029 A 
ATOM     52  N   UNL A   1      41.596  28.023  28.421  1.00  0.00    -0.354 N 
ATOM     53  C   UNL A   1      41.575  29.082  32.754  1.00  0.00     0.074 A 
ATOM     54  C   UNL A   1      40.333  28.402  33.007  1.00  0.00     0.031 C 
ATOM     55  C   UNL A   1      40.565  27.679  26.472  1.00  0.00     0.029 A 
ATOM     56  C   UNL A   1      41.711  27.261  27.259  1.00  0.00     0.049 A 
ATOM     57  H   UNL A   1      42.289  28.037  29.120  1.00  0.00     0.167 HD
ATOM     58  C   UNL A   1      42.792  28.953  33.351  1.00  0.00     0.034 A 
ATOM     59  C   UNL A   1      42.662  26.329  26.999  1.00  0.00     0.034 A 
ATOM     60  C   UNL A   1      43.784  29.781  32.717  1.00  0.00     0.049 A 
ATOM     61  C   UNL A   1      43.814  26.659  27.868  1.00  0.00     0.074 A 
ATOM     62  C   UNL A   1      43.942  31.132  32.487  1.00  0.00     0.029 A 
ATOM     63  N   UNL A   1      44.628  29.136  31.849  1.00  0.00    -0.354 N 
ATOM     64  N   UNL A   1      44.529  27.742  27.745  1.00  0.00    -0.248 NA
ATOM     65  C   UNL A   1      43.965  25.944  29.124  1.00  0.00     0.031 C 
ATOM     66  C   UNL A   1      44.550  31.217  31.199  1.00  0.00     0.029 A 
ATOM     67  C   UNL A   1      44.786  29.919  30.740  1.00  0.00     0.049 A 
ATOM     68  H   UNL A   1      45.050  28.258  32.000  1.00  0.00     0.167 HD
ATOM     69  C   UNL A   1      44.850  28.085  29.049  1.00  0.00     0.074 A 
ATOM     70  C   UNL A   1      44.607  26.876  29.831  1.00  0.00     0.031 C 
ATOM     71  C   UNL A   1      44.998  29.391  29.409  1.00  0.00     0.034 A 
BRANCH  58  72
ATOM     72  C   UNL A   1      43.199  27.789  34.226  1.00  0.00     0.023 A 
ATOM     73  C   UNL A   1      43.610  28.075  35.547  1.00  0.00     0.012 A 
ATOM     74  C   UNL A   1      43.470  26.490  33.738  1.00  0.00     0.148 A 
ATOM     75  C   UNL A   1      44.277  27.126  36.331  1.00  0.00     0.002 A 
ATOM     76  C   UNL A   1      44.055  25.524  34.548  1.00  0.00     0.091 A 
ATOM     77  F   UNL A   1      43.297  26.214  32.443  1.00  0.00    -0.205 F 
ATOM     78  C   UNL A   1      44.487  25.844  35.837  1.00  0.00     0.022 A 
BRANCH  76  79
ATOM     79  S   UNL A   1      44.312  23.844  33.967  1.00  0.00     0.127 S 
ATOM     80  O   UNL A   1      45.513  23.461  34.704  1.00  0.00    -0.237 OA
ATOM     81  O   UNL A   1      43.079  23.187  34.402  1.00  0.00    -0.237 OA
ATOM     82  O   UNL A   1      44.450  23.951  32.521  1.00  0.00    -0.744 OA
ENDBRANCH  76  79
ENDBRANCH  58  72
BRANCH  59  83
ATOM     83  C   UNL A   1      42.612  25.049  26.245  1.00  0.00     0.023 A 
ATOM     84  C   UNL A   1      43.627  24.777  25.299  1.00  0.00     0.012 A 
ATOM     85  C   UNL A   1      41.795  23.976  26.660  1.00  0.00     0.148 A 
ATOM     86  C   UNL A   1      43.875  23.474  24.850  1.00  0.00     0.002 A 
ATOM     87  C   UNL A   1      42.037  22.682  26.199  1.00  0.00     0.091 A 
ATOM     88  F   UNL A   1      40.846  24.199  27.578  1.00  0.00    -0.205 F 
ATOM     89  C   UNL A   1      43.090  22.425  25.313  1.00  0.00     0.022 A 
BRANCH  87  90
ATOM     90  S   UNL A   1      41.069  21.273  26.757  1.00  0.00     0.127 S 
ATOM     91  O   UNL A   1      40.810  21.612  28.157  1.00  0.00    -0.237 OA
ATOM     92  O   UNL A   1      39.900  21.344  25.885  1.00  0.00    -0.237 OA
ATOM     93  O   UNL A   1      41.928  20.111  26.575  1.00  0.00    -0.744 OA
ENDBRANCH  87  90
ENDBRANCH  59  83
BRANCH  71  94
ATOM     94  C   UNL A   1      45.159  30.414  28.316  1.00  0.00     0.023 A 
ATOM     95  C   UNL A   1      44.066  31.085  27.732  1.00  0.00     0.012 A 
ATOM     96  C   UNL A   1      46.464  30.843  28.023  1.00  0.00     0.148 A 
ATOM     97  C   UNL A   1      44.274  32.170  26.875  1.00  0.00     0.002 A 
ATOM     98  C   UNL A   1      46.666  31.947  27.207  1.00  0.00     0.091 A 
ATOM     99  F   UNL A   1      47.486  30.188  28.595  1.00  0.00    -0.205 F 
ATOM    100  C   UNL A   1      45.574  32.611  26.627  1.00  0.00     0.022 A 
BRANCH  98 101
ATOM    101  S   UNL A   1      48.300  32.636  26.943  1.00  0.00     0.127 S 
ATOM    102  O   UNL A   1      48.031  33.702  25.980  1.00  0.00    -0.237 OA
ATOM    103  O   UNL A   1      48.661  33.099  28.284  1.00  0.00    -0.237 OA
ATOM    104  O   UNL A   1      49.127  31.545  26.444  1.00  0.00    -0.744 OA
ENDBRANCH  98 101
ENDBRANCH  71  94
ENDBRANCH  45  46
ENDBRANCH  37  40
ENDBRANCH  35  36
ENDBRANCH   1  35
TORSDOF 18
ENDMDL
