MODEL 1
REMARK VINA RESULT:     -13.7      0.000      0.000
REMARK SMILES O=C(NCCCCNC(=O)[C@H]1Cc2c([nH]c3ccccc23)[C@H](c2c[nH]c3ccccc23)[NH2+]1)c1ccc(-c2c3nc(c(-c4cccc(S(=O)(=O)[O-])c4F)c4ccc([nH]4)c(-c4cccc(S(=O)(=O)[O-])c4F)c4nc(c(-c5cccc(S(=O)(=O)[O-])c5F)c5ccc2[nH]5)C=C4)C=C3)cc1
REMARK SMILES IDX 4 1 3 2 1 3 2 4 33 6 34 7 95 8 35 9 94 10 36 11 37 12 38 13
REMARK SMILES IDX 88 14 39 15 93 16 87 17 89 18 40 19 92 20 86 21 85 22 41 24
REMARK SMILES IDX 73 25 53 26 72 27 54 28 57 29 71 30 90 31 55 32 56 33 70 35
REMARK SMILES IDX 91 36 58 37 42 38 43 39 51 40 44 41 46 42 52 43 45 44 47 45
REMARK SMILES IDX 48 46 49 47 50 48 74 49 75 50 83 51 76 52 78 53 84 54 77 55
REMARK SMILES IDX 79 56 80 57 81 58 82 59 59 60 60 61 68 62 61 63 63 64 69 65
REMARK SMILES IDX 62 66 64 67 65 68 66 69 67 70 5 71 6 72 7 73 8 74 9 75 10 77
REMARK SMILES IDX 11 78 12 79 32 80 13 81 22 82 14 85 21 86 15 87 16 88 20 89
REMARK SMILES IDX 17 91 19 92 18 93 23 94 24 95 31 96 25 97 26 98 30 99 27 101
REMARK SMILES IDX 29 102 28 103
REMARK H PARENT 3 5 89 23 57 34 8 76 32 83 32 84 15 90 25 100
REMARK Flexibility Score: inf
ROOT
ATOM      1  C   UNL A   1      33.087  29.331  24.908  1.00  0.00     0.116 C 
ENDROOT
BRANCH   1   2
ATOM      2  N   UNL A   1      32.456  30.441  25.604  1.00  0.00    -0.352 N 
ATOM      3  O   UNL A   1      32.138  31.942  27.252  1.00  0.00    -0.269 OA
ATOM      4  C   UNL A   1      32.873  31.105  26.735  1.00  0.00     0.251 C 
ATOM      5  H   UNL A   1      31.614  30.763  25.211  1.00  0.00     0.163 HD
BRANCH   4   6
ATOM      6  C   UNL A   1      34.181  30.778  27.345  1.00  0.00     0.039 A 
ATOM      7  C   UNL A   1      34.519  29.459  27.658  1.00  0.00     0.014 A 
ATOM      8  C   UNL A   1      35.078  31.813  27.626  1.00  0.00     0.014 A 
ATOM      9  C   UNL A   1      35.674  29.194  28.388  1.00  0.00     0.010 A 
ATOM     10  C   UNL A   1      36.276  31.535  28.291  1.00  0.00     0.010 A 
ATOM     11  C   UNL A   1      36.563  30.231  28.720  1.00  0.00    -0.014 A 
BRANCH  11  12
ATOM     12  C   UNL A   1      37.793  29.920  29.496  1.00  0.00     0.031 A 
ATOM     13  C   UNL A   1      37.982  30.436  30.897  1.00  0.00     0.074 A 
ATOM     14  C   UNL A   1      38.744  29.150  28.930  1.00  0.00     0.049 A 
ATOM     15  N   UNL A   1      38.963  30.206  31.733  1.00  0.00    -0.248 NA
ATOM     16  C   UNL A   1      36.945  31.334  31.431  1.00  0.00     0.031 C 
ATOM     17  C   UNL A   1      38.699  28.627  27.564  1.00  0.00     0.029 A 
ATOM     18  N   UNL A   1      39.925  28.667  29.434  1.00  0.00    -0.354 N 
ATOM     19  C   UNL A   1      38.688  30.960  32.868  1.00  0.00     0.074 A 
ATOM     20  C   UNL A   1      37.449  31.663  32.613  1.00  0.00     0.031 C 
ATOM     21  C   UNL A   1      39.783  27.868  27.348  1.00  0.00     0.029 A 
ATOM     22  C   UNL A   1      40.618  27.880  28.544  1.00  0.00     0.049 A 
ATOM     23  H   UNL A   1      40.245  28.864  30.343  1.00  0.00     0.167 HD
ATOM     24  C   UNL A   1      39.390  31.043  34.024  1.00  0.00     0.034 A 
ATOM     25  C   UNL A   1      41.792  27.232  28.676  1.00  0.00     0.034 A 
ATOM     26  C   UNL A   1      40.593  30.301  34.296  1.00  0.00     0.049 A 
ATOM     27  C   UNL A   1      42.522  27.302  29.987  1.00  0.00     0.074 A 
ATOM     28  C   UNL A   1      41.331  30.259  35.466  1.00  0.00     0.029 A 
ATOM     29  N   UNL A   1      41.235  29.472  33.390  1.00  0.00    -0.354 N 
ATOM     30  N   UNL A   1      42.170  27.906  31.096  1.00  0.00    -0.248 NA
ATOM     31  C   UNL A   1      43.797  26.577  30.076  1.00  0.00     0.031 C 
ATOM     32  C   UNL A   1      42.426  29.412  35.263  1.00  0.00     0.029 A 
ATOM     33  C   UNL A   1      42.363  28.918  33.971  1.00  0.00     0.049 A 
ATOM     34  H   UNL A   1      40.933  29.302  32.469  1.00  0.00     0.167 HD
ATOM     35  C   UNL A   1      43.160  27.608  32.023  1.00  0.00     0.074 A 
ATOM     36  C   UNL A   1      44.117  26.752  31.352  1.00  0.00     0.031 C 
ATOM     37  C   UNL A   1      43.276  28.020  33.310  1.00  0.00     0.034 A 
BRANCH  24  38
ATOM     38  C   UNL A   1      38.850  31.938  35.108  1.00  0.00     0.023 A 
ATOM     39  C   UNL A   1      38.801  33.331  34.899  1.00  0.00     0.012 A 
ATOM     40  C   UNL A   1      38.336  31.403  36.305  1.00  0.00     0.148 A 
ATOM     41  C   UNL A   1      38.275  34.179  35.874  1.00  0.00     0.002 A 
ATOM     42  C   UNL A   1      37.779  32.251  37.257  1.00  0.00     0.091 A 
ATOM     43  F   UNL A   1      38.413  30.078  36.501  1.00  0.00    -0.205 F 
ATOM     44  C   UNL A   1      37.756  33.638  37.047  1.00  0.00     0.022 A 
BRANCH  42  45
ATOM     45  S   UNL A   1      37.023  31.630  38.765  1.00  0.00     0.127 S 
ATOM     46  O   UNL A   1      35.839  32.482  38.875  1.00  0.00    -0.237 OA
ATOM     47  O   UNL A   1      36.737  30.235  38.423  1.00  0.00    -0.237 OA
ATOM     48  O   UNL A   1      38.027  31.799  39.806  1.00  0.00    -0.744 OA
ENDBRANCH  42  45
ENDBRANCH  24  38
BRANCH  25  49
ATOM     49  C   UNL A   1      42.297  26.391  27.556  1.00  0.00     0.023 A 
ATOM     50  C   UNL A   1      42.941  27.011  26.468  1.00  0.00     0.012 A 
ATOM     51  C   UNL A   1      42.202  24.987  27.592  1.00  0.00     0.148 A 
ATOM     52  C   UNL A   1      43.466  26.248  25.426  1.00  0.00     0.002 A 
ATOM     53  C   UNL A   1      42.777  24.230  26.577  1.00  0.00     0.091 A 
ATOM     54  F   UNL A   1      41.571  24.417  28.628  1.00  0.00    -0.205 F 
ATOM     55  C   UNL A   1      43.396  24.858  25.486  1.00  0.00     0.022 A 
BRANCH  53  56
ATOM     56  S   UNL A   1      42.856  22.437  26.648  1.00  0.00     0.127 S 
ATOM     57  O   UNL A   1      42.350  22.062  25.330  1.00  0.00    -0.237 OA
ATOM     58  O   UNL A   1      44.287  22.202  26.849  1.00  0.00    -0.237 OA
ATOM     59  O   UNL A   1      42.024  22.055  27.781  1.00  0.00    -0.744 OA
ENDBRANCH  53  56
ENDBRANCH  25  49
BRANCH  37  60
ATOM     60  C   UNL A   1      44.466  27.531  34.091  1.00  0.00     0.023 A 
ATOM     61  C   UNL A   1      45.650  28.294  34.107  1.00  0.00     0.012 A 
ATOM     62  C   UNL A   1      44.392  26.354  34.861  1.00  0.00     0.148 A 
ATOM     63  C   UNL A   1      46.752  27.878  34.853  1.00  0.00     0.002 A 
ATOM     64  C   UNL A   1      45.479  25.968  35.635  1.00  0.00     0.091 A 
ATOM     65  F   UNL A   1      43.265  25.626  34.814  1.00  0.00    -0.205 F 
ATOM     66  C   UNL A   1      46.663  26.723  35.626  1.00  0.00     0.022 A 
BRANCH  64  67
ATOM     67  S   UNL A   1      45.408  24.541  36.726  1.00  0.00     0.127 S 
ATOM     68  O   UNL A   1      44.307  24.899  37.617  1.00  0.00    -0.237 OA
ATOM     69  O   UNL A   1      45.111  23.448  35.798  1.00  0.00    -0.237 OA
ATOM     70  O   UNL A   1      46.723  24.456  37.345  1.00  0.00    -0.744 OA
ENDBRANCH  64  67
ENDBRANCH  37  60
ENDBRANCH  11  12
ENDBRANCH   4   6
ENDBRANCH   1   2
BRANCH   1  71
ATOM     71  C   UNL A   1      32.190  28.102  24.806  1.00  0.00     0.023 C 
BRANCH  71  72
ATOM     72  C   UNL A   1      32.688  27.001  23.867  1.00  0.00     0.023 C 
BRANCH  72  73
ATOM     73  C   UNL A   1      31.786  25.772  23.778  1.00  0.00     0.116 C 
BRANCH  73  74
ATOM     74  N   UNL A   1      31.116  25.497  25.038  1.00  0.00    -0.351 N 
ATOM     75  C   UNL A   1      31.333  24.490  25.939  1.00  0.00     0.278 C 
ATOM     76  H   UNL A   1      30.400  26.128  25.279  1.00  0.00     0.163 HD
ATOM     77  O   UNL A   1      30.573  24.412  26.906  1.00  0.00    -0.268 OA
BRANCH  75  78
ATOM     78  C   UNL A   1      32.494  23.513  25.700  1.00  0.00     0.277 C 
ATOM     79  C   UNL A   1      33.808  24.184  26.160  1.00  0.00     0.114 C 
ATOM     80  N   UNL A   1      32.251  22.228  26.417  1.00  0.00    -0.324 N 
ATOM     81  C   UNL A   1      34.902  23.177  26.128  1.00  0.00    -0.006 A 
ATOM     82  C   UNL A   1      33.243  21.194  26.102  1.00  0.00     0.264 C 
ATOM     83  H   UNL A   1      31.327  21.881  26.157  1.00  0.00     0.347 HD
ATOM     84  H   UNL A   1      32.321  22.421  27.416  1.00  0.00     0.347 HD
ATOM     85  C   UNL A   1      34.616  21.824  26.109  1.00  0.00     0.083 A 
ATOM     86  C   UNL A   1      36.311  23.336  26.125  1.00  0.00     0.003 A 
ATOM     87  N   UNL A   1      35.810  21.155  26.140  1.00  0.00    -0.353 N 
ATOM     88  C   UNL A   1      36.859  22.051  26.127  1.00  0.00     0.046 A 
ATOM     89  C   UNL A   1      37.178  24.444  26.127  1.00  0.00     0.010 A 
ATOM     90  H   UNL A   1      35.906  20.176  26.168  1.00  0.00     0.166 HD
ATOM     91  C   UNL A   1      38.241  21.824  26.125  1.00  0.00     0.026 A 
ATOM     92  C   UNL A   1      38.561  24.234  26.120  1.00  0.00     0.001 A 
ATOM     93  C   UNL A   1      39.082  22.941  26.119  1.00  0.00     0.002 A 
BRANCH  82  94
ATOM     94  C   UNL A   1      32.942  20.418  24.823  1.00  0.00     0.041 A 
ATOM     95  C   UNL A   1      32.154  20.935  23.798  1.00  0.00     0.093 A 
ATOM     96  C   UNL A   1      33.380  19.116  24.345  1.00  0.00     0.009 A 
ATOM     97  N   UNL A   1      32.023  20.004  22.810  1.00  0.00    -0.361 N 
ATOM     98  C   UNL A   1      32.754  18.885  23.113  1.00  0.00     0.046 A 
ATOM     99  C   UNL A   1      34.241  18.093  24.811  1.00  0.00     0.011 A 
ATOM    100  H   UNL A   1      31.482  20.118  21.997  1.00  0.00     0.166 HD
ATOM    101  C   UNL A   1      32.904  17.703  22.374  1.00  0.00     0.026 A 
ATOM    102  C   UNL A   1      34.405  16.904  24.087  1.00  0.00     0.001 A 
ATOM    103  C   UNL A   1      33.735  16.709  22.888  1.00  0.00     0.002 A 
ENDBRANCH  82  94
ENDBRANCH  75  78
ENDBRANCH  73  74
ENDBRANCH  72  73
ENDBRANCH  71  72
ENDBRANCH   1  71
TORSDOF 15
ENDMDL
MODEL 2
REMARK VINA RESULT:     -13.4      2.783      5.103
REMARK SMILES O=C(NCCCCNC(=O)[C@H]1Cc2c([nH]c3ccccc23)[C@H](c2c[nH]c3ccccc23)[NH2+]1)c1ccc(-c2c3nc(c(-c4cccc(S(=O)(=O)[O-])c4F)c4ccc([nH]4)c(-c4cccc(S(=O)(=O)[O-])c4F)c4nc(c(-c5cccc(S(=O)(=O)[O-])c5F)c5ccc2[nH]5)C=C4)C=C3)cc1
REMARK SMILES IDX 4 1 3 2 1 3 2 4 33 6 34 7 95 8 35 9 94 10 36 11 37 12 38 13
REMARK SMILES IDX 88 14 39 15 93 16 87 17 89 18 40 19 92 20 86 21 85 22 41 24
REMARK SMILES IDX 73 25 53 26 72 27 54 28 57 29 71 30 90 31 55 32 56 33 70 35
REMARK SMILES IDX 91 36 58 37 42 38 43 39 51 40 44 41 46 42 52 43 45 44 47 45
REMARK SMILES IDX 48 46 49 47 50 48 74 49 75 50 83 51 76 52 78 53 84 54 77 55
REMARK SMILES IDX 79 56 80 57 81 58 82 59 59 60 60 61 68 62 61 63 63 64 69 65
REMARK SMILES IDX 62 66 64 67 65 68 66 69 67 70 5 71 6 72 7 73 8 74 9 75 10 77
REMARK SMILES IDX 11 78 12 79 32 80 13 81 22 82 14 85 21 86 15 87 16 88 20 89
REMARK SMILES IDX 17 91 19 92 18 93 23 94 24 95 31 96 25 97 26 98 30 99 27 101
REMARK SMILES IDX 29 102 28 103
REMARK H PARENT 3 5 89 23 57 34 8 76 32 83 32 84 15 90 25 100
REMARK Flexibility Score: inf
ROOT
ATOM      1  C   UNL A   1      33.761  33.495  27.621  1.00  0.00     0.116 C 
ENDROOT
BRANCH   1   2
ATOM      2  N   UNL A   1      33.046  34.365  28.541  1.00  0.00    -0.352 N 
ATOM      3  O   UNL A   1      32.519  35.305  30.518  1.00  0.00    -0.269 OA
ATOM      4  C   UNL A   1      33.314  34.636  29.863  1.00  0.00     0.251 C 
ATOM      5  H   UNL A   1      32.261  34.825  28.165  1.00  0.00     0.163 HD
BRANCH   4   6
ATOM      6  C   UNL A   1      34.532  34.087  30.499  1.00  0.00     0.039 A 
ATOM      7  C   UNL A   1      35.797  34.583  30.176  1.00  0.00     0.014 A 
ATOM      8  C   UNL A   1      34.406  33.044  31.421  1.00  0.00     0.014 A 
ATOM      9  C   UNL A   1      36.936  33.938  30.652  1.00  0.00     0.010 A 
ATOM     10  C   UNL A   1      35.552  32.447  31.959  1.00  0.00     0.010 A 
ATOM     11  C   UNL A   1      36.827  32.857  31.542  1.00  0.00    -0.014 A 
BRANCH  11  12
ATOM     12  C   UNL A   1      38.059  32.190  32.039  1.00  0.00     0.031 A 
ATOM     13  C   UNL A   1      38.657  32.552  33.372  1.00  0.00     0.074 A 
ATOM     14  C   UNL A   1      38.634  31.235  31.282  1.00  0.00     0.049 A 
ATOM     15  N   UNL A   1      39.689  32.023  33.981  1.00  0.00    -0.248 NA
ATOM     16  C   UNL A   1      38.028  33.654  34.117  1.00  0.00     0.031 C 
ATOM     17  C   UNL A   1      38.177  30.827  29.953  1.00  0.00     0.029 A 
ATOM     18  N   UNL A   1      39.720  30.431  31.523  1.00  0.00    -0.354 N 
ATOM     19  C   UNL A   1      39.860  32.751  35.152  1.00  0.00     0.074 A 
ATOM     20  C   UNL A   1      38.830  33.767  35.168  1.00  0.00     0.031 C 
ATOM     21  C   UNL A   1      38.952  29.827  29.509  1.00  0.00     0.029 A 
ATOM     22  C   UNL A   1      39.983  29.546  30.503  1.00  0.00     0.049 A 
ATOM     23  H   UNL A   1      40.257  30.482  32.345  1.00  0.00     0.167 HD
ATOM     24  C   UNL A   1      40.777  32.577  36.135  1.00  0.00     0.034 A 
ATOM     25  C   UNL A   1      40.941  28.609  30.381  1.00  0.00     0.034 A 
ATOM     26  C   UNL A   1      41.766  31.532  36.144  1.00  0.00     0.049 A 
ATOM     27  C   UNL A   1      41.913  28.405  31.509  1.00  0.00     0.074 A 
ATOM     28  C   UNL A   1      42.686  31.228  37.132  1.00  0.00     0.029 A 
ATOM     29  N   UNL A   1      41.967  30.622  35.118  1.00  0.00    -0.354 N 
ATOM     30  N   UNL A   1      41.966  29.011  32.671  1.00  0.00    -0.248 NA
ATOM     31  C   UNL A   1      42.938  27.368  31.323  1.00  0.00     0.031 C 
ATOM     32  C   UNL A   1      43.451  30.138  36.698  1.00  0.00     0.029 A 
ATOM     33  C   UNL A   1      42.999  29.758  35.445  1.00  0.00     0.049 A 
ATOM     34  H   UNL A   1      41.451  30.593  34.280  1.00  0.00     0.167 HD
ATOM     35  C   UNL A   1      43.006  28.408  33.366  1.00  0.00     0.074 A 
ATOM     36  C   UNL A   1      43.543  27.376  32.504  1.00  0.00     0.031 C 
ATOM     37  C   UNL A   1      43.486  28.696  34.602  1.00  0.00     0.034 A 
BRANCH  24  38
ATOM     38  C   UNL A   1      40.727  33.514  37.314  1.00  0.00     0.023 A 
ATOM     39  C   UNL A   1      41.530  34.672  37.315  1.00  0.00     0.012 A 
ATOM     40  C   UNL A   1      39.845  33.285  38.389  1.00  0.00     0.148 A 
ATOM     41  C   UNL A   1      41.477  35.572  38.380  1.00  0.00     0.002 A 
ATOM     42  C   UNL A   1      39.771  34.205  39.428  1.00  0.00     0.091 A 
ATOM     43  F   UNL A   1      39.106  32.165  38.385  1.00  0.00    -0.205 F 
ATOM     44  C   UNL A   1      40.592  35.344  39.429  1.00  0.00     0.022 A 
BRANCH  42  45
ATOM     45  S   UNL A   1      38.605  34.025  40.784  1.00  0.00     0.127 S 
ATOM     46  O   UNL A   1      37.405  33.568  40.084  1.00  0.00    -0.237 OA
ATOM     47  O   UNL A   1      39.246  33.007  41.618  1.00  0.00    -0.237 OA
ATOM     48  O   UNL A   1      38.517  35.340  41.403  1.00  0.00    -0.744 OA
ENDBRANCH  42  45
ENDBRANCH  24  38
BRANCH  25  49
ATOM     49  C   UNL A   1      40.966  27.736  29.175  1.00  0.00     0.023 A 
ATOM     50  C   UNL A   1      40.050  26.671  29.080  1.00  0.00     0.012 A 
ATOM     51  C   UNL A   1      41.841  27.989  28.102  1.00  0.00     0.148 A 
ATOM     52  C   UNL A   1      40.016  25.863  27.943  1.00  0.00     0.002 A 
ATOM     53  C   UNL A   1      41.764  27.215  26.950  1.00  0.00     0.091 A 
ATOM     54  F   UNL A   1      42.718  28.997  28.219  1.00  0.00    -0.205 F 
ATOM     55  C   UNL A   1      40.863  26.142  26.874  1.00  0.00     0.022 A 
BRANCH  53  56
ATOM     56  S   UNL A   1      42.718  27.594  25.476  1.00  0.00     0.127 S 
ATOM     57  O   UNL A   1      42.467  26.420  24.645  1.00  0.00    -0.237 OA
ATOM     58  O   UNL A   1      42.081  28.828  25.010  1.00  0.00    -0.237 OA
ATOM     59  O   UNL A   1      44.090  27.768  25.934  1.00  0.00    -0.744 OA
ENDBRANCH  53  56
ENDBRANCH  25  49
BRANCH  37  60
ATOM     60  C   UNL A   1      44.633  27.867  35.112  1.00  0.00     0.023 A 
ATOM     61  C   UNL A   1      45.948  28.359  35.005  1.00  0.00     0.012 A 
ATOM     62  C   UNL A   1      44.405  26.635  35.755  1.00  0.00     0.148 A 
ATOM     63  C   UNL A   1      47.023  27.623  35.504  1.00  0.00     0.002 A 
ATOM     64  C   UNL A   1      45.476  25.928  36.288  1.00  0.00     0.091 A 
ATOM     65  F   UNL A   1      43.148  26.170  35.826  1.00  0.00    -0.205 F 
ATOM     66  C   UNL A   1      46.787  26.414  36.155  1.00  0.00     0.022 A 
BRANCH  64  67
ATOM     67  S   UNL A   1      45.241  24.408  37.218  1.00  0.00     0.127 S 
ATOM     68  O   UNL A   1      44.489  23.589  36.270  1.00  0.00    -0.237 OA
ATOM     69  O   UNL A   1      46.616  23.962  37.450  1.00  0.00    -0.237 OA
ATOM     70  O   UNL A   1      44.528  24.796  38.427  1.00  0.00    -0.744 OA
ENDBRANCH  64  67
ENDBRANCH  37  60
ENDBRANCH  11  12
ENDBRANCH   4   6
ENDBRANCH   1   2
BRANCH   1  71
ATOM     71  C   UNL A   1      33.536  32.013  27.903  1.00  0.00     0.023 C 
BRANCH  71  72
ATOM     72  C   UNL A   1      34.722  31.098  27.591  1.00  0.00     0.023 C 
BRANCH  72  73
ATOM     73  C   UNL A   1      34.348  29.676  27.175  1.00  0.00     0.116 C 
BRANCH  73  74
ATOM     74  N   UNL A   1      33.242  29.154  27.959  1.00  0.00    -0.351 N 
ATOM     75  C   UNL A   1      32.245  28.292  27.593  1.00  0.00     0.278 C 
ATOM     76  H   UNL A   1      33.205  29.467  28.892  1.00  0.00     0.163 HD
ATOM     77  O   UNL A   1      31.358  28.057  28.416  1.00  0.00    -0.268 OA
BRANCH  75  78
ATOM     78  C   UNL A   1      32.273  27.671  26.188  1.00  0.00     0.277 C 
ATOM     79  C   UNL A   1      33.213  26.444  26.209  1.00  0.00     0.114 C 
ATOM     80  N   UNL A   1      30.896  27.303  25.751  1.00  0.00    -0.324 N 
ATOM     81  C   UNL A   1      33.087  25.717  24.916  1.00  0.00    -0.006 A 
ATOM     82  C   UNL A   1      30.833  26.854  24.356  1.00  0.00     0.264 C 
ATOM     83  H   UNL A   1      30.294  28.121  25.856  1.00  0.00     0.347 HD
ATOM     84  H   UNL A   1      30.591  26.525  26.334  1.00  0.00     0.347 HD
ATOM     85  C   UNL A   1      31.991  25.919  24.097  1.00  0.00     0.083 A 
ATOM     86  C   UNL A   1      33.935  24.762  24.301  1.00  0.00     0.003 A 
ATOM     87  N   UNL A   1      32.125  25.079  23.024  1.00  0.00    -0.353 N 
ATOM     88  C   UNL A   1      33.311  24.381  23.111  1.00  0.00     0.046 A 
ATOM     89  C   UNL A   1      35.169  24.178  24.639  1.00  0.00     0.010 A 
ATOM     90  H   UNL A   1      31.470  24.989  22.296  1.00  0.00     0.166 HD
ATOM     91  C   UNL A   1      33.873  23.441  22.237  1.00  0.00     0.026 A 
ATOM     92  C   UNL A   1      35.745  23.240  23.775  1.00  0.00     0.001 A 
ATOM     93  C   UNL A   1      35.103  22.880  22.591  1.00  0.00     0.002 A 
BRANCH  82  94
ATOM     94  C   UNL A   1      30.739  27.992  23.343  1.00  0.00     0.041 A 
ATOM     95  C   UNL A   1      31.845  28.470  22.645  1.00  0.00     0.093 A 
ATOM     96  C   UNL A   1      29.612  28.760  22.839  1.00  0.00     0.009 A 
ATOM     97  N   UNL A   1      31.467  29.512  21.851  1.00  0.00    -0.361 N 
ATOM     98  C   UNL A   1      30.115  29.716  21.948  1.00  0.00     0.046 A 
ATOM     99  C   UNL A   1      28.209  28.760  23.032  1.00  0.00     0.011 A 
ATOM    100  H   UNL A   1      32.076  30.042  21.290  1.00  0.00     0.166 HD
ATOM    101  C   UNL A   1      29.319  30.671  21.300  1.00  0.00     0.026 A 
ATOM    102  C   UNL A   1      27.395  29.707  22.393  1.00  0.00     0.001 A 
ATOM    103  C   UNL A   1      27.947  30.656  21.545  1.00  0.00     0.002 A 
ENDBRANCH  82  94
ENDBRANCH  75  78
ENDBRANCH  73  74
ENDBRANCH  72  73
ENDBRANCH  71  72
ENDBRANCH   1  71
TORSDOF 15
ENDMDL
MODEL 3
REMARK VINA RESULT:     -13.3      5.106     10.416
REMARK SMILES O=C(NCCCCNC(=O)[C@H]1Cc2c([nH]c3ccccc23)[C@H](c2c[nH]c3ccccc23)[NH2+]1)c1ccc(-c2c3nc(c(-c4cccc(S(=O)(=O)[O-])c4F)c4ccc([nH]4)c(-c4cccc(S(=O)(=O)[O-])c4F)c4nc(c(-c5cccc(S(=O)(=O)[O-])c5F)c5ccc2[nH]5)C=C4)C=C3)cc1
REMARK SMILES IDX 4 1 3 2 1 3 2 4 33 6 34 7 95 8 35 9 94 10 36 11 37 12 38 13
REMARK SMILES IDX 88 14 39 15 93 16 87 17 89 18 40 19 92 20 86 21 85 22 41 24
REMARK SMILES IDX 73 25 53 26 72 27 54 28 57 29 71 30 90 31 55 32 56 33 70 35
REMARK SMILES IDX 91 36 58 37 42 38 43 39 51 40 44 41 46 42 52 43 45 44 47 45
REMARK SMILES IDX 48 46 49 47 50 48 74 49 75 50 83 51 76 52 78 53 84 54 77 55
REMARK SMILES IDX 79 56 80 57 81 58 82 59 59 60 60 61 68 62 61 63 63 64 69 65
REMARK SMILES IDX 62 66 64 67 65 68 66 69 67 70 5 71 6 72 7 73 8 74 9 75 10 77
REMARK SMILES IDX 11 78 12 79 32 80 13 81 22 82 14 85 21 86 15 87 16 88 20 89
REMARK SMILES IDX 17 91 19 92 18 93 23 94 24 95 31 96 25 97 26 98 30 99 27 101
REMARK SMILES IDX 29 102 28 103
REMARK H PARENT 3 5 89 23 57 34 8 76 32 83 32 84 15 90 25 100
REMARK Flexibility Score: inf
ROOT
ATOM      1  C   UNL A   1      36.062  22.489  25.772  1.00  0.00     0.116 C 
ENDROOT
BRANCH   1   2
ATOM      2  N   UNL A   1      37.043  21.426  25.619  1.00  0.00    -0.352 N 
ATOM      3  O   UNL A   1      39.090  20.490  25.535  1.00  0.00    -0.269 OA
ATOM      4  C   UNL A   1      38.400  21.460  25.842  1.00  0.00     0.251 C 
ATOM      5  H   UNL A   1      36.686  20.561  25.315  1.00  0.00     0.163 HD
BRANCH   4   6
ATOM      6  C   UNL A   1      39.027  22.676  26.407  1.00  0.00     0.039 A 
ATOM      7  C   UNL A   1      38.529  23.946  26.109  1.00  0.00     0.014 A 
ATOM      8  C   UNL A   1      40.146  22.541  27.234  1.00  0.00     0.014 A 
ATOM      9  C   UNL A   1      39.236  25.078  26.507  1.00  0.00     0.010 A 
ATOM     10  C   UNL A   1      40.810  23.681  27.698  1.00  0.00     0.010 A 
ATOM     11  C   UNL A   1      40.390  24.959  27.299  1.00  0.00    -0.014 A 
BRANCH  11  12
ATOM     12  C   UNL A   1      41.123  26.184  27.715  1.00  0.00     0.031 A 
ATOM     13  C   UNL A   1      42.528  26.448  27.246  1.00  0.00     0.074 A 
ATOM     14  C   UNL A   1      40.504  27.075  28.514  1.00  0.00     0.049 A 
ATOM     15  N   UNL A   1      43.284  27.495  27.462  1.00  0.00    -0.248 NA
ATOM     16  C   UNL A   1      43.177  25.403  26.438  1.00  0.00     0.031 C 
ATOM     17  C   UNL A   1      39.161  26.911  29.073  1.00  0.00     0.029 A 
ATOM     18  N   UNL A   1      40.916  28.294  28.989  1.00  0.00    -0.354 N 
ATOM     19  C   UNL A   1      44.506  27.219  26.860  1.00  0.00     0.074 A 
ATOM     20  C   UNL A   1      44.395  25.901  26.273  1.00  0.00     0.031 C 
ATOM     21  C   UNL A   1      38.845  28.003  29.785  1.00  0.00     0.029 A 
ATOM     22  C   UNL A   1      39.974  28.927  29.766  1.00  0.00     0.049 A 
ATOM     23  H   UNL A   1      41.800  28.678  28.793  1.00  0.00     0.167 HD
ATOM     24  C   UNL A   1      45.612  27.999  26.784  1.00  0.00     0.034 A 
ATOM     25  C   UNL A   1      40.009  30.121  30.388  1.00  0.00     0.034 A 
ATOM     26  C   UNL A   1      45.701  29.332  27.320  1.00  0.00     0.049 A 
ATOM     27  C   UNL A   1      41.229  30.986  30.243  1.00  0.00     0.074 A 
ATOM     28  C   UNL A   1      46.751  30.228  27.224  1.00  0.00     0.029 A 
ATOM     29  N   UNL A   1      44.706  29.959  28.054  1.00  0.00    -0.354 N 
ATOM     30  N   UNL A   1      42.319  30.764  29.548  1.00  0.00    -0.248 NA
ATOM     31  C   UNL A   1      41.213  32.278  30.943  1.00  0.00     0.031 C 
ATOM     32  C   UNL A   1      46.394  31.396  27.909  1.00  0.00     0.029 A 
ATOM     33  C   UNL A   1      45.118  31.229  28.422  1.00  0.00     0.049 A 
ATOM     34  H   UNL A   1      43.835  29.561  28.279  1.00  0.00     0.167 HD
ATOM     35  C   UNL A   1      43.103  31.901  29.700  1.00  0.00     0.074 A 
ATOM     36  C   UNL A   1      42.355  32.817  30.536  1.00  0.00     0.031 C 
ATOM     37  C   UNL A   1      44.340  32.154  29.205  1.00  0.00     0.034 A 
BRANCH  24  38
ATOM     38  C   UNL A   1      46.808  27.449  26.051  1.00  0.00     0.023 A 
ATOM     39  C   UNL A   1      46.933  27.668  24.664  1.00  0.00     0.012 A 
ATOM     40  C   UNL A   1      47.836  26.773  26.737  1.00  0.00     0.148 A 
ATOM     41  C   UNL A   1      48.046  27.199  23.968  1.00  0.00     0.002 A 
ATOM     42  C   UNL A   1      48.960  26.341  26.043  1.00  0.00     0.091 A 
ATOM     43  F   UNL A   1      47.690  26.550  28.052  1.00  0.00    -0.205 F 
ATOM     44  C   UNL A   1      49.063  26.545  24.658  1.00  0.00     0.022 A 
BRANCH  42  45
ATOM     45  S   UNL A   1      50.349  25.554  26.869  1.00  0.00     0.127 S 
ATOM     46  O   UNL A   1      50.741  26.582  27.833  1.00  0.00    -0.237 OA
ATOM     47  O   UNL A   1      49.733  24.367  27.464  1.00  0.00    -0.237 OA
ATOM     48  O   UNL A   1      51.317  25.265  25.819  1.00  0.00    -0.744 OA
ENDBRANCH  42  45
ENDBRANCH  24  38
BRANCH  25  49
ATOM     49  C   UNL A   1      38.810  30.598  31.131  1.00  0.00     0.023 A 
ATOM     50  C   UNL A   1      38.649  30.234  32.482  1.00  0.00     0.012 A 
ATOM     51  C   UNL A   1      37.868  31.456  30.532  1.00  0.00     0.148 A 
ATOM     52  C   UNL A   1      37.562  30.702  33.219  1.00  0.00     0.002 A 
ATOM     53  C   UNL A   1      36.817  31.963  31.288  1.00  0.00     0.091 A 
ATOM     54  F   UNL A   1      38.030  31.778  29.241  1.00  0.00    -0.205 F 
ATOM     55  C   UNL A   1      36.654  31.576  32.626  1.00  0.00     0.022 A 
BRANCH  53  56
ATOM     56  S   UNL A   1      35.687  33.202  30.645  1.00  0.00     0.127 S 
ATOM     57  O   UNL A   1      34.399  32.524  30.765  1.00  0.00    -0.237 OA
ATOM     58  O   UNL A   1      35.888  34.313  31.578  1.00  0.00    -0.237 OA
ATOM     59  O   UNL A   1      36.139  33.475  29.287  1.00  0.00    -0.744 OA
ENDBRANCH  53  56
ENDBRANCH  25  49
BRANCH  37  60
ATOM     60  C   UNL A   1      44.957  33.488  29.529  1.00  0.00     0.023 A 
ATOM     61  C   UNL A   1      45.729  33.632  30.699  1.00  0.00     0.012 A 
ATOM     62  C   UNL A   1      44.829  34.579  28.647  1.00  0.00     0.148 A 
ATOM     63  C   UNL A   1      46.340  34.849  31.000  1.00  0.00     0.002 A 
ATOM     64  C   UNL A   1      45.475  35.775  28.933  1.00  0.00     0.091 A 
ATOM     65  F   UNL A   1      44.069  34.432  27.551  1.00  0.00    -0.205 F 
ATOM     66  C   UNL A   1      46.223  35.916  30.113  1.00  0.00     0.022 A 
BRANCH  64  67
ATOM     67  S   UNL A   1      45.444  37.165  27.794  1.00  0.00     0.127 S 
ATOM     68  O   UNL A   1      46.074  36.594  26.606  1.00  0.00    -0.237 OA
ATOM     69  O   UNL A   1      44.011  37.430  27.656  1.00  0.00    -0.237 OA
ATOM     70  O   UNL A   1      46.187  38.229  28.456  1.00  0.00    -0.744 OA
ENDBRANCH  64  67
ENDBRANCH  37  60
ENDBRANCH  11  12
ENDBRANCH   4   6
ENDBRANCH   1   2
BRANCH   1  71
ATOM     71  C   UNL A   1      35.023  22.508  24.657  1.00  0.00     0.023 C 
BRANCH  71  72
ATOM     72  C   UNL A   1      33.564  22.546  25.119  1.00  0.00     0.023 C 
BRANCH  72  73
ATOM     73  C   UNL A   1      32.704  23.618  24.452  1.00  0.00     0.116 C 
BRANCH  73  74
ATOM     74  N   UNL A   1      33.146  23.903  23.097  1.00  0.00    -0.351 N 
ATOM     75  C   UNL A   1      33.172  25.093  22.422  1.00  0.00     0.278 C 
ATOM     76  H   UNL A   1      33.474  23.126  22.591  1.00  0.00     0.163 HD
ATOM     77  O   UNL A   1      33.512  25.073  21.237  1.00  0.00    -0.268 OA
BRANCH  75  78
ATOM     78  C   UNL A   1      32.772  26.379  23.160  1.00  0.00     0.277 C 
ATOM     79  C   UNL A   1      33.886  26.737  24.170  1.00  0.00     0.114 C 
ATOM     80  N   UNL A   1      32.531  27.486  22.191  1.00  0.00    -0.324 N 
ATOM     81  C   UNL A   1      33.610  28.084  24.738  1.00  0.00    -0.006 A 
ATOM     82  C   UNL A   1      31.991  28.697  22.817  1.00  0.00     0.264 C 
ATOM     83  H   UNL A   1      31.867  27.161  21.487  1.00  0.00     0.347 HD
ATOM     84  H   UNL A   1      33.432  27.732  21.783  1.00  0.00     0.347 HD
ATOM     85  C   UNL A   1      32.749  28.957  24.098  1.00  0.00     0.083 A 
ATOM     86  C   UNL A   1      34.104  28.719  25.905  1.00  0.00     0.003 A 
ATOM     87  N   UNL A   1      32.741  30.121  24.818  1.00  0.00    -0.353 N 
ATOM     88  C   UNL A   1      33.539  29.996  25.936  1.00  0.00     0.046 A 
ATOM     89  C   UNL A   1      34.981  28.338  26.938  1.00  0.00     0.010 A 
ATOM     90  H   UNL A   1      32.238  30.930  24.573  1.00  0.00     0.166 HD
ATOM     91  C   UNL A   1      33.810  30.912  26.961  1.00  0.00     0.026 A 
ATOM     92  C   UNL A   1      35.258  29.241  27.970  1.00  0.00     0.001 A 
ATOM     93  C   UNL A   1      34.679  30.508  27.979  1.00  0.00     0.002 A 
BRANCH  82  94
ATOM     94  C   UNL A   1      30.477  28.673  23.007  1.00  0.00     0.041 A 
ATOM     95  C   UNL A   1      29.745  27.489  23.062  1.00  0.00     0.093 A 
ATOM     96  C   UNL A   1      29.502  29.731  23.215  1.00  0.00     0.009 A 
ATOM     97  N   UNL A   1      28.419  27.779  23.191  1.00  0.00    -0.361 N 
ATOM     98  C   UNL A   1      28.237  29.134  23.283  1.00  0.00     0.046 A 
ATOM     99  C   UNL A   1      29.538  31.140  23.357  1.00  0.00     0.011 A 
ATOM    100  H   UNL A   1      27.696  27.112  23.213  1.00  0.00     0.166 HD
ATOM    101  C   UNL A   1      27.043  29.855  23.432  1.00  0.00     0.026 A 
ATOM    102  C   UNL A   1      28.356  31.879  23.506  1.00  0.00     0.001 A 
ATOM    103  C   UNL A   1      27.123  31.242  23.533  1.00  0.00     0.002 A 
ENDBRANCH  82  94
ENDBRANCH  75  78
ENDBRANCH  73  74
ENDBRANCH  72  73
ENDBRANCH  71  72
ENDBRANCH   1  71
TORSDOF 15
ENDMDL
