MODEL 1
REMARK VINA RESULT:     -12.7      0.000      0.000
REMARK SMILES O=C(NCCCCNC(=O)c1cccn1CC(=O)N1CC[C@H]2CCCC[C@H]2C1)c1ccc(-c2c3nc(c(-c4cccc(S(=O)(=O)[O-])c4F)c4ccc([nH]4)c(-c4cccc(S(=O)(=O)[O-])c4F)c4nc(c(-c5cccc(S(=O)(=O)[O-])c5F)c5ccc2[nH]5)C=C4)C=C3)cc1
REMARK SMILES IDX 5 1 4 2 3 3 1 4 2 5 29 7 30 8 91 9 31 10 90 11 32 12 33 13
REMARK SMILES IDX 34 14 84 15 35 16 89 17 83 18 85 19 36 20 88 21 82 22 81 23
REMARK SMILES IDX 37 25 69 26 49 27 68 28 50 29 53 30 67 31 86 32 51 33 52 34
REMARK SMILES IDX 66 36 87 37 54 38 38 39 39 40 47 41 40 42 42 43 48 44 41 45
REMARK SMILES IDX 43 46 44 47 45 48 46 49 70 50 71 51 79 52 72 53 74 54 80 55
REMARK SMILES IDX 73 56 75 57 76 58 77 59 78 60 55 61 56 62 64 63 57 64 59 65
REMARK SMILES IDX 65 66 58 67 60 68 61 69 62 70 63 71 6 72 7 73 8 74 9 75
REMARK SMILES IDX 10 77 11 78 12 79 15 80 13 81 14 82 16 83 17 84 18 85 19 86
REMARK SMILES IDX 20 87 28 88 21 89 27 90 22 91 26 92 23 93 25 94 24 95
REMARK H PARENT 3 6 85 24 53 35 8 76
REMARK Flexibility Score: inf
ROOT
ATOM      1  C   UNL A   1      33.602  29.081  26.156  1.00  0.00     0.023 C 
ENDROOT
BRANCH   1   2
ATOM      2  C   UNL A   1      34.725  28.838  27.157  1.00  0.00     0.116 C 
BRANCH   2   3
ATOM      3  N   UNL A   1      34.949  29.896  28.121  1.00  0.00    -0.352 N 
ATOM      4  O   UNL A   1      35.951  31.390  29.429  1.00  0.00    -0.269 OA
ATOM      5  C   UNL A   1      36.072  30.363  28.760  1.00  0.00     0.251 C 
ATOM      6  H   UNL A   1      34.127  30.380  28.370  1.00  0.00     0.163 HD
BRANCH   5   7
ATOM      7  C   UNL A   1      37.367  29.636  28.749  1.00  0.00     0.039 A 
ATOM      8  C   UNL A   1      38.322  29.775  27.740  1.00  0.00     0.014 A 
ATOM      9  C   UNL A   1      37.626  28.767  29.822  1.00  0.00     0.014 A 
ATOM     10  C   UNL A   1      39.457  28.970  27.734  1.00  0.00     0.010 A 
ATOM     11  C   UNL A   1      38.783  27.987  29.844  1.00  0.00     0.010 A 
ATOM     12  C   UNL A   1      39.697  28.084  28.792  1.00  0.00    -0.014 A 
BRANCH  12  13
ATOM     13  C   UNL A   1      41.069  27.529  28.890  1.00  0.00     0.031 A 
ATOM     14  C   UNL A   1      41.061  26.049  28.393  1.00  0.00     0.074 A 
ATOM     15  C   UNL A   1      42.033  28.316  29.476  1.00  0.00     0.049 A 
ATOM     16  N   UNL A   1      41.684  25.006  28.857  1.00  0.00    -0.248 NA
ATOM     17  C   UNL A   1      40.107  25.641  27.317  1.00  0.00     0.031 C 
ATOM     18  C   UNL A   1      41.871  29.748  29.828  1.00  0.00     0.029 A 
ATOM     19  N   UNL A   1      43.335  28.099  29.899  1.00  0.00    -0.354 N 
ATOM     20  C   UNL A   1      41.404  23.918  27.983  1.00  0.00     0.074 A 
ATOM     21  C   UNL A   1      40.306  24.328  27.169  1.00  0.00     0.031 C 
ATOM     22  C   UNL A   1      42.964  30.227  30.473  1.00  0.00     0.029 A 
ATOM     23  C   UNL A   1      43.962  29.177  30.593  1.00  0.00     0.049 A 
ATOM     24  H   UNL A   1      43.802  27.250  29.729  1.00  0.00     0.167 HD
ATOM     25  C   UNL A   1      42.213  22.819  27.877  1.00  0.00     0.034 A 
ATOM     26  C   UNL A   1      45.175  29.206  31.244  1.00  0.00     0.034 A 
ATOM     27  C   UNL A   1      43.339  23.010  28.728  1.00  0.00     0.049 A 
ATOM     28  C   UNL A   1      45.815  27.936  30.890  1.00  0.00     0.074 A 
ATOM     29  C   UNL A   1      43.491  22.959  30.085  1.00  0.00     0.029 A 
ATOM     30  N   UNL A   1      44.386  23.693  28.154  1.00  0.00    -0.354 N 
ATOM     31  N   UNL A   1      46.319  27.670  29.722  1.00  0.00    -0.248 NA
ATOM     32  C   UNL A   1      45.809  26.843  31.871  1.00  0.00     0.031 C 
ATOM     33  C   UNL A   1      44.367  24.032  30.330  1.00  0.00     0.029 A 
ATOM     34  C   UNL A   1      44.916  24.492  29.125  1.00  0.00     0.049 A 
ATOM     35  H   UNL A   1      44.694  23.618  27.222  1.00  0.00     0.167 HD
ATOM     36  C   UNL A   1      46.314  26.301  29.731  1.00  0.00     0.074 A 
ATOM     37  C   UNL A   1      46.360  25.896  31.120  1.00  0.00     0.031 C 
ATOM     38  C   UNL A   1      45.692  25.637  28.721  1.00  0.00     0.034 A 
BRANCH  25  39
ATOM     39  C   UNL A   1      42.340  21.649  26.922  1.00  0.00     0.023 A 
ATOM     40  C   UNL A   1      41.529  20.519  27.247  1.00  0.00     0.012 A 
ATOM     41  C   UNL A   1      43.377  21.448  25.999  1.00  0.00     0.148 A 
ATOM     42  C   UNL A   1      41.826  19.229  26.815  1.00  0.00     0.002 A 
ATOM     43  C   UNL A   1      43.638  20.156  25.522  1.00  0.00     0.091 A 
ATOM     44  F   UNL A   1      44.153  22.479  25.650  1.00  0.00    -0.205 F 
ATOM     45  C   UNL A   1      42.898  19.046  25.964  1.00  0.00     0.022 A 
BRANCH  43  46
ATOM     46  S   UNL A   1      44.938  19.784  24.338  1.00  0.00     0.127 S 
ATOM     47  O   UNL A   1      44.575  20.640  23.211  1.00  0.00    -0.237 OA
ATOM     48  O   UNL A   1      46.135  20.217  25.065  1.00  0.00    -0.237 OA
ATOM     49  O   UNL A   1      44.867  18.349  24.110  1.00  0.00    -0.744 OA
ENDBRANCH  43  46
ENDBRANCH  25  39
BRANCH  26  50
ATOM     50  C   UNL A   1      45.964  30.076  32.219  1.00  0.00     0.023 A 
ATOM     51  C   UNL A   1      47.299  30.464  32.047  1.00  0.00     0.012 A 
ATOM     52  C   UNL A   1      45.314  30.630  33.377  1.00  0.00     0.148 A 
ATOM     53  C   UNL A   1      47.902  31.414  32.908  1.00  0.00     0.002 A 
ATOM     54  C   UNL A   1      45.859  31.662  34.134  1.00  0.00     0.091 A 
ATOM     55  F   UNL A   1      44.155  30.119  33.800  1.00  0.00    -0.205 F 
ATOM     56  C   UNL A   1      47.172  32.051  33.914  1.00  0.00     0.022 A 
BRANCH  54  57
ATOM     57  S   UNL A   1      44.861  32.620  35.299  1.00  0.00     0.127 S 
ATOM     58  O   UNL A   1      44.641  31.668  36.386  1.00  0.00    -0.237 OA
ATOM     59  O   UNL A   1      45.768  33.721  35.621  1.00  0.00    -0.237 OA
ATOM     60  O   UNL A   1      43.658  33.022  34.581  1.00  0.00    -0.744 OA
ENDBRANCH  54  57
ENDBRANCH  26  50
BRANCH  38  61
ATOM     61  C   UNL A   1      45.646  26.380  27.383  1.00  0.00     0.023 A 
ATOM     62  C   UNL A   1      44.381  26.825  26.948  1.00  0.00     0.012 A 
ATOM     63  C   UNL A   1      46.730  26.566  26.490  1.00  0.00     0.148 A 
ATOM     64  C   UNL A   1      44.191  27.407  25.690  1.00  0.00     0.002 A 
ATOM     65  C   UNL A   1      46.539  27.128  25.220  1.00  0.00     0.091 A 
ATOM     66  F   UNL A   1      47.946  26.197  26.878  1.00  0.00    -0.205 F 
ATOM     67  C   UNL A   1      45.267  27.554  24.824  1.00  0.00     0.022 A 
BRANCH  65  68
ATOM     68  S   UNL A   1      47.844  27.282  23.977  1.00  0.00     0.127 S 
ATOM     69  O   UNL A   1      48.092  25.886  23.605  1.00  0.00    -0.237 OA
ATOM     70  O   UNL A   1      47.187  28.067  22.934  1.00  0.00    -0.237 OA
ATOM     71  O   UNL A   1      48.973  27.927  24.635  1.00  0.00    -0.744 OA
ENDBRANCH  65  68
ENDBRANCH  38  61
ENDBRANCH  12  13
ENDBRANCH   5   7
ENDBRANCH   2   3
ENDBRANCH   1   2
BRANCH   1  72
ATOM     72  C   UNL A   1      32.226  28.609  26.605  1.00  0.00     0.023 C 
BRANCH  72  73
ATOM     73  C   UNL A   1      31.979  27.101  26.567  1.00  0.00     0.116 C 
BRANCH  73  74
ATOM     74  N   UNL A   1      30.719  26.753  25.932  1.00  0.00    -0.351 N 
ATOM     75  C   UNL A   1      30.439  26.429  24.628  1.00  0.00     0.267 C 
ATOM     76  H   UNL A   1      29.941  26.750  26.536  1.00  0.00     0.163 HD
ATOM     77  O   UNL A   1      29.262  26.279  24.319  1.00  0.00    -0.268 OA
BRANCH  75  78
ATOM     78  C   UNL A   1      31.520  26.294  23.670  1.00  0.00     0.107 A 
ATOM     79  C   UNL A   1      32.325  27.281  23.118  1.00  0.00     0.033 A 
ATOM     80  N   UNL A   1      31.994  25.085  23.174  1.00  0.00    -0.334 N 
ATOM     81  C   UNL A   1      33.297  26.665  22.297  1.00  0.00     0.020 A 
ATOM     82  C   UNL A   1      33.090  25.307  22.375  1.00  0.00     0.087 A 
BRANCH  80  83
ATOM     83  C   UNL A   1      31.437  23.767  23.455  1.00  0.00     0.222 C 
BRANCH  83  84
ATOM     84  C   UNL A   1      31.860  23.060  24.739  1.00  0.00     0.242 C 
ATOM     85  O   UNL A   1      31.076  22.258  25.262  1.00  0.00    -0.273 OA
BRANCH  84  86
ATOM     86  N   UNL A   1      33.177  23.133  25.161  1.00  0.00    -0.341 N 
ATOM     87  C   UNL A   1      33.675  23.930  26.266  1.00  0.00     0.120 C 
ATOM     88  C   UNL A   1      34.208  22.321  24.515  1.00  0.00     0.123 C 
ATOM     89  C   UNL A   1      34.706  24.915  25.759  1.00  0.00     0.025 C 
ATOM     90  C   UNL A   1      35.331  23.239  23.976  1.00  0.00     0.012 C 
ATOM     91  C   UNL A   1      35.869  24.216  25.040  1.00  0.00    -0.005 C 
ATOM     92  C   UNL A   1      36.499  22.474  23.360  1.00  0.00     0.006 C 
ATOM     93  C   UNL A   1      36.823  23.590  26.070  1.00  0.00     0.004 C 
ATOM     94  C   UNL A   1      37.241  21.638  24.390  1.00  0.00     0.000 C 
ATOM     95  C   UNL A   1      37.694  22.422  25.616  1.00  0.00     0.000 C 
ENDBRANCH  84  86
ENDBRANCH  83  84
ENDBRANCH  80  83
ENDBRANCH  75  78
ENDBRANCH  73  74
ENDBRANCH  72  73
ENDBRANCH   1  72
TORSDOF 17
ENDMDL
MODEL 2
REMARK VINA RESULT:     -12.6      1.556      2.059
REMARK SMILES O=C(NCCCCNC(=O)c1cccn1CC(=O)N1CC[C@H]2CCCC[C@H]2C1)c1ccc(-c2c3nc(c(-c4cccc(S(=O)(=O)[O-])c4F)c4ccc([nH]4)c(-c4cccc(S(=O)(=O)[O-])c4F)c4nc(c(-c5cccc(S(=O)(=O)[O-])c5F)c5ccc2[nH]5)C=C4)C=C3)cc1
REMARK SMILES IDX 5 1 4 2 3 3 1 4 2 5 29 7 30 8 91 9 31 10 90 11 32 12 33 13
REMARK SMILES IDX 34 14 84 15 35 16 89 17 83 18 85 19 36 20 88 21 82 22 81 23
REMARK SMILES IDX 37 25 69 26 49 27 68 28 50 29 53 30 67 31 86 32 51 33 52 34
REMARK SMILES IDX 66 36 87 37 54 38 38 39 39 40 47 41 40 42 42 43 48 44 41 45
REMARK SMILES IDX 43 46 44 47 45 48 46 49 70 50 71 51 79 52 72 53 74 54 80 55
REMARK SMILES IDX 73 56 75 57 76 58 77 59 78 60 55 61 56 62 64 63 57 64 59 65
REMARK SMILES IDX 65 66 58 67 60 68 61 69 62 70 63 71 6 72 7 73 8 74 9 75
REMARK SMILES IDX 10 77 11 78 12 79 15 80 13 81 14 82 16 83 17 84 18 85 19 86
REMARK SMILES IDX 20 87 28 88 21 89 27 90 22 91 26 92 23 93 25 94 24 95
REMARK H PARENT 3 6 85 24 53 35 8 76
REMARK Flexibility Score: inf
ROOT
ATOM      1  C   UNL A   1      33.193  28.852  26.537  1.00  0.00     0.023 C 
ENDROOT
BRANCH   1   2
ATOM      2  C   UNL A   1      34.628  29.023  27.020  1.00  0.00     0.116 C 
BRANCH   2   3
ATOM      3  N   UNL A   1      34.835  30.042  28.029  1.00  0.00    -0.352 N 
ATOM      4  O   UNL A   1      35.815  31.473  29.420  1.00  0.00    -0.269 OA
ATOM      5  C   UNL A   1      35.945  30.471  28.717  1.00  0.00     0.251 C 
ATOM      6  H   UNL A   1      34.012  30.526  28.272  1.00  0.00     0.163 HD
BRANCH   5   7
ATOM      7  C   UNL A   1      37.230  29.728  28.717  1.00  0.00     0.039 A 
ATOM      8  C   UNL A   1      38.172  29.814  27.691  1.00  0.00     0.014 A 
ATOM      9  C   UNL A   1      37.495  28.900  29.822  1.00  0.00     0.014 A 
ATOM     10  C   UNL A   1      39.297  28.996  27.701  1.00  0.00     0.010 A 
ATOM     11  C   UNL A   1      38.644  28.107  29.858  1.00  0.00     0.010 A 
ATOM     12  C   UNL A   1      39.543  28.150  28.790  1.00  0.00    -0.014 A 
BRANCH  12  13
ATOM     13  C   UNL A   1      40.910  27.584  28.891  1.00  0.00     0.031 A 
ATOM     14  C   UNL A   1      40.896  26.114  28.365  1.00  0.00     0.074 A 
ATOM     15  C   UNL A   1      41.874  28.352  29.502  1.00  0.00     0.049 A 
ATOM     16  N   UNL A   1      41.506  25.057  28.814  1.00  0.00    -0.248 NA
ATOM     17  C   UNL A   1      39.950  25.734  27.272  1.00  0.00     0.031 C 
ATOM     18  C   UNL A   1      41.718  29.778  29.880  1.00  0.00     0.029 A 
ATOM     19  N   UNL A   1      43.170  28.117  29.933  1.00  0.00    -0.354 N 
ATOM     20  C   UNL A   1      41.227  23.988  27.916  1.00  0.00     0.074 A 
ATOM     21  C   UNL A   1      40.141  24.422  27.100  1.00  0.00     0.031 C 
ATOM     22  C   UNL A   1      42.808  30.236  30.545  1.00  0.00     0.029 A 
ATOM     23  C   UNL A   1      43.797  29.176  30.655  1.00  0.00     0.049 A 
ATOM     24  H   UNL A   1      43.632  27.267  29.751  1.00  0.00     0.167 HD
ATOM     25  C   UNL A   1      42.029  22.886  27.797  1.00  0.00     0.034 A 
ATOM     26  C   UNL A   1      45.005  29.183  31.318  1.00  0.00     0.034 A 
ATOM     27  C   UNL A   1      43.148  23.051  28.662  1.00  0.00     0.049 A 
ATOM     28  C   UNL A   1      45.638  27.915  30.946  1.00  0.00     0.074 A 
ATOM     29  C   UNL A   1      43.286  22.973  30.020  1.00  0.00     0.029 A 
ATOM     30  N   UNL A   1      44.205  23.737  28.112  1.00  0.00    -0.354 N 
ATOM     31  N   UNL A   1      46.152  27.669  29.778  1.00  0.00    -0.248 NA
ATOM     32  C   UNL A   1      45.614  26.804  31.905  1.00  0.00     0.031 C 
ATOM     33  C   UNL A   1      44.167  24.034  30.295  1.00  0.00     0.029 A 
ATOM     34  C   UNL A   1      44.732  24.513  29.105  1.00  0.00     0.049 A 
ATOM     35  H   UNL A   1      44.522  23.678  27.182  1.00  0.00     0.167 HD
ATOM     36  C   UNL A   1      46.137  26.299  29.760  1.00  0.00     0.074 A 
ATOM     37  C   UNL A   1      46.166  25.867  31.141  1.00  0.00     0.031 C 
ATOM     38  C   UNL A   1      45.520  25.660  28.730  1.00  0.00     0.034 A 
BRANCH  25  39
ATOM     39  C   UNL A   1      42.157  21.734  26.821  1.00  0.00     0.023 A 
ATOM     40  C   UNL A   1      41.163  20.717  26.959  1.00  0.00     0.012 A 
ATOM     41  C   UNL A   1      43.296  21.416  26.066  1.00  0.00     0.148 A 
ATOM     42  C   UNL A   1      41.356  19.410  26.519  1.00  0.00     0.002 A 
ATOM     43  C   UNL A   1      43.461  20.113  25.577  1.00  0.00     0.091 A 
ATOM     44  F   UNL A   1      44.246  22.340  25.894  1.00  0.00    -0.205 F 
ATOM     45  C   UNL A   1      42.520  19.104  25.843  1.00  0.00     0.022 A 
BRANCH  43  46
ATOM     46  S   UNL A   1      44.878  19.597  24.599  1.00  0.00     0.127 S 
ATOM     47  O   UNL A   1      45.928  20.482  25.098  1.00  0.00    -0.237 OA
ATOM     48  O   UNL A   1      45.024  18.196  25.002  1.00  0.00    -0.237 OA
ATOM     49  O   UNL A   1      44.486  19.779  23.209  1.00  0.00    -0.744 OA
ENDBRANCH  43  46
ENDBRANCH  25  39
BRANCH  26  50
ATOM     50  C   UNL A   1      45.790  30.027  32.318  1.00  0.00     0.023 A 
ATOM     51  C   UNL A   1      46.102  29.637  33.626  1.00  0.00     0.012 A 
ATOM     52  C   UNL A   1      46.341  31.293  31.913  1.00  0.00     0.148 A 
ATOM     53  C   UNL A   1      46.982  30.403  34.430  1.00  0.00     0.002 A 
ATOM     54  C   UNL A   1      47.311  31.969  32.647  1.00  0.00     0.091 A 
ATOM     55  F   UNL A   1      45.888  31.898  30.812  1.00  0.00    -0.205 F 
ATOM     56  C   UNL A   1      47.626  31.535  33.926  1.00  0.00     0.022 A 
BRANCH  54  57
ATOM     57  S   UNL A   1      48.287  33.312  31.928  1.00  0.00     0.127 S 
ATOM     58  O   UNL A   1      49.197  33.661  33.017  1.00  0.00    -0.237 OA
ATOM     59  O   UNL A   1      48.918  32.637  30.794  1.00  0.00    -0.237 OA
ATOM     60  O   UNL A   1      47.343  34.359  31.557  1.00  0.00    -0.744 OA
ENDBRANCH  54  57
ENDBRANCH  26  50
BRANCH  38  61
ATOM     61  C   UNL A   1      45.493  26.429  27.407  1.00  0.00     0.023 A 
ATOM     62  C   UNL A   1      44.242  26.927  26.989  1.00  0.00     0.012 A 
ATOM     63  C   UNL A   1      46.577  26.594  26.511  1.00  0.00     0.148 A 
ATOM     64  C   UNL A   1      44.066  27.539  25.743  1.00  0.00     0.002 A 
ATOM     65  C   UNL A   1      46.399  27.186  25.252  1.00  0.00     0.091 A 
ATOM     66  F   UNL A   1      47.782  26.174  26.884  1.00  0.00    -0.205 F 
ATOM     67  C   UNL A   1      45.141  27.665  24.873  1.00  0.00     0.022 A 
BRANCH  65  68
ATOM     68  S   UNL A   1      47.702  27.316  24.004  1.00  0.00     0.127 S 
ATOM     69  O   UNL A   1      48.790  27.956  24.748  1.00  0.00    -0.237 OA
ATOM     70  O   UNL A   1      47.952  25.916  23.671  1.00  0.00    -0.237 OA
ATOM     71  O   UNL A   1      47.163  28.134  22.924  1.00  0.00    -0.744 OA
ENDBRANCH  65  68
ENDBRANCH  38  61
ENDBRANCH  12  13
ENDBRANCH   5   7
ENDBRANCH   2   3
ENDBRANCH   1   2
BRANCH   1  72
ATOM     72  C   UNL A   1      32.896  29.461  25.174  1.00  0.00     0.023 C 
BRANCH  72  73
ATOM     73  C   UNL A   1      31.420  29.592  24.796  1.00  0.00     0.116 C 
BRANCH  73  74
ATOM     74  N   UNL A   1      31.110  28.977  23.517  1.00  0.00    -0.351 N 
ATOM     75  C   UNL A   1      30.907  27.659  23.188  1.00  0.00     0.267 C 
ATOM     76  H   UNL A   1      31.033  29.608  22.764  1.00  0.00     0.163 HD
ATOM     77  O   UNL A   1      30.765  27.384  22.002  1.00  0.00    -0.268 OA
BRANCH  75  78
ATOM     78  C   UNL A   1      30.886  26.651  24.231  1.00  0.00     0.107 A 
ATOM     79  C   UNL A   1      29.816  26.209  24.997  1.00  0.00     0.033 A 
ATOM     80  N   UNL A   1      31.978  25.876  24.606  1.00  0.00    -0.334 N 
ATOM     81  C   UNL A   1      30.259  25.155  25.827  1.00  0.00     0.020 A 
ATOM     82  C   UNL A   1      31.589  24.948  25.543  1.00  0.00     0.087 A 
BRANCH  80  83
ATOM     83  C   UNL A   1      33.335  26.000  24.089  1.00  0.00     0.222 C 
BRANCH  83  84
ATOM     84  C   UNL A   1      33.810  24.992  23.048  1.00  0.00     0.242 C 
ATOM     85  O   UNL A   1      33.929  25.361  21.873  1.00  0.00    -0.273 OA
BRANCH  84  86
ATOM     86  N   UNL A   1      34.326  23.774  23.458  1.00  0.00    -0.341 N 
ATOM     87  C   UNL A   1      33.632  22.501  23.428  1.00  0.00     0.120 C 
ATOM     88  C   UNL A   1      35.708  23.674  23.927  1.00  0.00     0.123 C 
ATOM     89  C   UNL A   1      33.542  21.937  24.830  1.00  0.00     0.025 C 
ATOM     90  C   UNL A   1      35.730  23.083  25.357  1.00  0.00     0.012 C 
ATOM     91  C   UNL A   1      34.926  21.773  25.477  1.00  0.00    -0.005 C 
ATOM     92  C   UNL A   1      37.139  22.858  25.900  1.00  0.00     0.006 C 
ATOM     93  C   UNL A   1      35.627  20.529  24.910  1.00  0.00     0.004 C 
ATOM     94  C   UNL A   1      37.895  21.803  25.109  1.00  0.00     0.000 C 
ATOM     95  C   UNL A   1      37.151  20.480  24.970  1.00  0.00     0.000 C 
ENDBRANCH  84  86
ENDBRANCH  83  84
ENDBRANCH  80  83
ENDBRANCH  75  78
ENDBRANCH  73  74
ENDBRANCH  72  73
ENDBRANCH   1  72
TORSDOF 17
ENDMDL
MODEL 3
REMARK VINA RESULT:     -11.6      2.745      8.703
REMARK SMILES O=C(NCCCCNC(=O)c1cccn1CC(=O)N1CC[C@H]2CCCC[C@H]2C1)c1ccc(-c2c3nc(c(-c4cccc(S(=O)(=O)[O-])c4F)c4ccc([nH]4)c(-c4cccc(S(=O)(=O)[O-])c4F)c4nc(c(-c5cccc(S(=O)(=O)[O-])c5F)c5ccc2[nH]5)C=C4)C=C3)cc1
REMARK SMILES IDX 5 1 4 2 3 3 1 4 2 5 29 7 30 8 91 9 31 10 90 11 32 12 33 13
REMARK SMILES IDX 34 14 84 15 35 16 89 17 83 18 85 19 36 20 88 21 82 22 81 23
REMARK SMILES IDX 37 25 69 26 49 27 68 28 50 29 53 30 67 31 86 32 51 33 52 34
REMARK SMILES IDX 66 36 87 37 54 38 38 39 39 40 47 41 40 42 42 43 48 44 41 45
REMARK SMILES IDX 43 46 44 47 45 48 46 49 70 50 71 51 79 52 72 53 74 54 80 55
REMARK SMILES IDX 73 56 75 57 76 58 77 59 78 60 55 61 56 62 64 63 57 64 59 65
REMARK SMILES IDX 65 66 58 67 60 68 61 69 62 70 63 71 6 72 7 73 8 74 9 75
REMARK SMILES IDX 10 77 11 78 12 79 15 80 13 81 14 82 16 83 17 84 18 85 19 86
REMARK SMILES IDX 20 87 28 88 21 89 27 90 22 91 26 92 23 93 25 94 24 95
REMARK H PARENT 3 6 85 24 53 35 8 76
REMARK Flexibility Score: inf
ROOT
ATOM      1  C   UNL A   1      39.034  20.889  25.362  1.00  0.00     0.023 C 
ENDROOT
BRANCH   1   2
ATOM      2  C   UNL A   1      39.270  19.581  26.105  1.00  0.00     0.116 C 
BRANCH   2   3
ATOM      3  N   UNL A   1      40.497  18.884  25.780  1.00  0.00    -0.352 N 
ATOM      4  O   UNL A   1      42.644  18.314  25.680  1.00  0.00    -0.269 OA
ATOM      5  C   UNL A   1      41.826  19.198  25.935  1.00  0.00     0.251 C 
ATOM      6  H   UNL A   1      40.349  18.005  25.360  1.00  0.00     0.163 HD
BRANCH   5   7
ATOM      7  C   UNL A   1      42.296  20.560  26.295  1.00  0.00     0.039 A 
ATOM      8  C   UNL A   1      42.692  21.513  25.357  1.00  0.00     0.014 A 
ATOM      9  C   UNL A   1      42.335  20.886  27.661  1.00  0.00     0.014 A 
ATOM     10  C   UNL A   1      43.236  22.724  25.773  1.00  0.00     0.010 A 
ATOM     11  C   UNL A   1      42.840  22.117  28.085  1.00  0.00     0.010 A 
ATOM     12  C   UNL A   1      43.300  23.034  27.138  1.00  0.00    -0.014 A 
BRANCH  12  13
ATOM     13  C   UNL A   1      43.560  24.454  27.481  1.00  0.00     0.031 A 
ATOM     14  C   UNL A   1      42.199  25.182  27.716  1.00  0.00     0.074 A 
ATOM     15  C   UNL A   1      44.861  24.895  27.421  1.00  0.00     0.049 A 
ATOM     16  N   UNL A   1      41.818  26.376  27.372  1.00  0.00    -0.248 NA
ATOM     17  C   UNL A   1      41.046  24.418  28.283  1.00  0.00     0.031 C 
ATOM     18  C   UNL A   1      46.052  24.027  27.248  1.00  0.00     0.029 A 
ATOM     19  N   UNL A   1      45.466  26.141  27.490  1.00  0.00    -0.354 N 
ATOM     20  C   UNL A   1      40.514  26.579  27.907  1.00  0.00     0.074 A 
ATOM     21  C   UNL A   1      40.037  25.294  28.301  1.00  0.00     0.031 C 
ATOM     22  C   UNL A   1      47.188  24.760  27.138  1.00  0.00     0.029 A 
ATOM     23  C   UNL A   1      46.872  26.174  27.247  1.00  0.00     0.049 A 
ATOM     24  H   UNL A   1      44.954  26.955  27.696  1.00  0.00     0.167 HD
ATOM     25  C   UNL A   1      39.991  27.821  28.146  1.00  0.00     0.034 A 
ATOM     26  C   UNL A   1      47.706  27.262  27.111  1.00  0.00     0.034 A 
ATOM     27  C   UNL A   1      40.979  28.793  27.817  1.00  0.00     0.049 A 
ATOM     28  C   UNL A   1      46.880  28.412  27.488  1.00  0.00     0.074 A 
ATOM     29  C   UNL A   1      41.461  29.253  26.624  1.00  0.00     0.029 A 
ATOM     30  N   UNL A   1      41.854  29.092  28.835  1.00  0.00    -0.354 N 
ATOM     31  N   UNL A   1      46.527  28.692  28.707  1.00  0.00    -0.248 NA
ATOM     32  C   UNL A   1      46.320  29.259  26.428  1.00  0.00     0.031 C 
ATOM     33  C   UNL A   1      42.837  29.383  26.885  1.00  0.00     0.029 A 
ATOM     34  C   UNL A   1      43.079  29.274  28.262  1.00  0.00     0.049 A 
ATOM     35  H   UNL A   1      41.637  29.163  29.792  1.00  0.00     0.167 HD
ATOM     36  C   UNL A   1      45.424  29.475  28.496  1.00  0.00     0.074 A 
ATOM     37  C   UNL A   1      45.580  30.063  27.183  1.00  0.00     0.031 C 
ATOM     38  C   UNL A   1      44.249  29.134  29.091  1.00  0.00     0.034 A 
BRANCH  25  39
ATOM     39  C   UNL A   1      38.795  28.372  28.896  1.00  0.00     0.023 A 
ATOM     40  C   UNL A   1      37.869  29.107  28.093  1.00  0.00     0.012 A 
ATOM     41  C   UNL A   1      38.692  28.519  30.287  1.00  0.00     0.148 A 
ATOM     42  C   UNL A   1      37.002  30.058  28.622  1.00  0.00     0.002 A 
ATOM     43  C   UNL A   1      37.776  29.438  30.820  1.00  0.00     0.091 A 
ATOM     44  F   UNL A   1      39.524  27.839  31.081  1.00  0.00    -0.205 F 
ATOM     45  C   UNL A   1      36.971  30.237  29.991  1.00  0.00     0.022 A 
BRANCH  43  46
ATOM     46  S   UNL A   1      37.559  29.705  32.584  1.00  0.00     0.127 S 
ATOM     47  O   UNL A   1      37.312  28.349  33.067  1.00  0.00    -0.237 OA
ATOM     48  O   UNL A   1      38.863  30.255  32.964  1.00  0.00    -0.237 OA
ATOM     49  O   UNL A   1      36.456  30.647  32.708  1.00  0.00    -0.744 OA
ENDBRANCH  43  46
ENDBRANCH  25  39
BRANCH  26  50
ATOM     50  C   UNL A   1      49.117  27.607  26.642  1.00  0.00     0.023 A 
ATOM     51  C   UNL A   1      50.238  27.701  27.476  1.00  0.00     0.012 A 
ATOM     52  C   UNL A   1      49.386  27.782  25.239  1.00  0.00     0.148 A 
ATOM     53  C   UNL A   1      51.540  27.854  26.939  1.00  0.00     0.002 A 
ATOM     54  C   UNL A   1      50.671  27.791  24.707  1.00  0.00     0.091 A 
ATOM     55  F   UNL A   1      48.379  27.997  24.388  1.00  0.00    -0.205 F 
ATOM     56  C   UNL A   1      51.763  27.845  25.560  1.00  0.00     0.022 A 
BRANCH  54  57
ATOM     57  S   UNL A   1      50.971  27.581  22.935  1.00  0.00     0.127 S 
ATOM     58  O   UNL A   1      49.891  26.681  22.535  1.00  0.00    -0.237 OA
ATOM     59  O   UNL A   1      50.836  28.955  22.453  1.00  0.00    -0.237 OA
ATOM     60  O   UNL A   1      52.313  27.027  22.805  1.00  0.00    -0.744 OA
ENDBRANCH  54  57
ENDBRANCH  26  50
BRANCH  38  61
ATOM     61  C   UNL A   1      44.384  28.364  30.407  1.00  0.00     0.023 A 
ATOM     62  C   UNL A   1      44.116  26.981  30.362  1.00  0.00     0.012 A 
ATOM     63  C   UNL A   1      44.643  28.924  31.683  1.00  0.00     0.148 A 
ATOM     64  C   UNL A   1      44.086  26.194  31.518  1.00  0.00     0.002 A 
ATOM     65  C   UNL A   1      44.592  28.142  32.845  1.00  0.00     0.091 A 
ATOM     66  F   UNL A   1      44.940  30.217  31.764  1.00  0.00    -0.205 F 
ATOM     67  C   UNL A   1      44.318  26.773  32.759  1.00  0.00     0.022 A 
BRANCH  65  68
ATOM     68  S   UNL A   1      44.783  28.804  34.517  1.00  0.00     0.127 S 
ATOM     69  O   UNL A   1      45.444  27.701  35.220  1.00  0.00    -0.237 OA
ATOM     70  O   UNL A   1      45.641  29.965  34.293  1.00  0.00    -0.237 OA
ATOM     71  O   UNL A   1      43.441  29.097  35.005  1.00  0.00    -0.744 OA
ENDBRANCH  65  68
ENDBRANCH  38  61
ENDBRANCH  12  13
ENDBRANCH   5   7
ENDBRANCH   2   3
ENDBRANCH   1   2
BRANCH   1  72
ATOM     72  C   UNL A   1      39.038  22.136  26.235  1.00  0.00     0.023 C 
BRANCH  72  73
ATOM     73  C   UNL A   1      37.967  23.183  25.930  1.00  0.00     0.116 C 
BRANCH  73  74
ATOM     74  N   UNL A   1      37.660  23.278  24.512  1.00  0.00    -0.351 N 
ATOM     75  C   UNL A   1      36.577  22.821  23.803  1.00  0.00     0.267 C 
ATOM     76  H   UNL A   1      38.339  23.747  23.974  1.00  0.00     0.163 HD
ATOM     77  O   UNL A   1      36.607  22.935  22.583  1.00  0.00    -0.268 OA
BRANCH  75  78
ATOM     78  C   UNL A   1      35.462  22.213  24.504  1.00  0.00     0.107 A 
ATOM     79  C   UNL A   1      35.229  20.872  24.776  1.00  0.00     0.033 A 
ATOM     80  N   UNL A   1      34.424  22.916  25.105  1.00  0.00    -0.334 N 
ATOM     81  C   UNL A   1      34.054  20.766  25.556  1.00  0.00     0.020 A 
ATOM     82  C   UNL A   1      33.596  22.045  25.772  1.00  0.00     0.087 A 
BRANCH  80  83
ATOM     83  C   UNL A   1      34.231  24.361  25.062  1.00  0.00     0.222 C 
BRANCH  83  84
ATOM     84  C   UNL A   1      33.555  24.966  23.835  1.00  0.00     0.242 C 
ATOM     85  O   UNL A   1      33.388  24.255  22.837  1.00  0.00    -0.273 OA
BRANCH  84  86
ATOM     86  N   UNL A   1      32.929  26.198  23.934  1.00  0.00    -0.341 N 
ATOM     87  C   UNL A   1      33.436  27.356  24.644  1.00  0.00     0.120 C 
ATOM     88  C   UNL A   1      31.664  26.444  23.242  1.00  0.00     0.123 C 
ATOM     89  C   UNL A   1      32.457  27.759  25.726  1.00  0.00     0.025 C 
ATOM     90  C   UNL A   1      30.590  26.887  24.265  1.00  0.00     0.012 C 
ATOM     91  C   UNL A   1      31.059  28.051  25.160  1.00  0.00    -0.005 C 
ATOM     92  C   UNL A   1      29.254  27.253  23.624  1.00  0.00     0.006 C 
ATOM     93  C   UNL A   1      31.043  29.432  24.487  1.00  0.00     0.004 C 
ATOM     94  C   UNL A   1      29.366  28.478  22.731  1.00  0.00     0.000 C 
ATOM     95  C   UNL A   1      29.988  29.690  23.414  1.00  0.00     0.000 C 
ENDBRANCH  84  86
ENDBRANCH  83  84
ENDBRANCH  80  83
ENDBRANCH  75  78
ENDBRANCH  73  74
ENDBRANCH  72  73
ENDBRANCH   1  72
TORSDOF 17
ENDMDL
