MODEL 1
REMARK VINA RESULT:     -10.4      0.000      0.000
REMARK SMILES Cc1ccc(-c2[nH]c3ccccc3c2[C@@H]2c3ccccc3C(=O)N2[C@H](C)C(=O)NCCCCNC(=O)c2ccc(-c3c4nc(c(-c5cccc(S(=O)(=O)[O-])c5F)c5ccc([nH]5)c(-c5cccc(S(=O)(=O)[O-])c5F)c5nc(c(-c6cccc(S(=O)(=O)[O-])c6F)c6ccc3[nH]6)C=C5)C=C4)cc2)cc1
REMARK SMILES IDX 31 1 30 2 29 3 27 4 28 5 25 7 26 8 24 9 15 10 16 11 17 12
REMARK SMILES IDX 21 13 22 14 18 15 20 16 23 17 19 18 14 19 6 20 7 21 8 22
REMARK SMILES IDX 13 24 9 25 12 26 10 27 11 28 5 29 1 30 2 31 3 32 101 33 4 34
REMARK SMILES IDX 100 35 32 36 33 37 34 38 35 39 36 41 37 42 38 43 99 44 39 45
REMARK SMILES IDX 98 46 40 47 41 48 42 49 92 50 43 51 97 52 91 53 93 54 44 55
REMARK SMILES IDX 96 56 90 57 89 58 45 60 77 61 57 62 76 63 58 64 61 65 75 66
REMARK SMILES IDX 94 67 59 68 60 69 74 71 95 72 62 73 46 74 47 75 55 76 48 77
REMARK SMILES IDX 50 78 56 79 49 80 51 81 52 82 53 83 54 84 78 85 79 86 87 87
REMARK SMILES IDX 80 88 82 89 88 90 81 91 83 92 84 93 85 94 86 95 63 96 64 97
REMARK SMILES IDX 72 98 65 99 67 100 73 101 66 102 68 103 69 104 70 105 71 106
REMARK H PARENT 29 6 7 23 34 40 93 59 61 70
REMARK Flexibility Score: inf
ROOT
ATOM      1  C   UNL A   1      43.160  31.778  34.238  1.00  0.00     0.023 C 
ENDROOT
BRANCH   1   2
ATOM      2  C   UNL A   1      42.907  33.243  33.912  1.00  0.00     0.116 C 
BRANCH   2   3
ATOM      3  N   UNL A   1      42.862  33.576  32.522  1.00  0.00    -0.354 N 
ATOM      4  C   UNL A   1      41.937  34.274  31.818  1.00  0.00     0.242 C 
ATOM      5  O   UNL A   1      42.331  34.666  30.708  1.00  0.00    -0.273 OA
ATOM      6  H   UNL A   1      43.623  33.246  31.992  1.00  0.00     0.163 HD
BRANCH   4   7
ATOM      7  C   UNL A   1      40.405  34.304  32.115  1.00  0.00     0.172 C 
ATOM      8  C   UNL A   1      39.804  34.353  30.686  1.00  0.00     0.042 C 
BRANCH   7   9
ATOM      9  N   UNL A   1      39.446  33.568  32.978  1.00  0.00    -0.316 N 
ATOM     10  C   UNL A   1      38.803  32.245  32.830  1.00  0.00     0.151 C 
ATOM     11  C   UNL A   1      38.497  31.881  34.274  1.00  0.00    -0.008 A 
ATOM     12  C   UNL A   1      38.309  30.688  34.953  1.00  0.00     0.007 A 
ATOM     13  C   UNL A   1      38.566  33.030  35.046  1.00  0.00     0.045 A 
ATOM     14  C   UNL A   1      39.352  33.994  34.308  1.00  0.00     0.255 C 
ATOM     15  C   UNL A   1      38.067  30.732  36.346  1.00  0.00     0.000 A 
ATOM     16  C   UNL A   1      38.224  33.134  36.379  1.00  0.00     0.014 A 
ATOM     17  O   UNL A   1      39.909  34.918  34.866  1.00  0.00    -0.269 OA
ATOM     18  C   UNL A   1      37.954  31.951  37.040  1.00  0.00     0.001 A 
BRANCH  10  19
ATOM     19  C   UNL A   1      37.434  32.354  32.157  1.00  0.00     0.013 A 
ATOM     20  C   UNL A   1      37.018  31.638  31.031  1.00  0.00     0.052 A 
ATOM     21  N   UNL A   1      35.850  32.196  30.565  1.00  0.00    -0.354 N 
ATOM     22  C   UNL A   1      35.434  33.204  31.398  1.00  0.00     0.046 A 
ATOM     23  H   UNL A   1      35.379  31.912  29.749  1.00  0.00     0.167 HD
ATOM     24  C   UNL A   1      36.328  33.240  32.471  1.00  0.00     0.006 A 
ATOM     25  C   UNL A   1      34.382  34.123  31.245  1.00  0.00     0.027 A 
ATOM     26  C   UNL A   1      36.045  34.155  33.509  1.00  0.00     0.011 A 
ATOM     27  C   UNL A   1      34.217  35.095  32.235  1.00  0.00     0.002 A 
ATOM     28  C   UNL A   1      35.012  35.087  33.374  1.00  0.00     0.001 A 
BRANCH  20  29
ATOM     29  C   UNL A   1      37.644  30.522  30.346  1.00  0.00    -0.002 A 
ATOM     30  C   UNL A   1      39.547  27.190  28.393  1.00  0.00     0.044 C 
ATOM     31  C   UNL A   1      38.905  28.349  29.099  1.00  0.00    -0.051 A 
ATOM     32  C   UNL A   1      38.151  28.151  30.257  1.00  0.00     0.004 A 
ATOM     33  C   UNL A   1      39.060  29.650  28.607  1.00  0.00     0.004 A 
ATOM     34  C   UNL A   1      37.526  29.233  30.879  1.00  0.00     0.010 A 
ATOM     35  C   UNL A   1      38.395  30.727  29.193  1.00  0.00     0.010 A 
ENDBRANCH  20  29
ENDBRANCH  10  19
ENDBRANCH   7   9
ENDBRANCH   4   7
ENDBRANCH   2   3
ENDBRANCH   1   2
BRANCH   1  36
ATOM     36  C   UNL A   1      43.006  31.228  35.659  1.00  0.00     0.023 C 
BRANCH  36  37
ATOM     37  C   UNL A   1      41.662  30.591  36.009  1.00  0.00     0.116 C 
BRANCH  37  38
ATOM     38  N   UNL A   1      41.761  29.153  36.301  1.00  0.00    -0.352 N 
ATOM     39  C   UNL A   1      41.644  28.051  35.468  1.00  0.00     0.251 C 
ATOM     40  H   UNL A   1      41.940  28.936  37.246  1.00  0.00     0.163 HD
ATOM     41  O   UNL A   1      41.447  26.944  35.958  1.00  0.00    -0.269 OA
BRANCH  39  42
ATOM     42  C   UNL A   1      41.860  28.220  34.019  1.00  0.00     0.039 A 
ATOM     43  C   UNL A   1      40.860  28.247  33.045  1.00  0.00     0.014 A 
ATOM     44  C   UNL A   1      43.187  28.245  33.632  1.00  0.00     0.014 A 
ATOM     45  C   UNL A   1      41.232  28.241  31.695  1.00  0.00     0.010 A 
ATOM     46  C   UNL A   1      43.547  28.548  32.365  1.00  0.00     0.010 A 
ATOM     47  C   UNL A   1      42.584  28.335  31.387  1.00  0.00    -0.014 A 
BRANCH  47  48
ATOM     48  C   UNL A   1      43.216  27.996  30.130  1.00  0.00     0.031 A 
ATOM     49  C   UNL A   1      43.552  26.621  29.804  1.00  0.00     0.074 A 
ATOM     50  C   UNL A   1      43.042  28.947  29.182  1.00  0.00     0.049 A 
ATOM     51  N   UNL A   1      44.132  26.287  28.707  1.00  0.00    -0.248 NA
ATOM     52  C   UNL A   1      43.298  25.506  30.705  1.00  0.00     0.031 C 
ATOM     53  C   UNL A   1      42.799  28.798  27.756  1.00  0.00     0.029 A 
ATOM     54  N   UNL A   1      42.970  30.324  29.379  1.00  0.00    -0.354 N 
ATOM     55  C   UNL A   1      43.991  24.927  28.602  1.00  0.00     0.074 A 
ATOM     56  C   UNL A   1      43.710  24.486  29.946  1.00  0.00     0.031 C 
ATOM     57  C   UNL A   1      42.831  30.021  27.187  1.00  0.00     0.029 A 
ATOM     58  C   UNL A   1      43.337  30.945  28.194  1.00  0.00     0.049 A 
ATOM     59  H   UNL A   1      42.705  30.776  30.212  1.00  0.00     0.167 HD
ATOM     60  C   UNL A   1      43.911  24.388  27.353  1.00  0.00     0.034 A 
ATOM     61  C   UNL A   1      44.562  31.562  28.160  1.00  0.00     0.034 A 
ATOM     62  C   UNL A   1      44.143  25.430  26.320  1.00  0.00     0.049 A 
ATOM     63  C   UNL A   1      45.536  30.883  27.219  1.00  0.00     0.074 A 
ATOM     64  C   UNL A   1      43.352  26.060  25.373  1.00  0.00     0.029 A 
ATOM     65  N   UNL A   1      45.315  26.174  26.372  1.00  0.00    -0.354 N 
ATOM     66  N   UNL A   1      45.293  29.777  26.571  1.00  0.00    -0.248 NA
ATOM     67  C   UNL A   1      46.876  31.388  26.957  1.00  0.00     0.031 C 
ATOM     68  C   UNL A   1      44.071  27.192  24.867  1.00  0.00     0.029 A 
ATOM     69  C   UNL A   1      45.313  27.232  25.479  1.00  0.00     0.049 A 
ATOM     70  H   UNL A   1      46.064  25.971  26.978  1.00  0.00     0.167 HD
ATOM     71  C   UNL A   1      46.432  29.320  25.973  1.00  0.00     0.074 A 
ATOM     72  C   UNL A   1      47.387  30.397  26.204  1.00  0.00     0.031 C 
ATOM     73  C   UNL A   1      46.507  28.075  25.398  1.00  0.00     0.034 A 
BRANCH  60  74
ATOM     74  C   UNL A   1      43.420  22.985  27.011  1.00  0.00     0.023 A 
ATOM     75  C   UNL A   1      42.211  22.571  27.614  1.00  0.00     0.012 A 
ATOM     76  C   UNL A   1      44.054  22.012  26.195  1.00  0.00     0.148 A 
ATOM     77  C   UNL A   1      41.686  21.282  27.453  1.00  0.00     0.002 A 
ATOM     78  C   UNL A   1      43.513  20.737  26.000  1.00  0.00     0.091 A 
ATOM     79  F   UNL A   1      45.225  22.267  25.621  1.00  0.00    -0.205 F 
ATOM     80  C   UNL A   1      42.334  20.363  26.641  1.00  0.00     0.022 A 
BRANCH  78  81
ATOM     81  S   UNL A   1      44.292  19.502  24.936  1.00  0.00     0.127 S 
ATOM     82  O   UNL A   1      44.341  20.197  23.648  1.00  0.00    -0.237 OA
ATOM     83  O   UNL A   1      45.593  19.315  25.575  1.00  0.00    -0.237 OA
ATOM     84  O   UNL A   1      43.430  18.326  24.957  1.00  0.00    -0.744 OA
ENDBRANCH  78  81
ENDBRANCH  60  74
BRANCH  61  85
ATOM     85  C   UNL A   1      44.912  32.204  29.484  1.00  0.00     0.023 A 
ATOM     86  C   UNL A   1      45.397  31.346  30.495  1.00  0.00     0.012 A 
ATOM     87  C   UNL A   1      45.220  33.574  29.589  1.00  0.00     0.148 A 
ATOM     88  C   UNL A   1      46.356  31.766  31.418  1.00  0.00     0.002 A 
ATOM     89  C   UNL A   1      46.124  34.008  30.565  1.00  0.00     0.091 A 
ATOM     90  F   UNL A   1      44.678  34.420  28.703  1.00  0.00    -0.205 F 
ATOM     91  C   UNL A   1      46.756  33.093  31.422  1.00  0.00     0.022 A 
BRANCH  89  92
ATOM     92  S   UNL A   1      46.529  35.744  30.787  1.00  0.00     0.127 S 
ATOM     93  O   UNL A   1      47.495  35.671  31.880  1.00  0.00    -0.237 OA
ATOM     94  O   UNL A   1      47.105  36.119  29.495  1.00  0.00    -0.237 OA
ATOM     95  O   UNL A   1      45.265  36.398  31.089  1.00  0.00    -0.744 OA
ENDBRANCH  89  92
ENDBRANCH  61  85
BRANCH  73  96
ATOM     96  C   UNL A   1      47.772  27.512  24.773  1.00  0.00     0.023 A 
ATOM     97  C   UNL A   1      48.778  26.921  25.559  1.00  0.00     0.012 A 
ATOM     98  C   UNL A   1      48.040  27.613  23.380  1.00  0.00     0.148 A 
ATOM     99  C   UNL A   1      49.908  26.325  24.986  1.00  0.00     0.002 A 
ATOM    100  C   UNL A   1      49.188  27.071  22.818  1.00  0.00     0.091 A 
ATOM    101  F   UNL A   1      47.189  28.248  22.574  1.00  0.00    -0.205 F 
ATOM    102  C   UNL A   1      50.106  26.388  23.614  1.00  0.00     0.022 A 
BRANCH 100 103
ATOM    103  S   UNL A   1      49.584  27.252  21.072  1.00  0.00     0.127 S 
ATOM    104  O   UNL A   1      50.840  26.508  20.982  1.00  0.00    -0.237 OA
ATOM    105  O   UNL A   1      48.439  26.599  20.440  1.00  0.00    -0.237 OA
ATOM    106  O   UNL A   1      49.698  28.680  20.817  1.00  0.00    -0.744 OA
ENDBRANCH 100 103
ENDBRANCH  73  96
ENDBRANCH  47  48
ENDBRANCH  39  42
ENDBRANCH  37  38
ENDBRANCH  36  37
ENDBRANCH   1  36
TORSDOF 17
ENDMDL
MODEL 2
REMARK VINA RESULT:     -10.4      4.434     12.962
REMARK SMILES Cc1ccc(-c2[nH]c3ccccc3c2[C@@H]2c3ccccc3C(=O)N2[C@H](C)C(=O)NCCCCNC(=O)c2ccc(-c3c4nc(c(-c5cccc(S(=O)(=O)[O-])c5F)c5ccc([nH]5)c(-c5cccc(S(=O)(=O)[O-])c5F)c5nc(c(-c6cccc(S(=O)(=O)[O-])c6F)c6ccc3[nH]6)C=C5)C=C4)cc2)cc1
REMARK SMILES IDX 31 1 30 2 29 3 27 4 28 5 25 7 26 8 24 9 15 10 16 11 17 12
REMARK SMILES IDX 21 13 22 14 18 15 20 16 23 17 19 18 14 19 6 20 7 21 8 22
REMARK SMILES IDX 13 24 9 25 12 26 10 27 11 28 5 29 1 30 2 31 3 32 101 33 4 34
REMARK SMILES IDX 100 35 32 36 33 37 34 38 35 39 36 41 37 42 38 43 99 44 39 45
REMARK SMILES IDX 98 46 40 47 41 48 42 49 92 50 43 51 97 52 91 53 93 54 44 55
REMARK SMILES IDX 96 56 90 57 89 58 45 60 77 61 57 62 76 63 58 64 61 65 75 66
REMARK SMILES IDX 94 67 59 68 60 69 74 71 95 72 62 73 46 74 47 75 55 76 48 77
REMARK SMILES IDX 50 78 56 79 49 80 51 81 52 82 53 83 54 84 78 85 79 86 87 87
REMARK SMILES IDX 80 88 82 89 88 90 81 91 83 92 84 93 85 94 86 95 63 96 64 97
REMARK SMILES IDX 72 98 65 99 67 100 73 101 66 102 68 103 69 104 70 105 71 106
REMARK H PARENT 29 6 7 23 34 40 93 59 61 70
REMARK Flexibility Score: inf
ROOT
ATOM      1  C   UNL A   1      40.693  29.168  28.479  1.00  0.00     0.023 C 
ENDROOT
BRANCH   1   2
ATOM      2  C   UNL A   1      42.044  29.673  27.992  1.00  0.00     0.116 C 
BRANCH   2   3
ATOM      3  N   UNL A   1      42.337  29.444  26.611  1.00  0.00    -0.354 N 
ATOM      4  C   UNL A   1      42.153  28.338  25.848  1.00  0.00     0.242 C 
ATOM      5  O   UNL A   1      42.208  28.548  24.625  1.00  0.00    -0.273 OA
ATOM      6  H   UNL A   1      42.736  30.210  26.139  1.00  0.00     0.163 HD
BRANCH   4   7
ATOM      7  C   UNL A   1      42.241  26.864  26.353  1.00  0.00     0.172 C 
ATOM      8  C   UNL A   1      40.798  26.355  26.103  1.00  0.00     0.042 C 
BRANCH   7   9
ATOM      9  N   UNL A   1      43.158  25.708  26.190  1.00  0.00    -0.316 N 
ATOM     10  C   UNL A   1      42.901  24.259  26.046  1.00  0.00     0.151 C 
ATOM     11  C   UNL A   1      44.148  23.788  25.315  1.00  0.00    -0.008 A 
ATOM     12  C   UNL A   1      44.440  22.716  24.489  1.00  0.00     0.007 A 
ATOM     13  C   UNL A   1      45.128  24.760  25.439  1.00  0.00     0.045 A 
ATOM     14  C   UNL A   1      44.461  26.001  25.770  1.00  0.00     0.255 C 
ATOM     15  C   UNL A   1      45.741  22.612  23.945  1.00  0.00     0.000 A 
ATOM     16  C   UNL A   1      46.440  24.648  25.025  1.00  0.00     0.014 A 
ATOM     17  O   UNL A   1      44.982  27.077  25.557  1.00  0.00    -0.269 OA
ATOM     18  C   UNL A   1      46.754  23.534  24.270  1.00  0.00     0.001 A 
BRANCH  10  19
ATOM     19  C   UNL A   1      42.945  23.540  27.396  1.00  0.00     0.013 A 
ATOM     20  C   UNL A   1      42.079  22.525  27.810  1.00  0.00     0.052 A 
ATOM     21  N   UNL A   1      42.254  22.324  29.159  1.00  0.00    -0.354 N 
ATOM     22  C   UNL A   1      43.270  23.113  29.634  1.00  0.00     0.046 A 
ATOM     23  H   UNL A   1      41.725  21.701  29.706  1.00  0.00     0.167 HD
ATOM     24  C   UNL A   1      43.810  23.786  28.535  1.00  0.00     0.006 A 
ATOM     25  C   UNL A   1      43.700  23.332  30.954  1.00  0.00     0.027 A 
ATOM     26  C   UNL A   1      44.938  24.602  28.775  1.00  0.00     0.011 A 
ATOM     27  C   UNL A   1      44.737  24.246  31.159  1.00  0.00     0.002 A 
ATOM     28  C   UNL A   1      45.376  24.844  30.080  1.00  0.00     0.001 A 
BRANCH  20  29
ATOM     29  C   UNL A   1      41.087  21.775  27.060  1.00  0.00    -0.002 A 
ATOM     30  C   UNL A   1      38.080  19.573  24.905  1.00  0.00     0.044 C 
ATOM     31  C   UNL A   1      39.109  20.341  25.683  1.00  0.00    -0.051 A 
ATOM     32  C   UNL A   1      38.896  21.679  26.021  1.00  0.00     0.004 A 
ATOM     33  C   UNL A   1      40.297  19.721  26.087  1.00  0.00     0.004 A 
ATOM     34  C   UNL A   1      39.879  22.391  26.709  1.00  0.00     0.010 A 
ATOM     35  C   UNL A   1      41.304  20.442  26.728  1.00  0.00     0.010 A 
ENDBRANCH  20  29
ENDBRANCH  10  19
ENDBRANCH   7   9
ENDBRANCH   4   7
ENDBRANCH   2   3
ENDBRANCH   1   2
BRANCH   1  36
ATOM     36  C   UNL A   1      39.424  29.312  27.633  1.00  0.00     0.023 C 
BRANCH  36  37
ATOM     37  C   UNL A   1      38.144  28.703  28.204  1.00  0.00     0.116 C 
BRANCH  37  38
ATOM     38  N   UNL A   1      37.040  29.669  28.312  1.00  0.00    -0.352 N 
ATOM     39  C   UNL A   1      36.796  30.661  29.249  1.00  0.00     0.251 C 
ATOM     40  H   UNL A   1      36.362  29.602  27.600  1.00  0.00     0.163 HD
ATOM     41  O   UNL A   1      35.670  31.142  29.337  1.00  0.00    -0.269 OA
BRANCH  39  42
ATOM     42  C   UNL A   1      37.917  31.185  30.050  1.00  0.00     0.039 A 
ATOM     43  C   UNL A   1      38.496  30.551  31.151  1.00  0.00     0.014 A 
ATOM     44  C   UNL A   1      38.324  32.461  29.709  1.00  0.00     0.014 A 
ATOM     45  C   UNL A   1      39.439  31.250  31.915  1.00  0.00     0.010 A 
ATOM     46  C   UNL A   1      39.436  33.014  30.244  1.00  0.00     0.010 A 
ATOM     47  C   UNL A   1      39.846  32.502  31.468  1.00  0.00    -0.014 A 
BRANCH  47  48
ATOM     48  C   UNL A   1      40.507  33.531  32.242  1.00  0.00     0.031 A 
ATOM     49  C   UNL A   1      39.837  34.182  33.354  1.00  0.00     0.074 A 
ATOM     50  C   UNL A   1      41.855  33.486  32.130  1.00  0.00     0.049 A 
ATOM     51  N   UNL A   1      40.386  35.113  34.049  1.00  0.00    -0.248 NA
ATOM     52  C   UNL A   1      38.473  33.867  33.755  1.00  0.00     0.031 C 
ATOM     53  C   UNL A   1      42.876  33.712  33.142  1.00  0.00     0.029 A 
ATOM     54  N   UNL A   1      42.592  33.120  31.006  1.00  0.00    -0.354 N 
ATOM     55  C   UNL A   1      39.616  35.249  35.177  1.00  0.00     0.074 A 
ATOM     56  C   UNL A   1      38.349  34.659  34.825  1.00  0.00     0.031 C 
ATOM     57  C   UNL A   1      44.084  33.700  32.541  1.00  0.00     0.029 A 
ATOM     58  C   UNL A   1      43.843  33.713  31.104  1.00  0.00     0.049 A 
ATOM     59  H   UNL A   1      42.279  32.544  30.272  1.00  0.00     0.167 HD
ATOM     60  C   UNL A   1      40.233  35.642  36.326  1.00  0.00     0.034 A 
ATOM     61  C   UNL A   1      44.109  34.764  30.264  1.00  0.00     0.034 A 
ATOM     62  C   UNL A   1      41.653  35.987  36.064  1.00  0.00     0.049 A 
ATOM     63  C   UNL A   1      44.270  36.078  31.002  1.00  0.00     0.074 A 
ATOM     64  C   UNL A   1      42.874  35.420  36.393  1.00  0.00     0.029 A 
ATOM     65  N   UNL A   1      41.941  36.942  35.097  1.00  0.00    -0.354 N 
ATOM     66  N   UNL A   1      44.088  36.237  32.284  1.00  0.00    -0.248 NA
ATOM     67  C   UNL A   1      44.623  37.327  30.341  1.00  0.00     0.031 C 
ATOM     68  C   UNL A   1      43.890  36.050  35.601  1.00  0.00     0.029 A 
ATOM     69  C   UNL A   1      43.295  37.024  34.817  1.00  0.00     0.049 A 
ATOM     70  H   UNL A   1      41.258  37.498  34.658  1.00  0.00     0.167 HD
ATOM     71  C   UNL A   1      44.110  37.564  32.604  1.00  0.00     0.074 A 
ATOM     72  C   UNL A   1      44.501  38.204  31.353  1.00  0.00     0.031 C 
ATOM     73  C   UNL A   1      43.745  38.023  33.845  1.00  0.00     0.034 A 
BRANCH  60  74
ATOM     74  C   UNL A   1      39.661  35.526  37.736  1.00  0.00     0.023 A 
ATOM     75  C   UNL A   1      39.612  36.714  38.500  1.00  0.00     0.012 A 
ATOM     76  C   UNL A   1      39.212  34.356  38.403  1.00  0.00     0.148 A 
ATOM     77  C   UNL A   1      39.186  36.738  39.835  1.00  0.00     0.002 A 
ATOM     78  C   UNL A   1      38.750  34.384  39.723  1.00  0.00     0.091 A 
ATOM     79  F   UNL A   1      39.264  33.171  37.805  1.00  0.00    -0.205 F 
ATOM     80  C   UNL A   1      38.750  35.573  40.448  1.00  0.00     0.022 A 
BRANCH  78  81
ATOM     81  S   UNL A   1      38.143  32.909  40.572  1.00  0.00     0.127 S 
ATOM     82  O   UNL A   1      37.199  32.362  39.596  1.00  0.00    -0.237 OA
ATOM     83  O   UNL A   1      39.363  32.122  40.743  1.00  0.00    -0.237 OA
ATOM     84  O   UNL A   1      37.534  33.362  41.817  1.00  0.00    -0.744 OA
ENDBRANCH  78  81
ENDBRANCH  60  74
BRANCH  61  85
ATOM     85  C   UNL A   1      43.467  34.585  28.907  1.00  0.00     0.023 A 
ATOM     86  C   UNL A   1      42.348  35.397  28.623  1.00  0.00     0.012 A 
ATOM     87  C   UNL A   1      44.174  34.044  27.815  1.00  0.00     0.148 A 
ATOM     88  C   UNL A   1      42.091  35.871  27.335  1.00  0.00     0.002 A 
ATOM     89  C   UNL A   1      43.865  34.461  26.516  1.00  0.00     0.091 A 
ATOM     90  F   UNL A   1      45.169  33.183  28.062  1.00  0.00    -0.205 F 
ATOM     91  C   UNL A   1      42.883  35.438  26.284  1.00  0.00     0.022 A 
BRANCH  89  92
ATOM     92  S   UNL A   1      44.693  33.781  25.073  1.00  0.00     0.127 S 
ATOM     93  O   UNL A   1      43.796  34.213  24.003  1.00  0.00    -0.237 OA
ATOM     94  O   UNL A   1      45.989  34.459  25.083  1.00  0.00    -0.237 OA
ATOM     95  O   UNL A   1      44.766  32.348  25.311  1.00  0.00    -0.744 OA
ENDBRANCH  89  92
ENDBRANCH  61  85
BRANCH  73  96
ATOM     96  C   UNL A   1      43.703  39.495  34.219  1.00  0.00     0.023 A 
ATOM     97  C   UNL A   1      42.926  40.415  33.492  1.00  0.00     0.012 A 
ATOM     98  C   UNL A   1      44.492  40.033  35.272  1.00  0.00     0.148 A 
ATOM     99  C   UNL A   1      42.814  41.755  33.878  1.00  0.00     0.002 A 
ATOM    100  C   UNL A   1      44.425  41.375  35.621  1.00  0.00     0.091 A 
ATOM    101  F   UNL A   1      45.334  39.252  35.950  1.00  0.00    -0.205 F 
ATOM    102  C   UNL A   1      43.554  42.233  34.951  1.00  0.00     0.022 A 
BRANCH 100 103
ATOM    103  S   UNL A   1      45.469  42.092  36.898  1.00  0.00     0.127 S 
ATOM    104  O   UNL A   1      46.794  41.634  36.480  1.00  0.00    -0.237 OA
ATOM    105  O   UNL A   1      45.228  43.522  36.710  1.00  0.00    -0.237 OA
ATOM    106  O   UNL A   1      45.006  41.550  38.167  1.00  0.00    -0.744 OA
ENDBRANCH 100 103
ENDBRANCH  73  96
ENDBRANCH  47  48
ENDBRANCH  39  42
ENDBRANCH  37  38
ENDBRANCH  36  37
ENDBRANCH   1  36
TORSDOF 17
ENDMDL
MODEL 3
REMARK VINA RESULT:     -10.3      3.894     12.369
REMARK SMILES Cc1ccc(-c2[nH]c3ccccc3c2[C@@H]2c3ccccc3C(=O)N2[C@H](C)C(=O)NCCCCNC(=O)c2ccc(-c3c4nc(c(-c5cccc(S(=O)(=O)[O-])c5F)c5ccc([nH]5)c(-c5cccc(S(=O)(=O)[O-])c5F)c5nc(c(-c6cccc(S(=O)(=O)[O-])c6F)c6ccc3[nH]6)C=C5)C=C4)cc2)cc1
REMARK SMILES IDX 31 1 30 2 29 3 27 4 28 5 25 7 26 8 24 9 15 10 16 11 17 12
REMARK SMILES IDX 21 13 22 14 18 15 20 16 23 17 19 18 14 19 6 20 7 21 8 22
REMARK SMILES IDX 13 24 9 25 12 26 10 27 11 28 5 29 1 30 2 31 3 32 101 33 4 34
REMARK SMILES IDX 100 35 32 36 33 37 34 38 35 39 36 41 37 42 38 43 99 44 39 45
REMARK SMILES IDX 98 46 40 47 41 48 42 49 92 50 43 51 97 52 91 53 93 54 44 55
REMARK SMILES IDX 96 56 90 57 89 58 45 60 77 61 57 62 76 63 58 64 61 65 75 66
REMARK SMILES IDX 94 67 59 68 60 69 74 71 95 72 62 73 46 74 47 75 55 76 48 77
REMARK SMILES IDX 50 78 56 79 49 80 51 81 52 82 53 83 54 84 78 85 79 86 87 87
REMARK SMILES IDX 80 88 82 89 88 90 81 91 83 92 84 93 85 94 86 95 63 96 64 97
REMARK SMILES IDX 72 98 65 99 67 100 73 101 66 102 68 103 69 104 70 105 71 106
REMARK H PARENT 29 6 7 23 34 40 93 59 61 70
REMARK Flexibility Score: inf
ROOT
ATOM      1  C   UNL A   1      47.295  27.278  28.733  1.00  0.00     0.023 C 
ENDROOT
BRANCH   1   2
ATOM      2  C   UNL A   1      47.572  26.682  27.360  1.00  0.00     0.116 C 
BRANCH   2   3
ATOM      3  N   UNL A   1      47.382  25.269  27.242  1.00  0.00    -0.354 N 
ATOM      4  C   UNL A   1      46.457  24.565  26.545  1.00  0.00     0.242 C 
ATOM      5  O   UNL A   1      46.743  23.368  26.384  1.00  0.00    -0.273 OA
ATOM      6  H   UNL A   1      48.026  24.721  27.747  1.00  0.00     0.163 HD
BRANCH   4   7
ATOM      7  C   UNL A   1      44.989  25.022  26.270  1.00  0.00     0.172 C 
ATOM      8  C   UNL A   1      44.851  24.749  24.750  1.00  0.00     0.042 C 
BRANCH   7   9
ATOM      9  N   UNL A   1      43.652  24.824  26.883  1.00  0.00    -0.316 N 
ATOM     10  C   UNL A   1      42.587  25.780  27.254  1.00  0.00     0.151 C 
ATOM     11  C   UNL A   1      41.347  24.902  27.213  1.00  0.00    -0.008 A 
ATOM     12  C   UNL A   1      39.996  25.142  27.023  1.00  0.00     0.007 A 
ATOM     13  C   UNL A   1      41.742  23.574  27.245  1.00  0.00     0.045 A 
ATOM     14  C   UNL A   1      43.125  23.529  26.822  1.00  0.00     0.255 C 
ATOM     15  C   UNL A   1      39.106  24.043  27.013  1.00  0.00     0.000 A 
ATOM     16  C   UNL A   1      40.906  22.481  27.354  1.00  0.00     0.014 A 
ATOM     17  O   UNL A   1      43.618  22.512  26.377  1.00  0.00    -0.269 OA
ATOM     18  C   UNL A   1      39.551  22.729  27.248  1.00  0.00     0.001 A 
BRANCH  10  19
ATOM     19  C   UNL A   1      42.706  26.218  28.716  1.00  0.00     0.013 A 
ATOM     20  C   UNL A   1      41.917  27.185  29.345  1.00  0.00     0.052 A 
ATOM     21  N   UNL A   1      42.490  27.495  30.556  1.00  0.00    -0.354 N 
ATOM     22  C   UNL A   1      43.584  26.701  30.787  1.00  0.00     0.046 A 
ATOM     23  H   UNL A   1      42.160  28.189  31.171  1.00  0.00     0.167 HD
ATOM     24  C   UNL A   1      43.669  25.804  29.720  1.00  0.00     0.006 A 
ATOM     25  C   UNL A   1      44.538  26.758  31.818  1.00  0.00     0.027 A 
ATOM     26  C   UNL A   1      44.682  24.823  29.786  1.00  0.00     0.011 A 
ATOM     27  C   UNL A   1      45.598  25.849  31.776  1.00  0.00     0.002 A 
ATOM     28  C   UNL A   1      45.649  24.867  30.795  1.00  0.00     0.001 A 
BRANCH  20  29
ATOM     29  C   UNL A   1      40.717  27.860  28.886  1.00  0.00    -0.002 A 
ATOM     30  C   UNL A   1      37.206  29.945  27.521  1.00  0.00     0.044 C 
ATOM     31  C   UNL A   1      38.444  29.247  28.003  1.00  0.00    -0.051 A 
ATOM     32  C   UNL A   1      39.624  29.290  27.258  1.00  0.00     0.004 A 
ATOM     33  C   UNL A   1      38.435  28.547  29.215  1.00  0.00     0.004 A 
ATOM     34  C   UNL A   1      40.755  28.602  27.699  1.00  0.00     0.010 A 
ATOM     35  C   UNL A   1      39.545  27.815  29.634  1.00  0.00     0.010 A 
ENDBRANCH  20  29
ENDBRANCH  10  19
ENDBRANCH   7   9
ENDBRANCH   4   7
ENDBRANCH   2   3
ENDBRANCH   1   2
BRANCH   1  36
ATOM     36  C   UNL A   1      46.336  28.458  28.923  1.00  0.00     0.023 C 
BRANCH  36  37
ATOM     37  C   UNL A   1      46.946  29.857  28.864  1.00  0.00     0.116 C 
BRANCH  37  38
ATOM     38  N   UNL A   1      46.723  30.534  27.577  1.00  0.00    -0.352 N 
ATOM     39  C   UNL A   1      45.636  31.260  27.114  1.00  0.00     0.251 C 
ATOM     40  H   UNL A   1      47.469  30.460  26.938  1.00  0.00     0.163 HD
ATOM     41  O   UNL A   1      45.521  31.470  25.910  1.00  0.00    -0.269 OA
BRANCH  39  42
ATOM     42  C   UNL A   1      44.697  31.847  28.087  1.00  0.00     0.039 A 
ATOM     43  C   UNL A   1      44.960  32.943  28.912  1.00  0.00     0.014 A 
ATOM     44  C   UNL A   1      43.509  31.155  28.235  1.00  0.00     0.014 A 
ATOM     45  C   UNL A   1      44.033  33.278  29.907  1.00  0.00     0.010 A 
ATOM     46  C   UNL A   1      42.489  31.652  28.970  1.00  0.00     0.010 A 
ATOM     47  C   UNL A   1      42.833  32.578  29.947  1.00  0.00    -0.014 A 
BRANCH  47  48
ATOM     48  C   UNL A   1      41.909  32.495  31.058  1.00  0.00     0.031 A 
ATOM     49  C   UNL A   1      40.732  33.344  31.122  1.00  0.00     0.074 A 
ATOM     50  C   UNL A   1      41.998  31.322  31.727  1.00  0.00     0.049 A 
ATOM     51  N   UNL A   1      39.903  33.311  32.102  1.00  0.00    -0.248 NA
ATOM     52  C   UNL A   1      40.407  34.332  30.103  1.00  0.00     0.031 C 
ATOM     53  C   UNL A   1      40.943  30.507  32.310  1.00  0.00     0.029 A 
ATOM     54  N   UNL A   1      43.146  30.563  31.940  1.00  0.00    -0.354 N 
ATOM     55  C   UNL A   1      38.783  33.980  31.677  1.00  0.00     0.074 A 
ATOM     56  C   UNL A   1      39.241  34.785  30.571  1.00  0.00     0.031 C 
ATOM     57  C   UNL A   1      41.514  29.497  32.998  1.00  0.00     0.029 A 
ATOM     58  C   UNL A   1      42.941  29.787  33.072  1.00  0.00     0.049 A 
ATOM     59  H   UNL A   1      43.959  30.576  31.387  1.00  0.00     0.167 HD
ATOM     60  C   UNL A   1      37.578  33.590  32.177  1.00  0.00     0.034 A 
ATOM     61  C   UNL A   1      43.620  30.141  34.210  1.00  0.00     0.034 A 
ATOM     62  C   UNL A   1      37.759  32.562  33.233  1.00  0.00     0.049 A 
ATOM     63  C   UNL A   1      42.704  30.635  35.312  1.00  0.00     0.074 A 
ATOM     64  C   UNL A   1      37.487  31.207  33.335  1.00  0.00     0.029 A 
ATOM     65  N   UNL A   1      38.578  32.854  34.316  1.00  0.00    -0.354 N 
ATOM     66  N   UNL A   1      41.416  30.803  35.186  1.00  0.00    -0.248 NA
ATOM     67  C   UNL A   1      43.177  31.005  36.638  1.00  0.00     0.031 C 
ATOM     68  C   UNL A   1      38.162  30.699  34.494  1.00  0.00     0.029 A 
ATOM     69  C   UNL A   1      38.815  31.750  35.117  1.00  0.00     0.049 A 
ATOM     70  H   UNL A   1      38.949  33.749  34.495  1.00  0.00     0.167 HD
ATOM     71  C   UNL A   1      40.914  31.445  36.281  1.00  0.00     0.074 A 
ATOM     72  C   UNL A   1      42.055  31.503  37.187  1.00  0.00     0.031 C 
ATOM     73  C   UNL A   1      39.629  31.926  36.321  1.00  0.00     0.034 A 
BRANCH  60  74
ATOM     74  C   UNL A   1      36.210  33.947  31.602  1.00  0.00     0.023 A 
ATOM     75  C   UNL A   1      35.862  33.346  30.371  1.00  0.00     0.012 A 
ATOM     76  C   UNL A   1      35.253  34.854  32.125  1.00  0.00     0.148 A 
ATOM     77  C   UNL A   1      34.674  33.646  29.691  1.00  0.00     0.002 A 
ATOM     78  C   UNL A   1      34.048  35.126  31.469  1.00  0.00     0.091 A 
ATOM     79  F   UNL A   1      35.493  35.522  33.249  1.00  0.00    -0.205 F 
ATOM     80  C   UNL A   1      33.762  34.533  30.241  1.00  0.00     0.022 A 
BRANCH  78  81
ATOM     81  S   UNL A   1      32.805  36.251  32.142  1.00  0.00     0.127 S 
ATOM     82  O   UNL A   1      32.625  37.200  31.042  1.00  0.00    -0.237 OA
ATOM     83  O   UNL A   1      31.668  35.361  32.368  1.00  0.00    -0.237 OA
ATOM     84  O   UNL A   1      33.374  36.828  33.354  1.00  0.00    -0.744 OA
ENDBRANCH  78  81
ENDBRANCH  60  74
BRANCH  61  85
ATOM     85  C   UNL A   1      45.003  30.673  33.905  1.00  0.00     0.023 A 
ATOM     86  C   UNL A   1      45.908  29.772  33.304  1.00  0.00     0.012 A 
ATOM     87  C   UNL A   1      45.254  32.050  33.750  1.00  0.00     0.148 A 
ATOM     88  C   UNL A   1      46.863  30.197  32.378  1.00  0.00     0.002 A 
ATOM     89  C   UNL A   1      46.263  32.476  32.880  1.00  0.00     0.091 A 
ATOM     90  F   UNL A   1      44.471  32.919  34.403  1.00  0.00    -0.205 F 
ATOM     91  C   UNL A   1      47.008  31.552  32.130  1.00  0.00     0.022 A 
BRANCH  89  92
ATOM     92  S   UNL A   1      46.669  34.213  32.667  1.00  0.00     0.127 S 
ATOM     93  O   UNL A   1      47.546  34.157  31.500  1.00  0.00    -0.237 OA
ATOM     94  O   UNL A   1      45.367  34.831  32.415  1.00  0.00    -0.237 OA
ATOM     95  O   UNL A   1      47.290  34.618  33.919  1.00  0.00    -0.744 OA
ENDBRANCH  89  92
ENDBRANCH  61  85
BRANCH  73  96
ATOM     96  C   UNL A   1      39.055  32.694  37.500  1.00  0.00     0.023 A 
ATOM     97  C   UNL A   1      39.628  33.901  37.939  1.00  0.00     0.012 A 
ATOM     98  C   UNL A   1      37.958  32.205  38.262  1.00  0.00     0.148 A 
ATOM     99  C   UNL A   1      39.058  34.658  38.969  1.00  0.00     0.002 A 
ATOM    100  C   UNL A   1      37.427  32.929  39.321  1.00  0.00     0.091 A 
ATOM    101  F   UNL A   1      37.417  31.020  37.981  1.00  0.00    -0.205 F 
ATOM    102  C   UNL A   1      37.949  34.178  39.651  1.00  0.00     0.022 A 
BRANCH 100 103
ATOM    103  S   UNL A   1      36.090  32.297  40.346  1.00  0.00     0.127 S 
ATOM    104  O   UNL A   1      36.723  31.129  40.959  1.00  0.00    -0.237 OA
ATOM    105  O   UNL A   1      35.858  33.417  41.256  1.00  0.00    -0.237 OA
ATOM    106  O   UNL A   1      34.986  31.993  39.448  1.00  0.00    -0.744 OA
ENDBRANCH 100 103
ENDBRANCH  73  96
ENDBRANCH  47  48
ENDBRANCH  39  42
ENDBRANCH  37  38
ENDBRANCH  36  37
ENDBRANCH   1  36
TORSDOF 17
ENDMDL
