MODEL 1
REMARK VINA RESULT:     -13.5      0.000      0.000
REMARK SMILES CN1C(=O)C[C@@H](C(=O)NCCCCNC(=O)c2ccc(-c3c4nc(c(-c5cccc(S(=O)(=O)[O-])c5F)c5ccc([nH]5)c(-c5cccc(S(=O)(=O)[O-])c5F)c5nc(c(-c6cccc(S(=O)(=O)[O-])c6F)c6ccc3[nH]6)C=C5)C=C4)cc2)C12CCN(c1ccc(Cl)cn1)CC2
REMARK SMILES IDX 12 1 11 2 10 3 9 4 7 5 8 6 6 8 1 9 2 10 3 11 80 12 4 13 5 14
REMARK SMILES IDX 81 15 92 16 82 17 91 18 83 19 84 20 85 21 90 22 86 23 89 24
REMARK SMILES IDX 87 25 88 26 13 27 14 28 15 29 16 31 17 32 18 33 79 34 19 35
REMARK SMILES IDX 78 36 20 37 21 38 22 39 72 40 23 41 77 42 71 43 73 44 24 45
REMARK SMILES IDX 76 46 70 47 69 48 25 50 57 51 37 52 56 53 38 54 41 55 55 56
REMARK SMILES IDX 74 57 39 58 40 59 54 61 75 62 42 63 26 64 27 65 35 66 28 67
REMARK SMILES IDX 30 68 36 69 29 70 31 71 32 72 33 73 34 74 58 75 59 76 67 77
REMARK SMILES IDX 60 78 62 79 68 80 61 81 63 82 64 83 65 84 66 85 43 86 44 87
REMARK SMILES IDX 52 88 45 89 47 90 53 91 46 92 48 93 49 94 50 95 51 96
REMARK H PARENT 9 7 14 30 73 49 41 60
REMARK Flexibility Score: inf
ROOT
ATOM      1  C   UNL A   1      31.952  28.909  25.053  1.00  0.00     0.023 C 
ENDROOT
BRANCH   1   2
ATOM      2  C   UNL A   1      31.290  27.926  26.013  1.00  0.00     0.023 C 
BRANCH   2   3
ATOM      3  C   UNL A   1      30.890  26.590  25.381  1.00  0.00     0.116 C 
BRANCH   3   4
ATOM      4  N   UNL A   1      30.882  25.476  26.314  1.00  0.00    -0.356 N 
ATOM      5  C   UNL A   1      31.792  24.526  26.645  1.00  0.00     0.226 C 
ATOM      6  O   UNL A   1      31.461  23.745  27.544  1.00  0.00    -0.275 OA
ATOM      7  H   UNL A   1      30.037  25.394  26.812  1.00  0.00     0.163 HD
BRANCH   5   8
ATOM      8  C   UNL A   1      33.157  24.327  25.981  1.00  0.00     0.113 C 
ATOM      9  C   UNL A   1      33.004  24.268  22.253  1.00  0.00     0.147 C 
ATOM     10  N   UNL A   1      33.279  24.501  23.658  1.00  0.00    -0.339 N 
ATOM     11  C   UNL A   1      33.771  25.712  24.128  1.00  0.00     0.223 C 
ATOM     12  C   UNL A   1      33.223  23.461  24.701  1.00  0.00     0.058 C 
ATOM     13  O   UNL A   1      34.059  26.692  23.459  1.00  0.00    -0.275 OA
ATOM     14  C   UNL A   1      33.853  25.643  25.628  1.00  0.00     0.116 C 
ATOM     15  C   UNL A   1      32.040  22.484  24.545  1.00  0.00     0.051 C 
ATOM     16  C   UNL A   1      34.568  22.659  24.651  1.00  0.00     0.051 C 
ATOM     17  C   UNL A   1      32.129  21.291  25.475  1.00  0.00     0.120 C 
ATOM     18  C   UNL A   1      34.576  21.377  25.501  1.00  0.00     0.120 C 
ATOM     19  N   UNL A   1      33.380  20.627  25.168  1.00  0.00    -0.356 N 
BRANCH  19  20
ATOM     20  C   UNL A   1      33.374  19.248  25.187  1.00  0.00     0.128 A 
ATOM     21  C   UNL A   1      34.290  18.557  24.384  1.00  0.00     0.048 A 
ATOM     22  N   UNL A   1      32.497  18.591  25.972  1.00  0.00    -0.238 NA
ATOM     23  C   UNL A   1      34.291  17.166  24.353  1.00  0.00     0.026 A 
ATOM     24  C   UNL A   1      32.494  17.235  25.903  1.00  0.00     0.134 A 
ATOM     25  C   UNL A   1      33.361  16.489  25.121  1.00  0.00     0.059 A 
ATOM     26  Cl  UNL A   1      33.298  14.775  25.106  1.00  0.00    -0.083 Cl
ENDBRANCH  19  20
ENDBRANCH   5   8
ENDBRANCH   3   4
ENDBRANCH   2   3
ENDBRANCH   1   2
BRANCH   1  27
ATOM     27  C   UNL A   1      33.106  29.681  25.669  1.00  0.00     0.116 C 
BRANCH  27  28
ATOM     28  N   UNL A   1      32.702  30.987  26.180  1.00  0.00    -0.352 N 
ATOM     29  C   UNL A   1      33.295  31.739  27.161  1.00  0.00     0.251 C 
ATOM     30  H   UNL A   1      31.900  31.379  25.765  1.00  0.00     0.163 HD
ATOM     31  O   UNL A   1      32.755  32.755  27.585  1.00  0.00    -0.269 OA
BRANCH  29  32
ATOM     32  C   UNL A   1      34.584  31.281  27.707  1.00  0.00     0.039 A 
ATOM     33  C   UNL A   1      35.611  32.206  27.897  1.00  0.00     0.014 A 
ATOM     34  C   UNL A   1      34.733  29.949  28.098  1.00  0.00     0.014 A 
ATOM     35  C   UNL A   1      36.780  31.798  28.536  1.00  0.00     0.010 A 
ATOM     36  C   UNL A   1      35.853  29.573  28.819  1.00  0.00     0.010 A 
ATOM     37  C   UNL A   1      36.895  30.488  29.028  1.00  0.00    -0.014 A 
BRANCH  37  38
ATOM     38  C   UNL A   1      38.109  30.030  29.741  1.00  0.00     0.031 A 
ATOM     39  C   UNL A   1      38.372  30.516  31.140  1.00  0.00     0.074 A 
ATOM     40  C   UNL A   1      39.015  29.270  29.097  1.00  0.00     0.049 A 
ATOM     41  N   UNL A   1      39.410  30.304  31.905  1.00  0.00    -0.248 NA
ATOM     42  C   UNL A   1      37.354  31.394  31.745  1.00  0.00     0.031 C 
ATOM     43  C   UNL A   1      38.913  28.823  27.706  1.00  0.00     0.029 A 
ATOM     44  N   UNL A   1      40.215  28.760  29.521  1.00  0.00    -0.354 N 
ATOM     45  C   UNL A   1      39.193  31.058  33.052  1.00  0.00     0.074 A 
ATOM     46  C   UNL A   1      37.948  31.768  32.867  1.00  0.00     0.031 C 
ATOM     47  C   UNL A   1      39.999  28.097  27.395  1.00  0.00     0.029 A 
ATOM     48  C   UNL A   1      40.883  28.045  28.555  1.00  0.00     0.049 A 
ATOM     49  H   UNL A   1      40.565  28.894  30.432  1.00  0.00     0.167 HD
ATOM     50  C   UNL A   1      39.941  31.120  34.177  1.00  0.00     0.034 A 
ATOM     51  C   UNL A   1      42.073  27.414  28.607  1.00  0.00     0.034 A 
ATOM     52  C   UNL A   1      41.134  30.349  34.382  1.00  0.00     0.049 A 
ATOM     53  C   UNL A   1      42.836  27.419  29.903  1.00  0.00     0.074 A 
ATOM     54  C   UNL A   1      41.914  30.253  35.519  1.00  0.00     0.029 A 
ATOM     55  N   UNL A   1      41.715  29.530  33.425  1.00  0.00    -0.354 N 
ATOM     56  N   UNL A   1      42.532  28.004  31.038  1.00  0.00    -0.248 NA
ATOM     57  C   UNL A   1      44.083  26.641  29.945  1.00  0.00     0.031 C 
ATOM     58  C   UNL A   1      42.971  29.377  35.248  1.00  0.00     0.029 A 
ATOM     59  C   UNL A   1      42.839  28.918  33.947  1.00  0.00     0.049 A 
ATOM     60  H   UNL A   1      41.375  29.402  32.510  1.00  0.00     0.167 HD
ATOM     61  C   UNL A   1      43.526  27.633  31.936  1.00  0.00     0.074 A 
ATOM     62  C   UNL A   1      44.431  26.758  31.219  1.00  0.00     0.031 C 
ATOM     63  C   UNL A   1      43.687  27.998  33.232  1.00  0.00     0.034 A 
BRANCH  50  64
ATOM     64  C   UNL A   1      39.443  31.995  35.298  1.00  0.00     0.023 A 
ATOM     65  C   UNL A   1      39.703  33.381  35.262  1.00  0.00     0.012 A 
ATOM     66  C   UNL A   1      38.691  31.461  36.360  1.00  0.00     0.148 A 
ATOM     67  C   UNL A   1      39.257  34.214  36.286  1.00  0.00     0.002 A 
ATOM     68  C   UNL A   1      38.210  32.305  37.354  1.00  0.00     0.091 A 
ATOM     69  F   UNL A   1      38.476  30.138  36.391  1.00  0.00    -0.205 F 
ATOM     70  C   UNL A   1      38.502  33.679  37.325  1.00  0.00     0.022 A 
BRANCH  68  71
ATOM     71  S   UNL A   1      37.162  31.725  38.693  1.00  0.00     0.127 S 
ATOM     72  O   UNL A   1      38.045  31.881  39.847  1.00  0.00    -0.237 OA
ATOM     73  O   UNL A   1      36.048  32.672  38.645  1.00  0.00    -0.237 OA
ATOM     74  O   UNL A   1      36.806  30.354  38.356  1.00  0.00    -0.744 OA
ENDBRANCH  68  71
ENDBRANCH  50  64
BRANCH  51  75
ATOM     75  C   UNL A   1      42.558  26.642  27.428  1.00  0.00     0.023 A 
ATOM     76  C   UNL A   1      43.381  27.284  26.480  1.00  0.00     0.012 A 
ATOM     77  C   UNL A   1      42.247  25.280  27.257  1.00  0.00     0.148 A 
ATOM     78  C   UNL A   1      43.857  26.592  25.367  1.00  0.00     0.002 A 
ATOM     79  C   UNL A   1      42.768  24.583  26.172  1.00  0.00     0.091 A 
ATOM     80  F   UNL A   1      41.455  24.689  28.163  1.00  0.00    -0.205 F 
ATOM     81  C   UNL A   1      43.560  25.240  25.217  1.00  0.00     0.022 A 
BRANCH  79  82
ATOM     82  S   UNL A   1      42.547  22.811  25.974  1.00  0.00     0.127 S 
ATOM     83  O   UNL A   1      43.059  22.595  24.624  1.00  0.00    -0.237 OA
ATOM     84  O   UNL A   1      43.388  22.276  27.045  1.00  0.00    -0.237 OA
ATOM     85  O   UNL A   1      41.122  22.575  26.161  1.00  0.00    -0.744 OA
ENDBRANCH  79  82
ENDBRANCH  51  75
BRANCH  63  86
ATOM     86  C   UNL A   1      44.860  27.423  33.978  1.00  0.00     0.023 A 
ATOM     87  C   UNL A   1      46.083  28.121  34.003  1.00  0.00     0.012 A 
ATOM     88  C   UNL A   1      44.723  26.235  34.722  1.00  0.00     0.148 A 
ATOM     89  C   UNL A   1      47.161  27.632  34.736  1.00  0.00     0.002 A 
ATOM     90  C   UNL A   1      45.789  25.778  35.488  1.00  0.00     0.091 A 
ATOM     91  F   UNL A   1      43.558  25.573  34.668  1.00  0.00    -0.205 F 
ATOM     92  C   UNL A   1      47.011  26.468  35.488  1.00  0.00     0.022 A 
BRANCH  90  93
ATOM     93  S   UNL A   1      45.647  24.344  36.561  1.00  0.00     0.127 S 
ATOM     94  O   UNL A   1      45.605  23.250  35.592  1.00  0.00    -0.237 OA
ATOM     95  O   UNL A   1      46.880  24.416  37.346  1.00  0.00    -0.237 OA
ATOM     96  O   UNL A   1      44.430  24.546  37.335  1.00  0.00    -0.744 OA
ENDBRANCH  90  93
ENDBRANCH  63  86
ENDBRANCH  37  38
ENDBRANCH  29  32
ENDBRANCH  27  28
ENDBRANCH   1  27
TORSDOF 15
ENDMDL
MODEL 2
REMARK VINA RESULT:     -13.3      5.363     10.610
REMARK SMILES CN1C(=O)C[C@@H](C(=O)NCCCCNC(=O)c2ccc(-c3c4nc(c(-c5cccc(S(=O)(=O)[O-])c5F)c5ccc([nH]5)c(-c5cccc(S(=O)(=O)[O-])c5F)c5nc(c(-c6cccc(S(=O)(=O)[O-])c6F)c6ccc3[nH]6)C=C5)C=C4)cc2)C12CCN(c1ccc(Cl)cn1)CC2
REMARK SMILES IDX 12 1 11 2 10 3 9 4 7 5 8 6 6 8 1 9 2 10 3 11 80 12 4 13 5 14
REMARK SMILES IDX 81 15 92 16 82 17 91 18 83 19 84 20 85 21 90 22 86 23 89 24
REMARK SMILES IDX 87 25 88 26 13 27 14 28 15 29 16 31 17 32 18 33 79 34 19 35
REMARK SMILES IDX 78 36 20 37 21 38 22 39 72 40 23 41 77 42 71 43 73 44 24 45
REMARK SMILES IDX 76 46 70 47 69 48 25 50 57 51 37 52 56 53 38 54 41 55 55 56
REMARK SMILES IDX 74 57 39 58 40 59 54 61 75 62 42 63 26 64 27 65 35 66 28 67
REMARK SMILES IDX 30 68 36 69 29 70 31 71 32 72 33 73 34 74 58 75 59 76 67 77
REMARK SMILES IDX 60 78 62 79 68 80 61 81 63 82 64 83 65 84 66 85 43 86 44 87
REMARK SMILES IDX 52 88 45 89 47 90 53 91 46 92 48 93 49 94 50 95 51 96
REMARK H PARENT 9 7 14 30 73 49 41 60
REMARK Flexibility Score: inf
ROOT
ATOM      1  C   UNL A   1      35.490  21.449  26.035  1.00  0.00     0.023 C 
ENDROOT
BRANCH   1   2
ATOM      2  C   UNL A   1      34.686  20.836  24.895  1.00  0.00     0.023 C 
BRANCH   2   3
ATOM      3  C   UNL A   1      33.470  21.658  24.458  1.00  0.00     0.116 C 
BRANCH   3   4
ATOM      4  N   UNL A   1      33.795  22.768  23.578  1.00  0.00    -0.356 N 
ATOM      5  C   UNL A   1      33.793  24.115  23.732  1.00  0.00     0.226 C 
ATOM      6  O   UNL A   1      34.190  24.774  22.763  1.00  0.00    -0.275 OA
ATOM      7  H   UNL A   1      34.077  22.480  22.679  1.00  0.00     0.163 HD
BRANCH   5   8
ATOM      8  C   UNL A   1      33.314  24.871  24.973  1.00  0.00     0.113 C 
ATOM      9  C   UNL A   1      30.121  23.551  26.381  1.00  0.00     0.147 C 
ATOM     10  N   UNL A   1      31.464  24.033  26.119  1.00  0.00    -0.339 N 
ATOM     11  C   UNL A   1      32.556  23.636  26.878  1.00  0.00     0.223 C 
ATOM     12  C   UNL A   1      31.794  25.092  25.149  1.00  0.00     0.058 C 
ATOM     13  O   UNL A   1      32.542  22.890  27.844  1.00  0.00    -0.275 OA
ATOM     14  C   UNL A   1      33.796  24.246  26.284  1.00  0.00     0.116 C 
ATOM     15  C   UNL A   1      30.993  25.003  23.833  1.00  0.00     0.051 C 
ATOM     16  C   UNL A   1      31.514  26.473  25.833  1.00  0.00     0.051 C 
ATOM     17  C   UNL A   1      31.167  26.223  22.950  1.00  0.00     0.120 C 
ATOM     18  C   UNL A   1      31.564  27.678  24.878  1.00  0.00     0.120 C 
ATOM     19  N   UNL A   1      30.731  27.361  23.734  1.00  0.00    -0.356 N 
BRANCH  19  20
ATOM     20  C   UNL A   1      30.028  28.343  23.068  1.00  0.00     0.128 A 
ATOM     21  C   UNL A   1      28.631  28.357  23.165  1.00  0.00     0.048 A 
ATOM     22  N   UNL A   1      30.688  29.267  22.343  1.00  0.00    -0.238 NA
ATOM     23  C   UNL A   1      27.886  29.312  22.480  1.00  0.00     0.026 A 
ATOM     24  C   UNL A   1      29.942  30.171  21.657  1.00  0.00     0.134 A 
ATOM     25  C   UNL A   1      28.558  30.233  21.696  1.00  0.00     0.059 A 
ATOM     26  Cl  UNL A   1      27.694  31.421  20.811  1.00  0.00    -0.083 Cl
ENDBRANCH  19  20
ENDBRANCH   5   8
ENDBRANCH   3   4
ENDBRANCH   2   3
ENDBRANCH   1   2
BRANCH   1  27
ATOM     27  C   UNL A   1      36.867  21.939  25.617  1.00  0.00     0.116 C 
BRANCH  27  28
ATOM     28  N   UNL A   1      37.889  20.904  25.725  1.00  0.00    -0.352 N 
ATOM     29  C   UNL A   1      39.203  21.039  26.094  1.00  0.00     0.251 C 
ATOM     30  H   UNL A   1      37.598  19.989  25.504  1.00  0.00     0.163 HD
ATOM     31  O   UNL A   1      39.982  20.096  25.996  1.00  0.00    -0.269 OA
BRANCH  29  32
ATOM     32  C   UNL A   1      39.658  22.349  26.586  1.00  0.00     0.039 A 
ATOM     33  C   UNL A   1      40.627  22.403  27.588  1.00  0.00     0.014 A 
ATOM     34  C   UNL A   1      39.170  23.516  25.993  1.00  0.00     0.014 A 
ATOM     35  C   UNL A   1      41.152  23.640  27.958  1.00  0.00     0.010 A 
ATOM     36  C   UNL A   1      39.763  24.731  26.292  1.00  0.00     0.010 A 
ATOM     37  C   UNL A   1      40.745  24.807  27.291  1.00  0.00    -0.014 A 
BRANCH  37  38
ATOM     38  C   UNL A   1      41.305  26.133  27.635  1.00  0.00     0.031 A 
ATOM     39  C   UNL A   1      42.713  26.470  27.226  1.00  0.00     0.074 A 
ATOM     40  C   UNL A   1      40.590  26.982  28.397  1.00  0.00     0.049 A 
ATOM     41  N   UNL A   1      43.418  27.536  27.498  1.00  0.00    -0.248 NA
ATOM     42  C   UNL A   1      43.442  25.455  26.444  1.00  0.00     0.031 C 
ATOM     43  C   UNL A   1      39.254  26.719  28.937  1.00  0.00     0.029 A 
ATOM     44  N   UNL A   1      40.900  28.230  28.874  1.00  0.00    -0.354 N 
ATOM     45  C   UNL A   1      44.679  27.298  26.967  1.00  0.00     0.074 A 
ATOM     46  C   UNL A   1      44.659  25.971  26.396  1.00  0.00     0.031 C 
ATOM     47  C   UNL A   1      38.855  27.779  29.661  1.00  0.00     0.029 A 
ATOM     48  C   UNL A   1      39.913  28.784  29.655  1.00  0.00     0.049 A 
ATOM     49  H   UNL A   1      41.750  28.686  28.676  1.00  0.00     0.167 HD
ATOM     50  C   UNL A   1      45.748  28.128  26.921  1.00  0.00     0.034 A 
ATOM     51  C   UNL A   1      39.868  29.973  30.288  1.00  0.00     0.034 A 
ATOM     52  C   UNL A   1      45.731  29.473  27.420  1.00  0.00     0.049 A 
ATOM     53  C   UNL A   1      41.031  30.914  30.136  1.00  0.00     0.074 A 
ATOM     54  C   UNL A   1      46.718  30.437  27.333  1.00  0.00     0.029 A 
ATOM     55  N   UNL A   1      44.664  30.049  28.093  1.00  0.00    -0.354 N 
ATOM     56  N   UNL A   1      42.158  30.737  29.487  1.00  0.00    -0.248 NA
ATOM     57  C   UNL A   1      40.903  32.237  30.765  1.00  0.00     0.031 C 
ATOM     58  C   UNL A   1      46.249  31.597  27.959  1.00  0.00     0.029 A 
ATOM     59  C   UNL A   1      44.963  31.358  28.422  1.00  0.00     0.049 A 
ATOM     60  H   UNL A   1      43.817  29.593  28.304  1.00  0.00     0.167 HD
ATOM     61  C   UNL A   1      42.853  31.936  29.594  1.00  0.00     0.074 A 
ATOM     62  C   UNL A   1      42.013  32.838  30.356  1.00  0.00     0.031 C 
ATOM     63  C   UNL A   1      44.083  32.257  29.123  1.00  0.00     0.034 A 
BRANCH  50  64
ATOM     64  C   UNL A   1      46.992  27.624  26.238  1.00  0.00     0.023 A 
ATOM     65  C   UNL A   1      47.932  26.876  26.976  1.00  0.00     0.012 A 
ATOM     66  C   UNL A   1      47.216  27.854  24.868  1.00  0.00     0.148 A 
ATOM     67  C   UNL A   1      49.094  26.399  26.373  1.00  0.00     0.002 A 
ATOM     68  C   UNL A   1      48.354  27.335  24.261  1.00  0.00     0.091 A 
ATOM     69  F   UNL A   1      46.324  28.589  24.188  1.00  0.00    -0.205 F 
ATOM     70  C   UNL A   1      49.299  26.619  25.015  1.00  0.00     0.022 A 
BRANCH  68  71
ATOM     71  S   UNL A   1      48.671  27.498  22.501  1.00  0.00     0.127 S 
ATOM     72  O   UNL A   1      49.973  28.160  22.495  1.00  0.00    -0.237 OA
ATOM     73  O   UNL A   1      48.695  26.101  22.062  1.00  0.00    -0.237 OA
ATOM     74  O   UNL A   1      47.565  28.280  21.967  1.00  0.00    -0.744 OA
ENDBRANCH  68  71
ENDBRANCH  50  64
BRANCH  51  75
ATOM     75  C   UNL A   1      38.641  30.375  31.030  1.00  0.00     0.023 A 
ATOM     76  C   UNL A   1      38.529  30.050  32.398  1.00  0.00     0.012 A 
ATOM     77  C   UNL A   1      37.608  31.104  30.412  1.00  0.00     0.148 A 
ATOM     78  C   UNL A   1      37.396  30.415  33.126  1.00  0.00     0.002 A 
ATOM     79  C   UNL A   1      36.505  31.509  31.157  1.00  0.00     0.091 A 
ATOM     80  F   UNL A   1      37.727  31.395  29.109  1.00  0.00    -0.205 F 
ATOM     81  C   UNL A   1      36.390  31.152  32.510  1.00  0.00     0.022 A 
BRANCH  79  82
ATOM     82  S   UNL A   1      35.227  32.575  30.478  1.00  0.00     0.127 S 
ATOM     83  O   UNL A   1      34.292  32.669  31.596  1.00  0.00    -0.237 OA
ATOM     84  O   UNL A   1      35.972  33.801  30.192  1.00  0.00    -0.237 OA
ATOM     85  O   UNL A   1      34.736  31.884  29.293  1.00  0.00    -0.744 OA
ENDBRANCH  79  82
ENDBRANCH  51  75
BRANCH  63  86
ATOM     86  C   UNL A   1      44.584  33.653  29.376  1.00  0.00     0.023 A 
ATOM     87  C   UNL A   1      45.205  33.960  30.602  1.00  0.00     0.012 A 
ATOM     88  C   UNL A   1      44.515  34.632  28.367  1.00  0.00     0.148 A 
ATOM     89  C   UNL A   1      45.727  35.231  30.830  1.00  0.00     0.002 A 
ATOM     90  C   UNL A   1      45.079  35.884  28.585  1.00  0.00     0.091 A 
ATOM     91  F   UNL A   1      43.901  34.327  27.215  1.00  0.00    -0.205 F 
ATOM     92  C   UNL A   1      45.675  36.189  29.819  1.00  0.00     0.022 A 
BRANCH  90  93
ATOM     93  S   UNL A   1      45.143  37.139  27.301  1.00  0.00     0.127 S 
ATOM     94  O   UNL A   1      43.728  37.298  26.970  1.00  0.00    -0.237 OA
ATOM     95  O   UNL A   1      45.737  38.277  28.004  1.00  0.00    -0.237 OA
ATOM     96  O   UNL A   1      45.979  36.584  26.245  1.00  0.00    -0.744 OA
ENDBRANCH  90  93
ENDBRANCH  63  86
ENDBRANCH  37  38
ENDBRANCH  29  32
ENDBRANCH  27  28
ENDBRANCH   1  27
TORSDOF 15
ENDMDL
MODEL 3
REMARK VINA RESULT:     -13.2      5.300     10.409
REMARK SMILES CN1C(=O)C[C@@H](C(=O)NCCCCNC(=O)c2ccc(-c3c4nc(c(-c5cccc(S(=O)(=O)[O-])c5F)c5ccc([nH]5)c(-c5cccc(S(=O)(=O)[O-])c5F)c5nc(c(-c6cccc(S(=O)(=O)[O-])c6F)c6ccc3[nH]6)C=C5)C=C4)cc2)C12CCN(c1ccc(Cl)cn1)CC2
REMARK SMILES IDX 12 1 11 2 10 3 9 4 7 5 8 6 6 8 1 9 2 10 3 11 80 12 4 13 5 14
REMARK SMILES IDX 81 15 92 16 82 17 91 18 83 19 84 20 85 21 90 22 86 23 89 24
REMARK SMILES IDX 87 25 88 26 13 27 14 28 15 29 16 31 17 32 18 33 79 34 19 35
REMARK SMILES IDX 78 36 20 37 21 38 22 39 72 40 23 41 77 42 71 43 73 44 24 45
REMARK SMILES IDX 76 46 70 47 69 48 25 50 57 51 37 52 56 53 38 54 41 55 55 56
REMARK SMILES IDX 74 57 39 58 40 59 54 61 75 62 42 63 26 64 27 65 35 66 28 67
REMARK SMILES IDX 30 68 36 69 29 70 31 71 32 72 33 73 34 74 58 75 59 76 67 77
REMARK SMILES IDX 60 78 62 79 68 80 61 81 63 82 64 83 65 84 66 85 43 86 44 87
REMARK SMILES IDX 52 88 45 89 47 90 53 91 46 92 48 93 49 94 50 95 51 96
REMARK H PARENT 9 7 14 30 73 49 41 60
REMARK Flexibility Score: inf
ROOT
ATOM      1  C   UNL A   1      35.943  21.457  25.755  1.00  0.00     0.023 C 
ENDROOT
BRANCH   1   2
ATOM      2  C   UNL A   1      34.896  20.642  25.004  1.00  0.00     0.023 C 
BRANCH   2   3
ATOM      3  C   UNL A   1      33.669  21.440  24.555  1.00  0.00     0.116 C 
BRANCH   3   4
ATOM      4  N   UNL A   1      33.982  22.567  23.693  1.00  0.00    -0.356 N 
ATOM      5  C   UNL A   1      33.950  23.912  23.862  1.00  0.00     0.226 C 
ATOM      6  O   UNL A   1      34.346  24.591  22.907  1.00  0.00    -0.275 OA
ATOM      7  H   UNL A   1      34.281  22.296  22.795  1.00  0.00     0.163 HD
BRANCH   5   8
ATOM      8  C   UNL A   1      33.439  24.644  25.105  1.00  0.00     0.113 C 
ATOM      9  C   UNL A   1      30.293  23.198  26.496  1.00  0.00     0.147 C 
ATOM     10  N   UNL A   1      31.617  23.731  26.241  1.00  0.00    -0.339 N 
ATOM     11  C   UNL A   1      32.722  23.372  27.001  1.00  0.00     0.223 C 
ATOM     12  C   UNL A   1      31.911  24.807  25.277  1.00  0.00     0.058 C 
ATOM     13  O   UNL A   1      32.733  22.621  27.964  1.00  0.00    -0.275 OA
ATOM     14  C   UNL A   1      33.940  24.031  26.414  1.00  0.00     0.116 C 
ATOM     15  C   UNL A   1      31.118  24.694  23.958  1.00  0.00     0.051 C 
ATOM     16  C   UNL A   1      31.578  26.173  25.967  1.00  0.00     0.051 C 
ATOM     17  C   UNL A   1      31.249  25.924  23.081  1.00  0.00     0.120 C 
ATOM     18  C   UNL A   1      31.585  27.383  25.017  1.00  0.00     0.120 C 
ATOM     19  N   UNL A   1      30.768  27.041  23.869  1.00  0.00    -0.356 N 
BRANCH  19  20
ATOM     20  C   UNL A   1      30.031  27.999  23.205  1.00  0.00     0.128 A 
ATOM     21  C   UNL A   1      30.707  28.980  22.468  1.00  0.00     0.048 A 
ATOM     22  N   UNL A   1      28.686  27.978  23.272  1.00  0.00    -0.238 NA
ATOM     23  C   UNL A   1      29.998  29.982  21.812  1.00  0.00     0.026 A 
ATOM     24  C   UNL A   1      28.015  28.982  22.651  1.00  0.00     0.134 A 
ATOM     25  C   UNL A   1      28.619  29.991  21.918  1.00  0.00     0.059 A 
ATOM     26  Cl  UNL A   1      27.693  31.213  21.151  1.00  0.00    -0.083 Cl
ENDBRANCH  19  20
ENDBRANCH   5   8
ENDBRANCH   3   4
ENDBRANCH   2   3
ENDBRANCH   1   2
BRANCH   1  27
ATOM     27  C   UNL A   1      37.280  21.542  25.038  1.00  0.00     0.116 C 
BRANCH  27  28
ATOM     28  N   UNL A   1      38.191  20.466  25.415  1.00  0.00    -0.352 N 
ATOM     29  C   UNL A   1      39.414  20.560  26.029  1.00  0.00     0.251 C 
ATOM     30  H   UNL A   1      37.888  19.554  25.201  1.00  0.00     0.163 HD
ATOM     31  O   UNL A   1      40.132  19.574  26.150  1.00  0.00    -0.269 OA
BRANCH  29  32
ATOM     32  C   UNL A   1      39.850  21.880  26.515  1.00  0.00     0.039 A 
ATOM     33  C   UNL A   1      40.792  21.951  27.541  1.00  0.00     0.014 A 
ATOM     34  C   UNL A   1      39.374  23.036  25.892  1.00  0.00     0.014 A 
ATOM     35  C   UNL A   1      41.301  23.195  27.907  1.00  0.00     0.010 A 
ATOM     36  C   UNL A   1      39.954  24.257  26.190  1.00  0.00     0.010 A 
ATOM     37  C   UNL A   1      40.909  24.351  27.214  1.00  0.00    -0.014 A 
BRANCH  37  38
ATOM     38  C   UNL A   1      41.454  25.684  27.554  1.00  0.00     0.031 A 
ATOM     39  C   UNL A   1      42.870  26.023  27.175  1.00  0.00     0.074 A 
ATOM     40  C   UNL A   1      40.717  26.540  28.287  1.00  0.00     0.049 A 
ATOM     41  N   UNL A   1      43.563  27.095  27.451  1.00  0.00    -0.248 NA
ATOM     42  C   UNL A   1      43.623  25.001  26.425  1.00  0.00     0.031 C 
ATOM     43  C   UNL A   1      39.369  26.278  28.797  1.00  0.00     0.029 A 
ATOM     44  N   UNL A   1      41.010  27.795  28.755  1.00  0.00    -0.354 N 
ATOM     45  C   UNL A   1      44.839  26.857  26.955  1.00  0.00     0.074 A 
ATOM     46  C   UNL A   1      44.839  25.522  26.400  1.00  0.00     0.031 C 
ATOM     47  C   UNL A   1      38.947  27.345  29.497  1.00  0.00     0.029 A 
ATOM     48  C   UNL A   1      40.001  28.355  29.504  1.00  0.00     0.049 A 
ATOM     49  H   UNL A   1      41.862  28.253  28.572  1.00  0.00     0.167 HD
ATOM     50  C   UNL A   1      45.904  27.691  26.924  1.00  0.00     0.034 A 
ATOM     51  C   UNL A   1      39.935  29.551  30.120  1.00  0.00     0.034 A 
ATOM     52  C   UNL A   1      45.869  29.042  27.405  1.00  0.00     0.049 A 
ATOM     53  C   UNL A   1      41.098  30.496  29.985  1.00  0.00     0.074 A 
ATOM     54  C   UNL A   1      46.854  30.009  27.330  1.00  0.00     0.029 A 
ATOM     55  N   UNL A   1      44.783  29.622  28.044  1.00  0.00    -0.354 N 
ATOM     56  N   UNL A   1      42.241  30.316  29.366  1.00  0.00    -0.248 NA
ATOM     57  C   UNL A   1      40.948  31.827  30.593  1.00  0.00     0.031 C 
ATOM     58  C   UNL A   1      46.364  31.175  27.929  1.00  0.00     0.029 A 
ATOM     59  C   UNL A   1      45.069  30.936  28.363  1.00  0.00     0.049 A 
ATOM     60  H   UNL A   1      43.934  29.165  28.239  1.00  0.00     0.167 HD
ATOM     61  C   UNL A   1      42.927  31.519  29.475  1.00  0.00     0.074 A 
ATOM     62  C   UNL A   1      42.065  32.427  30.204  1.00  0.00     0.031 C 
ATOM     63  C   UNL A   1      44.167  31.840  29.030  1.00  0.00     0.034 A 
BRANCH  50  64
ATOM     64  C   UNL A   1      47.167  27.183  26.279  1.00  0.00     0.023 A 
ATOM     65  C   UNL A   1      47.385  27.416  24.905  1.00  0.00     0.012 A 
ATOM     66  C   UNL A   1      48.151  26.515  27.030  1.00  0.00     0.148 A 
ATOM     67  C   UNL A   1      48.543  26.956  24.280  1.00  0.00     0.002 A 
ATOM     68  C   UNL A   1      49.325  26.100  26.410  1.00  0.00     0.091 A 
ATOM     69  F   UNL A   1      47.916  26.279  28.329  1.00  0.00    -0.205 F 
ATOM     70  C   UNL A   1      49.516  26.308  25.034  1.00  0.00     0.022 A 
BRANCH  68  71
ATOM     71  S   UNL A   1      50.673  25.326  27.311  1.00  0.00     0.127 S 
ATOM     72  O   UNL A   1      51.096  26.409  28.197  1.00  0.00    -0.237 OA
ATOM     73  O   UNL A   1      49.996  24.217  27.986  1.00  0.00    -0.237 OA
ATOM     74  O   UNL A   1      51.644  24.921  26.306  1.00  0.00    -0.744 OA
ENDBRANCH  68  71
ENDBRANCH  50  64
BRANCH  51  75
ATOM     75  C   UNL A   1      38.688  29.957  30.827  1.00  0.00     0.023 A 
ATOM     76  C   UNL A   1      38.490  29.546  32.160  1.00  0.00     0.012 A 
ATOM     77  C   UNL A   1      37.720  30.773  30.210  1.00  0.00     0.148 A 
ATOM     78  C   UNL A   1      37.337  29.911  32.855  1.00  0.00     0.002 A 
ATOM     79  C   UNL A   1      36.598  31.176  30.926  1.00  0.00     0.091 A 
ATOM     80  F   UNL A   1      37.921  31.147  28.938  1.00  0.00    -0.205 F 
ATOM     81  C   UNL A   1      36.396  30.733  32.243  1.00  0.00     0.022 A 
BRANCH  79  82
ATOM     82  S   UNL A   1      35.403  32.342  30.260  1.00  0.00     0.127 S 
ATOM     83  O   UNL A   1      34.901  31.623  29.093  1.00  0.00    -0.237 OA
ATOM     84  O   UNL A   1      34.451  32.467  31.364  1.00  0.00    -0.237 OA
ATOM     85  O   UNL A   1      36.160  33.556  29.985  1.00  0.00    -0.744 OA
ENDBRANCH  79  82
ENDBRANCH  51  75
BRANCH  63  86
ATOM     86  C   UNL A   1      44.656  33.241  29.277  1.00  0.00     0.023 A 
ATOM     87  C   UNL A   1      45.324  33.546  30.478  1.00  0.00     0.012 A 
ATOM     88  C   UNL A   1      44.528  34.230  28.283  1.00  0.00     0.148 A 
ATOM     89  C   UNL A   1      45.834  34.823  30.699  1.00  0.00     0.002 A 
ATOM     90  C   UNL A   1      45.080  35.488  28.491  1.00  0.00     0.091 A 
ATOM     91  F   UNL A   1      43.869  33.926  27.155  1.00  0.00    -0.205 F 
ATOM     92  C   UNL A   1      45.724  35.790  29.701  1.00  0.00     0.022 A 
BRANCH  90  93
ATOM     93  S   UNL A   1      45.068  36.758  27.220  1.00  0.00     0.127 S 
ATOM     94  O   UNL A   1      45.721  37.872  27.905  1.00  0.00    -0.237 OA
ATOM     95  O   UNL A   1      45.863  36.145  26.156  1.00  0.00    -0.237 OA
ATOM     96  O   UNL A   1      43.667  36.964  26.878  1.00  0.00    -0.744 OA
ENDBRANCH  90  93
ENDBRANCH  63  86
ENDBRANCH  37  38
ENDBRANCH  29  32
ENDBRANCH  27  28
ENDBRANCH   1  27
TORSDOF 15
ENDMDL
