MODEL 1
REMARK VINA RESULT:     -12.4      0.000      0.000
REMARK SMILES Nc1nc(N2CCCCC2)nc2c1[C@H](C(=O)NCCCCNC(=O)c1ccc(-c3c4nc(c(-c5cccc(S(=O)(=O)[O-])c5F)c5ccc([nH]5)c(-c5cccc(S(=O)(=O)[O-])c5F)c5nc(c(-c6cccc(S(=O)(=O)[O-])c6F)c6ccc3[nH]6)C=C5)C=C4)cc1)CC(=O)N2
REMARK SMILES IDX 20 1 19 2 18 3 17 4 15 5 16 6 14 8 2 9 3 10 13 11 4 12 12 13
REMARK SMILES IDX 11 14 91 15 88 16 89 17 90 19 1 20 5 23 6 24 10 25 7 26 9 27
REMARK SMILES IDX 8 28 21 29 22 30 23 31 24 33 25 34 26 35 87 36 27 37 86 38
REMARK SMILES IDX 28 39 29 40 30 41 80 42 31 43 85 44 79 45 81 46 32 47 84 48
REMARK SMILES IDX 78 49 77 50 33 52 65 53 45 54 64 55 46 56 49 57 63 58 82 59
REMARK SMILES IDX 47 60 48 61 62 63 83 64 50 65 34 66 35 67 43 68 36 69 38 70
REMARK SMILES IDX 44 71 37 72 39 73 40 74 41 75 42 76 66 77 67 78 75 79 68 80
REMARK SMILES IDX 70 81 76 82 69 83 71 84 72 85 73 86 74 87 51 88 52 89 60 90
REMARK SMILES IDX 53 91 55 92 61 93 54 94 56 95 57 96 58 97 59 98
REMARK H PARENT 17 7 91 18 1 21 1 22 22 32 81 51 49 62
REMARK Flexibility Score: inf
ROOT
ATOM      1  C   UNL A   1      33.209  28.389  25.260  1.00  0.00     0.023 C 
ENDROOT
BRANCH   1   2
ATOM      2  C   UNL A   1      33.804  27.412  24.242  1.00  0.00     0.023 C 
BRANCH   2   3
ATOM      3  C   UNL A   1      32.817  26.363  23.720  1.00  0.00     0.116 C 
BRANCH   3   4
ATOM      4  N   UNL A   1      33.512  25.361  22.942  1.00  0.00    -0.356 N 
ATOM      5  C   UNL A   1      34.207  24.256  23.323  1.00  0.00     0.228 C 
ATOM      6  O   UNL A   1      34.775  23.637  22.419  1.00  0.00    -0.274 OA
ATOM      7  H   UNL A   1      33.477  25.504  21.968  1.00  0.00     0.163 HD
BRANCH   5   8
ATOM      8  C   UNL A   1      34.165  23.723  24.763  1.00  0.00     0.125 C 
ATOM      9  C   UNL A   1      32.868  21.553  24.439  1.00  0.00     0.135 A 
ATOM     10  N   UNL A   1      32.793  20.220  24.407  1.00  0.00    -0.196 NA
ATOM     11  C   UNL A   1      34.025  22.220  24.767  1.00  0.00     0.050 A 
ATOM     12  C   UNL A   1      33.899  19.517  24.683  1.00  0.00     0.229 A 
ATOM     13  C   UNL A   1      35.117  21.404  24.982  1.00  0.00     0.144 A 
ATOM     14  N   UNL A   1      35.079  20.069  24.978  1.00  0.00    -0.195 NA
ATOM     15  N   UNL A   1      36.368  21.977  25.180  1.00  0.00    -0.310 N 
ATOM     16  C   UNL A   1      35.336  24.116  25.660  1.00  0.00     0.119 C 
ATOM     17  C   UNL A   1      36.574  23.307  25.380  1.00  0.00     0.226 C 
ATOM     18  H   UNL A   1      37.153  21.383  25.174  1.00  0.00     0.171 HD
ATOM     19  O   UNL A   1      37.701  23.788  25.460  1.00  0.00    -0.275 OA
BRANCH   9  20
ATOM     20  N   UNL A   1      31.695  22.221  24.116  1.00  0.00    -0.383 N 
ATOM     21  H   UNL A   1      31.161  21.932  23.342  1.00  0.00     0.158 HD
ATOM     22  H   UNL A   1      31.398  22.985  24.662  1.00  0.00     0.158 HD
ENDBRANCH   9  20
BRANCH  12  23
ATOM     23  N   UNL A   1      33.780  18.157  24.682  1.00  0.00    -0.341 N 
ATOM     24  C   UNL A   1      32.449  17.593  24.753  1.00  0.00     0.119 C 
ATOM     25  C   UNL A   1      34.863  17.328  24.211  1.00  0.00     0.119 C 
ATOM     26  C   UNL A   1      32.487  16.378  25.676  1.00  0.00     0.022 C 
ATOM     27  C   UNL A   1      34.958  16.126  25.154  1.00  0.00     0.022 C 
ATOM     28  C   UNL A   1      33.610  15.410  25.291  1.00  0.00     0.004 C 
ENDBRANCH  12  23
ENDBRANCH   5   8
ENDBRANCH   3   4
ENDBRANCH   2   3
ENDBRANCH   1   2
BRANCH   1  29
ATOM     29  C   UNL A   1      34.188  28.906  26.306  1.00  0.00     0.116 C 
BRANCH  29  30
ATOM     30  N   UNL A   1      33.838  30.230  26.798  1.00  0.00    -0.352 N 
ATOM     31  C   UNL A   1      34.493  31.000  27.731  1.00  0.00     0.251 C 
ATOM     32  H   UNL A   1      33.025  30.627  26.411  1.00  0.00     0.163 HD
ATOM     33  O   UNL A   1      33.996  32.043  28.126  1.00  0.00    -0.269 OA
BRANCH  31  34
ATOM     34  C   UNL A   1      35.789  30.532  28.268  1.00  0.00     0.039 A 
ATOM     35  C   UNL A   1      35.795  29.780  29.444  1.00  0.00     0.014 A 
ATOM     36  C   UNL A   1      36.984  30.822  27.604  1.00  0.00     0.014 A 
ATOM     37  C   UNL A   1      37.002  29.270  29.929  1.00  0.00     0.010 A 
ATOM     38  C   UNL A   1      38.175  30.263  28.054  1.00  0.00     0.010 A 
ATOM     39  C   UNL A   1      38.197  29.490  29.225  1.00  0.00    -0.014 A 
BRANCH  39  40
ATOM     40  C   UNL A   1      39.482  28.923  29.700  1.00  0.00     0.031 A 
ATOM     41  C   UNL A   1      40.227  29.591  30.823  1.00  0.00     0.074 A 
ATOM     42  C   UNL A   1      40.016  27.856  29.073  1.00  0.00     0.049 A 
ATOM     43  N   UNL A   1      41.386  29.278  31.341  1.00  0.00    -0.248 NA
ATOM     44  C   UNL A   1      39.602  30.779  31.430  1.00  0.00     0.031 C 
ATOM     45  C   UNL A   1      39.424  27.169  27.923  1.00  0.00     0.029 A 
ATOM     46  N   UNL A   1      41.190  27.180  29.294  1.00  0.00    -0.354 N 
ATOM     47  C   UNL A   1      41.642  30.243  32.307  1.00  0.00     0.074 A 
ATOM     48  C   UNL A   1      40.535  31.172  32.285  1.00  0.00     0.031 C 
ATOM     49  C   UNL A   1      40.235  26.169  27.543  1.00  0.00     0.029 A 
ATOM     50  C   UNL A   1      41.416  26.158  28.401  1.00  0.00     0.049 A 
ATOM     51  H   UNL A   1      41.812  27.406  30.023  1.00  0.00     0.167 HD
ATOM     52  C   UNL A   1      42.689  30.327  33.161  1.00  0.00     0.034 A 
ATOM     53  C   UNL A   1      42.458  25.310  28.286  1.00  0.00     0.034 A 
ATOM     54  C   UNL A   1      43.757  29.367  33.221  1.00  0.00     0.049 A 
ATOM     55  C   UNL A   1      43.589  25.402  29.277  1.00  0.00     0.074 A 
ATOM     56  C   UNL A   1      44.810  29.314  34.116  1.00  0.00     0.029 A 
ATOM     57  N   UNL A   1      43.910  28.297  32.355  1.00  0.00    -0.354 N 
ATOM     58  N   UNL A   1      43.730  26.221  30.291  1.00  0.00    -0.248 NA
ATOM     59  C   UNL A   1      44.684  24.432  29.132  1.00  0.00     0.031 C 
ATOM     60  C   UNL A   1      45.612  28.219  33.780  1.00  0.00     0.029 A 
ATOM     61  C   UNL A   1      45.048  27.582  32.687  1.00  0.00     0.049 A 
ATOM     62  H   UNL A   1      43.301  28.077  31.614  1.00  0.00     0.167 HD
ATOM     63  C   UNL A   1      44.916  25.853  30.917  1.00  0.00     0.074 A 
ATOM     64  C   UNL A   1      45.438  24.717  30.187  1.00  0.00     0.031 C 
ATOM     65  C   UNL A   1      45.528  26.419  31.986  1.00  0.00     0.034 A 
BRANCH  52  66
ATOM     66  C   UNL A   1      42.703  31.454  34.159  1.00  0.00     0.023 A 
ATOM     67  C   UNL A   1      43.378  32.649  33.838  1.00  0.00     0.012 A 
ATOM     68  C   UNL A   1      41.961  31.375  35.353  1.00  0.00     0.148 A 
ATOM     69  C   UNL A   1      43.329  33.744  34.698  1.00  0.00     0.002 A 
ATOM     70  C   UNL A   1      41.883  32.486  36.185  1.00  0.00     0.091 A 
ATOM     71  F   UNL A   1      41.341  30.223  35.646  1.00  0.00    -0.205 F 
ATOM     72  C   UNL A   1      42.573  33.667  35.863  1.00  0.00     0.022 A 
BRANCH  70  73
ATOM     73  S   UNL A   1      40.870  32.522  37.669  1.00  0.00     0.127 S 
ATOM     74  O   UNL A   1      41.718  31.804  38.621  1.00  0.00    -0.237 OA
ATOM     75  O   UNL A   1      40.750  33.958  37.922  1.00  0.00    -0.237 OA
ATOM     76  O   UNL A   1      39.623  31.854  37.324  1.00  0.00    -0.744 OA
ENDBRANCH  70  73
ENDBRANCH  52  66
BRANCH  53  77
ATOM     77  C   UNL A   1      42.443  24.254  27.233  1.00  0.00     0.023 A 
ATOM     78  C   UNL A   1      43.305  24.373  26.125  1.00  0.00     0.012 A 
ATOM     79  C   UNL A   1      41.616  23.119  27.339  1.00  0.00     0.148 A 
ATOM     80  C   UNL A   1      43.324  23.396  25.130  1.00  0.00     0.002 A 
ATOM     81  C   UNL A   1      41.682  22.121  26.373  1.00  0.00     0.091 A 
ATOM     82  F   UNL A   1      40.789  23.030  28.390  1.00  0.00    -0.205 F 
ATOM     83  C   UNL A   1      42.523  22.265  25.259  1.00  0.00     0.022 A 
BRANCH  81  84
ATOM     84  S   UNL A   1      40.790  20.570  26.533  1.00  0.00     0.127 S 
ATOM     85  O   UNL A   1      39.449  20.947  26.096  1.00  0.00    -0.237 OA
ATOM     86  O   UNL A   1      41.519  19.702  25.607  1.00  0.00    -0.237 OA
ATOM     87  O   UNL A   1      40.919  20.190  27.934  1.00  0.00    -0.744 OA
ENDBRANCH  81  84
ENDBRANCH  53  77
BRANCH  65  88
ATOM     88  C   UNL A   1      46.835  25.829  32.448  1.00  0.00     0.023 A 
ATOM     89  C   UNL A   1      48.044  26.362  31.961  1.00  0.00     0.012 A 
ATOM     90  C   UNL A   1      46.869  24.837  33.448  1.00  0.00     0.148 A 
ATOM     91  C   UNL A   1      49.268  25.904  32.448  1.00  0.00     0.002 A 
ATOM     92  C   UNL A   1      48.091  24.421  33.964  1.00  0.00     0.091 A 
ATOM     93  F   UNL A   1      45.707  24.331  33.887  1.00  0.00    -0.205 F 
ATOM     94  C   UNL A   1      49.290  24.946  33.458  1.00  0.00     0.022 A 
BRANCH  92  95
ATOM     95  S   UNL A   1      48.214  23.270  35.339  1.00  0.00     0.127 S 
ATOM     96  O   UNL A   1      47.660  22.049  34.756  1.00  0.00    -0.237 OA
ATOM     97  O   UNL A   1      49.656  23.229  35.582  1.00  0.00    -0.237 OA
ATOM     98  O   UNL A   1      47.435  23.855  36.422  1.00  0.00    -0.744 OA
ENDBRANCH  92  95
ENDBRANCH  65  88
ENDBRANCH  39  40
ENDBRANCH  31  34
ENDBRANCH  29  30
ENDBRANCH   1  29
TORSDOF 16
ENDMDL
MODEL 2
REMARK VINA RESULT:     -12.3      1.317      1.920
REMARK SMILES Nc1nc(N2CCCCC2)nc2c1[C@H](C(=O)NCCCCNC(=O)c1ccc(-c3c4nc(c(-c5cccc(S(=O)(=O)[O-])c5F)c5ccc([nH]5)c(-c5cccc(S(=O)(=O)[O-])c5F)c5nc(c(-c6cccc(S(=O)(=O)[O-])c6F)c6ccc3[nH]6)C=C5)C=C4)cc1)CC(=O)N2
REMARK SMILES IDX 20 1 19 2 18 3 17 4 15 5 16 6 14 8 2 9 3 10 13 11 4 12 12 13
REMARK SMILES IDX 11 14 91 15 88 16 89 17 90 19 1 20 5 23 6 24 10 25 7 26 9 27
REMARK SMILES IDX 8 28 21 29 22 30 23 31 24 33 25 34 26 35 87 36 27 37 86 38
REMARK SMILES IDX 28 39 29 40 30 41 80 42 31 43 85 44 79 45 81 46 32 47 84 48
REMARK SMILES IDX 78 49 77 50 33 52 65 53 45 54 64 55 46 56 49 57 63 58 82 59
REMARK SMILES IDX 47 60 48 61 62 63 83 64 50 65 34 66 35 67 43 68 36 69 38 70
REMARK SMILES IDX 44 71 37 72 39 73 40 74 41 75 42 76 66 77 67 78 75 79 68 80
REMARK SMILES IDX 70 81 76 82 69 83 71 84 72 85 73 86 74 87 51 88 52 89 60 90
REMARK SMILES IDX 53 91 55 92 61 93 54 94 56 95 57 96 58 97 59 98
REMARK H PARENT 17 7 91 18 1 21 1 22 22 32 81 51 49 62
REMARK Flexibility Score: inf
ROOT
ATOM      1  C   UNL A   1      33.447  27.835  26.727  1.00  0.00     0.023 C 
ENDROOT
BRANCH   1   2
ATOM      2  C   UNL A   1      31.927  27.902  26.894  1.00  0.00     0.023 C 
BRANCH   2   3
ATOM      3  C   UNL A   1      31.151  26.888  26.048  1.00  0.00     0.116 C 
BRANCH   3   4
ATOM      4  N   UNL A   1      30.930  25.670  26.796  1.00  0.00    -0.356 N 
ATOM      5  C   UNL A   1      31.454  24.425  26.652  1.00  0.00     0.228 C 
ATOM      6  O   UNL A   1      30.994  23.556  27.398  1.00  0.00    -0.274 OA
ATOM      7  H   UNL A   1      30.288  25.759  27.538  1.00  0.00     0.163 HD
BRANCH   5   8
ATOM      8  C   UNL A   1      32.649  24.144  25.727  1.00  0.00     0.125 C 
ATOM      9  C   UNL A   1      33.183  21.729  26.344  1.00  0.00     0.135 A 
ATOM     10  N   UNL A   1      33.219  20.424  26.065  1.00  0.00    -0.196 NA
ATOM     11  C   UNL A   1      32.755  22.667  25.434  1.00  0.00     0.050 A 
ATOM     12  C   UNL A   1      32.799  20.023  24.858  1.00  0.00     0.229 A 
ATOM     13  C   UNL A   1      32.295  22.145  24.242  1.00  0.00     0.144 A 
ATOM     14  N   UNL A   1      32.333  20.849  23.918  1.00  0.00    -0.195 NA
ATOM     15  N   UNL A   1      31.709  22.990  23.307  1.00  0.00    -0.310 N 
ATOM     16  C   UNL A   1      32.676  24.917  24.411  1.00  0.00     0.119 C 
ATOM     17  C   UNL A   1      31.730  24.347  23.388  1.00  0.00     0.226 C 
ATOM     18  H   UNL A   1      31.249  22.579  22.539  1.00  0.00     0.171 HD
ATOM     19  O   UNL A   1      31.123  25.058  22.592  1.00  0.00    -0.275 OA
BRANCH   9  20
ATOM     20  N   UNL A   1      33.605  22.076  27.619  1.00  0.00    -0.383 N 
ATOM     21  H   UNL A   1      34.137  21.441  28.152  1.00  0.00     0.158 HD
ATOM     22  H   UNL A   1      33.373  22.957  27.992  1.00  0.00     0.158 HD
ENDBRANCH   9  20
BRANCH  12  23
ATOM     23  N   UNL A   1      32.888  18.688  24.588  1.00  0.00    -0.341 N 
ATOM     24  C   UNL A   1      32.606  17.759  25.662  1.00  0.00     0.119 C 
ATOM     25  C   UNL A   1      32.842  18.211  23.227  1.00  0.00     0.119 C 
ATOM     26  C   UNL A   1      33.606  16.608  25.581  1.00  0.00     0.022 C 
ATOM     27  C   UNL A   1      33.877  17.089  23.103  1.00  0.00     0.022 C 
ATOM     28  C   UNL A   1      33.667  16.010  24.172  1.00  0.00     0.004 C 
ENDBRANCH  12  23
ENDBRANCH   5   8
ENDBRANCH   3   4
ENDBRANCH   2   3
ENDBRANCH   1   2
BRANCH   1  29
ATOM     29  C   UNL A   1      34.072  29.030  26.018  1.00  0.00     0.116 C 
BRANCH  29  30
ATOM     30  N   UNL A   1      33.817  30.288  26.703  1.00  0.00    -0.352 N 
ATOM     31  C   UNL A   1      34.538  30.875  27.715  1.00  0.00     0.251 C 
ATOM     32  H   UNL A   1      33.022  30.784  26.402  1.00  0.00     0.163 HD
ATOM     33  O   UNL A   1      34.117  31.879  28.270  1.00  0.00    -0.269 OA
BRANCH  31  34
ATOM     34  C   UNL A   1      35.813  30.260  28.142  1.00  0.00     0.039 A 
ATOM     35  C   UNL A   1      36.940  30.424  27.334  1.00  0.00     0.014 A 
ATOM     36  C   UNL A   1      35.896  29.543  29.339  1.00  0.00     0.014 A 
ATOM     37  C   UNL A   1      38.169  29.911  27.754  1.00  0.00     0.010 A 
ATOM     38  C   UNL A   1      37.131  29.087  29.785  1.00  0.00     0.010 A 
ATOM     39  C   UNL A   1      38.278  29.258  28.993  1.00  0.00    -0.014 A 
BRANCH  39  40
ATOM     40  C   UNL A   1      39.581  28.742  29.477  1.00  0.00     0.031 A 
ATOM     41  C   UNL A   1      40.309  29.459  30.580  1.00  0.00     0.074 A 
ATOM     42  C   UNL A   1      40.145  27.677  28.873  1.00  0.00     0.049 A 
ATOM     43  N   UNL A   1      41.479  29.195  31.100  1.00  0.00    -0.248 NA
ATOM     44  C   UNL A   1      39.651  30.643  31.160  1.00  0.00     0.031 C 
ATOM     45  C   UNL A   1      39.569  26.945  27.743  1.00  0.00     0.029 A 
ATOM     46  N   UNL A   1      41.339  27.043  29.105  1.00  0.00    -0.354 N 
ATOM     47  C   UNL A   1      41.710  30.190  32.042  1.00  0.00     0.074 A 
ATOM     48  C   UNL A   1      40.575  31.084  32.002  1.00  0.00     0.031 C 
ATOM     49  C   UNL A   1      40.409  25.961  27.383  1.00  0.00     0.029 A 
ATOM     50  C   UNL A   1      41.594  26.007  28.236  1.00  0.00     0.049 A 
ATOM     51  H   UNL A   1      41.957  27.305  29.826  1.00  0.00     0.167 HD
ATOM     52  C   UNL A   1      42.757  30.326  32.888  1.00  0.00     0.034 A 
ATOM     53  C   UNL A   1      42.660  25.188  28.137  1.00  0.00     0.034 A 
ATOM     54  C   UNL A   1      43.853  29.401  32.967  1.00  0.00     0.049 A 
ATOM     55  C   UNL A   1      43.791  25.338  29.120  1.00  0.00     0.074 A 
ATOM     56  C   UNL A   1      44.911  29.402  33.858  1.00  0.00     0.029 A 
ATOM     57  N   UNL A   1      44.036  28.315  32.126  1.00  0.00    -0.354 N 
ATOM     58  N   UNL A   1      43.911  26.186  30.113  1.00  0.00    -0.248 NA
ATOM     59  C   UNL A   1      44.915  24.399  28.994  1.00  0.00     0.031 C 
ATOM     60  C   UNL A   1      45.744  28.324  33.545  1.00  0.00     0.029 A 
ATOM     61  C   UNL A   1      45.196  27.643  32.470  1.00  0.00     0.049 A 
ATOM     62  H   UNL A   1      43.431  28.059  31.393  1.00  0.00     0.167 HD
ATOM     63  C   UNL A   1      45.110  25.869  30.743  1.00  0.00     0.074 A 
ATOM     64  C   UNL A   1      45.664  24.732  30.038  1.00  0.00     0.031 C 
ATOM     65  C   UNL A   1      45.709  26.479  31.795  1.00  0.00     0.034 A 
BRANCH  52  66
ATOM     66  C   UNL A   1      42.740  31.477  33.858  1.00  0.00     0.023 A 
ATOM     67  C   UNL A   1      43.233  32.732  33.446  1.00  0.00     0.012 A 
ATOM     68  C   UNL A   1      42.139  31.349  35.125  1.00  0.00     0.148 A 
ATOM     69  C   UNL A   1      43.144  33.839  34.287  1.00  0.00     0.002 A 
ATOM     70  C   UNL A   1      42.017  32.469  35.941  1.00  0.00     0.091 A 
ATOM     71  F   UNL A   1      41.693  30.143  35.504  1.00  0.00    -0.205 F 
ATOM     72  C   UNL A   1      42.525  33.711  35.527  1.00  0.00     0.022 A 
BRANCH  70  73
ATOM     73  S   UNL A   1      41.165  32.433  37.523  1.00  0.00     0.127 S 
ATOM     74  O   UNL A   1      41.122  33.854  37.866  1.00  0.00    -0.237 OA
ATOM     75  O   UNL A   1      39.872  31.853  37.160  1.00  0.00    -0.237 OA
ATOM     76  O   UNL A   1      41.981  31.608  38.403  1.00  0.00    -0.744 OA
ENDBRANCH  70  73
ENDBRANCH  52  66
BRANCH  53  77
ATOM     77  C   UNL A   1      42.673  24.107  27.110  1.00  0.00     0.023 A 
ATOM     78  C   UNL A   1      43.367  24.313  25.901  1.00  0.00     0.012 A 
ATOM     79  C   UNL A   1      42.041  22.868  27.335  1.00  0.00     0.148 A 
ATOM     80  C   UNL A   1      43.409  23.316  24.926  1.00  0.00     0.002 A 
ATOM     81  C   UNL A   1      42.136  21.859  26.383  1.00  0.00     0.091 A 
ATOM     82  F   UNL A   1      41.371  22.696  28.483  1.00  0.00    -0.205 F 
ATOM     83  C   UNL A   1      42.805  22.086  25.171  1.00  0.00     0.022 A 
BRANCH  81  84
ATOM     84  S   UNL A   1      41.509  20.201  26.677  1.00  0.00     0.127 S 
ATOM     85  O   UNL A   1      40.075  20.441  26.807  1.00  0.00    -0.237 OA
ATOM     86  O   UNL A   1      41.909  19.504  25.454  1.00  0.00    -0.237 OA
ATOM     87  O   UNL A   1      42.188  19.736  27.879  1.00  0.00    -0.744 OA
ENDBRANCH  81  84
ENDBRANCH  53  77
BRANCH  65  88
ATOM     88  C   UNL A   1      47.035  25.941  32.266  1.00  0.00     0.023 A 
ATOM     89  C   UNL A   1      48.224  26.461  31.720  1.00  0.00     0.012 A 
ATOM     90  C   UNL A   1      47.106  25.014  33.325  1.00  0.00     0.148 A 
ATOM     91  C   UNL A   1      49.465  26.054  32.208  1.00  0.00     0.002 A 
ATOM     92  C   UNL A   1      48.345  24.651  33.840  1.00  0.00     0.091 A 
ATOM     93  F   UNL A   1      45.962  24.519  33.820  1.00  0.00    -0.205 F 
ATOM     94  C   UNL A   1      49.525  25.161  33.277  1.00  0.00     0.022 A 
BRANCH  92  95
ATOM     95  S   UNL A   1      48.516  23.592  35.282  1.00  0.00     0.127 S 
ATOM     96  O   UNL A   1      47.948  22.335  34.797  1.00  0.00    -0.237 OA
ATOM     97  O   UNL A   1      49.965  23.569  35.482  1.00  0.00    -0.237 OA
ATOM     98  O   UNL A   1      47.769  24.244  36.349  1.00  0.00    -0.744 OA
ENDBRANCH  92  95
ENDBRANCH  65  88
ENDBRANCH  39  40
ENDBRANCH  31  34
ENDBRANCH  29  30
ENDBRANCH   1  29
TORSDOF 16
ENDMDL
MODEL 3
REMARK VINA RESULT:     -12.2      4.965     10.193
REMARK SMILES Nc1nc(N2CCCCC2)nc2c1[C@H](C(=O)NCCCCNC(=O)c1ccc(-c3c4nc(c(-c5cccc(S(=O)(=O)[O-])c5F)c5ccc([nH]5)c(-c5cccc(S(=O)(=O)[O-])c5F)c5nc(c(-c6cccc(S(=O)(=O)[O-])c6F)c6ccc3[nH]6)C=C5)C=C4)cc1)CC(=O)N2
REMARK SMILES IDX 20 1 19 2 18 3 17 4 15 5 16 6 14 8 2 9 3 10 13 11 4 12 12 13
REMARK SMILES IDX 11 14 91 15 88 16 89 17 90 19 1 20 5 23 6 24 10 25 7 26 9 27
REMARK SMILES IDX 8 28 21 29 22 30 23 31 24 33 25 34 26 35 87 36 27 37 86 38
REMARK SMILES IDX 28 39 29 40 30 41 80 42 31 43 85 44 79 45 81 46 32 47 84 48
REMARK SMILES IDX 78 49 77 50 33 52 65 53 45 54 64 55 46 56 49 57 63 58 82 59
REMARK SMILES IDX 47 60 48 61 62 63 83 64 50 65 34 66 35 67 43 68 36 69 38 70
REMARK SMILES IDX 44 71 37 72 39 73 40 74 41 75 42 76 66 77 67 78 75 79 68 80
REMARK SMILES IDX 70 81 76 82 69 83 71 84 72 85 73 86 74 87 51 88 52 89 60 90
REMARK SMILES IDX 53 91 55 92 61 93 54 94 56 95 57 96 58 97 59 98
REMARK H PARENT 17 7 91 18 1 21 1 22 22 32 81 51 49 62
REMARK Flexibility Score: inf
ROOT
ATOM      1  C   UNL A   1      36.005  21.917  24.207  1.00  0.00     0.023 C 
ENDROOT
BRANCH   1   2
ATOM      2  C   UNL A   1      35.308  23.234  23.856  1.00  0.00     0.023 C 
BRANCH   2   3
ATOM      3  C   UNL A   1      34.581  23.898  25.029  1.00  0.00     0.116 C 
BRANCH   3   4
ATOM      4  N   UNL A   1      34.596  25.337  24.882  1.00  0.00    -0.356 N 
ATOM      5  C   UNL A   1      33.718  26.184  24.285  1.00  0.00     0.228 C 
ATOM      6  O   UNL A   1      34.056  27.370  24.241  1.00  0.00    -0.274 OA
ATOM      7  H   UNL A   1      35.379  25.779  25.284  1.00  0.00     0.163 HD
BRANCH   5   8
ATOM      8  C   UNL A   1      32.324  25.725  23.828  1.00  0.00     0.125 C 
ATOM      9  C   UNL A   1      30.901  27.719  24.532  1.00  0.00     0.135 A 
ATOM     10  N   UNL A   1      30.160  28.794  24.252  1.00  0.00    -0.196 NA
ATOM     11  C   UNL A   1      31.438  26.917  23.554  1.00  0.00     0.050 A 
ATOM     12  C   UNL A   1      29.959  29.105  22.965  1.00  0.00     0.229 A 
ATOM     13  C   UNL A   1      31.215  27.355  22.264  1.00  0.00     0.144 A 
ATOM     14  N   UNL A   1      30.464  28.412  21.942  1.00  0.00    -0.195 NA
ATOM     15  N   UNL A   1      31.831  26.699  21.204  1.00  0.00    -0.310 N 
ATOM     16  C   UNL A   1      32.286  24.789  22.623  1.00  0.00     0.119 C 
ATOM     17  C   UNL A   1      32.491  25.516  21.320  1.00  0.00     0.226 C 
ATOM     18  H   UNL A   1      31.787  27.119  20.314  1.00  0.00     0.171 HD
ATOM     19  O   UNL A   1      33.101  25.014  20.380  1.00  0.00    -0.275 OA
BRANCH   9  20
ATOM     20  N   UNL A   1      31.095  27.468  25.883  1.00  0.00    -0.383 N 
ATOM     21  H   UNL A   1      30.945  26.564  26.243  1.00  0.00     0.158 HD
ATOM     22  H   UNL A   1      31.384  28.194  26.482  1.00  0.00     0.158 HD
ENDBRANCH   9  20
BRANCH  12  23
ATOM     23  N   UNL A   1      29.163  30.185  22.711  1.00  0.00    -0.341 N 
ATOM     24  C   UNL A   1      28.189  30.074  21.646  1.00  0.00     0.119 C 
ATOM     25  C   UNL A   1      28.995  31.220  23.702  1.00  0.00     0.119 C 
ATOM     26  C   UNL A   1      28.155  31.394  20.881  1.00  0.00     0.022 C 
ATOM     27  C   UNL A   1      29.012  32.562  22.965  1.00  0.00     0.022 C 
ATOM     28  C   UNL A   1      27.990  32.590  21.823  1.00  0.00     0.004 C 
ENDBRANCH  12  23
ENDBRANCH   5   8
ENDBRANCH   3   4
ENDBRANCH   2   3
ENDBRANCH   1   2
BRANCH   1  29
ATOM     29  C   UNL A   1      36.647  21.875  25.588  1.00  0.00     0.116 C 
BRANCH  29  30
ATOM     30  N   UNL A   1      37.639  20.819  25.716  1.00  0.00    -0.352 N 
ATOM     31  C   UNL A   1      38.963  20.923  26.071  1.00  0.00     0.251 C 
ATOM     32  H   UNL A   1      37.318  19.908  25.524  1.00  0.00     0.163 HD
ATOM     33  O   UNL A   1      39.695  19.947  26.011  1.00  0.00    -0.269 OA
BRANCH  31  34
ATOM     34  C   UNL A   1      39.493  22.236  26.498  1.00  0.00     0.039 A 
ATOM     35  C   UNL A   1      40.527  22.269  27.435  1.00  0.00     0.014 A 
ATOM     36  C   UNL A   1      38.982  23.421  25.961  1.00  0.00     0.014 A 
ATOM     37  C   UNL A   1      41.088  23.496  27.797  1.00  0.00     0.010 A 
ATOM     38  C   UNL A   1      39.583  24.635  26.276  1.00  0.00     0.010 A 
ATOM     39  C   UNL A   1      40.635  24.685  27.203  1.00  0.00    -0.014 A 
BRANCH  39  40
ATOM     40  C   UNL A   1      41.245  25.993  27.543  1.00  0.00     0.031 A 
ATOM     41  C   UNL A   1      42.669  26.281  27.152  1.00  0.00     0.074 A 
ATOM     42  C   UNL A   1      40.547  26.888  28.270  1.00  0.00     0.049 A 
ATOM     43  N   UNL A   1      43.393  27.340  27.405  1.00  0.00    -0.248 NA
ATOM     44  C   UNL A   1      43.382  25.235  26.398  1.00  0.00     0.031 C 
ATOM     45  C   UNL A   1      39.186  26.691  28.771  1.00  0.00     0.029 A 
ATOM     46  N   UNL A   1      40.895  28.131  28.736  1.00  0.00    -0.354 N 
ATOM     47  C   UNL A   1      44.648  27.078  26.872  1.00  0.00     0.074 A 
ATOM     48  C   UNL A   1      44.601  25.748  26.309  1.00  0.00     0.031 C 
ATOM     49  C   UNL A   1      38.814  27.774  29.473  1.00  0.00     0.029 A 
ATOM     50  C   UNL A   1      39.917  28.732  29.494  1.00  0.00     0.049 A 
ATOM     51  H   UNL A   1      41.765  28.554  28.547  1.00  0.00     0.167 HD
ATOM     52  C   UNL A   1      45.732  27.887  26.826  1.00  0.00     0.034 A 
ATOM     53  C   UNL A   1      39.909  29.918  30.135  1.00  0.00     0.034 A 
ATOM     54  C   UNL A   1      45.755  29.231  27.333  1.00  0.00     0.049 A 
ATOM     55  C   UNL A   1      41.115  30.814  30.029  1.00  0.00     0.074 A 
ATOM     56  C   UNL A   1      46.774  30.161  27.245  1.00  0.00     0.029 A 
ATOM     57  N   UNL A   1      44.717  29.837  28.021  1.00  0.00    -0.354 N 
ATOM     58  N   UNL A   1      42.235  30.614  29.377  1.00  0.00    -0.248 NA
ATOM     59  C   UNL A   1      41.045  32.112  30.716  1.00  0.00     0.031 C 
ATOM     60  C   UNL A   1      46.359  31.326  27.896  1.00  0.00     0.029 A 
ATOM     61  C   UNL A   1      45.074  31.126  28.374  1.00  0.00     0.049 A 
ATOM     62  H   UNL A   1      43.852  29.413  28.228  1.00  0.00     0.167 HD
ATOM     63  C   UNL A   1      42.992  31.766  29.555  1.00  0.00     0.074 A 
ATOM     64  C   UNL A   1      42.191  32.673  30.350  1.00  0.00     0.031 C 
ATOM     65  C   UNL A   1      44.246  32.039  29.119  1.00  0.00     0.034 A 
BRANCH  52  66
ATOM     66  C   UNL A   1      46.969  27.377  26.137  1.00  0.00     0.023 A 
ATOM     67  C   UNL A   1      47.184  27.697  24.781  1.00  0.00     0.012 A 
ATOM     68  C   UNL A   1      47.965  26.684  26.852  1.00  0.00     0.148 A 
ATOM     69  C   UNL A   1      48.363  27.322  24.142  1.00  0.00     0.002 A 
ATOM     70  C   UNL A   1      49.157  26.350  26.218  1.00  0.00     0.091 A 
ATOM     71  F   UNL A   1      47.733  26.374  28.135  1.00  0.00    -0.205 F 
ATOM     72  C   UNL A   1      49.353  26.661  24.862  1.00  0.00     0.022 A 
BRANCH  70  73
ATOM     73  S   UNL A   1      50.531  25.570  27.075  1.00  0.00     0.127 S 
ATOM     74  O   UNL A   1      51.499  25.407  25.990  1.00  0.00    -0.237 OA
ATOM     75  O   UNL A   1      50.889  26.585  28.065  1.00  0.00    -0.237 OA
ATOM     76  O   UNL A   1      50.009  24.329  27.630  1.00  0.00    -0.744 OA
ENDBRANCH  70  73
ENDBRANCH  52  66
BRANCH  53  77
ATOM     77  C   UNL A   1      38.689  30.355  30.873  1.00  0.00     0.023 A 
ATOM     78  C   UNL A   1      38.597  30.113  32.258  1.00  0.00     0.012 A 
ATOM     79  C   UNL A   1      37.642  31.041  30.226  1.00  0.00     0.148 A 
ATOM     80  C   UNL A   1      37.475  30.521  32.979  1.00  0.00     0.002 A 
ATOM     81  C   UNL A   1      36.553  31.495  30.962  1.00  0.00     0.091 A 
ATOM     82  F   UNL A   1      37.738  31.247  28.905  1.00  0.00    -0.205 F 
ATOM     83  C   UNL A   1      36.459  31.222  32.335  1.00  0.00     0.022 A 
BRANCH  81  84
ATOM     84  S   UNL A   1      35.271  32.527  30.241  1.00  0.00     0.127 S 
ATOM     85  O   UNL A   1      34.331  32.657  31.350  1.00  0.00    -0.237 OA
ATOM     86  O   UNL A   1      36.011  33.746  29.913  1.00  0.00    -0.237 OA
ATOM     87  O   UNL A   1      34.787  31.791  29.080  1.00  0.00    -0.744 OA
ENDBRANCH  81  84
ENDBRANCH  53  77
BRANCH  65  88
ATOM     88  C   UNL A   1      44.847  33.372  29.481  1.00  0.00     0.023 A 
ATOM     89  C   UNL A   1      45.598  33.493  30.666  1.00  0.00     0.012 A 
ATOM     90  C   UNL A   1      44.772  34.466  28.595  1.00  0.00     0.148 A 
ATOM     91  C   UNL A   1      46.250  34.686  30.975  1.00  0.00     0.002 A 
ATOM     92  C   UNL A   1      45.465  35.636  28.885  1.00  0.00     0.091 A 
ATOM     93  F   UNL A   1      44.039  34.336  27.479  1.00  0.00    -0.205 F 
ATOM     94  C   UNL A   1      46.195  35.751  30.078  1.00  0.00     0.022 A 
BRANCH  92  95
ATOM     95  S   UNL A   1      45.540  37.019  27.740  1.00  0.00     0.127 S 
ATOM     96  O   UNL A   1      46.492  37.906  28.407  1.00  0.00    -0.237 OA
ATOM     97  O   UNL A   1      46.047  36.387  26.521  1.00  0.00    -0.237 OA
ATOM     98  O   UNL A   1      44.179  37.528  27.636  1.00  0.00    -0.744 OA
ENDBRANCH  92  95
ENDBRANCH  65  88
ENDBRANCH  39  40
ENDBRANCH  31  34
ENDBRANCH  29  30
ENDBRANCH   1  29
TORSDOF 16
ENDMDL
