MODEL 1
REMARK VINA RESULT:     -11.8      0.000      0.000
REMARK SMILES O=C(NCCCCNC(=O)[C@@H]1CSCN1C(=O)c1cccc(Cl)c1)c1ccc(-c2c3nc(c(-c4cccc(S(=O)(=O)[O-])c4F)c4ccc([nH]4)c(-c4cccc(S(=O)(=O)[O-])c4F)c4nc(c(-c5cccc(S(=O)(=O)[O-])c5F)c5ccc2[nH]5)C=C4)C=C3)cc1
REMARK SMILES IDX 5 1 4 2 3 3 1 4 2 5 25 7 26 8 87 9 27 10 86 11 28 12 29 13
REMARK SMILES IDX 30 14 80 15 31 16 85 17 79 18 81 19 32 20 84 21 78 22 77 23
REMARK SMILES IDX 33 25 65 26 45 27 64 28 46 29 49 30 63 31 82 32 47 33 48 34
REMARK SMILES IDX 62 36 83 37 50 38 34 39 35 40 43 41 36 42 38 43 44 44 37 45
REMARK SMILES IDX 39 46 40 47 41 48 42 49 66 50 67 51 75 52 68 53 70 54 76 55
REMARK SMILES IDX 69 56 71 57 72 58 73 59 74 60 51 61 52 62 60 63 53 64 55 65
REMARK SMILES IDX 61 66 54 67 56 68 57 69 58 70 59 71 6 72 7 73 8 74 9 75
REMARK SMILES IDX 10 77 11 78 12 79 15 80 13 81 14 82 16 83 17 84 18 85 19 86
REMARK SMILES IDX 24 87 20 88 22 89 21 90 23 91
REMARK H PARENT 3 6 81 24 49 35 8 76
REMARK Flexibility Score: inf
ROOT
ATOM      1  C   UNL A   1      31.588  32.109  26.878  1.00  0.00     0.023 C 
ENDROOT
BRANCH   1   2
ATOM      2  C   UNL A   1      32.839  32.838  27.347  1.00  0.00     0.116 C 
BRANCH   2   3
ATOM      3  N   UNL A   1      32.582  34.221  27.722  1.00  0.00    -0.352 N 
ATOM      4  O   UNL A   1      32.710  36.080  28.988  1.00  0.00    -0.269 OA
ATOM      5  C   UNL A   1      33.149  34.961  28.733  1.00  0.00     0.251 C 
ATOM      6  H   UNL A   1      31.910  34.691  27.177  1.00  0.00     0.163 HD
BRANCH   5   7
ATOM      7  C   UNL A   1      34.257  34.387  29.528  1.00  0.00     0.039 A 
ATOM      8  C   UNL A   1      35.577  34.492  29.086  1.00  0.00     0.014 A 
ATOM      9  C   UNL A   1      33.966  33.711  30.716  1.00  0.00     0.014 A 
ATOM     10  C   UNL A   1      36.581  33.785  29.740  1.00  0.00     0.010 A 
ATOM     11  C   UNL A   1      34.992  33.073  31.421  1.00  0.00     0.010 A 
ATOM     12  C   UNL A   1      36.300  33.066  30.914  1.00  0.00    -0.014 A 
BRANCH  12  13
ATOM     13  C   UNL A   1      37.405  32.355  31.607  1.00  0.00     0.031 A 
ATOM     14  C   UNL A   1      38.173  31.252  30.930  1.00  0.00     0.074 A 
ATOM     15  C   UNL A   1      37.733  32.735  32.857  1.00  0.00     0.049 A 
ATOM     16  N   UNL A   1      39.214  30.590  31.367  1.00  0.00    -0.248 NA
ATOM     17  C   UNL A   1      37.715  30.827  29.598  1.00  0.00     0.031 C 
ATOM     18  C   UNL A   1      37.032  33.758  33.635  1.00  0.00     0.029 A 
ATOM     19  N   UNL A   1      38.742  32.321  33.689  1.00  0.00    -0.354 N 
ATOM     20  C   UNL A   1      39.507  29.644  30.391  1.00  0.00     0.074 A 
ATOM     21  C   UNL A   1      38.530  29.814  29.337  1.00  0.00     0.031 C 
ATOM     22  C   UNL A   1      37.655  33.925  34.809  1.00  0.00     0.029 A 
ATOM     23  C   UNL A   1      38.774  32.992  34.888  1.00  0.00     0.049 A 
ATOM     24  H   UNL A   1      39.381  31.612  33.449  1.00  0.00     0.167 HD
ATOM     25  C   UNL A   1      40.507  28.731  30.367  1.00  0.00     0.034 A 
ATOM     26  C   UNL A   1      39.614  32.876  35.935  1.00  0.00     0.034 A 
ATOM     27  C   UNL A   1      41.511  28.604  31.392  1.00  0.00     0.049 A 
ATOM     28  C   UNL A   1      40.744  31.892  35.856  1.00  0.00     0.074 A 
ATOM     29  C   UNL A   1      42.613  27.765  31.417  1.00  0.00     0.029 A 
ATOM     30  N   UNL A   1      41.536  29.330  32.572  1.00  0.00    -0.354 N 
ATOM     31  N   UNL A   1      41.087  31.109  34.862  1.00  0.00    -0.248 NA
ATOM     32  C   UNL A   1      41.620  31.794  37.032  1.00  0.00     0.031 C 
ATOM     33  C   UNL A   1      43.297  27.978  32.619  1.00  0.00     0.029 A 
ATOM     34  C   UNL A   1      42.627  28.956  33.337  1.00  0.00     0.049 A 
ATOM     35  H   UNL A   1      40.875  30.013  32.828  1.00  0.00     0.167 HD
ATOM     36  C   UNL A   1      42.231  30.443  35.282  1.00  0.00     0.074 A 
ATOM     37  C   UNL A   1      42.538  30.935  36.609  1.00  0.00     0.031 C 
ATOM     38  C   UNL A   1      42.950  29.492  34.635  1.00  0.00     0.034 A 
BRANCH  25  39
ATOM     39  C   UNL A   1      40.601  27.821  29.170  1.00  0.00     0.023 A 
ATOM     40  C   UNL A   1      39.751  26.701  29.082  1.00  0.00     0.012 A 
ATOM     41  C   UNL A   1      41.475  28.111  28.104  1.00  0.00     0.148 A 
ATOM     42  C   UNL A   1      39.787  25.869  27.963  1.00  0.00     0.002 A 
ATOM     43  C   UNL A   1      41.480  27.297  26.976  1.00  0.00     0.091 A 
ATOM     44  F   UNL A   1      42.295  29.166  28.215  1.00  0.00    -0.205 F 
ATOM     45  C   UNL A   1      40.642  26.173  26.907  1.00  0.00     0.022 A 
BRANCH  43  46
ATOM     46  S   UNL A   1      42.497  27.655  25.539  1.00  0.00     0.127 S 
ATOM     47  O   UNL A   1      43.835  27.694  26.127  1.00  0.00    -0.237 OA
ATOM     48  O   UNL A   1      42.244  26.499  24.678  1.00  0.00    -0.237 OA
ATOM     49  O   UNL A   1      42.002  28.918  25.009  1.00  0.00    -0.744 OA
ENDBRANCH  43  46
ENDBRANCH  25  39
BRANCH  26  50
ATOM     50  C   UNL A   1      39.452  33.777  37.110  1.00  0.00     0.023 A 
ATOM     51  C   UNL A   1      39.874  35.117  37.012  1.00  0.00     0.012 A 
ATOM     52  C   UNL A   1      38.831  33.338  38.293  1.00  0.00     0.148 A 
ATOM     53  C   UNL A   1      39.695  35.998  38.078  1.00  0.00     0.002 A 
ATOM     54  C   UNL A   1      38.603  34.234  39.331  1.00  0.00     0.091 A 
ATOM     55  F   UNL A   1      38.454  32.053  38.376  1.00  0.00    -0.205 F 
ATOM     56  C   UNL A   1      39.048  35.562  39.232  1.00  0.00     0.022 A 
BRANCH  54  57
ATOM     57  S   UNL A   1      37.646  33.786  40.782  1.00  0.00     0.127 S 
ATOM     58  O   UNL A   1      36.446  33.209  40.183  1.00  0.00    -0.237 OA
ATOM     59  O   UNL A   1      38.526  32.824  41.447  1.00  0.00    -0.237 OA
ATOM     60  O   UNL A   1      37.460  35.029  41.520  1.00  0.00    -0.744 OA
ENDBRANCH  54  57
ENDBRANCH  26  50
BRANCH  38  61
ATOM     61  C   UNL A   1      44.151  28.931  35.348  1.00  0.00     0.023 A 
ATOM     62  C   UNL A   1      45.419  29.503  35.125  1.00  0.00     0.012 A 
ATOM     63  C   UNL A   1      44.017  27.882  36.277  1.00  0.00     0.148 A 
ATOM     64  C   UNL A   1      46.542  29.017  35.794  1.00  0.00     0.002 A 
ATOM     65  C   UNL A   1      45.135  27.431  36.971  1.00  0.00     0.091 A 
ATOM     66  F   UNL A   1      42.807  27.333  36.457  1.00  0.00    -0.205 F 
ATOM     67  C   UNL A   1      46.399  27.990  36.724  1.00  0.00     0.022 A 
BRANCH  65  68
ATOM     68  S   UNL A   1      45.015  26.173  38.248  1.00  0.00     0.127 S 
ATOM     69  O   UNL A   1      46.414  26.003  38.633  1.00  0.00    -0.237 OA
ATOM     70  O   UNL A   1      44.179  26.825  39.257  1.00  0.00    -0.237 OA
ATOM     71  O   UNL A   1      44.391  25.023  37.607  1.00  0.00    -0.744 OA
ENDBRANCH  65  68
ENDBRANCH  38  61
ENDBRANCH  12  13
ENDBRANCH   5   7
ENDBRANCH   2   3
ENDBRANCH   1   2
BRANCH   1  72
ATOM     72  C   UNL A   1      31.839  30.740  26.245  1.00  0.00     0.023 C 
BRANCH  72  73
ATOM     73  C   UNL A   1      32.071  29.601  27.242  1.00  0.00     0.116 C 
BRANCH  73  74
ATOM     74  N   UNL A   1      33.082  28.668  26.776  1.00  0.00    -0.354 N 
ATOM     75  C   UNL A   1      32.939  27.506  26.068  1.00  0.00     0.243 C 
ATOM     76  H   UNL A   1      34.009  28.909  27.004  1.00  0.00     0.163 HD
ATOM     77  O   UNL A   1      33.949  26.826  25.868  1.00  0.00    -0.273 OA
BRANCH  75  78
ATOM     78  C   UNL A   1      31.536  27.072  25.587  1.00  0.00     0.185 C 
ATOM     79  C   UNL A   1      31.206  25.668  26.102  1.00  0.00     0.106 C 
ATOM     80  N   UNL A   1      31.468  27.056  24.121  1.00  0.00    -0.317 N 
ATOM     81  S   UNL A   1      31.058  24.571  24.665  1.00  0.00    -0.138 SA
ATOM     82  C   UNL A   1      31.797  25.773  23.547  1.00  0.00     0.190 C 
BRANCH  80  83
ATOM     83  C   UNL A   1      31.275  28.235  23.427  1.00  0.00     0.255 C 
ATOM     84  O   UNL A   1      32.180  28.883  22.912  1.00  0.00    -0.269 OA
BRANCH  83  85
ATOM     85  C   UNL A   1      29.900  28.759  23.330  1.00  0.00     0.041 A 
ATOM     86  C   UNL A   1      28.824  27.864  23.266  1.00  0.00     0.014 A 
ATOM     87  C   UNL A   1      29.691  30.138  23.306  1.00  0.00     0.034 A 
ATOM     88  C   UNL A   1      27.527  28.354  23.128  1.00  0.00     0.002 A 
ATOM     89  C   UNL A   1      28.391  30.616  23.175  1.00  0.00     0.041 A 
ATOM     90  C   UNL A   1      27.311  29.733  23.078  1.00  0.00     0.020 A 
ATOM     91  Cl  UNL A   1      28.101  32.312  23.123  1.00  0.00    -0.084 Cl
ENDBRANCH  83  85
ENDBRANCH  80  83
ENDBRANCH  75  78
ENDBRANCH  73  74
ENDBRANCH  72  73
ENDBRANCH   1  72
TORSDOF 16
ENDMDL
MODEL 2
REMARK VINA RESULT:     -11.5      3.284      8.777
REMARK SMILES O=C(NCCCCNC(=O)[C@@H]1CSCN1C(=O)c1cccc(Cl)c1)c1ccc(-c2c3nc(c(-c4cccc(S(=O)(=O)[O-])c4F)c4ccc([nH]4)c(-c4cccc(S(=O)(=O)[O-])c4F)c4nc(c(-c5cccc(S(=O)(=O)[O-])c5F)c5ccc2[nH]5)C=C4)C=C3)cc1
REMARK SMILES IDX 5 1 4 2 3 3 1 4 2 5 25 7 26 8 87 9 27 10 86 11 28 12 29 13
REMARK SMILES IDX 30 14 80 15 31 16 85 17 79 18 81 19 32 20 84 21 78 22 77 23
REMARK SMILES IDX 33 25 65 26 45 27 64 28 46 29 49 30 63 31 82 32 47 33 48 34
REMARK SMILES IDX 62 36 83 37 50 38 34 39 35 40 43 41 36 42 38 43 44 44 37 45
REMARK SMILES IDX 39 46 40 47 41 48 42 49 66 50 67 51 75 52 68 53 70 54 76 55
REMARK SMILES IDX 69 56 71 57 72 58 73 59 74 60 51 61 52 62 60 63 53 64 55 65
REMARK SMILES IDX 61 66 54 67 56 68 57 69 58 70 59 71 6 72 7 73 8 74 9 75
REMARK SMILES IDX 10 77 11 78 12 79 15 80 13 81 14 82 16 83 17 84 18 85 19 86
REMARK SMILES IDX 24 87 20 88 22 89 21 90 23 91
REMARK H PARENT 3 6 81 24 49 35 8 76
REMARK Flexibility Score: inf
ROOT
ATOM      1  C   UNL A   1      31.563  29.110  26.834  1.00  0.00     0.023 C 
ENDROOT
BRANCH   1   2
ATOM      2  C   UNL A   1      32.534  30.070  26.161  1.00  0.00     0.116 C 
BRANCH   2   3
ATOM      3  N   UNL A   1      32.281  31.462  26.499  1.00  0.00    -0.352 N 
ATOM      4  O   UNL A   1      32.581  33.419  27.574  1.00  0.00    -0.269 OA
ATOM      5  C   UNL A   1      33.022  32.307  27.292  1.00  0.00     0.251 C 
ATOM      6  H   UNL A   1      31.468  31.853  26.105  1.00  0.00     0.163 HD
BRANCH   5   7
ATOM      7  C   UNL A   1      34.324  31.854  27.828  1.00  0.00     0.039 A 
ATOM      8  C   UNL A   1      34.502  30.531  28.239  1.00  0.00     0.014 A 
ATOM      9  C   UNL A   1      35.370  32.772  27.947  1.00  0.00     0.014 A 
ATOM     10  C   UNL A   1      35.662  30.170  28.914  1.00  0.00     0.010 A 
ATOM     11  C   UNL A   1      36.571  32.382  28.549  1.00  0.00     0.010 A 
ATOM     12  C   UNL A   1      36.710  31.091  29.080  1.00  0.00    -0.014 A 
BRANCH  12  13
ATOM     13  C   UNL A   1      37.950  30.658  29.774  1.00  0.00     0.031 A 
ATOM     14  C   UNL A   1      38.243  31.077  31.189  1.00  0.00     0.074 A 
ATOM     15  C   UNL A   1      38.807  29.850  29.119  1.00  0.00     0.049 A 
ATOM     16  N   UNL A   1      39.237  30.720  31.960  1.00  0.00    -0.248 NA
ATOM     17  C   UNL A   1      37.311  32.025  31.820  1.00  0.00     0.031 C 
ATOM     18  C   UNL A   1      38.655  29.415  27.729  1.00  0.00     0.029 A 
ATOM     19  N   UNL A   1      39.964  29.240  29.532  1.00  0.00    -0.354 N 
ATOM     20  C   UNL A   1      39.080  31.428  33.145  1.00  0.00     0.074 A 
ATOM     21  C   UNL A   1      37.894  32.243  32.992  1.00  0.00     0.031 C 
ATOM     22  C   UNL A   1      39.652  28.575  27.418  1.00  0.00     0.029 A 
ATOM     23  C   UNL A   1      40.538  28.444  28.570  1.00  0.00     0.049 A 
ATOM     24  H   UNL A   1      40.345  29.361  30.431  1.00  0.00     0.167 HD
ATOM     25  C   UNL A   1      39.842  31.390  34.265  1.00  0.00     0.034 A 
ATOM     26  C   UNL A   1      41.651  27.687  28.609  1.00  0.00     0.034 A 
ATOM     27  C   UNL A   1      40.989  30.536  34.434  1.00  0.00     0.049 A 
ATOM     28  C   UNL A   1      42.446  27.625  29.881  1.00  0.00     0.074 A 
ATOM     29  C   UNL A   1      41.776  30.366  35.561  1.00  0.00     0.029 A 
ATOM     30  N   UNL A   1      41.516  29.712  33.453  1.00  0.00    -0.354 N 
ATOM     31  N   UNL A   1      42.196  28.192  31.036  1.00  0.00    -0.248 NA
ATOM     32  C   UNL A   1      43.659  26.798  29.864  1.00  0.00     0.031 C 
ATOM     33  C   UNL A   1      42.785  29.446  35.255  1.00  0.00     0.029 A 
ATOM     34  C   UNL A   1      42.621  29.036  33.942  1.00  0.00     0.049 A 
ATOM     35  H   UNL A   1      41.156  29.619  32.541  1.00  0.00     0.167 HD
ATOM     36  C   UNL A   1      43.207  27.772  31.891  1.00  0.00     0.074 A 
ATOM     37  C   UNL A   1      44.056  26.881  31.126  1.00  0.00     0.031 C 
ATOM     38  C   UNL A   1      43.426  28.112  33.185  1.00  0.00     0.034 A 
BRANCH  25  39
ATOM     39  C   UNL A   1      39.437  32.266  35.422  1.00  0.00     0.023 A 
ATOM     40  C   UNL A   1      38.606  31.741  36.432  1.00  0.00     0.012 A 
ATOM     41  C   UNL A   1      39.934  33.578  35.549  1.00  0.00     0.148 A 
ATOM     42  C   UNL A   1      38.254  32.517  37.536  1.00  0.00     0.002 A 
ATOM     43  C   UNL A   1      39.608  34.333  36.671  1.00  0.00     0.091 A 
ATOM     44  F   UNL A   1      40.703  34.070  34.568  1.00  0.00    -0.205 F 
ATOM     45  C   UNL A   1      38.763  33.807  37.661  1.00  0.00     0.022 A 
BRANCH  43  46
ATOM     46  S   UNL A   1      40.277  35.978  36.948  1.00  0.00     0.127 S 
ATOM     47  O   UNL A   1      39.716  36.718  35.819  1.00  0.00    -0.237 OA
ATOM     48  O   UNL A   1      39.710  36.333  38.250  1.00  0.00    -0.237 OA
ATOM     49  O   UNL A   1      41.725  35.820  36.946  1.00  0.00    -0.744 OA
ENDBRANCH  43  46
ENDBRANCH  25  39
BRANCH  26  50
ATOM     50  C   UNL A   1      42.025  26.869  27.422  1.00  0.00     0.023 A 
ATOM     51  C   UNL A   1      42.593  27.504  26.301  1.00  0.00     0.012 A 
ATOM     52  C   UNL A   1      41.881  25.469  27.419  1.00  0.00     0.148 A 
ATOM     53  C   UNL A   1      42.996  26.760  25.192  1.00  0.00     0.002 A 
ATOM     54  C   UNL A   1      42.338  24.728  26.335  1.00  0.00     0.091 A 
ATOM     55  F   UNL A   1      41.320  24.884  28.487  1.00  0.00    -0.205 F 
ATOM     56  C   UNL A   1      42.882  25.373  25.213  1.00  0.00     0.022 A 
BRANCH  54  57
ATOM     57  S   UNL A   1      42.362  22.933  26.353  1.00  0.00     0.127 S 
ATOM     58  O   UNL A   1      42.706  22.623  24.969  1.00  0.00    -0.237 OA
ATOM     59  O   UNL A   1      43.416  22.648  27.329  1.00  0.00    -0.237 OA
ATOM     60  O   UNL A   1      41.029  22.534  26.787  1.00  0.00    -0.744 OA
ENDBRANCH  54  57
ENDBRANCH  26  50
BRANCH  38  61
ATOM     61  C   UNL A   1      44.624  27.505  33.865  1.00  0.00     0.023 A 
ATOM     62  C   UNL A   1      45.845  28.207  33.875  1.00  0.00     0.012 A 
ATOM     63  C   UNL A   1      44.527  26.273  34.540  1.00  0.00     0.148 A 
ATOM     64  C   UNL A   1      46.961  27.676  34.520  1.00  0.00     0.002 A 
ATOM     65  C   UNL A   1      45.633  25.771  35.217  1.00  0.00     0.091 A 
ATOM     66  F   UNL A   1      43.364  25.607  34.498  1.00  0.00    -0.205 F 
ATOM     67  C   UNL A   1      46.853  26.465  35.201  1.00  0.00     0.022 A 
BRANCH  65  68
ATOM     68  S   UNL A   1      45.546  24.262  36.189  1.00  0.00     0.127 S 
ATOM     69  O   UNL A   1      45.446  23.241  35.149  1.00  0.00    -0.237 OA
ATOM     70  O   UNL A   1      46.819  24.276  36.910  1.00  0.00    -0.237 OA
ATOM     71  O   UNL A   1      44.375  24.413  37.042  1.00  0.00    -0.744 OA
ENDBRANCH  65  68
ENDBRANCH  38  61
ENDBRANCH  12  13
ENDBRANCH   5   7
ENDBRANCH   2   3
ENDBRANCH   1   2
BRANCH   1  72
ATOM     72  C   UNL A   1      32.193  27.820  27.362  1.00  0.00     0.023 C 
BRANCH  72  73
ATOM     73  C   UNL A   1      32.177  26.646  26.380  1.00  0.00     0.116 C 
BRANCH  73  74
ATOM     74  N   UNL A   1      31.445  25.508  26.905  1.00  0.00    -0.354 N 
ATOM     75  C   UNL A   1      31.479  24.194  26.523  1.00  0.00     0.243 C 
ATOM     76  H   UNL A   1      30.832  25.712  27.649  1.00  0.00     0.163 HD
ATOM     77  O   UNL A   1      30.686  23.417  27.062  1.00  0.00    -0.273 OA
BRANCH  75  78
ATOM     78  C   UNL A   1      32.463  23.744  25.421  1.00  0.00     0.185 C 
ATOM     79  C   UNL A   1      31.793  23.816  24.046  1.00  0.00     0.106 C 
ATOM     80  N   UNL A   1      32.908  22.364  25.648  1.00  0.00    -0.317 N 
ATOM     81  S   UNL A   1      31.686  22.127  23.392  1.00  0.00    -0.138 SA
ATOM     82  C   UNL A   1      32.088  21.382  24.980  1.00  0.00     0.190 C 
BRANCH  80  83
ATOM     83  C   UNL A   1      33.909  22.105  26.563  1.00  0.00     0.255 C 
ATOM     84  O   UNL A   1      33.713  21.916  27.760  1.00  0.00    -0.269 OA
BRANCH  83  85
ATOM     85  C   UNL A   1      35.301  22.087  26.074  1.00  0.00     0.041 A 
ATOM     86  C   UNL A   1      35.760  20.985  25.341  1.00  0.00     0.014 A 
ATOM     87  C   UNL A   1      36.139  23.169  26.347  1.00  0.00     0.034 A 
ATOM     88  C   UNL A   1      37.086  20.943  24.917  1.00  0.00     0.002 A 
ATOM     89  C   UNL A   1      37.459  23.119  25.912  1.00  0.00     0.041 A 
ATOM     90  C   UNL A   1      37.938  22.011  25.207  1.00  0.00     0.020 A 
ATOM     91  Cl  UNL A   1      38.524  24.429  26.248  1.00  0.00    -0.084 Cl
ENDBRANCH  83  85
ENDBRANCH  80  83
ENDBRANCH  75  78
ENDBRANCH  73  74
ENDBRANCH  72  73
ENDBRANCH   1  72
TORSDOF 16
ENDMDL
MODEL 3
REMARK VINA RESULT:     -11.5      3.896      9.067
REMARK SMILES O=C(NCCCCNC(=O)[C@@H]1CSCN1C(=O)c1cccc(Cl)c1)c1ccc(-c2c3nc(c(-c4cccc(S(=O)(=O)[O-])c4F)c4ccc([nH]4)c(-c4cccc(S(=O)(=O)[O-])c4F)c4nc(c(-c5cccc(S(=O)(=O)[O-])c5F)c5ccc2[nH]5)C=C4)C=C3)cc1
REMARK SMILES IDX 5 1 4 2 3 3 1 4 2 5 25 7 26 8 87 9 27 10 86 11 28 12 29 13
REMARK SMILES IDX 30 14 80 15 31 16 85 17 79 18 81 19 32 20 84 21 78 22 77 23
REMARK SMILES IDX 33 25 65 26 45 27 64 28 46 29 49 30 63 31 82 32 47 33 48 34
REMARK SMILES IDX 62 36 83 37 50 38 34 39 35 40 43 41 36 42 38 43 44 44 37 45
REMARK SMILES IDX 39 46 40 47 41 48 42 49 66 50 67 51 75 52 68 53 70 54 76 55
REMARK SMILES IDX 69 56 71 57 72 58 73 59 74 60 51 61 52 62 60 63 53 64 55 65
REMARK SMILES IDX 61 66 54 67 56 68 57 69 58 70 59 71 6 72 7 73 8 74 9 75
REMARK SMILES IDX 10 77 11 78 12 79 15 80 13 81 14 82 16 83 17 84 18 85 19 86
REMARK SMILES IDX 24 87 20 88 22 89 21 90 23 91
REMARK H PARENT 3 6 81 24 49 35 8 76
REMARK Flexibility Score: inf
ROOT
ATOM      1  C   UNL A   1      32.930  27.689  25.612  1.00  0.00     0.023 C 
ENDROOT
BRANCH   1   2
ATOM      2  C   UNL A   1      33.649  28.983  25.261  1.00  0.00     0.116 C 
BRANCH   2   3
ATOM      3  N   UNL A   1      32.914  30.170  25.673  1.00  0.00    -0.352 N 
ATOM      4  O   UNL A   1      32.342  31.889  27.011  1.00  0.00    -0.269 OA
ATOM      5  C   UNL A   1      33.152  31.007  26.738  1.00  0.00     0.251 C 
ATOM      6  H   UNL A   1      32.141  30.406  25.112  1.00  0.00     0.163 HD
BRANCH   5   7
ATOM      7  C   UNL A   1      34.361  30.811  27.568  1.00  0.00     0.039 A 
ATOM      8  C   UNL A   1      35.308  31.828  27.696  1.00  0.00     0.014 A 
ATOM      9  C   UNL A   1      34.562  29.581  28.201  1.00  0.00     0.014 A 
ATOM     10  C   UNL A   1      36.523  31.564  28.317  1.00  0.00     0.010 A 
ATOM     11  C   UNL A   1      35.750  29.347  28.901  1.00  0.00     0.010 A 
ATOM     12  C   UNL A   1      36.760  30.320  28.925  1.00  0.00    -0.014 A 
BRANCH  12  13
ATOM     13  C   UNL A   1      38.056  30.087  29.612  1.00  0.00     0.031 A 
ATOM     14  C   UNL A   1      38.302  30.581  31.012  1.00  0.00     0.074 A 
ATOM     15  C   UNL A   1      39.013  29.391  28.966  1.00  0.00     0.049 A 
ATOM     16  N   UNL A   1      39.345  30.389  31.778  1.00  0.00    -0.248 NA
ATOM     17  C   UNL A   1      37.251  31.403  31.633  1.00  0.00     0.031 C 
ATOM     18  C   UNL A   1      38.910  28.901  27.590  1.00  0.00     0.029 A 
ATOM     19  N   UNL A   1      40.249  28.963  29.378  1.00  0.00    -0.354 N 
ATOM     20  C   UNL A   1      39.101  31.099  32.947  1.00  0.00     0.074 A 
ATOM     21  C   UNL A   1      37.809  31.733  32.790  1.00  0.00     0.031 C 
ATOM     22  C   UNL A   1      40.013  28.203  27.286  1.00  0.00     0.029 A 
ATOM     23  C   UNL A   1      40.920  28.231  28.428  1.00  0.00     0.049 A 
ATOM     24  H   UNL A   1      40.619  29.161  30.269  1.00  0.00     0.167 HD
ATOM     25  C   UNL A   1      39.872  31.200  34.057  1.00  0.00     0.034 A 
ATOM     26  C   UNL A   1      42.130  27.641  28.470  1.00  0.00     0.034 A 
ATOM     27  C   UNL A   1      41.131  30.522  34.231  1.00  0.00     0.049 A 
ATOM     28  C   UNL A   1      42.939  27.726  29.732  1.00  0.00     0.074 A 
ATOM     29  C   UNL A   1      41.945  30.495  35.351  1.00  0.00     0.029 A 
ATOM     30  N   UNL A   1      41.759  29.755  33.263  1.00  0.00    -0.354 N 
ATOM     31  N   UNL A   1      42.623  28.283  30.876  1.00  0.00    -0.248 NA
ATOM     32  C   UNL A   1      44.258  27.079  29.718  1.00  0.00     0.031 C 
ATOM     33  C   UNL A   1      43.072  29.720  35.054  1.00  0.00     0.029 A 
ATOM     34  C   UNL A   1      42.954  29.256  33.754  1.00  0.00     0.049 A 
ATOM     35  H   UNL A   1      41.406  29.588  32.359  1.00  0.00     0.167 HD
ATOM     36  C   UNL A   1      43.693  28.033  31.727  1.00  0.00     0.074 A 
ATOM     37  C   UNL A   1      44.652  27.252  30.973  1.00  0.00     0.031 C 
ATOM     38  C   UNL A   1      43.874  28.436  33.009  1.00  0.00     0.034 A 
BRANCH  25  39
ATOM     39  C   UNL A   1      39.359  32.040  35.197  1.00  0.00     0.023 A 
ATOM     40  C   UNL A   1      38.443  31.483  36.112  1.00  0.00     0.012 A 
ATOM     41  C   UNL A   1      39.834  33.350  35.406  1.00  0.00     0.148 A 
ATOM     42  C   UNL A   1      37.988  32.225  37.202  1.00  0.00     0.002 A 
ATOM     43  C   UNL A   1      39.403  34.070  36.515  1.00  0.00     0.091 A 
ATOM     44  F   UNL A   1      40.686  33.873  34.513  1.00  0.00    -0.205 F 
ATOM     45  C   UNL A   1      38.475  33.513  37.409  1.00  0.00     0.022 A 
BRANCH  43  46
ATOM     46  S   UNL A   1      40.034  35.709  36.899  1.00  0.00     0.127 S 
ATOM     47  O   UNL A   1      39.589  36.476  35.737  1.00  0.00    -0.237 OA
ATOM     48  O   UNL A   1      39.336  36.031  38.145  1.00  0.00    -0.237 OA
ATOM     49  O   UNL A   1      41.475  35.553  37.041  1.00  0.00    -0.744 OA
ENDBRANCH  43  46
ENDBRANCH  25  39
BRANCH  26  50
ATOM     50  C   UNL A   1      42.605  26.853  27.299  1.00  0.00     0.023 A 
ATOM     51  C   UNL A   1      43.399  27.483  26.322  1.00  0.00     0.012 A 
ATOM     52  C   UNL A   1      42.330  25.478  27.178  1.00  0.00     0.148 A 
ATOM     53  C   UNL A   1      43.897  26.762  25.237  1.00  0.00     0.002 A 
ATOM     54  C   UNL A   1      42.877  24.752  26.126  1.00  0.00     0.091 A 
ATOM     55  F   UNL A   1      41.555  24.899  28.107  1.00  0.00    -0.205 F 
ATOM     56  C   UNL A   1      43.648  25.395  25.145  1.00  0.00     0.022 A 
BRANCH  54  57
ATOM     57  S   UNL A   1      42.725  22.966  26.024  1.00  0.00     0.127 S 
ATOM     58  O   UNL A   1      43.189  22.702  24.665  1.00  0.00    -0.237 OA
ATOM     59  O   UNL A   1      43.633  22.518  27.082  1.00  0.00    -0.237 OA
ATOM     60  O   UNL A   1      41.320  22.682  26.288  1.00  0.00    -0.744 OA
ENDBRANCH  54  57
ENDBRANCH  26  50
BRANCH  38  61
ATOM     61  C   UNL A   1      45.154  28.023  33.687  1.00  0.00     0.023 A 
ATOM     62  C   UNL A   1      46.280  28.866  33.614  1.00  0.00     0.012 A 
ATOM     63  C   UNL A   1      45.224  26.836  34.441  1.00  0.00     0.148 A 
ATOM     64  C   UNL A   1      47.468  28.517  34.255  1.00  0.00     0.002 A 
ATOM     65  C   UNL A   1      46.399  26.516  35.112  1.00  0.00     0.091 A 
ATOM     66  F   UNL A   1      44.150  26.034  34.478  1.00  0.00    -0.205 F 
ATOM     67  C   UNL A   1      47.524  27.349  35.013  1.00  0.00     0.022 A 
BRANCH  65  68
ATOM     68  S   UNL A   1      46.520  25.075  36.179  1.00  0.00     0.127 S 
ATOM     69  O   UNL A   1      45.443  25.320  37.135  1.00  0.00    -0.237 OA
ATOM     70  O   UNL A   1      46.274  23.972  35.250  1.00  0.00    -0.237 OA
ATOM     71  O   UNL A   1      47.871  25.106  36.725  1.00  0.00    -0.744 OA
ENDBRANCH  65  68
ENDBRANCH  38  61
ENDBRANCH  12  13
ENDBRANCH   5   7
ENDBRANCH   2   3
ENDBRANCH   1   2
BRANCH   1  72
ATOM     72  C   UNL A   1      33.807  26.436  25.584  1.00  0.00     0.023 C 
BRANCH  72  73
ATOM     73  C   UNL A   1      33.106  25.170  25.085  1.00  0.00     0.116 C 
BRANCH  73  74
ATOM     74  N   UNL A   1      33.824  24.548  23.986  1.00  0.00    -0.354 N 
ATOM     75  C   UNL A   1      34.869  23.665  24.013  1.00  0.00     0.243 C 
ATOM     76  H   UNL A   1      33.509  24.799  23.087  1.00  0.00     0.163 HD
ATOM     77  O   UNL A   1      35.381  23.346  22.937  1.00  0.00    -0.273 OA
BRANCH  75  78
ATOM     78  C   UNL A   1      35.391  23.140  25.369  1.00  0.00     0.185 C 
ATOM     79  C   UNL A   1      36.838  23.588  25.593  1.00  0.00     0.106 C 
ATOM     80  N   UNL A   1      35.347  21.674  25.413  1.00  0.00    -0.317 N 
ATOM     81  S   UNL A   1      37.878  22.102  25.632  1.00  0.00    -0.138 SA
ATOM     82  C   UNL A   1      36.574  21.051  24.975  1.00  0.00     0.190 C 
BRANCH  80  83
ATOM     83  C   UNL A   1      34.158  21.028  25.690  1.00  0.00     0.255 C 
ATOM     84  O   UNL A   1      33.560  21.120  26.758  1.00  0.00    -0.269 OA
BRANCH  83  85
ATOM     85  C   UNL A   1      33.592  20.151  24.648  1.00  0.00     0.041 A 
ATOM     86  C   UNL A   1      32.709  20.687  23.700  1.00  0.00     0.014 A 
ATOM     87  C   UNL A   1      33.945  18.802  24.620  1.00  0.00     0.034 A 
ATOM     88  C   UNL A   1      32.137  19.853  22.743  1.00  0.00     0.002 A 
ATOM     89  C   UNL A   1      33.373  17.980  23.654  1.00  0.00     0.041 A 
ATOM     90  C   UNL A   1      32.466  18.496  22.723  1.00  0.00     0.020 A 
ATOM     91  Cl  UNL A   1      33.773  16.307  23.604  1.00  0.00    -0.084 Cl
ENDBRANCH  83  85
ENDBRANCH  80  83
ENDBRANCH  75  78
ENDBRANCH  73  74
ENDBRANCH  72  73
ENDBRANCH   1  72
TORSDOF 16
ENDMDL
