MODEL 1
REMARK VINA RESULT:     -13.7      0.000      0.000
REMARK SMILES CC1=C[C@@H](C)[C@H]2C(=O)N([C@H](Cc3ccccc3)C(=O)NCCCCNC(=O)c3ccc(-c4c5nc(c(-c6cccc(S(=O)(=O)[O-])c6F)c6ccc([nH]6)c(-c6cccc(S(=O)(=O)[O-])c6F)c6nc(c(-c7cccc(S(=O)(=O)[O-])c7F)c7ccc4[nH]7)C=C6)C=C5)cc3)C(=O)[C@H]2C1
REMARK SMILES IDX 23 1 22 2 21 3 20 4 18 5 19 6 10 8 9 9 1 10 2 11 3 12 94 13
REMARK SMILES IDX 4 14 93 15 6 16 5 17 91 18 7 19 92 20 8 21 11 22 12 23 13 24
REMARK SMILES IDX 17 25 14 26 16 27 15 28 24 29 25 30 26 31 27 33 28 34 29 35
REMARK SMILES IDX 90 36 30 37 89 38 31 39 32 40 33 41 83 42 34 43 88 44 82 45
REMARK SMILES IDX 84 46 35 47 87 48 81 49 80 50 36 52 68 53 48 54 67 55 49 56
REMARK SMILES IDX 52 57 66 58 85 59 50 60 51 61 65 63 86 64 53 65 37 66 38 67
REMARK SMILES IDX 46 68 39 69 41 70 47 71 40 72 42 73 43 74 44 75 45 76 69 77
REMARK SMILES IDX 70 78 78 79 71 80 73 81 79 82 72 83 74 84 75 85 76 86 77 87
REMARK SMILES IDX 54 88 55 89 63 90 56 91 58 92 64 93 57 94 59 95 60 96 61 97
REMARK SMILES IDX 62 98
REMARK H PARENT 20 7 25 32 84 51 52 62
REMARK Flexibility Score: inf
ROOT
ATOM      1  C   UNL A   1      31.362  31.575  26.261  1.00  0.00     0.023 C 
ENDROOT
BRANCH   1   2
ATOM      2  C   UNL A   1      31.415  30.240  25.520  1.00  0.00     0.023 C 
BRANCH   2   3
ATOM      3  C   UNL A   1      32.772  29.550  25.536  1.00  0.00     0.116 C 
BRANCH   3   4
ATOM      4  N   UNL A   1      33.394  29.478  24.234  1.00  0.00    -0.354 N 
ATOM      5  C   UNL A   1      33.175  28.574  23.236  1.00  0.00     0.243 C 
ATOM      6  O   UNL A   1      33.908  28.632  22.243  1.00  0.00    -0.273 OA
ATOM      7  H   UNL A   1      34.064  30.173  24.042  1.00  0.00     0.163 HD
BRANCH   5   8
ATOM      8  C   UNL A   1      32.198  27.396  23.406  1.00  0.00     0.186 C 
BRANCH   8   9
ATOM      9  N   UNL A   1      32.859  26.099  23.646  1.00  0.00    -0.269 N 
ATOM     10  C   UNL A   1      34.471  21.810  27.013  1.00  0.00     0.039 C 
ATOM     11  C   UNL A   1      34.401  22.607  25.742  1.00  0.00    -0.076 C 
ATOM     12  C   UNL A   1      33.883  22.121  24.600  1.00  0.00    -0.024 C 
ATOM     13  C   UNL A   1      34.920  24.006  25.847  1.00  0.00     0.044 C 
ATOM     14  C   UNL A   1      33.711  22.901  23.308  1.00  0.00     0.022 C 
ATOM     15  C   UNL A   1      34.466  24.909  24.730  1.00  0.00     0.096 C 
ATOM     16  C   UNL A   1      34.363  24.309  23.336  1.00  0.00     0.098 C 
ATOM     17  C   UNL A   1      32.220  22.866  22.965  1.00  0.00     0.013 C 
ATOM     18  C   UNL A   1      33.074  25.473  24.841  1.00  0.00     0.234 C 
ATOM     19  C   UNL A   1      33.587  25.445  22.679  1.00  0.00     0.234 C 
ATOM     20  O   UNL A   1      32.287  25.284  25.749  1.00  0.00    -0.274 OA
ATOM     21  O   UNL A   1      33.642  25.726  21.493  1.00  0.00    -0.274 OA
ENDBRANCH   8   9
BRANCH   8  22
ATOM     22  C   UNL A   1      31.119  27.514  22.288  1.00  0.00     0.071 C 
BRANCH  22  23
ATOM     23  C   UNL A   1      29.965  28.464  22.506  1.00  0.00    -0.045 A 
ATOM     24  C   UNL A   1      28.765  28.051  23.096  1.00  0.00     0.004 A 
ATOM     25  C   UNL A   1      30.064  29.780  22.018  1.00  0.00     0.004 A 
ATOM     26  C   UNL A   1      27.662  28.910  23.112  1.00  0.00     0.000 A 
ATOM     27  C   UNL A   1      28.958  30.628  22.024  1.00  0.00     0.000 A 
ATOM     28  C   UNL A   1      27.753  30.188  22.558  1.00  0.00     0.000 A 
ENDBRANCH  22  23
ENDBRANCH   8  22
ENDBRANCH   5   8
ENDBRANCH   3   4
ENDBRANCH   2   3
ENDBRANCH   1   2
BRANCH   1  29
ATOM     29  C   UNL A   1      32.503  31.839  27.242  1.00  0.00     0.116 C 
BRANCH  29  30
ATOM     30  N   UNL A   1      32.770  33.255  27.462  1.00  0.00    -0.352 N 
ATOM     31  C   UNL A   1      33.872  33.846  28.035  1.00  0.00     0.251 C 
ATOM     32  H   UNL A   1      32.067  33.872  27.159  1.00  0.00     0.163 HD
ATOM     33  O   UNL A   1      33.899  35.059  28.223  1.00  0.00    -0.269 OA
BRANCH  31  34
ATOM     34  C   UNL A   1      35.011  33.003  28.459  1.00  0.00     0.039 A 
ATOM     35  C   UNL A   1      36.310  33.484  28.275  1.00  0.00     0.014 A 
ATOM     36  C   UNL A   1      34.793  31.773  29.082  1.00  0.00     0.014 A 
ATOM     37  C   UNL A   1      37.390  32.766  28.796  1.00  0.00     0.010 A 
ATOM     38  C   UNL A   1      35.865  31.092  29.653  1.00  0.00     0.010 A 
ATOM     39  C   UNL A   1      37.172  31.587  29.528  1.00  0.00    -0.014 A 
BRANCH  39  40
ATOM     40  C   UNL A   1      38.288  30.879  30.206  1.00  0.00     0.031 A 
ATOM     41  C   UNL A   1      38.684  31.252  31.607  1.00  0.00     0.074 A 
ATOM     42  C   UNL A   1      39.011  29.970  29.519  1.00  0.00     0.049 A 
ATOM     43  N   UNL A   1      39.680  30.805  32.328  1.00  0.00    -0.248 NA
ATOM     44  C   UNL A   1      37.872  32.280  32.279  1.00  0.00     0.031 C 
ATOM     45  C   UNL A   1      38.779  29.581  28.126  1.00  0.00     0.029 A 
ATOM     46  N   UNL A   1      40.108  29.233  29.890  1.00  0.00    -0.354 N 
ATOM     47  C   UNL A   1      39.635  31.515  33.521  1.00  0.00     0.074 A 
ATOM     48  C   UNL A   1      38.531  32.445  33.418  1.00  0.00     0.031 C 
ATOM     49  C   UNL A   1      39.704  28.677  27.761  1.00  0.00     0.029 A 
ATOM     50  C   UNL A   1      40.608  28.440  28.883  1.00  0.00     0.049 A 
ATOM     51  H   UNL A   1      40.500  29.268  30.793  1.00  0.00     0.167 HD
ATOM     52  C   UNL A   1      40.419  31.383  34.617  1.00  0.00     0.034 A 
ATOM     53  C   UNL A   1      41.673  27.615  28.865  1.00  0.00     0.034 A 
ATOM     54  C   UNL A   1      41.481  30.422  34.740  1.00  0.00     0.049 A 
ATOM     55  C   UNL A   1      42.492  27.449  30.117  1.00  0.00     0.074 A 
ATOM     56  C   UNL A   1      42.283  30.163  35.838  1.00  0.00     0.029 A 
ATOM     57  N   UNL A   1      41.885  29.556  33.737  1.00  0.00    -0.354 N 
ATOM     58  N   UNL A   1      42.333  28.017  31.287  1.00  0.00    -0.248 NA
ATOM     59  C   UNL A   1      43.613  26.499  30.057  1.00  0.00     0.031 C 
ATOM     60  C   UNL A   1      43.172  29.137  35.498  1.00  0.00     0.029 A 
ATOM     61  C   UNL A   1      42.920  28.757  34.190  1.00  0.00     0.049 A 
ATOM     62  H   UNL A   1      41.493  29.516  32.834  1.00  0.00     0.167 HD
ATOM     63  C   UNL A   1      43.309  27.469  32.112  1.00  0.00     0.074 A 
ATOM     64  C   UNL A   1      44.040  26.506  31.314  1.00  0.00     0.031 C 
ATOM     65  C   UNL A   1      43.589  27.752  33.407  1.00  0.00     0.034 A 
BRANCH  52  66
ATOM     66  C   UNL A   1      40.104  32.244  35.810  1.00  0.00     0.023 A 
ATOM     67  C   UNL A   1      40.812  33.450  35.987  1.00  0.00     0.012 A 
ATOM     68  C   UNL A   1      39.071  31.909  36.706  1.00  0.00     0.148 A 
ATOM     69  C   UNL A   1      40.514  34.299  37.051  1.00  0.00     0.002 A 
ATOM     70  C   UNL A   1      38.755  32.779  37.744  1.00  0.00     0.091 A 
ATOM     71  F   UNL A   1      38.423  30.749  36.532  1.00  0.00    -0.205 F 
ATOM     72  C   UNL A   1      39.481  33.970  37.922  1.00  0.00     0.022 A 
BRANCH  70  73
ATOM     73  S   UNL A   1      37.397  32.480  38.881  1.00  0.00     0.127 S 
ATOM     74  O   UNL A   1      37.723  33.393  39.976  1.00  0.00    -0.237 OA
ATOM     75  O   UNL A   1      36.235  32.876  38.085  1.00  0.00    -0.237 OA
ATOM     76  O   UNL A   1      37.453  31.063  39.210  1.00  0.00    -0.744 OA
ENDBRANCH  70  73
ENDBRANCH  52  66
BRANCH  53  77
ATOM     77  C   UNL A   1      41.980  26.815  27.644  1.00  0.00     0.023 A 
ATOM     78  C   UNL A   1      42.559  27.459  26.533  1.00  0.00     0.012 A 
ATOM     79  C   UNL A   1      41.720  25.434  27.577  1.00  0.00     0.148 A 
ATOM     80  C   UNL A   1      42.842  26.749  25.365  1.00  0.00     0.002 A 
ATOM     81  C   UNL A   1      42.052  24.722  26.429  1.00  0.00     0.091 A 
ATOM     82  F   UNL A   1      41.151  24.838  28.635  1.00  0.00    -0.205 F 
ATOM     83  C   UNL A   1      42.597  25.379  25.317  1.00  0.00     0.022 A 
BRANCH  81  84
ATOM     84  S   UNL A   1      41.885  22.934  26.351  1.00  0.00     0.127 S 
ATOM     85  O   UNL A   1      40.439  22.762  26.437  1.00  0.00    -0.237 OA
ATOM     86  O   UNL A   1      42.467  22.621  25.044  1.00  0.00    -0.237 OA
ATOM     87  O   UNL A   1      42.664  22.437  27.478  1.00  0.00    -0.744 OA
ENDBRANCH  81  84
ENDBRANCH  53  77
BRANCH  65  88
ATOM     88  C   UNL A   1      44.712  26.994  34.061  1.00  0.00     0.023 A 
ATOM     89  C   UNL A   1      46.032  27.471  33.944  1.00  0.00     0.012 A 
ATOM     90  C   UNL A   1      44.452  25.860  34.855  1.00  0.00     0.148 A 
ATOM     91  C   UNL A   1      47.081  26.817  34.588  1.00  0.00     0.002 A 
ATOM     92  C   UNL A   1      45.498  25.235  35.526  1.00  0.00     0.091 A 
ATOM     93  F   UNL A   1      43.193  25.406  34.934  1.00  0.00    -0.205 F 
ATOM     94  C   UNL A   1      46.813  25.708  35.388  1.00  0.00     0.022 A 
BRANCH  92  95
ATOM     95  S   UNL A   1      45.225  23.856  36.645  1.00  0.00     0.127 S 
ATOM     96  O   UNL A   1      44.385  24.468  37.673  1.00  0.00    -0.237 OA
ATOM     97  O   UNL A   1      44.536  22.887  35.791  1.00  0.00    -0.237 OA
ATOM     98  O   UNL A   1      46.550  23.435  37.082  1.00  0.00    -0.744 OA
ENDBRANCH  92  95
ENDBRANCH  65  88
ENDBRANCH  39  40
ENDBRANCH  31  34
ENDBRANCH  29  30
ENDBRANCH   1  29
TORSDOF 17
ENDMDL
MODEL 2
REMARK VINA RESULT:     -13.6      2.011      7.822
REMARK SMILES CC1=C[C@@H](C)[C@H]2C(=O)N([C@H](Cc3ccccc3)C(=O)NCCCCNC(=O)c3ccc(-c4c5nc(c(-c6cccc(S(=O)(=O)[O-])c6F)c6ccc([nH]6)c(-c6cccc(S(=O)(=O)[O-])c6F)c6nc(c(-c7cccc(S(=O)(=O)[O-])c7F)c7ccc4[nH]7)C=C6)C=C5)cc3)C(=O)[C@H]2C1
REMARK SMILES IDX 23 1 22 2 21 3 20 4 18 5 19 6 10 8 9 9 1 10 2 11 3 12 94 13
REMARK SMILES IDX 4 14 93 15 6 16 5 17 91 18 7 19 92 20 8 21 11 22 12 23 13 24
REMARK SMILES IDX 17 25 14 26 16 27 15 28 24 29 25 30 26 31 27 33 28 34 29 35
REMARK SMILES IDX 90 36 30 37 89 38 31 39 32 40 33 41 83 42 34 43 88 44 82 45
REMARK SMILES IDX 84 46 35 47 87 48 81 49 80 50 36 52 68 53 48 54 67 55 49 56
REMARK SMILES IDX 52 57 66 58 85 59 50 60 51 61 65 63 86 64 53 65 37 66 38 67
REMARK SMILES IDX 46 68 39 69 41 70 47 71 40 72 42 73 43 74 44 75 45 76 69 77
REMARK SMILES IDX 70 78 78 79 71 80 73 81 79 82 72 83 74 84 75 85 76 86 77 87
REMARK SMILES IDX 54 88 55 89 63 90 56 91 58 92 64 93 57 94 59 95 60 96 61 97
REMARK SMILES IDX 62 98
REMARK H PARENT 20 7 25 32 84 51 52 62
REMARK Flexibility Score: inf
ROOT
ATOM      1  C   UNL A   1      31.912  31.712  26.602  1.00  0.00     0.023 C 
ENDROOT
BRANCH   1   2
ATOM      2  C   UNL A   1      31.906  30.199  26.816  1.00  0.00     0.023 C 
BRANCH   2   3
ATOM      3  C   UNL A   1      33.277  29.577  27.035  1.00  0.00     0.116 C 
BRANCH   3   4
ATOM      4  N   UNL A   1      33.985  29.300  25.806  1.00  0.00    -0.354 N 
ATOM      5  C   UNL A   1      33.509  28.735  24.659  1.00  0.00     0.243 C 
ATOM      6  O   UNL A   1      34.325  28.485  23.765  1.00  0.00    -0.273 OA
ATOM      7  H   UNL A   1      34.936  29.554  25.795  1.00  0.00     0.163 HD
BRANCH   5   8
ATOM      8  C   UNL A   1      32.058  28.235  24.541  1.00  0.00     0.186 C 
BRANCH   8   9
ATOM      9  N   UNL A   1      31.913  26.774  24.687  1.00  0.00    -0.269 N 
ATOM     10  C   UNL A   1      32.074  21.467  22.654  1.00  0.00     0.039 C 
ATOM     11  C   UNL A   1      31.804  22.542  23.666  1.00  0.00    -0.076 C 
ATOM     12  C   UNL A   1      32.414  22.591  24.864  1.00  0.00    -0.024 C 
ATOM     13  C   UNL A   1      30.825  23.586  23.230  1.00  0.00     0.044 C 
ATOM     14  C   UNL A   1      32.244  23.693  25.896  1.00  0.00     0.022 C 
ATOM     15  C   UNL A   1      30.882  24.852  24.045  1.00  0.00     0.096 C 
ATOM     16  C   UNL A   1      31.135  24.717  25.539  1.00  0.00     0.098 C 
ATOM     17  C   UNL A   1      33.634  24.280  26.149  1.00  0.00     0.013 C 
ATOM     18  C   UNL A   1      31.984  25.821  23.711  1.00  0.00     0.234 C 
ATOM     19  C   UNL A   1      31.427  26.185  25.830  1.00  0.00     0.234 C 
ATOM     20  O   UNL A   1      32.824  25.690  22.840  1.00  0.00    -0.274 OA
ATOM     21  O   UNL A   1      31.227  26.730  26.904  1.00  0.00    -0.274 OA
ENDBRANCH   8   9
BRANCH   8  22
ATOM     22  C   UNL A   1      31.411  28.954  23.319  1.00  0.00     0.071 C 
BRANCH  22  23
ATOM     23  C   UNL A   1      29.938  29.283  23.381  1.00  0.00    -0.045 A 
ATOM     24  C   UNL A   1      28.952  28.330  23.105  1.00  0.00     0.004 A 
ATOM     25  C   UNL A   1      29.547  30.612  23.633  1.00  0.00     0.004 A 
ATOM     26  C   UNL A   1      27.614  28.721  22.994  1.00  0.00     0.000 A 
ATOM     27  C   UNL A   1      28.214  30.999  23.509  1.00  0.00     0.000 A 
ATOM     28  C   UNL A   1      27.249  30.056  23.175  1.00  0.00     0.000 A 
ENDBRANCH  22  23
ENDBRANCH   8  22
ENDBRANCH   5   8
ENDBRANCH   3   4
ENDBRANCH   2   3
ENDBRANCH   1   2
BRANCH   1  29
ATOM     29  C   UNL A   1      32.933  32.497  27.422  1.00  0.00     0.116 C 
BRANCH  29  30
ATOM     30  N   UNL A   1      32.542  33.879  27.676  1.00  0.00    -0.352 N 
ATOM     31  C   UNL A   1      33.080  34.777  28.567  1.00  0.00     0.251 C 
ATOM     32  H   UNL A   1      31.791  34.214  27.136  1.00  0.00     0.163 HD
ATOM     33  O   UNL A   1      32.572  35.885  28.716  1.00  0.00    -0.269 OA
BRANCH  31  34
ATOM     34  C   UNL A   1      34.256  34.386  29.374  1.00  0.00     0.039 A 
ATOM     35  C   UNL A   1      34.050  33.838  30.644  1.00  0.00     0.014 A 
ATOM     36  C   UNL A   1      35.547  34.511  28.858  1.00  0.00     0.014 A 
ATOM     37  C   UNL A   1      35.138  33.334  31.361  1.00  0.00     0.010 A 
ATOM     38  C   UNL A   1      36.620  33.952  29.547  1.00  0.00     0.010 A 
ATOM     39  C   UNL A   1      36.426  33.347  30.799  1.00  0.00    -0.014 A 
BRANCH  39  40
ATOM     40  C   UNL A   1      37.574  32.697  31.481  1.00  0.00     0.031 A 
ATOM     41  C   UNL A   1      38.278  31.533  30.841  1.00  0.00     0.074 A 
ATOM     42  C   UNL A   1      37.916  33.092  32.725  1.00  0.00     0.049 A 
ATOM     43  N   UNL A   1      39.242  30.789  31.320  1.00  0.00    -0.248 NA
ATOM     44  C   UNL A   1      37.824  31.135  29.498  1.00  0.00     0.031 C 
ATOM     45  C   UNL A   1      37.256  34.154  33.488  1.00  0.00     0.029 A 
ATOM     46  N   UNL A   1      38.883  32.623  33.580  1.00  0.00    -0.354 N 
ATOM     47  C   UNL A   1      39.489  29.820  30.356  1.00  0.00     0.074 A 
ATOM     48  C   UNL A   1      38.553  30.050  29.276  1.00  0.00     0.031 C 
ATOM     49  C   UNL A   1      37.837  34.256  34.695  1.00  0.00     0.029 A 
ATOM     50  C   UNL A   1      38.893  33.253  34.803  1.00  0.00     0.049 A 
ATOM     51  H   UNL A   1      39.510  31.902  33.340  1.00  0.00     0.167 HD
ATOM     52  C   UNL A   1      40.430  28.847  30.354  1.00  0.00     0.034 A 
ATOM     53  C   UNL A   1      39.665  33.047  35.888  1.00  0.00     0.034 A 
ATOM     54  C   UNL A   1      41.394  28.652  31.402  1.00  0.00     0.049 A 
ATOM     55  C   UNL A   1      40.739  31.994  35.833  1.00  0.00     0.074 A 
ATOM     56  C   UNL A   1      42.434  27.739  31.455  1.00  0.00     0.029 A 
ATOM     57  N   UNL A   1      41.445  29.384  32.576  1.00  0.00    -0.354 N 
ATOM     58  N   UNL A   1      41.057  31.192  34.847  1.00  0.00    -0.248 NA
ATOM     59  C   UNL A   1      41.585  31.844  37.026  1.00  0.00     0.031 C 
ATOM     60  C   UNL A   1      43.115  27.923  32.663  1.00  0.00     0.029 A 
ATOM     61  C   UNL A   1      42.501  28.951  33.359  1.00  0.00     0.049 A 
ATOM     62  H   UNL A   1      40.822  30.108  32.818  1.00  0.00     0.167 HD
ATOM     63  C   UNL A   1      42.160  30.469  35.285  1.00  0.00     0.074 A 
ATOM     64  C   UNL A   1      42.470  30.944  36.618  1.00  0.00     0.031 C 
ATOM     65  C   UNL A   1      42.843  29.484  34.651  1.00  0.00     0.034 A 
BRANCH  52  66
ATOM     66  C   UNL A   1      40.520  27.965  29.138  1.00  0.00     0.023 A 
ATOM     67  C   UNL A   1      39.602  26.905  28.994  1.00  0.00     0.012 A 
ATOM     68  C   UNL A   1      41.449  28.221  28.111  1.00  0.00     0.148 A 
ATOM     69  C   UNL A   1      39.622  26.097  27.858  1.00  0.00     0.002 A 
ATOM     70  C   UNL A   1      41.439  27.434  26.965  1.00  0.00     0.091 A 
ATOM     71  F   UNL A   1      42.327  29.221  28.277  1.00  0.00    -0.205 F 
ATOM     72  C   UNL A   1      40.531  26.368  26.841  1.00  0.00     0.022 A 
BRANCH  70  73
ATOM     73  S   UNL A   1      42.525  27.742  25.567  1.00  0.00     0.127 S 
ATOM     74  O   UNL A   1      42.277  26.563  24.737  1.00  0.00    -0.237 OA
ATOM     75  O   UNL A   1      41.986  28.990  25.026  1.00  0.00    -0.237 OA
ATOM     76  O   UNL A   1      43.868  27.848  26.117  1.00  0.00    -0.744 OA
ENDBRANCH  70  73
ENDBRANCH  52  66
BRANCH  53  77
ATOM     77  C   UNL A   1      39.509  33.912  37.092  1.00  0.00     0.023 A 
ATOM     78  C   UNL A   1      39.983  35.238  37.048  1.00  0.00     0.012 A 
ATOM     79  C   UNL A   1      38.890  33.446  38.266  1.00  0.00     0.148 A 
ATOM     80  C   UNL A   1      39.875  36.072  38.162  1.00  0.00     0.002 A 
ATOM     81  C   UNL A   1      38.737  34.298  39.354  1.00  0.00     0.091 A 
ATOM     82  F   UNL A   1      38.461  32.176  38.301  1.00  0.00    -0.205 F 
ATOM     83  C   UNL A   1      39.243  35.605  39.311  1.00  0.00     0.022 A 
BRANCH  81  84
ATOM     84  S   UNL A   1      37.816  33.800  40.816  1.00  0.00     0.127 S 
ATOM     85  O   UNL A   1      37.637  35.073  41.506  1.00  0.00    -0.237 OA
ATOM     86  O   UNL A   1      36.595  33.235  40.239  1.00  0.00    -0.237 OA
ATOM     87  O   UNL A   1      38.666  32.819  41.477  1.00  0.00    -0.744 OA
ENDBRANCH  81  84
ENDBRANCH  53  77
BRANCH  65  88
ATOM     88  C   UNL A   1      44.014  28.871  35.369  1.00  0.00     0.023 A 
ATOM     89  C   UNL A   1      45.301  29.412  35.186  1.00  0.00     0.012 A 
ATOM     90  C   UNL A   1      43.828  27.815  36.283  1.00  0.00     0.148 A 
ATOM     91  C   UNL A   1      46.392  28.896  35.884  1.00  0.00     0.002 A 
ATOM     92  C   UNL A   1      44.914  27.331  37.005  1.00  0.00     0.091 A 
ATOM     93  F   UNL A   1      42.600  27.297  36.425  1.00  0.00    -0.205 F 
ATOM     94  C   UNL A   1      46.197  27.865  36.801  1.00  0.00     0.022 A 
BRANCH  92  95
ATOM     95  S   UNL A   1      44.733  26.066  38.268  1.00  0.00     0.127 S 
ATOM     96  O   UNL A   1      43.614  26.586  39.052  1.00  0.00    -0.237 OA
ATOM     97  O   UNL A   1      44.422  24.873  37.478  1.00  0.00    -0.237 OA
ATOM     98  O   UNL A   1      46.015  26.012  38.958  1.00  0.00    -0.744 OA
ENDBRANCH  92  95
ENDBRANCH  65  88
ENDBRANCH  39  40
ENDBRANCH  31  34
ENDBRANCH  29  30
ENDBRANCH   1  29
TORSDOF 17
ENDMDL
MODEL 3
REMARK VINA RESULT:     -13.6      0.817      7.364
REMARK SMILES CC1=C[C@@H](C)[C@H]2C(=O)N([C@H](Cc3ccccc3)C(=O)NCCCCNC(=O)c3ccc(-c4c5nc(c(-c6cccc(S(=O)(=O)[O-])c6F)c6ccc([nH]6)c(-c6cccc(S(=O)(=O)[O-])c6F)c6nc(c(-c7cccc(S(=O)(=O)[O-])c7F)c7ccc4[nH]7)C=C6)C=C5)cc3)C(=O)[C@H]2C1
REMARK SMILES IDX 23 1 22 2 21 3 20 4 18 5 19 6 10 8 9 9 1 10 2 11 3 12 94 13
REMARK SMILES IDX 4 14 93 15 6 16 5 17 91 18 7 19 92 20 8 21 11 22 12 23 13 24
REMARK SMILES IDX 17 25 14 26 16 27 15 28 24 29 25 30 26 31 27 33 28 34 29 35
REMARK SMILES IDX 90 36 30 37 89 38 31 39 32 40 33 41 83 42 34 43 88 44 82 45
REMARK SMILES IDX 84 46 35 47 87 48 81 49 80 50 36 52 68 53 48 54 67 55 49 56
REMARK SMILES IDX 52 57 66 58 85 59 50 60 51 61 65 63 86 64 53 65 37 66 38 67
REMARK SMILES IDX 46 68 39 69 41 70 47 71 40 72 42 73 43 74 44 75 45 76 69 77
REMARK SMILES IDX 70 78 78 79 71 80 73 81 79 82 72 83 74 84 75 85 76 86 77 87
REMARK SMILES IDX 54 88 55 89 63 90 56 91 58 92 64 93 57 94 59 95 60 96 61 97
REMARK SMILES IDX 62 98
REMARK H PARENT 20 7 25 32 84 51 52 62
REMARK Flexibility Score: inf
ROOT
ATOM      1  C   UNL A   1      31.036  31.830  26.124  1.00  0.00     0.023 C 
ENDROOT
BRANCH   1   2
ATOM      2  C   UNL A   1      31.056  30.508  25.358  1.00  0.00     0.023 C 
BRANCH   2   3
ATOM      3  C   UNL A   1      32.299  29.658  25.577  1.00  0.00     0.116 C 
BRANCH   3   4
ATOM      4  N   UNL A   1      33.138  29.555  24.406  1.00  0.00    -0.354 N 
ATOM      5  C   UNL A   1      33.126  28.600  23.431  1.00  0.00     0.243 C 
ATOM      6  O   UNL A   1      34.016  28.646  22.577  1.00  0.00    -0.273 OA
ATOM      7  H   UNL A   1      33.808  30.268  24.296  1.00  0.00     0.163 HD
BRANCH   5   8
ATOM      8  C   UNL A   1      32.174  27.391  23.492  1.00  0.00     0.186 C 
BRANCH   8   9
ATOM      9  N   UNL A   1      32.857  26.101  23.706  1.00  0.00    -0.269 N 
ATOM     10  C   UNL A   1      34.498  21.750  26.977  1.00  0.00     0.039 C 
ATOM     11  C   UNL A   1      34.433  22.581  25.728  1.00  0.00    -0.076 C 
ATOM     12  C   UNL A   1      33.945  22.118  24.564  1.00  0.00    -0.024 C 
ATOM     13  C   UNL A   1      34.922  23.986  25.882  1.00  0.00     0.044 C 
ATOM     14  C   UNL A   1      33.778  22.931  23.292  1.00  0.00     0.022 C 
ATOM     15  C   UNL A   1      34.468  24.912  24.784  1.00  0.00     0.096 C 
ATOM     16  C   UNL A   1      34.401  24.350  23.371  1.00  0.00     0.098 C 
ATOM     17  C   UNL A   1      32.295  22.877  22.922  1.00  0.00     0.013 C 
ATOM     18  C   UNL A   1      33.064  25.445  24.886  1.00  0.00     0.234 C 
ATOM     19  C   UNL A   1      33.614  25.490  22.734  1.00  0.00     0.234 C 
ATOM     20  O   UNL A   1      32.265  25.214  25.774  1.00  0.00    -0.274 OA
ATOM     21  O   UNL A   1      33.683  25.805  21.557  1.00  0.00    -0.274 OA
ENDBRANCH   8   9
BRANCH   8  22
ATOM     22  C   UNL A   1      31.154  27.537  22.323  1.00  0.00     0.071 C 
BRANCH  22  23
ATOM     23  C   UNL A   1      29.977  28.465  22.511  1.00  0.00    -0.045 A 
ATOM     24  C   UNL A   1      28.788  28.043  23.116  1.00  0.00     0.004 A 
ATOM     25  C   UNL A   1      30.045  29.766  21.981  1.00  0.00     0.004 A 
ATOM     26  C   UNL A   1      27.665  28.875  23.105  1.00  0.00     0.000 A 
ATOM     27  C   UNL A   1      28.919  30.588  21.962  1.00  0.00     0.000 A 
ATOM     28  C   UNL A   1      27.725  30.136  22.511  1.00  0.00     0.000 A 
ENDBRANCH  22  23
ENDBRANCH   8  22
ENDBRANCH   5   8
ENDBRANCH   3   4
ENDBRANCH   2   3
ENDBRANCH   1   2
BRANCH   1  29
ATOM     29  C   UNL A   1      32.319  32.188  26.870  1.00  0.00     0.116 C 
BRANCH  29  30
ATOM     30  N   UNL A   1      32.382  33.581  27.294  1.00  0.00    -0.352 N 
ATOM     31  C   UNL A   1      33.315  34.198  28.094  1.00  0.00     0.251 C 
ATOM     32  H   UNL A   1      31.659  34.159  26.961  1.00  0.00     0.163 HD
ATOM     33  O   UNL A   1      33.171  35.372  28.425  1.00  0.00    -0.269 OA
BRANCH  31  34
ATOM     34  C   UNL A   1      34.476  33.426  28.586  1.00  0.00     0.039 A 
ATOM     35  C   UNL A   1      35.761  33.824  28.206  1.00  0.00     0.014 A 
ATOM     36  C   UNL A   1      34.297  32.350  29.458  1.00  0.00     0.014 A 
ATOM     37  C   UNL A   1      36.873  33.194  28.772  1.00  0.00     0.010 A 
ATOM     38  C   UNL A   1      35.405  31.767  30.067  1.00  0.00     0.010 A 
ATOM     39  C   UNL A   1      36.703  32.191  29.741  1.00  0.00    -0.014 A 
BRANCH  39  40
ATOM     40  C   UNL A   1      37.864  31.602  30.456  1.00  0.00     0.031 A 
ATOM     41  C   UNL A   1      38.696  30.534  29.802  1.00  0.00     0.074 A 
ATOM     42  C   UNL A   1      38.105  31.957  31.735  1.00  0.00     0.049 A 
ATOM     43  N   UNL A   1      39.692  29.847  30.299  1.00  0.00    -0.248 NA
ATOM     44  C   UNL A   1      38.348  30.171  28.418  1.00  0.00     0.031 C 
ATOM     45  C   UNL A   1      37.320  32.922  32.509  1.00  0.00     0.029 A 
ATOM     46  N   UNL A   1      39.062  31.524  32.619  1.00  0.00    -0.354 N 
ATOM     47  C   UNL A   1      40.070  28.952  29.305  1.00  0.00     0.074 A 
ATOM     48  C   UNL A   1      39.177  29.161  28.186  1.00  0.00     0.031 C 
ATOM     49  C   UNL A   1      37.826  33.007  33.750  1.00  0.00     0.029 A 
ATOM     50  C   UNL A   1      38.955  32.089  33.870  1.00  0.00     0.049 A 
ATOM     51  H   UNL A   1      39.759  30.871  32.382  1.00  0.00     0.167 HD
ATOM     52  C   UNL A   1      41.088  28.060  29.310  1.00  0.00     0.034 A 
ATOM     53  C   UNL A   1      39.683  31.890  34.986  1.00  0.00     0.034 A 
ATOM     54  C   UNL A   1      42.009  27.890  30.400  1.00  0.00     0.049 A 
ATOM     55  C   UNL A   1      40.844  30.932  34.942  1.00  0.00     0.074 A 
ATOM     56  C   UNL A   1      43.117  27.063  30.469  1.00  0.00     0.029 A 
ATOM     57  N   UNL A   1      41.937  28.562  31.609  1.00  0.00    -0.354 N 
ATOM     58  N   UNL A   1      41.279  30.211  33.938  1.00  0.00    -0.248 NA
ATOM     59  C   UNL A   1      41.635  30.789  36.173  1.00  0.00     0.031 C 
ATOM     60  C   UNL A   1      43.716  27.238  31.721  1.00  0.00     0.029 A 
ATOM     61  C   UNL A   1      42.982  28.175  32.429  1.00  0.00     0.049 A 
ATOM     62  H   UNL A   1      41.243  29.218  31.850  1.00  0.00     0.167 HD
ATOM     63  C   UNL A   1      42.414  29.557  34.404  1.00  0.00     0.074 A 
ATOM     64  C   UNL A   1      42.613  29.986  35.773  1.00  0.00     0.031 C 
ATOM     65  C   UNL A   1      43.209  28.666  33.763  1.00  0.00     0.034 A 
BRANCH  52  66
ATOM     66  C   UNL A   1      41.316  27.253  28.061  1.00  0.00     0.023 A 
ATOM     67  C   UNL A   1      41.932  27.870  26.953  1.00  0.00     0.012 A 
ATOM     68  C   UNL A   1      40.995  25.884  28.001  1.00  0.00     0.148 A 
ATOM     69  C   UNL A   1      42.205  27.142  25.796  1.00  0.00     0.002 A 
ATOM     70  C   UNL A   1      41.303  25.155  26.857  1.00  0.00     0.091 A 
ATOM     71  F   UNL A   1      40.391  25.321  29.058  1.00  0.00    -0.205 F 
ATOM     72  C   UNL A   1      41.901  25.786  25.752  1.00  0.00     0.022 A 
BRANCH  70  73
ATOM     73  S   UNL A   1      41.015  23.387  26.724  1.00  0.00     0.127 S 
ATOM     74  O   UNL A   1      39.578  23.343  26.458  1.00  0.00    -0.237 OA
ATOM     75  O   UNL A   1      41.857  23.022  25.585  1.00  0.00    -0.237 OA
ATOM     76  O   UNL A   1      41.434  22.816  27.996  1.00  0.00    -0.744 OA
ENDBRANCH  70  73
ENDBRANCH  52  66
BRANCH  53  77
ATOM     77  C   UNL A   1      39.392  32.675  36.219  1.00  0.00     0.023 A 
ATOM     78  C   UNL A   1      39.968  33.953  36.369  1.00  0.00     0.012 A 
ATOM     79  C   UNL A   1      38.548  32.182  37.231  1.00  0.00     0.148 A 
ATOM     80  C   UNL A   1      39.736  34.709  37.518  1.00  0.00     0.002 A 
ATOM     81  C   UNL A   1      38.279  32.963  38.350  1.00  0.00     0.091 A 
ATOM     82  F   UNL A   1      38.022  30.957  37.085  1.00  0.00    -0.205 F 
ATOM     83  C   UNL A   1      38.884  34.219  38.504  1.00  0.00     0.022 A 
BRANCH  81  84
ATOM     84  S   UNL A   1      37.088  32.446  39.593  1.00  0.00     0.127 S 
ATOM     85  O   UNL A   1      37.226  33.494  40.598  1.00  0.00    -0.237 OA
ATOM     86  O   UNL A   1      35.827  32.470  38.848  1.00  0.00    -0.237 OA
ATOM     87  O   UNL A   1      37.515  31.110  39.987  1.00  0.00    -0.744 OA
ENDBRANCH  81  84
ENDBRANCH  53  77
BRANCH  65  88
ATOM     88  C   UNL A   1      44.388  28.113  34.517  1.00  0.00     0.023 A 
ATOM     89  C   UNL A   1      45.622  28.792  34.471  1.00  0.00     0.012 A 
ATOM     90  C   UNL A   1      44.255  26.971  35.330  1.00  0.00     0.148 A 
ATOM     91  C   UNL A   1      46.712  28.329  35.205  1.00  0.00     0.002 A 
ATOM     92  C   UNL A   1      45.335  26.538  36.091  1.00  0.00     0.091 A 
ATOM     93  F   UNL A   1      43.080  26.325  35.342  1.00  0.00    -0.205 F 
ATOM     94  C   UNL A   1      46.565  27.211  36.024  1.00  0.00     0.022 A 
BRANCH  92  95
ATOM     95  S   UNL A   1      45.204  25.160  37.237  1.00  0.00     0.127 S 
ATOM     96  O   UNL A   1      46.562  25.087  37.771  1.00  0.00    -0.237 OA
ATOM     97  O   UNL A   1      44.198  25.635  38.188  1.00  0.00    -0.237 OA
ATOM     98  O   UNL A   1      44.780  24.020  36.436  1.00  0.00    -0.744 OA
ENDBRANCH  92  95
ENDBRANCH  65  88
ENDBRANCH  39  40
ENDBRANCH  31  34
ENDBRANCH  29  30
ENDBRANCH   1  29
TORSDOF 17
ENDMDL
