MODEL 1
REMARK VINA RESULT:     -11.4      0.000      0.000
REMARK SMILES CCN(C1CC1)S(=O)(=O)c1ccc(F)c(C(=O)NCCCCNC(=O)c2ccc(-c3c4nc(c(-c5cccc(S(=O)(=O)[O-])c5F)c5ccc([nH]5)c(-c5cccc(S(=O)(=O)[O-])c5F)c5nc(c(-c6cccc(S(=O)(=O)[O-])c6F)c6ccc3[nH]6)C=C5)C=C4)cc2)c1F
REMARK SMILES IDX 20 1 19 2 18 3 16 4 17 5 15 7 10 8 11 9 89 10 12 11 90 12
REMARK SMILES IDX 13 13 14 14 7 15 8 16 9 17 3 18 2 19 1 20 4 21 5 22 6 23
REMARK SMILES IDX 21 24 22 25 23 26 24 27 25 29 26 30 27 31 88 32 28 33 87 34
REMARK SMILES IDX 29 35 30 36 31 37 81 38 32 39 86 40 80 41 82 42 33 43 85 44
REMARK SMILES IDX 79 45 78 46 34 48 66 49 46 50 65 51 47 52 50 53 64 54 83 55
REMARK SMILES IDX 48 56 49 57 63 59 84 60 51 61 35 62 36 63 44 64 37 65 39 66
REMARK SMILES IDX 45 67 38 68 40 69 41 70 42 71 43 72 67 73 68 74 76 75 69 76
REMARK SMILES IDX 71 77 77 78 70 79 72 80 73 81 74 82 75 83 52 84 53 85 61 86
REMARK SMILES IDX 54 87 56 88 62 89 55 90 57 91 58 92 59 93 60 94
REMARK H PARENT 18 6 23 28 82 47 50 58
REMARK Flexibility Score: inf
ROOT
ATOM      1  C   UNL A   1      36.293  21.458  24.962  1.00  0.00     0.023 C 
ENDROOT
BRANCH   1   2
ATOM      2  C   UNL A   1      35.367  21.433  26.184  1.00  0.00     0.116 C 
BRANCH   2   3
ATOM      3  N   UNL A   1      34.290  20.482  25.991  1.00  0.00    -0.352 N 
ATOM      4  C   UNL A   1      33.041  20.568  25.429  1.00  0.00     0.257 C 
ATOM      5  O   UNL A   1      32.343  19.557  25.507  1.00  0.00    -0.269 OA
ATOM      6  H   UNL A   1      34.498  19.584  26.338  1.00  0.00     0.163 HD
BRANCH   4   7
ATOM      7  C   UNL A   1      32.495  21.757  24.721  1.00  0.00     0.112 A 
ATOM      8  C   UNL A   1      31.952  24.133  24.837  1.00  0.00     0.119 A 
ATOM      9  C   UNL A   1      31.570  24.144  23.497  1.00  0.00     0.028 A 
ATOM     10  C   UNL A   1      32.387  22.957  25.451  1.00  0.00     0.158 A 
ATOM     11  C   UNL A   1      31.681  22.973  22.762  1.00  0.00     0.042 A 
ATOM     12  F   UNL A   1      32.685  22.991  26.758  1.00  0.00    -0.205 F 
ATOM     13  C   UNL A   1      32.171  21.810  23.363  1.00  0.00     0.139 A 
ATOM     14  F   UNL A   1      32.364  20.781  22.537  1.00  0.00    -0.206 F 
BRANCH   8  15
ATOM     15  S   UNL A   1      32.022  25.662  25.723  1.00  0.00     0.246 S 
ATOM     16  O   UNL A   1      33.358  25.769  26.286  1.00  0.00    -0.207 OA
ATOM     17  O   UNL A   1      30.869  25.668  26.595  1.00  0.00    -0.207 OA
BRANCH  15  18
ATOM     18  N   UNL A   1      31.888  26.915  24.540  1.00  0.00    -0.195 NA
BRANCH  18  19
ATOM     19  C   UNL A   1      30.525  27.538  24.494  1.00  0.00     0.099 C 
ATOM     20  C   UNL A   1      29.898  27.502  23.110  1.00  0.00     0.022 C 
ENDBRANCH  18  19
BRANCH  18  21
ATOM     21  C   UNL A   1      33.020  27.893  24.585  1.00  0.00     0.073 C 
ATOM     22  C   UNL A   1      33.944  28.161  23.429  1.00  0.00     0.022 C 
ATOM     23  C   UNL A   1      33.000  29.233  23.903  1.00  0.00     0.022 C 
ENDBRANCH  18  21
ENDBRANCH  15  18
ENDBRANCH   8  15
ENDBRANCH   4   7
ENDBRANCH   2   3
ENDBRANCH   1   2
BRANCH   1  24
ATOM     24  C   UNL A   1      37.364  20.366  24.939  1.00  0.00     0.023 C 
BRANCH  24  25
ATOM     25  C   UNL A   1      38.695  20.747  25.578  1.00  0.00     0.116 C 
BRANCH  25  26
ATOM     26  N   UNL A   1      39.600  19.618  25.747  1.00  0.00    -0.352 N 
ATOM     27  C   UNL A   1      40.927  19.629  26.102  1.00  0.00     0.251 C 
ATOM     28  H   UNL A   1      39.208  18.728  25.586  1.00  0.00     0.163 HD
ATOM     29  O   UNL A   1      41.571  18.585  26.114  1.00  0.00    -0.269 OA
BRANCH  27  30
ATOM     30  C   UNL A   1      41.582  20.913  26.426  1.00  0.00     0.039 A 
ATOM     31  C   UNL A   1      42.038  21.718  25.378  1.00  0.00     0.014 A 
ATOM     32  C   UNL A   1      41.709  21.339  27.750  1.00  0.00     0.014 A 
ATOM     33  C   UNL A   1      42.553  22.985  25.655  1.00  0.00     0.010 A 
ATOM     34  C   UNL A   1      42.164  22.626  28.019  1.00  0.00     0.010 A 
ATOM     35  C   UNL A   1      42.584  23.464  26.976  1.00  0.00    -0.014 A 
BRANCH  35  36
ATOM     36  C   UNL A   1      43.010  24.852  27.281  1.00  0.00     0.031 A 
ATOM     37  C   UNL A   1      42.050  25.823  27.909  1.00  0.00     0.074 A 
ATOM     38  C   UNL A   1      44.233  25.265  26.893  1.00  0.00     0.049 A 
ATOM     39  N   UNL A   1      42.226  27.087  28.191  1.00  0.00    -0.248 NA
ATOM     40  C   UNL A   1      40.707  25.315  28.237  1.00  0.00     0.031 C 
ATOM     41  C   UNL A   1      45.221  24.443  26.192  1.00  0.00     0.029 A 
ATOM     42  N   UNL A   1      44.841  26.491  27.004  1.00  0.00    -0.354 N 
ATOM     43  C   UNL A   1      41.012  27.535  28.696  1.00  0.00     0.074 A 
ATOM     44  C   UNL A   1      40.097  26.415  28.655  1.00  0.00     0.031 C 
ATOM     45  C   UNL A   1      46.310  25.184  25.936  1.00  0.00     0.029 A 
ATOM     46  C   UNL A   1      46.093  26.539  26.433  1.00  0.00     0.049 A 
ATOM     47  H   UNL A   1      44.423  27.262  27.451  1.00  0.00     0.167 HD
ATOM     48  C   UNL A   1      40.696  28.761  29.182  1.00  0.00     0.034 A 
ATOM     49  C   UNL A   1      46.963  27.560  26.319  1.00  0.00     0.034 A 
ATOM     50  C   UNL A   1      41.624  29.856  29.269  1.00  0.00     0.049 A 
ATOM     51  C   UNL A   1      46.607  28.895  26.915  1.00  0.00     0.074 A 
ATOM     52  C   UNL A   1      41.431  31.102  29.841  1.00  0.00     0.029 A 
ATOM     53  N   UNL A   1      42.916  29.840  28.769  1.00  0.00    -0.354 N 
ATOM     54  N   UNL A   1      45.517  29.247  27.553  1.00  0.00    -0.248 NA
ATOM     55  C   UNL A   1      47.614  29.961  26.808  1.00  0.00     0.031 C 
ATOM     56  C   UNL A   1      42.606  31.844  29.675  1.00  0.00     0.029 A 
ATOM     57  C   UNL A   1      43.532  31.057  29.010  1.00  0.00     0.049 A 
ATOM     58  H   UNL A   1      43.334  29.077  28.309  1.00  0.00     0.167 HD
ATOM     59  C   UNL A   1      45.716  30.565  27.948  1.00  0.00     0.074 A 
ATOM     60  C   UNL A   1      47.043  30.939  27.500  1.00  0.00     0.031 C 
ATOM     61  C   UNL A   1      44.871  31.397  28.604  1.00  0.00     0.034 A 
BRANCH  48  62
ATOM     62  C   UNL A   1      39.306  28.959  29.722  1.00  0.00     0.023 A 
ATOM     63  C   UNL A   1      39.010  28.537  31.036  1.00  0.00     0.012 A 
ATOM     64  C   UNL A   1      38.311  29.607  28.965  1.00  0.00     0.148 A 
ATOM     65  C   UNL A   1      37.739  28.729  31.576  1.00  0.00     0.002 A 
ATOM     66  C   UNL A   1      37.057  29.830  29.525  1.00  0.00     0.091 A 
ATOM     67  F   UNL A   1      38.602  29.979  27.710  1.00  0.00    -0.205 F 
ATOM     68  C   UNL A   1      36.769  29.384  30.824  1.00  0.00     0.022 A 
BRANCH  66  69
ATOM     69  S   UNL A   1      35.761  30.727  28.663  1.00  0.00     0.127 S 
ATOM     70  O   UNL A   1      36.538  31.674  27.864  1.00  0.00    -0.237 OA
ATOM     71  O   UNL A   1      35.111  29.668  27.891  1.00  0.00    -0.237 OA
ATOM     72  O   UNL A   1      34.928  31.318  29.701  1.00  0.00    -0.744 OA
ENDBRANCH  66  69
ENDBRANCH  48  62
BRANCH  49  73
ATOM     73  C   UNL A   1      48.291  27.334  25.683  1.00  0.00     0.023 A 
ATOM     74  C   UNL A   1      49.364  26.880  26.475  1.00  0.00     0.012 A 
ATOM     75  C   UNL A   1      48.490  27.525  24.302  1.00  0.00     0.148 A 
ATOM     76  C   UNL A   1      50.618  26.645  25.909  1.00  0.00     0.002 A 
ATOM     77  C   UNL A   1      49.727  27.239  23.735  1.00  0.00     0.091 A 
ATOM     78  F   UNL A   1      47.462  27.973  23.567  1.00  0.00    -0.205 F 
ATOM     79  C   UNL A   1      50.796  26.814  24.539  1.00  0.00     0.022 A 
BRANCH  77  80
ATOM     80  S   UNL A   1      50.005  27.301  21.961  1.00  0.00     0.127 S 
ATOM     81  O   UNL A   1      51.383  26.831  21.857  1.00  0.00    -0.237 OA
ATOM     82  O   UNL A   1      48.995  26.367  21.460  1.00  0.00    -0.237 OA
ATOM     83  O   UNL A   1      49.773  28.688  21.582  1.00  0.00    -0.744 OA
ENDBRANCH  77  80
ENDBRANCH  49  73
BRANCH  61  84
ATOM     84  C   UNL A   1      45.354  32.794  28.894  1.00  0.00     0.023 A 
ATOM     85  C   UNL A   1      46.047  33.052  30.093  1.00  0.00     0.012 A 
ATOM     86  C   UNL A   1      45.191  33.827  27.952  1.00  0.00     0.148 A 
ATOM     87  C   UNL A   1      46.546  34.325  30.363  1.00  0.00     0.002 A 
ATOM     88  C   UNL A   1      45.729  35.083  28.209  1.00  0.00     0.091 A 
ATOM     89  F   UNL A   1      44.510  33.568  26.826  1.00  0.00    -0.205 F 
ATOM     90  C   UNL A   1      46.398  35.337  29.417  1.00  0.00     0.022 A 
BRANCH  88  91
ATOM     91  S   UNL A   1      45.664  36.418  27.007  1.00  0.00     0.127 S 
ATOM     92  O   UNL A   1      44.224  36.636  26.880  1.00  0.00    -0.237 OA
ATOM     93  O   UNL A   1      46.385  37.492  27.692  1.00  0.00    -0.237 OA
ATOM     94  O   UNL A   1      46.331  35.912  25.814  1.00  0.00    -0.744 OA
ENDBRANCH  88  91
ENDBRANCH  61  84
ENDBRANCH  35  36
ENDBRANCH  27  30
ENDBRANCH  25  26
ENDBRANCH  24  25
ENDBRANCH   1  24
TORSDOF 18
ENDMDL
MODEL 2
REMARK VINA RESULT:     -11.3      6.420     11.429
REMARK SMILES CCN(C1CC1)S(=O)(=O)c1ccc(F)c(C(=O)NCCCCNC(=O)c2ccc(-c3c4nc(c(-c5cccc(S(=O)(=O)[O-])c5F)c5ccc([nH]5)c(-c5cccc(S(=O)(=O)[O-])c5F)c5nc(c(-c6cccc(S(=O)(=O)[O-])c6F)c6ccc3[nH]6)C=C5)C=C4)cc2)c1F
REMARK SMILES IDX 20 1 19 2 18 3 16 4 17 5 15 7 10 8 11 9 89 10 12 11 90 12
REMARK SMILES IDX 13 13 14 14 7 15 8 16 9 17 3 18 2 19 1 20 4 21 5 22 6 23
REMARK SMILES IDX 21 24 22 25 23 26 24 27 25 29 26 30 27 31 88 32 28 33 87 34
REMARK SMILES IDX 29 35 30 36 31 37 81 38 32 39 86 40 80 41 82 42 33 43 85 44
REMARK SMILES IDX 79 45 78 46 34 48 66 49 46 50 65 51 47 52 50 53 64 54 83 55
REMARK SMILES IDX 48 56 49 57 63 59 84 60 51 61 35 62 36 63 44 64 37 65 39 66
REMARK SMILES IDX 45 67 38 68 40 69 41 70 42 71 43 72 67 73 68 74 76 75 69 76
REMARK SMILES IDX 71 77 77 78 70 79 72 80 73 81 74 82 75 83 52 84 53 85 61 86
REMARK SMILES IDX 54 87 56 88 62 89 55 90 57 91 58 92 59 93 60 94
REMARK H PARENT 18 6 23 28 82 47 50 58
REMARK Flexibility Score: inf
ROOT
ATOM      1  C   UNL A   1      34.866  30.273  27.750  1.00  0.00     0.023 C 
ENDROOT
BRANCH   1   2
ATOM      2  C   UNL A   1      34.198  29.106  27.015  1.00  0.00     0.116 C 
BRANCH   2   3
ATOM      3  N   UNL A   1      32.993  28.688  27.705  1.00  0.00    -0.352 N 
ATOM      4  C   UNL A   1      31.864  28.012  27.313  1.00  0.00     0.257 C 
ATOM      5  O   UNL A   1      30.983  27.895  28.165  1.00  0.00    -0.269 OA
ATOM      6  H   UNL A   1      32.981  28.943  28.656  1.00  0.00     0.163 HD
BRANCH   4   7
ATOM      7  C   UNL A   1      31.648  27.400  25.975  1.00  0.00     0.112 A 
ATOM      8  C   UNL A   1      31.501  25.345  24.668  1.00  0.00     0.119 A 
ATOM      9  C   UNL A   1      31.167  26.062  23.520  1.00  0.00     0.028 A 
ATOM     10  C   UNL A   1      31.760  26.000  25.873  1.00  0.00     0.158 A 
ATOM     11  C   UNL A   1      31.042  27.441  23.607  1.00  0.00     0.042 A 
ATOM     12  F   UNL A   1      32.136  25.266  26.931  1.00  0.00    -0.205 F 
ATOM     13  C   UNL A   1      31.246  28.089  24.828  1.00  0.00     0.139 A 
ATOM     14  F   UNL A   1      30.969  29.394  24.832  1.00  0.00    -0.206 F 
BRANCH   8  15
ATOM     15  S   UNL A   1      31.450  23.578  24.623  1.00  0.00     0.246 S 
ATOM     16  O   UNL A   1      31.168  23.194  23.250  1.00  0.00    -0.207 OA
ATOM     17  O   UNL A   1      30.550  23.180  25.682  1.00  0.00    -0.207 OA
BRANCH  15  18
ATOM     18  N   UNL A   1      33.055  23.038  24.962  1.00  0.00    -0.195 NA
BRANCH  18  19
ATOM     19  C   UNL A   1      33.217  21.553  24.827  1.00  0.00     0.099 C 
ATOM     20  C   UNL A   1      33.668  20.881  26.113  1.00  0.00     0.022 C 
ENDBRANCH  18  19
BRANCH  18  21
ATOM     21  C   UNL A   1      34.109  23.845  24.271  1.00  0.00     0.073 C 
ATOM     22  C   UNL A   1      35.580  23.727  24.559  1.00  0.00     0.022 C 
ATOM     23  C   UNL A   1      35.036  23.296  23.224  1.00  0.00     0.022 C 
ENDBRANCH  18  21
ENDBRANCH  15  18
ENDBRANCH   8  15
ENDBRANCH   4   7
ENDBRANCH   2   3
ENDBRANCH   1   2
BRANCH   1  24
ATOM     24  C   UNL A   1      34.375  31.663  27.338  1.00  0.00     0.023 C 
BRANCH  24  25
ATOM     25  C   UNL A   1      32.926  31.974  27.697  1.00  0.00     0.116 C 
BRANCH  25  26
ATOM     26  N   UNL A   1      32.644  33.400  27.785  1.00  0.00    -0.352 N 
ATOM     27  C   UNL A   1      33.271  34.352  28.552  1.00  0.00     0.251 C 
ATOM     28  H   UNL A   1      31.907  33.726  27.219  1.00  0.00     0.163 HD
ATOM     29  O   UNL A   1      32.848  35.504  28.574  1.00  0.00    -0.269 OA
BRANCH  27  30
ATOM     30  C   UNL A   1      34.430  33.967  29.384  1.00  0.00     0.039 A 
ATOM     31  C   UNL A   1      34.210  33.194  30.527  1.00  0.00     0.014 A 
ATOM     32  C   UNL A   1      35.728  34.331  29.017  1.00  0.00     0.014 A 
ATOM     33  C   UNL A   1      35.298  32.722  31.262  1.00  0.00     0.010 A 
ATOM     34  C   UNL A   1      36.813  33.808  29.714  1.00  0.00     0.010 A 
ATOM     35  C   UNL A   1      36.610  32.993  30.837  1.00  0.00    -0.014 A 
BRANCH  35  36
ATOM     36  C   UNL A   1      37.781  32.400  31.529  1.00  0.00     0.031 A 
ATOM     37  C   UNL A   1      38.534  31.257  30.908  1.00  0.00     0.074 A 
ATOM     38  C   UNL A   1      38.098  32.825  32.769  1.00  0.00     0.049 A 
ATOM     39  N   UNL A   1      39.539  30.576  31.390  1.00  0.00    -0.248 NA
ATOM     40  C   UNL A   1      38.080  30.802  29.583  1.00  0.00     0.031 C 
ATOM     41  C   UNL A   1      37.385  33.863  33.515  1.00  0.00     0.029 A 
ATOM     42  N   UNL A   1      39.081  32.412  33.632  1.00  0.00    -0.354 N 
ATOM     43  C   UNL A   1      39.818  29.593  30.450  1.00  0.00     0.074 A 
ATOM     44  C   UNL A   1      38.856  29.747  29.380  1.00  0.00     0.031 C 
ATOM     45  C   UNL A   1      37.953  34.007  34.722  1.00  0.00     0.029 A 
ATOM     46  C   UNL A   1      39.055  33.058  34.847  1.00  0.00     0.049 A 
ATOM     47  H   UNL A   1      39.744  31.721  33.404  1.00  0.00     0.167 HD
ATOM     48  C   UNL A   1      40.806  28.665  30.460  1.00  0.00     0.034 A 
ATOM     49  C   UNL A   1      39.829  32.901  35.938  1.00  0.00     0.034 A 
ATOM     50  C   UNL A   1      41.791  28.550  31.500  1.00  0.00     0.049 A 
ATOM     51  C   UNL A   1      40.952  31.901  35.900  1.00  0.00     0.074 A 
ATOM     52  C   UNL A   1      42.894  27.714  31.551  1.00  0.00     0.029 A 
ATOM     53  N   UNL A   1      41.793  29.287  32.674  1.00  0.00    -0.354 N 
ATOM     54  N   UNL A   1      41.312  31.103  34.924  1.00  0.00    -0.248 NA
ATOM     55  C   UNL A   1      41.798  31.806  37.099  1.00  0.00     0.031 C 
ATOM     56  C   UNL A   1      43.556  27.939  32.763  1.00  0.00     0.029 A 
ATOM     57  C   UNL A   1      42.872  28.921  33.461  1.00  0.00     0.049 A 
ATOM     58  H   UNL A   1      41.126  29.970  32.913  1.00  0.00     0.167 HD
ATOM     59  C   UNL A   1      42.440  30.431  35.378  1.00  0.00     0.074 A 
ATOM     60  C   UNL A   1      42.720  30.936  36.708  1.00  0.00     0.031 C 
ATOM     61  C   UNL A   1      43.168  29.469  34.760  1.00  0.00     0.034 A 
BRANCH  48  62
ATOM     62  C   UNL A   1      40.912  27.747  29.272  1.00  0.00     0.023 A 
ATOM     63  C   UNL A   1      40.152  26.559  29.250  1.00  0.00     0.012 A 
ATOM     64  C   UNL A   1      41.710  28.077  28.160  1.00  0.00     0.148 A 
ATOM     65  C   UNL A   1      40.208  25.699  28.154  1.00  0.00     0.002 A 
ATOM     66  C   UNL A   1      41.730  27.235  27.054  1.00  0.00     0.091 A 
ATOM     67  F   UNL A   1      42.444  29.199  28.208  1.00  0.00    -0.205 F 
ATOM     68  C   UNL A   1      40.988  26.042  27.054  1.00  0.00     0.022 A 
BRANCH  66  69
ATOM     69  S   UNL A   1      42.648  27.624  25.560  1.00  0.00     0.127 S 
ATOM     70  O   UNL A   1      44.011  27.747  26.074  1.00  0.00    -0.237 OA
ATOM     71  O   UNL A   1      42.414  26.438  24.734  1.00  0.00    -0.237 OA
ATOM     72  O   UNL A   1      42.060  28.849  25.038  1.00  0.00    -0.744 OA
ENDBRANCH  66  69
ENDBRANCH  48  62
BRANCH  49  73
ATOM     73  C   UNL A   1      39.616  33.772  37.129  1.00  0.00     0.023 A 
ATOM     74  C   UNL A   1      40.035  35.116  37.081  1.00  0.00     0.012 A 
ATOM     75  C   UNL A   1      38.971  33.294  38.286  1.00  0.00     0.148 A 
ATOM     76  C   UNL A   1      39.839  35.962  38.173  1.00  0.00     0.002 A 
ATOM     77  C   UNL A   1      38.731  34.156  39.350  1.00  0.00     0.091 A 
ATOM     78  F   UNL A   1      38.593  32.008  38.319  1.00  0.00    -0.205 F 
ATOM     79  C   UNL A   1      39.179  35.486  39.302  1.00  0.00     0.022 A 
BRANCH  77  80
ATOM     80  S   UNL A   1      37.771  33.662  40.786  1.00  0.00     0.127 S 
ATOM     81  O   UNL A   1      36.553  33.145  40.168  1.00  0.00    -0.237 OA
ATOM     82  O   UNL A   1      38.632  32.647  41.395  1.00  0.00    -0.237 OA
ATOM     83  O   UNL A   1      37.619  34.871  41.584  1.00  0.00    -0.744 OA
ENDBRANCH  77  80
ENDBRANCH  49  73
BRANCH  61  84
ATOM     84  C   UNL A   1      44.349  28.903  35.503  1.00  0.00     0.023 A 
ATOM     85  C   UNL A   1      45.623  29.478  35.320  1.00  0.00     0.012 A 
ATOM     86  C   UNL A   1      44.188  27.859  36.434  1.00  0.00     0.148 A 
ATOM     87  C   UNL A   1      46.723  29.003  36.033  1.00  0.00     0.002 A 
ATOM     88  C   UNL A   1      45.281  27.421  37.172  1.00  0.00     0.091 A 
ATOM     89  F   UNL A   1      42.972  27.311  36.577  1.00  0.00    -0.205 F 
ATOM     90  C   UNL A   1      46.550  27.984  36.967  1.00  0.00     0.022 A 
BRANCH  88  91
ATOM     91  S   UNL A   1      45.131  26.176  38.459  1.00  0.00     0.127 S 
ATOM     92  O   UNL A   1      46.422  26.285  39.134  1.00  0.00    -0.237 OA
ATOM     93  O   UNL A   1      43.992  26.666  39.239  1.00  0.00    -0.237 OA
ATOM     94  O   UNL A   1      44.886  24.916  37.768  1.00  0.00    -0.744 OA
ENDBRANCH  88  91
ENDBRANCH  61  84
ENDBRANCH  35  36
ENDBRANCH  27  30
ENDBRANCH  25  26
ENDBRANCH  24  25
ENDBRANCH   1  24
TORSDOF 18
ENDMDL
MODEL 3
REMARK VINA RESULT:     -11.2      1.769      2.266
REMARK SMILES CCN(C1CC1)S(=O)(=O)c1ccc(F)c(C(=O)NCCCCNC(=O)c2ccc(-c3c4nc(c(-c5cccc(S(=O)(=O)[O-])c5F)c5ccc([nH]5)c(-c5cccc(S(=O)(=O)[O-])c5F)c5nc(c(-c6cccc(S(=O)(=O)[O-])c6F)c6ccc3[nH]6)C=C5)C=C4)cc2)c1F
REMARK SMILES IDX 20 1 19 2 18 3 16 4 17 5 15 7 10 8 11 9 89 10 12 11 90 12
REMARK SMILES IDX 13 13 14 14 7 15 8 16 9 17 3 18 2 19 1 20 4 21 5 22 6 23
REMARK SMILES IDX 21 24 22 25 23 26 24 27 25 29 26 30 27 31 88 32 28 33 87 34
REMARK SMILES IDX 29 35 30 36 31 37 81 38 32 39 86 40 80 41 82 42 33 43 85 44
REMARK SMILES IDX 79 45 78 46 34 48 66 49 46 50 65 51 47 52 50 53 64 54 83 55
REMARK SMILES IDX 48 56 49 57 63 59 84 60 51 61 35 62 36 63 44 64 37 65 39 66
REMARK SMILES IDX 45 67 38 68 40 69 41 70 42 71 43 72 67 73 68 74 76 75 69 76
REMARK SMILES IDX 71 77 77 78 70 79 72 80 73 81 74 82 75 83 52 84 53 85 61 86
REMARK SMILES IDX 54 87 56 88 62 89 55 90 57 91 58 92 59 93 60 94
REMARK H PARENT 18 6 23 28 82 47 50 58
REMARK Flexibility Score: inf
ROOT
ATOM      1  C   UNL A   1      36.390  20.398  25.207  1.00  0.00     0.023 C 
ENDROOT
BRANCH   1   2
ATOM      2  C   UNL A   1      35.200  21.363  25.144  1.00  0.00     0.116 C 
BRANCH   2   3
ATOM      3  N   UNL A   1      34.148  20.824  24.305  1.00  0.00    -0.352 N 
ATOM      4  C   UNL A   1      32.916  21.290  23.917  1.00  0.00     0.257 C 
ATOM      5  O   UNL A   1      32.234  20.516  23.245  1.00  0.00    -0.269 OA
ATOM      6  H   UNL A   1      34.361  19.937  23.937  1.00  0.00     0.163 HD
BRANCH   4   7
ATOM      7  C   UNL A   1      32.372  22.641  24.216  1.00  0.00     0.112 A 
ATOM      8  C   UNL A   1      32.173  24.967  23.507  1.00  0.00     0.119 A 
ATOM      9  C   UNL A   1      31.337  25.257  24.584  1.00  0.00     0.028 A 
ATOM     10  C   UNL A   1      32.704  23.688  23.334  1.00  0.00     0.158 A 
ATOM     11  C   UNL A   1      30.993  24.235  25.456  1.00  0.00     0.042 A 
ATOM     12  F   UNL A   1      33.551  23.480  22.315  1.00  0.00    -0.205 F 
ATOM     13  C   UNL A   1      31.478  22.941  25.248  1.00  0.00     0.139 A 
ATOM     14  F   UNL A   1      30.980  22.009  26.062  1.00  0.00    -0.206 F 
BRANCH   8  15
ATOM     15  S   UNL A   1      32.443  26.203  22.272  1.00  0.00     0.246 S 
ATOM     16  O   UNL A   1      31.588  25.874  21.144  1.00  0.00    -0.207 OA
ATOM     17  O   UNL A   1      33.876  26.279  22.093  1.00  0.00    -0.207 OA
BRANCH  15  18
ATOM     18  N   UNL A   1      31.839  27.684  22.927  1.00  0.00    -0.195 NA
BRANCH  18  19
ATOM     19  C   UNL A   1      32.888  28.751  23.033  1.00  0.00     0.099 C 
ATOM     20  C   UNL A   1      33.039  29.302  24.442  1.00  0.00     0.022 C 
ENDBRANCH  18  19
BRANCH  18  21
ATOM     21  C   UNL A   1      30.558  28.130  22.296  1.00  0.00     0.073 C 
ATOM     22  C   UNL A   1      29.426  28.767  23.054  1.00  0.00     0.022 C 
ATOM     23  C   UNL A   1      30.201  29.568  22.044  1.00  0.00     0.022 C 
ENDBRANCH  18  21
ENDBRANCH  15  18
ENDBRANCH   8  15
ENDBRANCH   4   7
ENDBRANCH   2   3
ENDBRANCH   1   2
BRANCH   1  24
ATOM     24  C   UNL A   1      37.717  20.972  24.707  1.00  0.00     0.023 C 
BRANCH  24  25
ATOM     25  C   UNL A   1      38.822  21.065  25.755  1.00  0.00     0.116 C 
BRANCH  25  26
ATOM     26  N   UNL A   1      39.659  19.875  25.820  1.00  0.00    -0.352 N 
ATOM     27  C   UNL A   1      41.003  19.787  26.089  1.00  0.00     0.251 C 
ATOM     28  H   UNL A   1      39.200  19.020  25.649  1.00  0.00     0.163 HD
ATOM     29  O   UNL A   1      41.576  18.704  26.018  1.00  0.00    -0.269 OA
BRANCH  27  30
ATOM     30  C   UNL A   1      41.760  21.011  26.421  1.00  0.00     0.039 A 
ATOM     31  C   UNL A   1      42.215  21.824  25.379  1.00  0.00     0.014 A 
ATOM     32  C   UNL A   1      41.983  21.377  27.751  1.00  0.00     0.014 A 
ATOM     33  C   UNL A   1      42.829  23.042  25.672  1.00  0.00     0.010 A 
ATOM     34  C   UNL A   1      42.539  22.620  28.039  1.00  0.00     0.010 A 
ATOM     35  C   UNL A   1      42.960  23.468  27.005  1.00  0.00    -0.014 A 
BRANCH  35  36
ATOM     36  C   UNL A   1      43.496  24.812  27.334  1.00  0.00     0.031 A 
ATOM     37  C   UNL A   1      42.581  25.893  27.839  1.00  0.00     0.074 A 
ATOM     38  C   UNL A   1      44.790  25.086  27.075  1.00  0.00     0.049 A 
ATOM     39  N   UNL A   1      42.858  27.138  28.120  1.00  0.00    -0.248 NA
ATOM     40  C   UNL A   1      41.166  25.535  28.027  1.00  0.00     0.031 C 
ATOM     41  C   UNL A   1      45.755  24.148  26.498  1.00  0.00     0.029 A 
ATOM     42  N   UNL A   1      45.508  26.244  27.234  1.00  0.00    -0.354 N 
ATOM     43  C   UNL A   1      41.652  27.722  28.484  1.00  0.00     0.074 A 
ATOM     44  C   UNL A   1      40.634  26.702  28.359  1.00  0.00     0.031 C 
ATOM     45  C   UNL A   1      46.937  24.766  26.352  1.00  0.00     0.029 A 
ATOM     46  C   UNL A   1      46.811  26.149  26.802  1.00  0.00     0.049 A 
ATOM     47  H   UNL A   1      45.128  27.066  27.622  1.00  0.00     0.167 HD
ATOM     48  C   UNL A   1      41.417  28.986  28.914  1.00  0.00     0.034 A 
ATOM     49  C   UNL A   1      47.792  27.071  26.769  1.00  0.00     0.034 A 
ATOM     50  C   UNL A   1      42.440  29.982  29.086  1.00  0.00     0.049 A 
ATOM     51  C   UNL A   1      47.517  28.450  27.302  1.00  0.00     0.074 A 
ATOM     52  C   UNL A   1      42.320  31.255  29.615  1.00  0.00     0.029 A 
ATOM     53  N   UNL A   1      43.769  29.819  28.729  1.00  0.00    -0.354 N 
ATOM     54  N   UNL A   1      46.408  28.930  27.813  1.00  0.00    -0.248 NA
ATOM     55  C   UNL A   1      48.636  29.404  27.290  1.00  0.00     0.031 C 
ATOM     56  C   UNL A   1      43.577  31.868  29.567  1.00  0.00     0.029 A 
ATOM     57  C   UNL A   1      44.481  30.972  29.018  1.00  0.00     0.049 A 
ATOM     58  H   UNL A   1      44.152  29.006  28.329  1.00  0.00     0.167 HD
ATOM     59  C   UNL A   1      46.702  30.230  28.207  1.00  0.00     0.074 A 
ATOM     60  C   UNL A   1      48.101  30.454  27.901  1.00  0.00     0.031 C 
ATOM     61  C   UNL A   1      45.884  31.162  28.755  1.00  0.00     0.034 A 
BRANCH  48  62
ATOM     62  C   UNL A   1      40.006  29.341  29.297  1.00  0.00     0.023 A 
ATOM     63  C   UNL A   1      39.078  29.667  28.286  1.00  0.00     0.012 A 
ATOM     64  C   UNL A   1      39.578  29.299  30.638  1.00  0.00     0.148 A 
ATOM     65  C   UNL A   1      37.756  29.976  28.605  1.00  0.00     0.002 A 
ATOM     66  C   UNL A   1      38.249  29.569  30.945  1.00  0.00     0.091 A 
ATOM     67  F   UNL A   1      40.479  29.010  31.589  1.00  0.00    -0.205 F 
ATOM     68  C   UNL A   1      37.341  29.916  29.931  1.00  0.00     0.022 A 
BRANCH  66  69
ATOM     69  S   UNL A   1      37.600  29.450  32.616  1.00  0.00     0.127 S 
ATOM     70  O   UNL A   1      38.537  30.294  33.357  1.00  0.00    -0.237 OA
ATOM     71  O   UNL A   1      36.258  30.015  32.469  1.00  0.00    -0.237 OA
ATOM     72  O   UNL A   1      37.626  28.035  32.955  1.00  0.00    -0.744 OA
ENDBRANCH  66  69
ENDBRANCH  48  62
BRANCH  49  73
ATOM     73  C   UNL A   1      49.149  26.693  26.284  1.00  0.00     0.023 A 
ATOM     74  C   UNL A   1      49.946  25.839  27.072  1.00  0.00     0.012 A 
ATOM     75  C   UNL A   1      49.639  27.136  25.040  1.00  0.00     0.148 A 
ATOM     76  C   UNL A   1      51.216  25.454  26.642  1.00  0.00     0.002 A 
ATOM     77  C   UNL A   1      50.884  26.706  24.594  1.00  0.00     0.091 A 
ATOM     78  F   UNL A   1      48.873  27.961  24.312  1.00  0.00    -0.205 F 
ATOM     79  C   UNL A   1      51.680  25.878  25.400  1.00  0.00     0.022 A 
BRANCH  77  80
ATOM     80  S   UNL A   1      51.500  27.096  22.952  1.00  0.00     0.127 S 
ATOM     81  O   UNL A   1      51.716  28.537  23.048  1.00  0.00    -0.237 OA
ATOM     82  O   UNL A   1      52.721  26.293  22.885  1.00  0.00    -0.237 OA
ATOM     83  O   UNL A   1      50.453  26.667  22.034  1.00  0.00    -0.744 OA
ENDBRANCH  77  80
ENDBRANCH  49  73
BRANCH  61  84
ATOM     84  C   UNL A   1      46.478  32.508  29.076  1.00  0.00     0.023 A 
ATOM     85  C   UNL A   1      47.116  32.706  30.316  1.00  0.00     0.012 A 
ATOM     86  C   UNL A   1      46.472  33.548  28.126  1.00  0.00     0.148 A 
ATOM     87  C   UNL A   1      47.716  33.928  30.617  1.00  0.00     0.002 A 
ATOM     88  C   UNL A   1      47.109  34.748  28.417  1.00  0.00     0.091 A 
ATOM     89  F   UNL A   1      45.840  33.347  26.960  1.00  0.00    -0.205 F 
ATOM     90  C   UNL A   1      47.723  34.944  29.664  1.00  0.00     0.022 A 
BRANCH  88  91
ATOM     91  S   UNL A   1      47.244  36.077  27.214  1.00  0.00     0.127 S 
ATOM     92  O   UNL A   1      45.848  36.478  27.053  1.00  0.00    -0.237 OA
ATOM     93  O   UNL A   1      48.081  37.052  27.917  1.00  0.00    -0.237 OA
ATOM     94  O   UNL A   1      47.870  35.486  26.038  1.00  0.00    -0.744 OA
ENDBRANCH  88  91
ENDBRANCH  61  84
ENDBRANCH  35  36
ENDBRANCH  27  30
ENDBRANCH  25  26
ENDBRANCH  24  25
ENDBRANCH   1  24
TORSDOF 18
ENDMDL
