MODEL 1
REMARK VINA RESULT:     -12.9      0.000      0.000
REMARK SMILES Cc1ccccc1C(=O)Nc1cc(NC(=O)c2ccccc2C)cc(C(=O)NCCCCNC(=O)c2ccc(-c3c4nc(c(-c5cccc(S(=O)(=O)[O-])c5F)c5ccc([nH]5)c(-c5cccc(S(=O)(=O)[O-])c5F)c5nc(c(-c6cccc(S(=O)(=O)[O-])c6F)c6ccc3[nH]6)C=C5)C=C4)cc2)c1
REMARK SMILES IDX 31 1 30 2 29 3 28 4 26 5 27 6 25 8 11 9 12 10 99 11 13 12
REMARK SMILES IDX 24 13 10 14 8 15 9 16 7 18 1 19 2 20 3 21 4 22 6 23 5 24
REMARK SMILES IDX 14 25 15 26 16 28 17 29 18 30 22 31 19 32 21 33 23 34 20 35
REMARK SMILES IDX 32 36 33 37 34 38 35 40 36 41 37 42 98 43 38 44 97 45 39 46
REMARK SMILES IDX 40 47 41 48 91 49 42 50 96 51 90 52 92 53 43 54 95 55 89 56
REMARK SMILES IDX 88 57 44 59 76 60 56 61 75 62 57 63 60 64 74 65 93 66 58 67
REMARK SMILES IDX 59 68 73 70 94 71 61 72 45 73 46 74 54 75 47 76 49 77 55 78
REMARK SMILES IDX 48 79 50 80 51 81 52 82 53 83 77 84 78 85 86 86 79 87 81 88
REMARK SMILES IDX 87 89 80 90 82 91 83 92 84 93 85 94 62 95 63 96 71 97 64 98
REMARK SMILES IDX 66 99 72 100 65 101 67 102 68 103 69 104 70 105
REMARK H PARENT 28 7 10 17 14 27 33 39 92 58 60 69
REMARK Flexibility Score: inf
ROOT
ATOM      1  C   UNL A   1      35.201  31.339  28.635  1.00  0.00     0.023 C 
ENDROOT
BRANCH   1   2
ATOM      2  C   UNL A   1      35.013  30.162  27.675  1.00  0.00     0.023 C 
BRANCH   2   3
ATOM      3  C   UNL A   1      33.657  30.082  26.975  1.00  0.00     0.116 C 
BRANCH   3   4
ATOM      4  N   UNL A   1      32.704  29.209  27.648  1.00  0.00    -0.352 N 
ATOM      5  C   UNL A   1      31.866  28.198  27.244  1.00  0.00     0.251 C 
ATOM      6  O   UNL A   1      31.089  27.734  28.081  1.00  0.00    -0.269 OA
ATOM      7  H   UNL A   1      32.646  29.385  28.615  1.00  0.00     0.163 HD
BRANCH   5   8
ATOM      8  C   UNL A   1      31.825  27.643  25.862  1.00  0.00     0.043 A 
ATOM      9  C   UNL A   1      31.908  28.041  23.482  1.00  0.00     0.044 A 
ATOM     10  C   UNL A   1      31.710  26.686  23.227  1.00  0.00     0.052 A 
ATOM     11  C   UNL A   1      32.137  28.487  24.789  1.00  0.00     0.040 A 
ATOM     12  C   UNL A   1      31.440  25.834  24.283  1.00  0.00     0.044 A 
ATOM     13  C   UNL A   1      31.341  26.373  25.560  1.00  0.00     0.040 A 
BRANCH   9  14
ATOM     14  N   UNL A   1      31.701  29.007  22.490  1.00  0.00    -0.322 N 
ATOM     15  C   UNL A   1      30.505  29.514  22.004  1.00  0.00     0.255 C 
ATOM     16  O   UNL A   1      30.547  30.264  21.025  1.00  0.00    -0.269 OA
ATOM     17  H   UNL A   1      32.516  29.378  22.082  1.00  0.00     0.170 HD
BRANCH  15  18
ATOM     18  C   UNL A   1      29.162  29.216  22.615  1.00  0.00     0.043 A 
ATOM     19  C   UNL A   1      28.065  31.558  22.393  1.00  0.00     0.045 C 
ATOM     20  C   UNL A   1      28.123  30.137  22.880  1.00  0.00    -0.038 A 
ATOM     21  C   UNL A   1      26.982  29.697  23.586  1.00  0.00     0.004 A 
ATOM     22  C   UNL A   1      26.792  28.353  23.887  1.00  0.00     0.000 A 
ATOM     23  C   UNL A   1      28.925  27.853  22.882  1.00  0.00     0.014 A 
ATOM     24  C   UNL A   1      27.743  27.422  23.490  1.00  0.00     0.001 A 
ENDBRANCH  15  18
ENDBRANCH   9  14
BRANCH  12  25
ATOM     25  N   UNL A   1      31.170  24.464  24.167  1.00  0.00    -0.322 N 
ATOM     26  C   UNL A   1      32.000  23.371  24.168  1.00  0.00     0.255 C 
ATOM     27  H   UNL A   1      30.215  24.246  24.066  1.00  0.00     0.170 HD
ATOM     28  O   UNL A   1      31.543  22.263  23.891  1.00  0.00    -0.269 OA
BRANCH  26  29
ATOM     29  C   UNL A   1      33.431  23.480  24.529  1.00  0.00     0.043 A 
ATOM     30  C   UNL A   1      34.313  23.589  23.444  1.00  0.00     0.014 A 
ATOM     31  C   UNL A   1      33.924  23.464  25.850  1.00  0.00    -0.038 A 
ATOM     32  C   UNL A   1      35.676  23.764  23.661  1.00  0.00     0.001 A 
ATOM     33  C   UNL A   1      35.297  23.686  26.047  1.00  0.00     0.004 A 
ATOM     34  C   UNL A   1      33.073  23.243  27.072  1.00  0.00     0.045 C 
ATOM     35  C   UNL A   1      36.164  23.839  24.963  1.00  0.00     0.000 A 
ENDBRANCH  26  29
ENDBRANCH  12  25
ENDBRANCH   5   8
ENDBRANCH   3   4
ENDBRANCH   2   3
ENDBRANCH   1   2
BRANCH   1  36
ATOM     36  C   UNL A   1      35.139  32.682  27.937  1.00  0.00     0.116 C 
BRANCH  36  37
ATOM     37  N   UNL A   1      34.289  33.636  28.613  1.00  0.00    -0.352 N 
ATOM     38  C   UNL A   1      34.226  33.964  29.945  1.00  0.00     0.251 C 
ATOM     39  H   UNL A   1      33.663  34.125  28.031  1.00  0.00     0.163 HD
ATOM     40  O   UNL A   1      33.165  34.469  30.336  1.00  0.00    -0.269 OA
BRANCH  38  41
ATOM     41  C   UNL A   1      35.408  33.905  30.843  1.00  0.00     0.039 A 
ATOM     42  C   UNL A   1      36.643  34.325  30.321  1.00  0.00     0.014 A 
ATOM     43  C   UNL A   1      35.394  33.147  32.008  1.00  0.00     0.014 A 
ATOM     44  C   UNL A   1      37.821  33.739  30.769  1.00  0.00     0.010 A 
ATOM     45  C   UNL A   1      36.533  32.514  32.405  1.00  0.00     0.010 A 
ATOM     46  C   UNL A   1      37.711  32.723  31.694  1.00  0.00    -0.014 A 
BRANCH  46  47
ATOM     47  C   UNL A   1      38.727  31.769  32.063  1.00  0.00     0.031 A 
ATOM     48  C   UNL A   1      38.677  30.461  31.409  1.00  0.00     0.074 A 
ATOM     49  C   UNL A   1      39.871  32.356  32.478  1.00  0.00     0.049 A 
ATOM     50  N   UNL A   1      39.599  29.577  31.504  1.00  0.00    -0.248 NA
ATOM     51  C   UNL A   1      37.564  30.057  30.556  1.00  0.00     0.031 C 
ATOM     52  C   UNL A   1      41.250  31.999  32.172  1.00  0.00     0.029 A 
ATOM     53  N   UNL A   1      40.013  33.461  33.298  1.00  0.00    -0.354 N 
ATOM     54  C   UNL A   1      39.387  28.673  30.487  1.00  0.00     0.074 A 
ATOM     55  C   UNL A   1      38.041  28.921  30.042  1.00  0.00     0.031 C 
ATOM     56  C   UNL A   1      42.073  32.699  32.978  1.00  0.00     0.029 A 
ATOM     57  C   UNL A   1      41.237  33.370  33.960  1.00  0.00     0.049 A 
ATOM     58  H   UNL A   1      39.359  34.190  33.398  1.00  0.00     0.167 HD
ATOM     59  C   UNL A   1      40.460  27.958  30.050  1.00  0.00     0.034 A 
ATOM     60  C   UNL A   1      41.223  33.053  35.295  1.00  0.00     0.034 A 
ATOM     61  C   UNL A   1      41.616  28.205  30.939  1.00  0.00     0.049 A 
ATOM     62  C   UNL A   1      41.721  31.639  35.577  1.00  0.00     0.074 A 
ATOM     63  C   UNL A   1      42.761  28.977  30.825  1.00  0.00     0.029 A 
ATOM     64  N   UNL A   1      41.499  27.892  32.293  1.00  0.00    -0.354 N 
ATOM     65  N   UNL A   1      41.964  30.734  34.665  1.00  0.00    -0.248 NA
ATOM     66  C   UNL A   1      42.033  31.154  36.916  1.00  0.00     0.031 C 
ATOM     67  C   UNL A   1      43.267  29.208  32.142  1.00  0.00     0.029 A 
ATOM     68  C   UNL A   1      42.460  28.545  33.053  1.00  0.00     0.049 A 
ATOM     69  H   UNL A   1      40.818  27.284  32.665  1.00  0.00     0.167 HD
ATOM     70  C   UNL A   1      42.335  29.548  35.243  1.00  0.00     0.074 A 
ATOM     71  C   UNL A   1      42.444  29.900  36.654  1.00  0.00     0.031 C 
ATOM     72  C   UNL A   1      42.477  28.389  34.514  1.00  0.00     0.034 A 
BRANCH  59  73
ATOM     73  C   UNL A   1      40.580  27.214  28.723  1.00  0.00     0.023 A 
ATOM     74  C   UNL A   1      39.631  26.194  28.485  1.00  0.00     0.012 A 
ATOM     75  C   UNL A   1      41.569  27.371  27.717  1.00  0.00     0.148 A 
ATOM     76  C   UNL A   1      39.674  25.366  27.355  1.00  0.00     0.002 A 
ATOM     77  C   UNL A   1      41.603  26.559  26.577  1.00  0.00     0.091 A 
ATOM     78  F   UNL A   1      42.521  28.291  27.843  1.00  0.00    -0.205 F 
ATOM     79  C   UNL A   1      40.661  25.548  26.398  1.00  0.00     0.022 A 
BRANCH  77  80
ATOM     80  S   UNL A   1      42.850  26.740  25.282  1.00  0.00     0.127 S 
ATOM     81  O   UNL A   1      44.086  26.840  26.061  1.00  0.00    -0.237 OA
ATOM     82  O   UNL A   1      42.705  25.494  24.532  1.00  0.00    -0.237 OA
ATOM     83  O   UNL A   1      42.507  27.945  24.536  1.00  0.00    -0.744 OA
ENDBRANCH  77  80
ENDBRANCH  59  73
BRANCH  60  84
ATOM     84  C   UNL A   1      40.097  33.760  36.005  1.00  0.00     0.023 A 
ATOM     85  C   UNL A   1      38.899  33.014  36.156  1.00  0.00     0.012 A 
ATOM     86  C   UNL A   1      40.359  34.802  36.916  1.00  0.00     0.148 A 
ATOM     87  C   UNL A   1      38.116  33.144  37.306  1.00  0.00     0.002 A 
ATOM     88  C   UNL A   1      39.558  34.939  38.053  1.00  0.00     0.091 A 
ATOM     89  F   UNL A   1      41.424  35.587  36.706  1.00  0.00    -0.205 F 
ATOM     90  C   UNL A   1      38.479  34.069  38.280  1.00  0.00     0.022 A 
BRANCH  88  91
ATOM     91  S   UNL A   1      39.943  36.144  39.333  1.00  0.00     0.127 S 
ATOM     92  O   UNL A   1      38.947  35.823  40.351  1.00  0.00    -0.237 OA
ATOM     93  O   UNL A   1      41.319  35.806  39.703  1.00  0.00    -0.237 OA
ATOM     94  O   UNL A   1      39.805  37.441  38.687  1.00  0.00    -0.744 OA
ENDBRANCH  88  91
ENDBRANCH  60  84
BRANCH  72  95
ATOM     95  C   UNL A   1      42.644  26.980  35.094  1.00  0.00     0.023 A 
ATOM     96  C   UNL A   1      41.552  26.144  35.392  1.00  0.00     0.012 A 
ATOM     97  C   UNL A   1      43.931  26.393  35.269  1.00  0.00     0.148 A 
ATOM     98  C   UNL A   1      41.709  24.847  35.897  1.00  0.00     0.002 A 
ATOM     99  C   UNL A   1      44.081  25.059  35.644  1.00  0.00     0.091 A 
ATOM    100  F   UNL A   1      45.038  27.129  35.113  1.00  0.00    -0.205 F 
ATOM    101  C   UNL A   1      42.973  24.294  35.999  1.00  0.00     0.022 A 
BRANCH  99 102
ATOM    102  S   UNL A   1      45.673  24.225  35.560  1.00  0.00     0.127 S 
ATOM    103  O   UNL A   1      46.396  24.851  36.665  1.00  0.00    -0.237 OA
ATOM    104  O   UNL A   1      45.299  22.828  35.790  1.00  0.00    -0.237 OA
ATOM    105  O   UNL A   1      46.186  24.494  34.225  1.00  0.00    -0.744 OA
ENDBRANCH  99 102
ENDBRANCH  72  95
ENDBRANCH  46  47
ENDBRANCH  38  41
ENDBRANCH  36  37
ENDBRANCH   1  36
TORSDOF 18
ENDMDL
MODEL 2
REMARK VINA RESULT:     -12.8      1.455      2.079
REMARK SMILES Cc1ccccc1C(=O)Nc1cc(NC(=O)c2ccccc2C)cc(C(=O)NCCCCNC(=O)c2ccc(-c3c4nc(c(-c5cccc(S(=O)(=O)[O-])c5F)c5ccc([nH]5)c(-c5cccc(S(=O)(=O)[O-])c5F)c5nc(c(-c6cccc(S(=O)(=O)[O-])c6F)c6ccc3[nH]6)C=C5)C=C4)cc2)c1
REMARK SMILES IDX 31 1 30 2 29 3 28 4 26 5 27 6 25 8 11 9 12 10 99 11 13 12
REMARK SMILES IDX 24 13 10 14 8 15 9 16 7 18 1 19 2 20 3 21 4 22 6 23 5 24
REMARK SMILES IDX 14 25 15 26 16 28 17 29 18 30 22 31 19 32 21 33 23 34 20 35
REMARK SMILES IDX 32 36 33 37 34 38 35 40 36 41 37 42 98 43 38 44 97 45 39 46
REMARK SMILES IDX 40 47 41 48 91 49 42 50 96 51 90 52 92 53 43 54 95 55 89 56
REMARK SMILES IDX 88 57 44 59 76 60 56 61 75 62 57 63 60 64 74 65 93 66 58 67
REMARK SMILES IDX 59 68 73 70 94 71 61 72 45 73 46 74 54 75 47 76 49 77 55 78
REMARK SMILES IDX 48 79 50 80 51 81 52 82 53 83 77 84 78 85 86 86 79 87 81 88
REMARK SMILES IDX 87 89 80 90 82 91 83 92 84 93 85 94 62 95 63 96 71 97 64 98
REMARK SMILES IDX 66 99 72 100 65 101 67 102 68 103 69 104 70 105
REMARK H PARENT 28 7 10 17 14 27 33 39 92 58 60 69
REMARK Flexibility Score: inf
ROOT
ATOM      1  C   UNL A   1      35.257  31.311  28.545  1.00  0.00     0.023 C 
ENDROOT
BRANCH   1   2
ATOM      2  C   UNL A   1      36.028  30.378  27.608  1.00  0.00     0.023 C 
BRANCH   2   3
ATOM      3  C   UNL A   1      35.278  29.131  27.143  1.00  0.00     0.116 C 
BRANCH   3   4
ATOM      4  N   UNL A   1      33.864  29.364  26.880  1.00  0.00    -0.352 N 
ATOM      5  C   UNL A   1      32.874  28.670  26.228  1.00  0.00     0.251 C 
ATOM      6  O   UNL A   1      31.782  29.226  26.093  1.00  0.00    -0.269 OA
ATOM      7  H   UNL A   1      33.543  30.216  27.256  1.00  0.00     0.163 HD
BRANCH   5   8
ATOM      8  C   UNL A   1      33.041  27.303  25.660  1.00  0.00     0.043 A 
ATOM      9  C   UNL A   1      33.242  25.896  23.709  1.00  0.00     0.044 A 
ATOM     10  C   UNL A   1      33.308  24.758  24.510  1.00  0.00     0.052 A 
ATOM     11  C   UNL A   1      33.284  27.169  24.288  1.00  0.00     0.040 A 
ATOM     12  C   UNL A   1      33.109  24.881  25.874  1.00  0.00     0.044 A 
ATOM     13  C   UNL A   1      32.815  26.138  26.389  1.00  0.00     0.040 A 
BRANCH   9  14
ATOM     14  N   UNL A   1      32.947  25.809  22.342  1.00  0.00    -0.322 N 
ATOM     15  C   UNL A   1      31.847  26.302  21.657  1.00  0.00     0.255 C 
ATOM     16  O   UNL A   1      31.717  25.993  20.469  1.00  0.00    -0.269 OA
ATOM     17  H   UNL A   1      33.612  25.335  21.794  1.00  0.00     0.170 HD
BRANCH  15  18
ATOM     18  C   UNL A   1      30.814  27.207  22.273  1.00  0.00     0.043 A 
ATOM     19  C   UNL A   1      29.679  25.520  23.885  1.00  0.00     0.045 C 
ATOM     20  C   UNL A   1      29.793  26.842  23.179  1.00  0.00    -0.038 A 
ATOM     21  C   UNL A   1      28.826  27.803  23.545  1.00  0.00     0.004 A 
ATOM     22  C   UNL A   1      28.948  29.134  23.158  1.00  0.00     0.000 A 
ATOM     23  C   UNL A   1      30.947  28.569  21.936  1.00  0.00     0.014 A 
ATOM     24  C   UNL A   1      30.038  29.527  22.393  1.00  0.00     0.001 A 
ENDBRANCH  15  18
ENDBRANCH   9  14
BRANCH  12  25
ATOM     25  N   UNL A   1      33.096  23.819  26.787  1.00  0.00    -0.322 N 
ATOM     26  C   UNL A   1      33.891  22.705  26.897  1.00  0.00     0.255 C 
ATOM     27  H   UNL A   1      32.391  23.882  27.471  1.00  0.00     0.170 HD
ATOM     28  O   UNL A   1      33.587  21.821  27.697  1.00  0.00    -0.269 OA
BRANCH  26  29
ATOM     29  C   UNL A   1      35.131  22.552  26.105  1.00  0.00     0.043 A 
ATOM     30  C   UNL A   1      36.139  23.484  26.391  1.00  0.00     0.014 A 
ATOM     31  C   UNL A   1      35.329  21.569  25.114  1.00  0.00    -0.038 A 
ATOM     32  C   UNL A   1      37.376  23.400  25.757  1.00  0.00     0.001 A 
ATOM     33  C   UNL A   1      36.599  21.475  24.520  1.00  0.00     0.004 A 
ATOM     34  C   UNL A   1      34.275  20.595  24.660  1.00  0.00     0.045 C 
ATOM     35  C   UNL A   1      37.613  22.379  24.841  1.00  0.00     0.000 A 
ENDBRANCH  26  29
ENDBRANCH  12  25
ENDBRANCH   5   8
ENDBRANCH   3   4
ENDBRANCH   2   3
ENDBRANCH   1   2
BRANCH   1  36
ATOM     36  C   UNL A   1      35.138  32.720  28.001  1.00  0.00     0.116 C 
BRANCH  36  37
ATOM     37  N   UNL A   1      34.372  33.598  28.858  1.00  0.00    -0.352 N 
ATOM     38  C   UNL A   1      34.542  33.891  30.189  1.00  0.00     0.251 C 
ATOM     39  H   UNL A   1      33.615  34.053  28.422  1.00  0.00     0.163 HD
ATOM     40  O   UNL A   1      33.544  34.311  30.790  1.00  0.00    -0.269 OA
BRANCH  38  41
ATOM     41  C   UNL A   1      35.874  33.896  30.846  1.00  0.00     0.039 A 
ATOM     42  C   UNL A   1      37.002  34.071  30.027  1.00  0.00     0.014 A 
ATOM     43  C   UNL A   1      36.048  33.398  32.132  1.00  0.00     0.014 A 
ATOM     44  C   UNL A   1      38.208  33.471  30.370  1.00  0.00     0.010 A 
ATOM     45  C   UNL A   1      37.202  32.747  32.444  1.00  0.00     0.010 A 
ATOM     46  C   UNL A   1      38.225  32.684  31.502  1.00  0.00    -0.014 A 
BRANCH  46  47
ATOM     47  C   UNL A   1      39.233  31.726  31.880  1.00  0.00     0.031 A 
ATOM     48  C   UNL A   1      39.249  30.456  31.153  1.00  0.00     0.074 A 
ATOM     49  C   UNL A   1      40.338  32.307  32.398  1.00  0.00     0.049 A 
ATOM     50  N   UNL A   1      40.180  29.583  31.257  1.00  0.00    -0.248 NA
ATOM     51  C   UNL A   1      38.199  30.084  30.211  1.00  0.00     0.031 C 
ATOM     52  C   UNL A   1      41.740  31.989  32.160  1.00  0.00     0.029 A 
ATOM     53  N   UNL A   1      40.409  33.366  33.285  1.00  0.00    -0.354 N 
ATOM     54  C   UNL A   1      40.049  28.734  30.180  1.00  0.00     0.074 A 
ATOM     55  C   UNL A   1      38.728  28.986  29.666  1.00  0.00     0.031 C 
ATOM     56  C   UNL A   1      42.499  32.655  33.054  1.00  0.00     0.029 A 
ATOM     57  C   UNL A   1      41.591  33.257  34.017  1.00  0.00     0.049 A 
ATOM     58  H   UNL A   1      39.736  34.078  33.384  1.00  0.00     0.167 HD
ATOM     59  C   UNL A   1      41.160  28.061  29.773  1.00  0.00     0.034 A 
ATOM     60  C   UNL A   1      41.500  32.865  35.329  1.00  0.00     0.034 A 
ATOM     61  C   UNL A   1      42.254  28.276  30.746  1.00  0.00     0.049 A 
ATOM     62  C   UNL A   1      42.006  31.445  35.563  1.00  0.00     0.074 A 
ATOM     63  C   UNL A   1      43.389  29.071  30.746  1.00  0.00     0.029 A 
ATOM     64  N   UNL A   1      42.059  27.886  32.070  1.00  0.00    -0.354 N 
ATOM     65  N   UNL A   1      42.322  30.597  34.620  1.00  0.00    -0.248 NA
ATOM     66  C   UNL A   1      42.244  30.891  36.890  1.00  0.00     0.031 C 
ATOM     67  C   UNL A   1      43.808  29.235  32.103  1.00  0.00     0.029 A 
ATOM     68  C   UNL A   1      42.958  28.509  32.924  1.00  0.00     0.049 A 
ATOM     69  H   UNL A   1      41.368  27.247  32.364  1.00  0.00     0.167 HD
ATOM     70  C   UNL A   1      42.679  29.386  35.154  1.00  0.00     0.074 A 
ATOM     71  C   UNL A   1      42.694  29.659  36.586  1.00  0.00     0.031 C 
ATOM     72  C   UNL A   1      42.888  28.272  34.372  1.00  0.00     0.034 A 
BRANCH  59  73
ATOM     73  C   UNL A   1      41.376  27.396  28.417  1.00  0.00     0.023 A 
ATOM     74  C   UNL A   1      41.053  28.168  27.278  1.00  0.00     0.012 A 
ATOM     75  C   UNL A   1      41.800  26.068  28.151  1.00  0.00     0.148 A 
ATOM     76  C   UNL A   1      41.111  27.658  25.974  1.00  0.00     0.002 A 
ATOM     77  C   UNL A   1      41.878  25.561  26.848  1.00  0.00     0.091 A 
ATOM     78  F   UNL A   1      42.115  25.246  29.149  1.00  0.00    -0.205 F 
ATOM     79  C   UNL A   1      41.524  26.352  25.757  1.00  0.00     0.022 A 
BRANCH  77  80
ATOM     80  S   UNL A   1      42.415  23.875  26.483  1.00  0.00     0.127 S 
ATOM     81  O   UNL A   1      41.141  23.162  26.388  1.00  0.00    -0.237 OA
ATOM     82  O   UNL A   1      43.116  24.039  25.211  1.00  0.00    -0.237 OA
ATOM     83  O   UNL A   1      43.260  23.455  27.595  1.00  0.00    -0.744 OA
ENDBRANCH  77  80
ENDBRANCH  59  73
BRANCH  60  84
ATOM     84  C   UNL A   1      40.319  33.514  36.004  1.00  0.00     0.023 A 
ATOM     85  C   UNL A   1      39.188  32.679  36.202  1.00  0.00     0.012 A 
ATOM     86  C   UNL A   1      40.493  34.622  36.856  1.00  0.00     0.148 A 
ATOM     87  C   UNL A   1      38.397  32.807  37.346  1.00  0.00     0.002 A 
ATOM     88  C   UNL A   1      39.684  34.754  37.988  1.00  0.00     0.091 A 
ATOM     89  F   UNL A   1      41.489  35.480  36.597  1.00  0.00    -0.205 F 
ATOM     90  C   UNL A   1      38.681  33.811  38.267  1.00  0.00     0.022 A 
BRANCH  88  91
ATOM     91  S   UNL A   1      39.968  36.056  39.198  1.00  0.00     0.127 S 
ATOM     92  O   UNL A   1      39.639  37.252  38.427  1.00  0.00    -0.237 OA
ATOM     93  O   UNL A   1      39.010  35.736  40.258  1.00  0.00    -0.237 OA
ATOM     94  O   UNL A   1      41.361  35.911  39.593  1.00  0.00    -0.744 OA
ENDBRANCH  88  91
ENDBRANCH  60  84
BRANCH  72  95
ATOM     95  C   UNL A   1      43.045  26.835  34.883  1.00  0.00     0.023 A 
ATOM     96  C   UNL A   1      41.950  26.033  35.251  1.00  0.00     0.012 A 
ATOM     97  C   UNL A   1      44.316  26.191  34.916  1.00  0.00     0.148 A 
ATOM     98  C   UNL A   1      42.095  24.711  35.691  1.00  0.00     0.002 A 
ATOM     99  C   UNL A   1      44.441  24.838  35.227  1.00  0.00     0.091 A 
ATOM    100  F   UNL A   1      45.436  26.888  34.685  1.00  0.00    -0.205 F 
ATOM    101  C   UNL A   1      43.338  24.104  35.655  1.00  0.00     0.022 A 
BRANCH  99 102
ATOM    102  S   UNL A   1      45.981  23.944  34.966  1.00  0.00     0.127 S 
ATOM    103  O   UNL A   1      46.352  24.378  33.620  1.00  0.00    -0.237 OA
ATOM    104  O   UNL A   1      46.830  24.476  36.034  1.00  0.00    -0.237 OA
ATOM    105  O   UNL A   1      45.645  22.536  35.115  1.00  0.00    -0.744 OA
ENDBRANCH  99 102
ENDBRANCH  72  95
ENDBRANCH  46  47
ENDBRANCH  38  41
ENDBRANCH  36  37
ENDBRANCH   1  36
TORSDOF 18
ENDMDL
MODEL 3
REMARK VINA RESULT:     -12.8      5.701      8.814
REMARK SMILES Cc1ccccc1C(=O)Nc1cc(NC(=O)c2ccccc2C)cc(C(=O)NCCCCNC(=O)c2ccc(-c3c4nc(c(-c5cccc(S(=O)(=O)[O-])c5F)c5ccc([nH]5)c(-c5cccc(S(=O)(=O)[O-])c5F)c5nc(c(-c6cccc(S(=O)(=O)[O-])c6F)c6ccc3[nH]6)C=C5)C=C4)cc2)c1
REMARK SMILES IDX 31 1 30 2 29 3 28 4 26 5 27 6 25 8 11 9 12 10 99 11 13 12
REMARK SMILES IDX 24 13 10 14 8 15 9 16 7 18 1 19 2 20 3 21 4 22 6 23 5 24
REMARK SMILES IDX 14 25 15 26 16 28 17 29 18 30 22 31 19 32 21 33 23 34 20 35
REMARK SMILES IDX 32 36 33 37 34 38 35 40 36 41 37 42 98 43 38 44 97 45 39 46
REMARK SMILES IDX 40 47 41 48 91 49 42 50 96 51 90 52 92 53 43 54 95 55 89 56
REMARK SMILES IDX 88 57 44 59 76 60 56 61 75 62 57 63 60 64 74 65 93 66 58 67
REMARK SMILES IDX 59 68 73 70 94 71 61 72 45 73 46 74 54 75 47 76 49 77 55 78
REMARK SMILES IDX 48 79 50 80 51 81 52 82 53 83 77 84 78 85 86 86 79 87 81 88
REMARK SMILES IDX 87 89 80 90 82 91 83 92 84 93 85 94 62 95 63 96 71 97 64 98
REMARK SMILES IDX 66 99 72 100 65 101 67 102 68 103 69 104 70 105
REMARK H PARENT 28 7 10 17 14 27 33 39 92 58 60 69
REMARK Flexibility Score: inf
ROOT
ATOM      1  C   UNL A   1      38.383  23.424  26.676  1.00  0.00     0.023 C 
ENDROOT
BRANCH   1   2
ATOM      2  C   UNL A   1      36.921  23.638  26.276  1.00  0.00     0.023 C 
BRANCH   2   3
ATOM      3  C   UNL A   1      36.491  23.002  24.955  1.00  0.00     0.116 C 
BRANCH   3   4
ATOM      4  N   UNL A   1      35.838  21.710  25.114  1.00  0.00    -0.352 N 
ATOM      5  C   UNL A   1      34.548  21.255  24.988  1.00  0.00     0.251 C 
ATOM      6  O   UNL A   1      34.319  20.089  25.315  1.00  0.00    -0.269 OA
ATOM      7  H   UNL A   1      36.466  20.997  25.373  1.00  0.00     0.163 HD
BRANCH   5   8
ATOM      8  C   UNL A   1      33.410  22.084  24.501  1.00  0.00     0.043 A 
ATOM      9  C   UNL A   1      32.441  23.412  22.733  1.00  0.00     0.044 A 
ATOM     10  C   UNL A   1      31.331  23.696  23.525  1.00  0.00     0.052 A 
ATOM     11  C   UNL A   1      33.388  22.472  23.156  1.00  0.00     0.040 A 
ATOM     12  C   UNL A   1      31.322  23.283  24.846  1.00  0.00     0.044 A 
ATOM     13  C   UNL A   1      32.443  22.629  25.342  1.00  0.00     0.040 A 
BRANCH   9  14
ATOM     14  N   UNL A   1      32.742  24.177  21.599  1.00  0.00    -0.322 N 
ATOM     15  C   UNL A   1      33.153  25.499  21.525  1.00  0.00     0.255 C 
ATOM     16  O   UNL A   1      33.231  26.022  20.410  1.00  0.00    -0.269 OA
ATOM     17  H   UNL A   1      32.649  23.713  20.736  1.00  0.00     0.170 HD
BRANCH  15  18
ATOM     18  C   UNL A   1      33.528  26.327  22.726  1.00  0.00     0.043 A 
ATOM     19  C   UNL A   1      32.790  28.666  21.877  1.00  0.00     0.045 C 
ATOM     20  C   UNL A   1      33.464  27.733  22.846  1.00  0.00    -0.038 A 
ATOM     21  C   UNL A   1      33.989  28.347  24.003  1.00  0.00     0.004 A 
ATOM     22  C   UNL A   1      34.423  27.592  25.088  1.00  0.00     0.000 A 
ATOM     23  C   UNL A   1      33.923  25.582  23.855  1.00  0.00     0.014 A 
ATOM     24  C   UNL A   1      34.343  26.207  25.032  1.00  0.00     0.001 A 
ENDBRANCH  15  18
ENDBRANCH   9  14
BRANCH  12  25
ATOM     25  N   UNL A   1      30.299  23.544  25.766  1.00  0.00    -0.322 N 
ATOM     26  C   UNL A   1      29.676  24.713  26.126  1.00  0.00     0.255 C 
ATOM     27  H   UNL A   1      29.967  22.747  26.240  1.00  0.00     0.170 HD
ATOM     28  O   UNL A   1      28.903  24.718  27.083  1.00  0.00    -0.269 OA
BRANCH  26  29
ATOM     29  C   UNL A   1      29.880  25.969  25.370  1.00  0.00     0.043 A 
ATOM     30  C   UNL A   1      29.158  26.066  24.172  1.00  0.00     0.014 A 
ATOM     31  C   UNL A   1      30.737  27.013  25.774  1.00  0.00    -0.038 A 
ATOM     32  C   UNL A   1      29.217  27.228  23.407  1.00  0.00     0.001 A 
ATOM     33  C   UNL A   1      30.747  28.193  25.010  1.00  0.00     0.004 A 
ATOM     34  C   UNL A   1      31.632  26.959  26.982  1.00  0.00     0.045 C 
ATOM     35  C   UNL A   1      29.991  28.300  23.841  1.00  0.00     0.000 A 
ENDBRANCH  26  29
ENDBRANCH  12  25
ENDBRANCH   5   8
ENDBRANCH   3   4
ENDBRANCH   2   3
ENDBRANCH   1   2
BRANCH   1  36
ATOM     36  C   UNL A   1      39.133  24.724  26.879  1.00  0.00     0.116 C 
BRANCH  36  37
ATOM     37  N   UNL A   1      40.229  24.899  25.953  1.00  0.00    -0.352 N 
ATOM     38  C   UNL A   1      41.388  25.623  26.094  1.00  0.00     0.251 C 
ATOM     39  H   UNL A   1      40.131  24.428  25.094  1.00  0.00     0.163 HD
ATOM     40  O   UNL A   1      41.951  25.966  25.046  1.00  0.00    -0.269 OA
BRANCH  38  41
ATOM     41  C   UNL A   1      42.049  25.832  27.408  1.00  0.00     0.039 A 
ATOM     42  C   UNL A   1      42.605  27.097  27.662  1.00  0.00     0.014 A 
ATOM     43  C   UNL A   1      42.429  24.759  28.205  1.00  0.00     0.014 A 
ATOM     44  C   UNL A   1      43.730  27.210  28.470  1.00  0.00     0.010 A 
ATOM     45  C   UNL A   1      43.572  24.846  28.940  1.00  0.00     0.010 A 
ATOM     46  C   UNL A   1      44.280  26.044  28.958  1.00  0.00    -0.014 A 
BRANCH  46  47
ATOM     47  C   UNL A   1      45.591  25.874  29.533  1.00  0.00     0.031 A 
ATOM     48  C   UNL A   1      46.650  25.397  28.644  1.00  0.00     0.074 A 
ATOM     49  C   UNL A   1      45.809  26.692  30.587  1.00  0.00     0.049 A 
ATOM     50  N   UNL A   1      47.890  25.360  28.962  1.00  0.00    -0.248 NA
ATOM     51  C   UNL A   1      46.379  24.941  27.284  1.00  0.00     0.031 C 
ATOM     52  C   UNL A   1      47.002  27.457  30.925  1.00  0.00     0.029 A 
ATOM     53  N   UNL A   1      44.937  27.013  31.613  1.00  0.00    -0.354 N 
ATOM     54  C   UNL A   1      48.596  25.223  27.788  1.00  0.00     0.074 A 
ATOM     55  C   UNL A   1      47.621  24.808  26.813  1.00  0.00     0.031 C 
ATOM     56  C   UNL A   1      46.871  27.945  32.175  1.00  0.00     0.029 A 
ATOM     57  C   UNL A   1      45.681  27.336  32.747  1.00  0.00     0.049 A 
ATOM     58  H   UNL A   1      43.954  27.014  31.551  1.00  0.00     0.167 HD
ATOM     59  C   UNL A   1      49.886  25.658  27.777  1.00  0.00     0.034 A 
ATOM     60  C   UNL A   1      45.707  26.429  33.777  1.00  0.00     0.034 A 
ATOM     61  C   UNL A   1      50.296  26.025  29.151  1.00  0.00     0.049 A 
ATOM     62  C   UNL A   1      47.050  25.719  33.913  1.00  0.00     0.074 A 
ATOM     63  C   UNL A   1      50.456  27.234  29.808  1.00  0.00     0.029 A 
ATOM     64  N   UNL A   1      50.250  25.050  30.147  1.00  0.00    -0.354 N 
ATOM     65  N   UNL A   1      48.029  25.797  33.050  1.00  0.00    -0.248 NA
ATOM     66  C   UNL A   1      47.409  24.904  35.066  1.00  0.00     0.031 C 
ATOM     67  C   UNL A   1      50.401  26.980  31.213  1.00  0.00     0.029 A 
ATOM     68  C   UNL A   1      50.249  25.616  31.414  1.00  0.00     0.049 A 
ATOM     69  H   UNL A   1      50.221  24.081  29.973  1.00  0.00     0.167 HD
ATOM     70  C   UNL A   1      49.073  24.993  33.426  1.00  0.00     0.074 A 
ATOM     71  C   UNL A   1      48.660  24.526  34.744  1.00  0.00     0.031 C 
ATOM     72  C   UNL A   1      50.153  24.760  32.605  1.00  0.00     0.034 A 
BRANCH  59  73
ATOM     73  C   UNL A   1      50.729  25.979  26.547  1.00  0.00     0.023 A 
ATOM     74  C   UNL A   1      50.031  26.445  25.409  1.00  0.00     0.012 A 
ATOM     75  C   UNL A   1      52.127  25.808  26.374  1.00  0.00     0.148 A 
ATOM     76  C   UNL A   1      50.659  26.690  24.181  1.00  0.00     0.002 A 
ATOM     77  C   UNL A   1      52.762  26.071  25.154  1.00  0.00     0.091 A 
ATOM     78  F   UNL A   1      52.882  25.360  27.373  1.00  0.00    -0.205 F 
ATOM     79  C   UNL A   1      52.027  26.504  24.051  1.00  0.00     0.022 A 
BRANCH  77  80
ATOM     80  S   UNL A   1      54.539  25.862  24.909  1.00  0.00     0.127 S 
ATOM     81  O   UNL A   1      55.095  26.705  25.968  1.00  0.00    -0.237 OA
ATOM     82  O   UNL A   1      54.717  24.426  25.120  1.00  0.00    -0.237 OA
ATOM     83  O   UNL A   1      54.832  26.320  23.556  1.00  0.00    -0.744 OA
ENDBRANCH  77  80
ENDBRANCH  59  73
BRANCH  60  84
ATOM     84  C   UNL A   1      44.347  25.814  33.986  1.00  0.00     0.023 A 
ATOM     85  C   UNL A   1      44.218  24.456  33.594  1.00  0.00     0.012 A 
ATOM     86  C   UNL A   1      43.472  26.315  34.971  1.00  0.00     0.148 A 
ATOM     87  C   UNL A   1      43.412  23.576  34.320  1.00  0.00     0.002 A 
ATOM     88  C   UNL A   1      42.654  25.430  35.679  1.00  0.00     0.091 A 
ATOM     89  F   UNL A   1      43.507  27.623  35.256  1.00  0.00    -0.205 F 
ATOM     90  C   UNL A   1      42.674  24.053  35.397  1.00  0.00     0.022 A 
BRANCH  88  91
ATOM     91  S   UNL A   1      41.638  25.987  37.056  1.00  0.00     0.127 S 
ATOM     92  O   UNL A   1      40.938  27.124  36.465  1.00  0.00    -0.237 OA
ATOM     93  O   UNL A   1      40.787  24.828  37.329  1.00  0.00    -0.237 OA
ATOM     94  O   UNL A   1      42.580  26.297  38.121  1.00  0.00    -0.744 OA
ENDBRANCH  88  91
ENDBRANCH  60  84
BRANCH  72  95
ATOM     95  C   UNL A   1      51.237  23.698  32.827  1.00  0.00     0.023 A 
ATOM     96  C   UNL A   1      52.610  23.968  32.683  1.00  0.00     0.012 A 
ATOM     97  C   UNL A   1      50.915  22.392  33.296  1.00  0.00     0.148 A 
ATOM     98  C   UNL A   1      53.598  23.003  32.912  1.00  0.00     0.002 A 
ATOM     99  C   UNL A   1      51.905  21.477  33.650  1.00  0.00     0.091 A 
ATOM    100  F   UNL A   1      49.638  21.994  33.372  1.00  0.00    -0.205 F 
ATOM    101  C   UNL A   1      53.249  21.765  33.421  1.00  0.00     0.022 A 
BRANCH  99 102
ATOM    102  S   UNL A   1      51.521  19.959  34.534  1.00  0.00     0.127 S 
ATOM    103  O   UNL A   1      52.541  19.047  34.018  1.00  0.00    -0.237 OA
ATOM    104  O   UNL A   1      51.712  20.359  35.929  1.00  0.00    -0.237 OA
ATOM    105  O   UNL A   1      50.144  19.641  34.186  1.00  0.00    -0.744 OA
ENDBRANCH  99 102
ENDBRANCH  72  95
ENDBRANCH  46  47
ENDBRANCH  38  41
ENDBRANCH  36  37
ENDBRANCH   1  36
TORSDOF 18
ENDMDL
