MODEL 1
REMARK VINA RESULT:     -11.5      0.000      0.000
REMARK SMILES CCOc1cc(/C=C(/F)C(=O)NCCCCNC(=O)c2ccc(-c3c4nc(c(-c5cccc(S(=O)(=O)[O-])c5F)c5ccc([nH]5)c(-c5cccc(S(=O)(=O)[O-])c5F)c5nc(c(-c6cccc(S(=O)(=O)[O-])c6F)c6ccc3[nH]6)C=C5)C=C4)cc2)ccc1O
REMARK SMILES IDX 14 1 13 2 12 3 10 4 11 5 8 7 7 8 9 9 6 10 4 11 5 12 85 13
REMARK SMILES IDX 84 14 83 15 3 16 2 17 1 18 86 19 15 21 16 22 17 23 18 24
REMARK SMILES IDX 19 26 20 27 21 28 82 29 22 30 81 31 23 32 24 33 25 34 75 35
REMARK SMILES IDX 26 36 80 37 74 38 76 39 27 40 79 41 73 42 72 43 28 45 60 46
REMARK SMILES IDX 40 47 59 48 41 49 44 50 58 51 77 52 42 53 43 54 57 56 78 57
REMARK SMILES IDX 45 58 29 59 30 60 38 61 31 62 33 63 39 64 32 65 34 66 35 67
REMARK SMILES IDX 36 68 37 69 61 70 62 71 70 72 63 73 65 74 71 75 64 76 66 77
REMARK SMILES IDX 67 78 68 79 69 80 46 81 47 82 55 83 48 84 50 85 56 86 49 87
REMARK SMILES IDX 51 88 52 89 53 90 54 91
REMARK H PARENT 12 6 86 20 17 25 76 44 44 55
REMARK Flexibility Score: inf
ROOT
ATOM      1  C   UNL A   1      36.834  20.451  24.953  1.00  0.00     0.023 C 
ENDROOT
BRANCH   1   2
ATOM      2  C   UNL A   1      36.956  21.887  25.460  1.00  0.00     0.116 C 
BRANCH   2   3
ATOM      3  N   UNL A   1      35.869  22.750  25.030  1.00  0.00    -0.350 N 
ATOM      4  C   UNL A   1      34.602  22.947  25.493  1.00  0.00     0.280 C 
ATOM      5  O   UNL A   1      33.974  23.892  25.015  1.00  0.00    -0.267 OA
ATOM      6  H   UNL A   1      36.093  23.304  24.247  1.00  0.00     0.163 HD
BRANCH   4   7
ATOM      7  C   UNL A   1      34.015  22.060  26.539  1.00  0.00     0.188 C 
ATOM      8  C   UNL A   1      33.409  20.872  26.377  1.00  0.00     0.053 C 
ATOM      9  F   UNL A   1      34.048  22.542  27.801  1.00  0.00    -0.201 F 
BRANCH   8  10
ATOM     10  C   UNL A   1      33.162  20.027  25.195  1.00  0.00    -0.019 A 
ATOM     11  C   UNL A   1      33.076  17.898  24.017  1.00  0.00     0.161 A 
ATOM     12  C   UNL A   1      33.418  18.650  25.146  1.00  0.00     0.058 A 
ATOM     13  C   UNL A   1      32.413  18.508  22.954  1.00  0.00     0.157 A 
ATOM     14  C   UNL A   1      32.146  19.868  22.979  1.00  0.00     0.051 A 
ATOM     15  C   UNL A   1      32.511  20.622  24.099  1.00  0.00     0.012 A 
BRANCH  11  16
ATOM     16  O   UNL A   1      33.235  16.539  24.083  1.00  0.00    -0.490 OA
BRANCH  16  17
ATOM     17  C   UNL A   1      33.675  16.070  25.364  1.00  0.00     0.226 C 
ATOM     18  C   UNL A   1      35.171  15.824  25.246  1.00  0.00     0.049 C 
ENDBRANCH  16  17
ENDBRANCH  11  16
BRANCH  13  19
ATOM     19  O   UNL A   1      31.923  17.787  21.903  1.00  0.00    -0.504 OA
ATOM     20  H   UNL A   1      32.206  17.978  21.030  1.00  0.00     0.293 HD
ENDBRANCH  13  19
ENDBRANCH   8  10
ENDBRANCH   4   7
ENDBRANCH   2   3
ENDBRANCH   1   2
BRANCH   1  21
ATOM     21  C   UNL A   1      38.148  19.681  24.800  1.00  0.00     0.023 C 
BRANCH  21  22
ATOM     22  C   UNL A   1      39.284  20.095  25.730  1.00  0.00     0.116 C 
BRANCH  22  23
ATOM     23  N   UNL A   1      40.295  19.065  25.896  1.00  0.00    -0.352 N 
ATOM     24  C   UNL A   1      41.636  19.193  26.174  1.00  0.00     0.251 C 
ATOM     25  H   UNL A   1      39.974  18.140  25.795  1.00  0.00     0.163 HD
ATOM     26  O   UNL A   1      42.354  18.200  26.162  1.00  0.00    -0.269 OA
BRANCH  24  27
ATOM     27  C   UNL A   1      42.218  20.526  26.457  1.00  0.00     0.039 A 
ATOM     28  C   UNL A   1      42.712  21.281  25.389  1.00  0.00     0.014 A 
ATOM     29  C   UNL A   1      42.287  21.031  27.758  1.00  0.00     0.014 A 
ATOM     30  C   UNL A   1      43.219  22.563  25.621  1.00  0.00     0.010 A 
ATOM     31  C   UNL A   1      42.719  22.338  27.975  1.00  0.00     0.010 A 
ATOM     32  C   UNL A   1      43.199  23.116  26.912  1.00  0.00    -0.014 A 
BRANCH  32  33
ATOM     33  C   UNL A   1      43.669  24.506  27.158  1.00  0.00     0.031 A 
ATOM     34  C   UNL A   1      42.713  25.560  27.648  1.00  0.00     0.074 A 
ATOM     35  C   UNL A   1      44.946  24.837  26.875  1.00  0.00     0.049 A 
ATOM     36  N   UNL A   1      42.937  26.826  27.894  1.00  0.00    -0.248 NA
ATOM     37  C   UNL A   1      41.317  25.148  27.869  1.00  0.00     0.031 C 
ATOM     38  C   UNL A   1      45.952  23.930  26.321  1.00  0.00     0.029 A 
ATOM     39  N   UNL A   1      45.609  26.033  26.995  1.00  0.00    -0.354 N 
ATOM     40  C   UNL A   1      41.711  27.366  28.264  1.00  0.00     0.074 A 
ATOM     41  C   UNL A   1      40.737  26.299  28.175  1.00  0.00     0.031 C 
ATOM     42  C   UNL A   1      47.105  24.597  26.158  1.00  0.00     0.029 A 
ATOM     43  C   UNL A   1      46.915  25.985  26.564  1.00  0.00     0.049 A 
ATOM     44  H   UNL A   1      45.191  26.848  27.354  1.00  0.00     0.167 HD
ATOM     45  C   UNL A   1      41.423  28.627  28.669  1.00  0.00     0.034 A 
ATOM     46  C   UNL A   1      47.852  26.951  26.494  1.00  0.00     0.034 A 
ATOM     47  C   UNL A   1      42.397  29.678  28.788  1.00  0.00     0.049 A 
ATOM     48  C   UNL A   1      47.515  28.335  26.982  1.00  0.00     0.074 A 
ATOM     49  C   UNL A   1      42.221  30.964  29.266  1.00  0.00     0.029 A 
ATOM     50  N   UNL A   1      43.728  29.570  28.414  1.00  0.00    -0.354 N 
ATOM     51  N   UNL A   1      46.387  28.785  27.474  1.00  0.00    -0.248 NA
ATOM     52  C   UNL A   1      48.593  29.333  26.941  1.00  0.00     0.031 C 
ATOM     53  C   UNL A   1      43.437  31.645  29.149  1.00  0.00     0.029 A 
ATOM     54  C   UNL A   1      44.382  30.770  28.640  1.00  0.00     0.049 A 
ATOM     55  H   UNL A   1      44.147  28.760  28.043  1.00  0.00     0.167 HD
ATOM     56  C   UNL A   1      46.629  30.104  27.840  1.00  0.00     0.074 A 
ATOM     57  C   UNL A   1      48.019  30.373  27.530  1.00  0.00     0.031 C 
ATOM     58  C   UNL A   1      45.777  31.013  28.375  1.00  0.00     0.034 A 
BRANCH  45  59
ATOM     59  C   UNL A   1      39.996  28.931  29.055  1.00  0.00     0.023 A 
ATOM     60  C   UNL A   1      39.018  29.083  28.051  1.00  0.00     0.012 A 
ATOM     61  C   UNL A   1      39.614  29.010  30.409  1.00  0.00     0.148 A 
ATOM     62  C   UNL A   1      37.689  29.346  28.386  1.00  0.00     0.002 A 
ATOM     63  C   UNL A   1      38.279  29.223  30.735  1.00  0.00     0.091 A 
ATOM     64  F   UNL A   1      40.560  28.881  31.349  1.00  0.00    -0.205 F 
ATOM     65  C   UNL A   1      37.320  29.405  29.726  1.00  0.00     0.022 A 
BRANCH  63  66
ATOM     66  S   UNL A   1      37.685  29.231  32.430  1.00  0.00     0.127 S 
ATOM     67  O   UNL A   1      37.828  27.823  32.799  1.00  0.00    -0.237 OA
ATOM     68  O   UNL A   1      38.635  30.132  33.083  1.00  0.00    -0.237 OA
ATOM     69  O   UNL A   1      36.317  29.725  32.376  1.00  0.00    -0.744 OA
ENDBRANCH  63  66
ENDBRANCH  45  59
BRANCH  46  70
ATOM     70  C   UNL A   1      49.221  26.631  25.997  1.00  0.00     0.023 A 
ATOM     71  C   UNL A   1      50.082  25.846  26.789  1.00  0.00     0.012 A 
ATOM     72  C   UNL A   1      49.667  27.085  24.741  1.00  0.00     0.148 A 
ATOM     73  C   UNL A   1      51.376  25.551  26.356  1.00  0.00     0.002 A 
ATOM     74  C   UNL A   1      50.935  26.739  24.290  1.00  0.00     0.091 A 
ATOM     75  F   UNL A   1      48.835  27.837  24.007  1.00  0.00    -0.205 F 
ATOM     76  C   UNL A   1      51.798  25.990  25.104  1.00  0.00     0.022 A 
BRANCH  74  77
ATOM     77  S   UNL A   1      51.517  27.149  22.641  1.00  0.00     0.127 S 
ATOM     78  O   UNL A   1      51.713  28.592  22.743  1.00  0.00    -0.237 OA
ATOM     79  O   UNL A   1      52.748  26.363  22.555  1.00  0.00    -0.237 OA
ATOM     80  O   UNL A   1      50.464  26.716  21.733  1.00  0.00    -0.744 OA
ENDBRANCH  74  77
ENDBRANCH  46  70
BRANCH  58  81
ATOM     81  C   UNL A   1      46.329  32.375  28.712  1.00  0.00     0.023 A 
ATOM     82  C   UNL A   1      46.840  32.634  29.999  1.00  0.00     0.012 A 
ATOM     83  C   UNL A   1      46.392  33.382  27.729  1.00  0.00     0.148 A 
ATOM     84  C   UNL A   1      47.366  33.887  30.314  1.00  0.00     0.002 A 
ATOM     85  C   UNL A   1      46.967  34.609  28.033  1.00  0.00     0.091 A 
ATOM     86  F   UNL A   1      45.884  33.123  26.515  1.00  0.00    -0.205 F 
ATOM     87  C   UNL A   1      47.440  34.869  29.329  1.00  0.00     0.022 A 
BRANCH  85  88
ATOM     88  S   UNL A   1      47.196  35.896  26.801  1.00  0.00     0.127 S 
ATOM     89  O   UNL A   1      45.875  36.523  26.776  1.00  0.00    -0.237 OA
ATOM     90  O   UNL A   1      48.249  36.716  27.402  1.00  0.00    -0.237 OA
ATOM     91  O   UNL A   1      47.588  35.214  25.575  1.00  0.00    -0.744 OA
ENDBRANCH  85  88
ENDBRANCH  58  81
ENDBRANCH  32  33
ENDBRANCH  24  27
ENDBRANCH  22  23
ENDBRANCH  21  22
ENDBRANCH   1  21
TORSDOF 18
ENDMDL
MODEL 2
REMARK VINA RESULT:     -11.3      5.669      8.467
REMARK SMILES CCOc1cc(/C=C(/F)C(=O)NCCCCNC(=O)c2ccc(-c3c4nc(c(-c5cccc(S(=O)(=O)[O-])c5F)c5ccc([nH]5)c(-c5cccc(S(=O)(=O)[O-])c5F)c5nc(c(-c6cccc(S(=O)(=O)[O-])c6F)c6ccc3[nH]6)C=C5)C=C4)cc2)ccc1O
REMARK SMILES IDX 14 1 13 2 12 3 10 4 11 5 8 7 7 8 9 9 6 10 4 11 5 12 85 13
REMARK SMILES IDX 84 14 83 15 3 16 2 17 1 18 86 19 15 21 16 22 17 23 18 24
REMARK SMILES IDX 19 26 20 27 21 28 82 29 22 30 81 31 23 32 24 33 25 34 75 35
REMARK SMILES IDX 26 36 80 37 74 38 76 39 27 40 79 41 73 42 72 43 28 45 60 46
REMARK SMILES IDX 40 47 59 48 41 49 44 50 58 51 77 52 42 53 43 54 57 56 78 57
REMARK SMILES IDX 45 58 29 59 30 60 38 61 31 62 33 63 39 64 32 65 34 66 35 67
REMARK SMILES IDX 36 68 37 69 61 70 62 71 70 72 63 73 65 74 71 75 64 76 66 77
REMARK SMILES IDX 67 78 68 79 69 80 46 81 47 82 55 83 48 84 50 85 56 86 49 87
REMARK SMILES IDX 51 88 52 89 53 90 54 91
REMARK H PARENT 12 6 86 20 17 25 76 44 44 55
REMARK Flexibility Score: inf
ROOT
ATOM      1  C   UNL A   1      33.248  27.137  25.300  1.00  0.00     0.023 C 
ENDROOT
BRANCH   1   2
ATOM      2  C   UNL A   1      31.742  27.186  25.547  1.00  0.00     0.116 C 
BRANCH   2   3
ATOM      3  N   UNL A   1      31.235  26.040  26.283  1.00  0.00    -0.350 N 
ATOM      4  C   UNL A   1      30.831  24.796  25.898  1.00  0.00     0.280 C 
ATOM      5  O   UNL A   1      30.619  23.977  26.791  1.00  0.00    -0.267 OA
ATOM      6  H   UNL A   1      31.171  26.192  27.253  1.00  0.00     0.163 HD
BRANCH   4   7
ATOM      7  C   UNL A   1      30.666  24.448  24.456  1.00  0.00     0.188 C 
ATOM      8  C   UNL A   1      31.358  23.554  23.732  1.00  0.00     0.053 C 
ATOM      9  F   UNL A   1      29.740  25.168  23.784  1.00  0.00    -0.201 F 
BRANCH   8  10
ATOM     10  C   UNL A   1      32.430  22.602  24.075  1.00  0.00    -0.019 A 
ATOM     11  C   UNL A   1      34.517  21.967  25.157  1.00  0.00     0.161 A 
ATOM     12  C   UNL A   1      33.584  22.944  24.794  1.00  0.00     0.058 A 
ATOM     13  C   UNL A   1      34.268  20.628  24.861  1.00  0.00     0.157 A 
ATOM     14  C   UNL A   1      33.132  20.264  24.153  1.00  0.00     0.051 A 
ATOM     15  C   UNL A   1      32.214  21.246  23.770  1.00  0.00     0.012 A 
BRANCH  11  16
ATOM     16  O   UNL A   1      35.555  22.345  25.966  1.00  0.00    -0.490 OA
BRANCH  16  17
ATOM     17  C   UNL A   1      35.914  23.727  25.838  1.00  0.00     0.226 C 
ATOM     18  C   UNL A   1      37.398  23.762  25.508  1.00  0.00     0.049 C 
ENDBRANCH  16  17
ENDBRANCH  11  16
BRANCH  13  19
ATOM     19  O   UNL A   1      35.069  19.627  25.329  1.00  0.00    -0.504 OA
ATOM     20  H   UNL A   1      34.750  18.746  25.361  1.00  0.00     0.293 HD
ENDBRANCH  13  19
ENDBRANCH   8  10
ENDBRANCH   4   7
ENDBRANCH   2   3
ENDBRANCH   1   2
BRANCH   1  21
ATOM     21  C   UNL A   1      34.096  28.099  26.136  1.00  0.00     0.023 C 
BRANCH  21  22
ATOM     22  C   UNL A   1      33.455  28.622  27.417  1.00  0.00     0.116 C 
BRANCH  22  23
ATOM     23  N   UNL A   1      33.523  30.069  27.545  1.00  0.00    -0.352 N 
ATOM     24  C   UNL A   1      34.538  30.856  28.036  1.00  0.00     0.251 C 
ATOM     25  H   UNL A   1      32.726  30.556  27.234  1.00  0.00     0.163 HD
ATOM     26  O   UNL A   1      34.358  32.061  28.168  1.00  0.00    -0.269 OA
BRANCH  24  27
ATOM     27  C   UNL A   1      35.831  30.251  28.430  1.00  0.00     0.039 A 
ATOM     28  C   UNL A   1      36.905  30.327  27.538  1.00  0.00     0.014 A 
ATOM     29  C   UNL A   1      35.992  29.610  29.661  1.00  0.00     0.014 A 
ATOM     30  C   UNL A   1      38.151  29.810  27.904  1.00  0.00     0.010 A 
ATOM     31  C   UNL A   1      37.254  29.167  30.055  1.00  0.00     0.010 A 
ATOM     32  C   UNL A   1      38.346  29.254  29.179  1.00  0.00    -0.014 A 
BRANCH  32  33
ATOM     33  C   UNL A   1      39.685  28.767  29.607  1.00  0.00     0.031 A 
ATOM     34  C   UNL A   1      40.439  29.470  30.704  1.00  0.00     0.074 A 
ATOM     35  C   UNL A   1      40.253  27.728  28.961  1.00  0.00     0.049 A 
ATOM     36  N   UNL A   1      41.624  29.205  31.191  1.00  0.00    -0.248 NA
ATOM     37  C   UNL A   1      39.791  30.641  31.317  1.00  0.00     0.031 C 
ATOM     38  C   UNL A   1      39.663  27.008  27.831  1.00  0.00     0.029 A 
ATOM     39  N   UNL A   1      41.465  27.110  29.149  1.00  0.00    -0.354 N 
ATOM     40  C   UNL A   1      41.876  30.188  32.139  1.00  0.00     0.074 A 
ATOM     41  C   UNL A   1      40.737  31.080  32.135  1.00  0.00     0.031 C 
ATOM     42  C   UNL A   1      40.507  26.044  27.433  1.00  0.00     0.029 A 
ATOM     43  C   UNL A   1      41.711  26.094  28.255  1.00  0.00     0.049 A 
ATOM     44  H   UNL A   1      42.099  27.370  29.856  1.00  0.00     0.167 HD
ATOM     45  C   UNL A   1      42.945  30.324  32.962  1.00  0.00     0.034 A 
ATOM     46  C   UNL A   1      42.787  25.297  28.106  1.00  0.00     0.034 A 
ATOM     47  C   UNL A   1      44.062  29.419  32.989  1.00  0.00     0.049 A 
ATOM     48  C   UNL A   1      43.947  25.448  29.054  1.00  0.00     0.074 A 
ATOM     49  C   UNL A   1      45.153  29.424  33.840  1.00  0.00     0.029 A 
ATOM     50  N   UNL A   1      44.240  28.355  32.118  1.00  0.00    -0.354 N 
ATOM     51  N   UNL A   1      44.097  26.290  30.048  1.00  0.00    -0.248 NA
ATOM     52  C   UNL A   1      45.068  24.513  28.886  1.00  0.00     0.031 C 
ATOM     53  C   UNL A   1      46.008  28.384  33.462  1.00  0.00     0.029 A 
ATOM     54  C   UNL A   1      45.428  27.703  32.404  1.00  0.00     0.049 A 
ATOM     55  H   UNL A   1      43.614  28.100  31.402  1.00  0.00     0.167 HD
ATOM     56  C   UNL A   1      45.306  25.960  30.649  1.00  0.00     0.074 A 
ATOM     57  C   UNL A   1      45.838  24.827  29.918  1.00  0.00     0.031 C 
ATOM     58  C   UNL A   1      45.925  26.547  31.703  1.00  0.00     0.034 A 
BRANCH  45  59
ATOM     59  C   UNL A   1      42.939  31.477  33.935  1.00  0.00     0.023 A 
ATOM     60  C   UNL A   1      43.505  32.712  33.560  1.00  0.00     0.012 A 
ATOM     61  C   UNL A   1      42.323  31.356  35.197  1.00  0.00     0.148 A 
ATOM     62  C   UNL A   1      43.495  33.797  34.437  1.00  0.00     0.002 A 
ATOM     63  C   UNL A   1      42.271  32.456  36.046  1.00  0.00     0.091 A 
ATOM     64  F   UNL A   1      41.806  30.169  35.544  1.00  0.00    -0.205 F 
ATOM     65  C   UNL A   1      42.869  33.671  35.674  1.00  0.00     0.022 A 
BRANCH  63  66
ATOM     66  S   UNL A   1      41.415  32.423  37.625  1.00  0.00     0.127 S 
ATOM     67  O   UNL A   1      41.412  33.840  37.987  1.00  0.00    -0.237 OA
ATOM     68  O   UNL A   1      40.106  31.887  37.252  1.00  0.00    -0.237 OA
ATOM     69  O   UNL A   1      42.202  31.559  38.492  1.00  0.00    -0.744 OA
ENDBRANCH  63  66
ENDBRANCH  45  59
BRANCH  46  70
ATOM     70  C   UNL A   1      42.798  24.243  27.053  1.00  0.00     0.023 A 
ATOM     71  C   UNL A   1      43.477  24.478  25.840  1.00  0.00     0.012 A 
ATOM     72  C   UNL A   1      42.155  23.005  27.250  1.00  0.00     0.148 A 
ATOM     73  C   UNL A   1      43.482  23.515  24.829  1.00  0.00     0.002 A 
ATOM     74  C   UNL A   1      42.213  22.029  26.263  1.00  0.00     0.091 A 
ATOM     75  F   UNL A   1      41.508  22.806  28.407  1.00  0.00    -0.205 F 
ATOM     76  C   UNL A   1      42.858  22.289  25.045  1.00  0.00     0.022 A 
BRANCH  74  77
ATOM     77  S   UNL A   1      41.552  20.377  26.501  1.00  0.00     0.127 S 
ATOM     78  O   UNL A   1      42.000  20.068  27.857  1.00  0.00    -0.237 OA
ATOM     79  O   UNL A   1      40.114  20.607  26.364  1.00  0.00    -0.237 OA
ATOM     80  O   UNL A   1      42.134  19.563  25.442  1.00  0.00    -0.744 OA
ENDBRANCH  74  77
ENDBRANCH  46  70
BRANCH  58  81
ATOM     81  C   UNL A   1      47.227  25.947  32.172  1.00  0.00     0.023 A 
ATOM     82  C   UNL A   1      48.443  26.344  31.582  1.00  0.00     0.012 A 
ATOM     83  C   UNL A   1      47.245  25.029  33.240  1.00  0.00     0.148 A 
ATOM     84  C   UNL A   1      49.653  25.804  32.021  1.00  0.00     0.002 A 
ATOM     85  C   UNL A   1      48.457  24.538  33.708  1.00  0.00     0.091 A 
ATOM     86  F   UNL A   1      46.076  24.650  33.778  1.00  0.00    -0.205 F 
ATOM     87  C   UNL A   1      49.661  24.912  33.090  1.00  0.00     0.022 A 
BRANCH  85  88
ATOM     88  S   UNL A   1      48.570  23.464  35.143  1.00  0.00     0.127 S 
ATOM     89  O   UNL A   1      47.869  22.268  34.677  1.00  0.00    -0.237 OA
ATOM     90  O   UNL A   1      50.016  23.302  35.297  1.00  0.00    -0.237 OA
ATOM     91  O   UNL A   1      47.925  24.181  36.235  1.00  0.00    -0.744 OA
ENDBRANCH  85  88
ENDBRANCH  58  81
ENDBRANCH  32  33
ENDBRANCH  24  27
ENDBRANCH  22  23
ENDBRANCH  21  22
ENDBRANCH   1  21
TORSDOF 18
ENDMDL
MODEL 3
REMARK VINA RESULT:     -11.3      4.176      9.521
REMARK SMILES CCOc1cc(/C=C(/F)C(=O)NCCCCNC(=O)c2ccc(-c3c4nc(c(-c5cccc(S(=O)(=O)[O-])c5F)c5ccc([nH]5)c(-c5cccc(S(=O)(=O)[O-])c5F)c5nc(c(-c6cccc(S(=O)(=O)[O-])c6F)c6ccc3[nH]6)C=C5)C=C4)cc2)ccc1O
REMARK SMILES IDX 14 1 13 2 12 3 10 4 11 5 8 7 7 8 9 9 6 10 4 11 5 12 85 13
REMARK SMILES IDX 84 14 83 15 3 16 2 17 1 18 86 19 15 21 16 22 17 23 18 24
REMARK SMILES IDX 19 26 20 27 21 28 82 29 22 30 81 31 23 32 24 33 25 34 75 35
REMARK SMILES IDX 26 36 80 37 74 38 76 39 27 40 79 41 73 42 72 43 28 45 60 46
REMARK SMILES IDX 40 47 59 48 41 49 44 50 58 51 77 52 42 53 43 54 57 56 78 57
REMARK SMILES IDX 45 58 29 59 30 60 38 61 31 62 33 63 39 64 32 65 34 66 35 67
REMARK SMILES IDX 36 68 37 69 61 70 62 71 70 72 63 73 65 74 71 75 64 76 66 77
REMARK SMILES IDX 67 78 68 79 69 80 46 81 47 82 55 83 48 84 50 85 56 86 49 87
REMARK SMILES IDX 51 88 52 89 53 90 54 91
REMARK H PARENT 12 6 86 20 17 25 76 44 44 55
REMARK Flexibility Score: inf
ROOT
ATOM      1  C   UNL A   1      34.952  22.231  25.466  1.00  0.00     0.023 C 
ENDROOT
BRANCH   1   2
ATOM      2  C   UNL A   1      33.947  22.034  26.600  1.00  0.00     0.116 C 
BRANCH   2   3
ATOM      3  N   UNL A   1      33.203  23.236  26.934  1.00  0.00    -0.350 N 
ATOM      4  C   UNL A   1      31.956  23.678  26.602  1.00  0.00     0.280 C 
ATOM      5  O   UNL A   1      31.540  24.672  27.197  1.00  0.00    -0.267 OA
ATOM      6  H   UNL A   1      33.698  23.856  27.516  1.00  0.00     0.163 HD
BRANCH   4   7
ATOM      7  C   UNL A   1      31.136  22.977  25.571  1.00  0.00     0.188 C 
ATOM      8  C   UNL A   1      30.972  23.301  24.279  1.00  0.00     0.053 C 
ATOM      9  F   UNL A   1      30.425  21.916  26.012  1.00  0.00    -0.201 F 
BRANCH   8  10
ATOM     10  C   UNL A   1      31.544  24.364  23.433  1.00  0.00    -0.019 A 
ATOM     11  C   UNL A   1      31.461  26.494  22.255  1.00  0.00     0.161 A 
ATOM     12  C   UNL A   1      30.826  25.482  22.983  1.00  0.00     0.058 A 
ATOM     13  C   UNL A   1      32.835  26.427  22.028  1.00  0.00     0.157 A 
ATOM     14  C   UNL A   1      33.566  25.332  22.464  1.00  0.00     0.051 A 
ATOM     15  C   UNL A   1      32.925  24.311  23.171  1.00  0.00     0.012 A 
BRANCH  11  16
ATOM     16  O   UNL A   1      30.736  27.616  21.956  1.00  0.00    -0.490 OA
BRANCH  16  17
ATOM     17  C   UNL A   1      29.928  28.088  23.043  1.00  0.00     0.226 C 
ATOM     18  C   UNL A   1      30.783  29.075  23.822  1.00  0.00     0.049 C 
ENDBRANCH  16  17
ENDBRANCH  11  16
BRANCH  13  19
ATOM     19  O   UNL A   1      33.521  27.461  21.460  1.00  0.00    -0.504 OA
ATOM     20  H   UNL A   1      34.073  28.004  21.988  1.00  0.00     0.293 HD
ENDBRANCH  13  19
ENDBRANCH   8  10
ENDBRANCH   4   7
ENDBRANCH   2   3
ENDBRANCH   1   2
BRANCH   1  21
ATOM     21  C   UNL A   1      35.694  23.569  25.456  1.00  0.00     0.023 C 
BRANCH  21  22
ATOM     22  C   UNL A   1      37.104  23.552  24.875  1.00  0.00     0.116 C 
BRANCH  22  23
ATOM     23  N   UNL A   1      37.967  22.556  25.488  1.00  0.00    -0.352 N 
ATOM     24  C   UNL A   1      39.043  22.730  26.326  1.00  0.00     0.251 C 
ATOM     25  H   UNL A   1      37.750  21.621  25.271  1.00  0.00     0.163 HD
ATOM     26  O   UNL A   1      39.721  21.760  26.649  1.00  0.00    -0.269 OA
BRANCH  24  27
ATOM     27  C   UNL A   1      39.402  24.081  26.815  1.00  0.00     0.039 A 
ATOM     28  C   UNL A   1      39.060  24.432  28.124  1.00  0.00     0.014 A 
ATOM     29  C   UNL A   1      40.063  25.001  25.997  1.00  0.00     0.014 A 
ATOM     30  C   UNL A   1      39.432  25.681  28.629  1.00  0.00     0.010 A 
ATOM     31  C   UNL A   1      40.502  26.214  26.527  1.00  0.00     0.010 A 
ATOM     32  C   UNL A   1      40.184  26.572  27.845  1.00  0.00    -0.014 A 
BRANCH  32  33
ATOM     33  C   UNL A   1      40.647  27.874  28.396  1.00  0.00     0.031 A 
ATOM     34  C   UNL A   1      42.117  28.161  28.545  1.00  0.00     0.074 A 
ATOM     35  C   UNL A   1      39.740  28.776  28.825  1.00  0.00     0.049 A 
ATOM     36  N   UNL A   1      42.705  29.227  29.026  1.00  0.00    -0.248 NA
ATOM     37  C   UNL A   1      43.052  27.105  28.122  1.00  0.00     0.031 C 
ATOM     38  C   UNL A   1      38.289  28.590  28.810  1.00  0.00     0.029 A 
ATOM     39  N   UNL A   1      39.908  30.022  29.379  1.00  0.00    -0.354 N 
ATOM     40  C   UNL A   1      44.068  28.958  28.995  1.00  0.00     0.074 A 
ATOM     41  C   UNL A   1      44.221  27.614  28.482  1.00  0.00     0.031 C 
ATOM     42  C   UNL A   1      37.698  29.682  29.320  1.00  0.00     0.029 A 
ATOM     43  C   UNL A   1      38.726  30.633  29.729  1.00  0.00     0.049 A 
ATOM     44  H   UNL A   1      40.790  30.438  29.514  1.00  0.00     0.167 HD
ATOM     45  C   UNL A   1      45.103  29.765  29.335  1.00  0.00     0.034 A 
ATOM     46  C   UNL A   1      38.494  31.822  30.319  1.00  0.00     0.034 A 
ATOM     47  C   UNL A   1      44.951  31.113  29.814  1.00  0.00     0.049 A 
ATOM     48  C   UNL A   1      39.660  32.712  30.656  1.00  0.00     0.074 A 
ATOM     49  C   UNL A   1      45.938  32.038  30.107  1.00  0.00     0.029 A 
ATOM     50  N   UNL A   1      43.737  31.725  30.083  1.00  0.00    -0.354 N 
ATOM     51  N   UNL A   1      40.941  32.499  30.475  1.00  0.00    -0.248 NA
ATOM     52  C   UNL A   1      39.347  34.023  31.242  1.00  0.00     0.031 C 
ATOM     53  C   UNL A   1      45.322  33.198  30.586  1.00  0.00     0.029 A 
ATOM     54  C   UNL A   1      43.950  33.012  30.549  1.00  0.00     0.049 A 
ATOM     55  H   UNL A   1      42.854  31.308  29.961  1.00  0.00     0.167 HD
ATOM     56  C   UNL A   1      41.583  33.662  30.884  1.00  0.00     0.074 A 
ATOM     57  C   UNL A   1      40.547  34.584  31.304  1.00  0.00     0.031 C 
ATOM     58  C   UNL A   1      42.910  33.939  30.918  1.00  0.00     0.034 A 
BRANCH  45  59
ATOM     59  C   UNL A   1      46.500  29.224  29.161  1.00  0.00     0.023 A 
ATOM     60  C   UNL A   1      47.181  28.678  30.268  1.00  0.00     0.012 A 
ATOM     61  C   UNL A   1      47.116  29.203  27.894  1.00  0.00     0.148 A 
ATOM     62  C   UNL A   1      48.467  28.156  30.127  1.00  0.00     0.002 A 
ATOM     63  C   UNL A   1      48.377  28.635  27.751  1.00  0.00     0.091 A 
ATOM     64  F   UNL A   1      46.462  29.743  26.856  1.00  0.00    -0.205 F 
ATOM     65  C   UNL A   1      49.059  28.125  28.868  1.00  0.00     0.022 A 
BRANCH  63  66
ATOM     66  S   UNL A   1      49.191  28.469  26.158  1.00  0.00     0.127 S 
ATOM     67  O   UNL A   1      50.014  29.678  26.121  1.00  0.00    -0.237 OA
ATOM     68  O   UNL A   1      49.942  27.225  26.326  1.00  0.00    -0.237 OA
ATOM     69  O   UNL A   1      48.128  28.409  25.166  1.00  0.00    -0.744 OA
ENDBRANCH  63  66
ENDBRANCH  45  59
BRANCH  46  70
ATOM     70  C   UNL A   1      37.096  32.269  30.578  1.00  0.00     0.023 A 
ATOM     71  C   UNL A   1      36.554  32.144  31.873  1.00  0.00     0.012 A 
ATOM     72  C   UNL A   1      36.307  32.830  29.555  1.00  0.00     0.148 A 
ATOM     73  C   UNL A   1      35.240  32.534  32.135  1.00  0.00     0.002 A 
ATOM     74  C   UNL A   1      35.019  33.270  29.837  1.00  0.00     0.091 A 
ATOM     75  F   UNL A   1      36.838  32.931  28.329  1.00  0.00    -0.205 F 
ATOM     76  C   UNL A   1      34.477  33.105  31.120  1.00  0.00     0.022 A 
BRANCH  74  77
ATOM     77  S   UNL A   1      34.010  34.133  28.628  1.00  0.00     0.127 S 
ATOM     78  O   UNL A   1      32.859  34.536  29.432  1.00  0.00    -0.237 OA
ATOM     79  O   UNL A   1      34.894  35.227  28.226  1.00  0.00    -0.237 OA
ATOM     80  O   UNL A   1      33.738  33.163  27.576  1.00  0.00    -0.744 OA
ENDBRANCH  74  77
ENDBRANCH  46  70
BRANCH  58  81
ATOM     81  C   UNL A   1      43.326  35.313  31.378  1.00  0.00     0.023 A 
ATOM     82  C   UNL A   1      43.587  36.328  30.435  1.00  0.00     0.012 A 
ATOM     83  C   UNL A   1      43.400  35.613  32.752  1.00  0.00     0.148 A 
ATOM     84  C   UNL A   1      43.959  37.606  30.853  1.00  0.00     0.002 A 
ATOM     85  C   UNL A   1      43.715  36.902  33.162  1.00  0.00     0.091 A 
ATOM     86  F   UNL A   1      43.164  34.632  33.635  1.00  0.00    -0.205 F 
ATOM     87  C   UNL A   1      44.011  37.896  32.215  1.00  0.00     0.022 A 
BRANCH  85  88
ATOM     88  S   UNL A   1      43.707  37.392  34.890  1.00  0.00     0.127 S 
ATOM     89  O   UNL A   1      44.151  38.783  34.808  1.00  0.00    -0.237 OA
ATOM     90  O   UNL A   1      42.301  37.221  35.255  1.00  0.00    -0.237 OA
ATOM     91  O   UNL A   1      44.621  36.484  35.569  1.00  0.00    -0.744 OA
ENDBRANCH  85  88
ENDBRANCH  58  81
ENDBRANCH  32  33
ENDBRANCH  24  27
ENDBRANCH  22  23
ENDBRANCH  21  22
ENDBRANCH   1  21
TORSDOF 18
ENDMDL
