MODEL 1
REMARK VINA RESULT:     -12.1      0.000      0.000
REMARK SMILES O=C(NCCCCNC(=O)c1ccc(C[N@H+]2CC[N@H+]3CCCC[C@@H]3C2)c(F)c1)c1ccc(-c2c3nc(c(-c4cccc(S(=O)(=O)[O-])c4F)c4ccc([nH]4)c(-c4cccc(S(=O)(=O)[O-])c4F)c4nc(c(-c5cccc(S(=O)(=O)[O-])c5F)c5ccc2[nH]5)C=C4)C=C3)cc1
REMARK SMILES IDX 5 1 4 2 3 3 1 4 2 5 29 7 30 8 91 9 31 10 90 11 32 12 33 13
REMARK SMILES IDX 34 14 84 15 35 16 89 17 83 18 85 19 36 20 88 21 82 22 81 23
REMARK SMILES IDX 37 25 69 26 49 27 68 28 50 29 53 30 67 31 86 32 51 33 52 34
REMARK SMILES IDX 66 36 87 37 54 38 38 39 39 40 47 41 40 42 42 43 48 44 41 45
REMARK SMILES IDX 43 46 44 47 45 48 46 49 70 50 71 51 79 52 72 53 74 54 80 55
REMARK SMILES IDX 73 56 75 57 76 58 77 59 78 60 55 61 56 62 64 63 57 64 59 65
REMARK SMILES IDX 65 66 58 67 60 68 61 69 62 70 63 71 6 72 7 73 8 74 9 75
REMARK SMILES IDX 10 77 11 78 12 79 28 80 13 81 26 82 14 83 27 84 15 85 16 86
REMARK SMILES IDX 17 87 25 88 18 90 24 91 19 92 23 93 20 94 22 96 21 97
REMARK H PARENT 3 6 85 24 53 35 8 76 16 89 19 95
REMARK Flexibility Score: inf
ROOT
ATOM      1  C   UNL A   1      33.860  28.086  25.150  1.00  0.00     0.023 C 
ENDROOT
BRANCH   1   2
ATOM      2  C   UNL A   1      33.931  28.422  26.637  1.00  0.00     0.116 C 
BRANCH   2   3
ATOM      3  N   UNL A   1      33.741  29.837  26.916  1.00  0.00    -0.352 N 
ATOM      4  O   UNL A   1      34.109  31.835  27.883  1.00  0.00    -0.269 OA
ATOM      5  C   UNL A   1      34.516  30.698  27.660  1.00  0.00     0.251 C 
ATOM      6  H   UNL A   1      32.938  30.240  26.512  1.00  0.00     0.163 HD
BRANCH   5   7
ATOM      7  C   UNL A   1      35.812  30.244  28.215  1.00  0.00     0.039 A 
ATOM      8  C   UNL A   1      36.996  30.374  27.485  1.00  0.00     0.014 A 
ATOM      9  C   UNL A   1      35.840  29.677  29.492  1.00  0.00     0.014 A 
ATOM     10  C   UNL A   1      38.173  29.803  27.962  1.00  0.00     0.010 A 
ATOM     11  C   UNL A   1      37.040  29.174  30.004  1.00  0.00     0.010 A 
ATOM     12  C   UNL A   1      38.211  29.200  29.229  1.00  0.00    -0.014 A 
BRANCH  12  13
ATOM     13  C   UNL A   1      39.483  28.648  29.765  1.00  0.00     0.031 A 
ATOM     14  C   UNL A   1      40.150  29.267  30.966  1.00  0.00     0.074 A 
ATOM     15  C   UNL A   1      40.057  27.599  29.143  1.00  0.00     0.049 A 
ATOM     16  N   UNL A   1      41.310  28.982  31.500  1.00  0.00    -0.248 NA
ATOM     17  C   UNL A   1      39.424  30.347  31.656  1.00  0.00     0.031 C 
ATOM     18  C   UNL A   1      39.513  26.913  27.968  1.00  0.00     0.029 A 
ATOM     19  N   UNL A   1      41.233  26.938  29.396  1.00  0.00    -0.354 N 
ATOM     20  C   UNL A   1      41.472  29.865  32.563  1.00  0.00     0.074 A 
ATOM     21  C   UNL A   1      40.290  30.700  32.598  1.00  0.00     0.031 C 
ATOM     22  C   UNL A   1      40.350  25.931  27.603  1.00  0.00     0.029 A 
ATOM     23  C   UNL A   1      41.520  25.958  28.473  1.00  0.00     0.049 A 
ATOM     24  H   UNL A   1      41.816  27.145  30.161  1.00  0.00     0.167 HD
ATOM     25  C   UNL A   1      42.504  29.959  33.435  1.00  0.00     0.034 A 
ATOM     26  C   UNL A   1      42.616  25.190  28.317  1.00  0.00     0.034 A 
ATOM     27  C   UNL A   1      43.664  29.105  33.413  1.00  0.00     0.049 A 
ATOM     28  C   UNL A   1      43.756  25.342  29.286  1.00  0.00     0.074 A 
ATOM     29  C   UNL A   1      44.746  29.108  34.279  1.00  0.00     0.029 A 
ATOM     30  N   UNL A   1      43.900  28.103  32.487  1.00  0.00    -0.354 N 
ATOM     31  N   UNL A   1      43.851  26.123  30.334  1.00  0.00    -0.248 NA
ATOM     32  C   UNL A   1      44.932  24.488  29.063  1.00  0.00     0.031 C 
ATOM     33  C   UNL A   1      45.646  28.125  33.860  1.00  0.00     0.029 A 
ATOM     34  C   UNL A   1      45.111  27.486  32.755  1.00  0.00     0.049 A 
ATOM     35  H   UNL A   1      43.296  27.864  31.747  1.00  0.00     0.167 HD
ATOM     36  C   UNL A   1      45.081  25.834  30.913  1.00  0.00     0.074 A 
ATOM     37  C   UNL A   1      45.679  24.780  30.119  1.00  0.00     0.031 C 
ATOM     38  C   UNL A   1      45.674  26.403  31.991  1.00  0.00     0.034 A 
BRANCH  25  39
ATOM     39  C   UNL A   1      42.430  30.991  34.531  1.00  0.00     0.023 A 
ATOM     40  C   UNL A   1      41.976  30.610  35.809  1.00  0.00     0.012 A 
ATOM     41  C   UNL A   1      42.949  32.288  34.338  1.00  0.00     0.148 A 
ATOM     42  C   UNL A   1      42.035  31.504  36.878  1.00  0.00     0.002 A 
ATOM     43  C   UNL A   1      43.044  33.157  35.418  1.00  0.00     0.091 A 
ATOM     44  F   UNL A   1      43.366  32.631  33.112  1.00  0.00    -0.205 F 
ATOM     45  C   UNL A   1      42.582  32.770  36.686  1.00  0.00     0.022 A 
BRANCH  43  46
ATOM     46  S   UNL A   1      43.811  34.779  35.301  1.00  0.00     0.127 S 
ATOM     47  O   UNL A   1      43.620  35.294  36.658  1.00  0.00    -0.237 OA
ATOM     48  O   UNL A   1      45.194  34.439  34.967  1.00  0.00    -0.237 OA
ATOM     49  O   UNL A   1      43.085  35.497  34.263  1.00  0.00    -0.744 OA
ENDBRANCH  43  46
ENDBRANCH  25  39
BRANCH  26  50
ATOM     50  C   UNL A   1      42.680  24.189  27.214  1.00  0.00     0.023 A 
ATOM     51  C   UNL A   1      43.339  24.525  26.015  1.00  0.00     0.012 A 
ATOM     52  C   UNL A   1      42.107  22.909  27.347  1.00  0.00     0.148 A 
ATOM     53  C   UNL A   1      43.392  23.620  24.955  1.00  0.00     0.002 A 
ATOM     54  C   UNL A   1      42.221  21.989  26.312  1.00  0.00     0.091 A 
ATOM     55  F   UNL A   1      41.471  22.612  28.489  1.00  0.00    -0.205 F 
ATOM     56  C   UNL A   1      42.844  22.350  25.107  1.00  0.00     0.022 A 
BRANCH  54  57
ATOM     57  S   UNL A   1      41.674  20.287  26.474  1.00  0.00     0.127 S 
ATOM     58  O   UNL A   1      40.223  20.430  26.392  1.00  0.00    -0.237 OA
ATOM     59  O   UNL A   1      42.298  19.657  25.309  1.00  0.00    -0.237 OA
ATOM     60  O   UNL A   1      42.194  19.827  27.754  1.00  0.00    -0.744 OA
ENDBRANCH  54  57
ENDBRANCH  26  50
BRANCH  38  61
ATOM     61  C   UNL A   1      47.028  25.883  32.400  1.00  0.00     0.023 A 
ATOM     62  C   UNL A   1      48.190  26.401  31.794  1.00  0.00     0.012 A 
ATOM     63  C   UNL A   1      47.155  24.928  33.428  1.00  0.00     0.148 A 
ATOM     64  C   UNL A   1      49.453  25.947  32.174  1.00  0.00     0.002 A 
ATOM     65  C   UNL A   1      48.418  24.522  33.842  1.00  0.00     0.091 A 
ATOM     66  F   UNL A   1      46.038  24.432  33.983  1.00  0.00    -0.205 F 
ATOM     67  C   UNL A   1      49.567  25.017  33.205  1.00  0.00     0.022 A 
BRANCH  65  68
ATOM     68  S   UNL A   1      48.666  23.410  35.231  1.00  0.00     0.127 S 
ATOM     69  O   UNL A   1      47.779  22.300  34.887  1.00  0.00    -0.237 OA
ATOM     70  O   UNL A   1      50.093  23.102  35.132  1.00  0.00    -0.237 OA
ATOM     71  O   UNL A   1      48.292  24.164  36.420  1.00  0.00    -0.744 OA
ENDBRANCH  65  68
ENDBRANCH  38  61
ENDBRANCH  12  13
ENDBRANCH   5   7
ENDBRANCH   2   3
ENDBRANCH   1   2
BRANCH   1  72
ATOM     72  C   UNL A   1      33.372  29.216  24.244  1.00  0.00     0.023 C 
BRANCH  72  73
ATOM     73  C   UNL A   1      33.181  28.844  22.775  1.00  0.00     0.116 C 
BRANCH  73  74
ATOM     74  N   UNL A   1      31.839  29.127  22.296  1.00  0.00    -0.352 N 
ATOM     75  C   UNL A   1      30.708  28.354  22.417  1.00  0.00     0.251 C 
ATOM     76  H   UNL A   1      31.724  29.983  21.822  1.00  0.00     0.163 HD
ATOM     77  O   UNL A   1      29.658  28.667  21.874  1.00  0.00    -0.269 OA
BRANCH  75  78
ATOM     78  C   UNL A   1      30.776  27.111  23.207  1.00  0.00     0.042 A 
ATOM     79  C   UNL A   1      30.393  27.111  24.550  1.00  0.00     0.014 A 
ATOM     80  C   UNL A   1      31.243  25.949  22.597  1.00  0.00     0.053 A 
ATOM     81  C   UNL A   1      30.550  25.949  25.308  1.00  0.00     0.013 A 
ATOM     82  C   UNL A   1      31.429  24.810  23.375  1.00  0.00     0.132 A 
ATOM     83  C   UNL A   1      31.138  24.802  24.743  1.00  0.00     0.042 A 
ATOM     84  F   UNL A   1      31.933  23.712  22.793  1.00  0.00    -0.206 F 
BRANCH  83  85
ATOM     85  C   UNL A   1      31.478  23.603  25.598  1.00  0.00     0.302 C 
BRANCH  85  86
ATOM     86  N   UNL A   1      32.670  23.673  26.455  1.00  0.00    -0.322 N 
ATOM     87  C   UNL A   1      32.952  22.491  27.280  1.00  0.00     0.324 C 
ATOM     88  C   UNL A   1      33.899  24.179  25.830  1.00  0.00     0.328 C 
ATOM     89  H   UNL A   1      32.358  24.402  27.095  1.00  0.00     0.348 HD
ATOM     90  C   UNL A   1      33.933  21.442  26.691  1.00  0.00     0.324 C 
ATOM     91  C   UNL A   1      34.760  23.094  25.133  1.00  0.00     0.239 C 
ATOM     92  N   UNL A   1      35.145  22.010  26.059  1.00  0.00    -0.323 N 
ATOM     93  C   UNL A   1      35.991  23.726  24.474  1.00  0.00     0.071 C 
ATOM     94  C   UNL A   1      35.885  20.952  25.349  1.00  0.00     0.262 C 
ATOM     95  H   UNL A   1      35.755  22.398  26.779  1.00  0.00     0.348 HD
ATOM     96  C   UNL A   1      36.760  22.668  23.692  1.00  0.00     0.012 C 
ATOM     97  C   UNL A   1      37.107  21.491  24.597  1.00  0.00     0.062 C 
ENDBRANCH  85  86
ENDBRANCH  83  85
ENDBRANCH  75  78
ENDBRANCH  73  74
ENDBRANCH  72  73
ENDBRANCH   1  72
TORSDOF 16
ENDMDL
MODEL 2
REMARK VINA RESULT:     -12.1      1.848      2.185
REMARK SMILES O=C(NCCCCNC(=O)c1ccc(C[N@H+]2CC[N@H+]3CCCC[C@@H]3C2)c(F)c1)c1ccc(-c2c3nc(c(-c4cccc(S(=O)(=O)[O-])c4F)c4ccc([nH]4)c(-c4cccc(S(=O)(=O)[O-])c4F)c4nc(c(-c5cccc(S(=O)(=O)[O-])c5F)c5ccc2[nH]5)C=C4)C=C3)cc1
REMARK SMILES IDX 5 1 4 2 3 3 1 4 2 5 29 7 30 8 91 9 31 10 90 11 32 12 33 13
REMARK SMILES IDX 34 14 84 15 35 16 89 17 83 18 85 19 36 20 88 21 82 22 81 23
REMARK SMILES IDX 37 25 69 26 49 27 68 28 50 29 53 30 67 31 86 32 51 33 52 34
REMARK SMILES IDX 66 36 87 37 54 38 38 39 39 40 47 41 40 42 42 43 48 44 41 45
REMARK SMILES IDX 43 46 44 47 45 48 46 49 70 50 71 51 79 52 72 53 74 54 80 55
REMARK SMILES IDX 73 56 75 57 76 58 77 59 78 60 55 61 56 62 64 63 57 64 59 65
REMARK SMILES IDX 65 66 58 67 60 68 61 69 62 70 63 71 6 72 7 73 8 74 9 75
REMARK SMILES IDX 10 77 11 78 12 79 28 80 13 81 26 82 14 83 27 84 15 85 16 86
REMARK SMILES IDX 17 87 25 88 18 90 24 91 19 92 23 93 20 94 22 96 21 97
REMARK H PARENT 3 6 85 24 53 35 8 76 16 89 19 95
REMARK Flexibility Score: inf
ROOT
ATOM      1  C   UNL A   1      33.848  27.979  25.462  1.00  0.00     0.023 C 
ENDROOT
BRANCH   1   2
ATOM      2  C   UNL A   1      33.895  28.348  26.941  1.00  0.00     0.116 C 
BRANCH   2   3
ATOM      3  N   UNL A   1      33.680  29.765  27.186  1.00  0.00    -0.352 N 
ATOM      4  O   UNL A   1      34.047  31.804  28.063  1.00  0.00    -0.269 OA
ATOM      5  C   UNL A   1      34.474  30.673  27.851  1.00  0.00     0.251 C 
ATOM      6  H   UNL A   1      32.840  30.131  26.823  1.00  0.00     0.163 HD
BRANCH   5   7
ATOM      7  C   UNL A   1      35.816  30.275  28.335  1.00  0.00     0.039 A 
ATOM      8  C   UNL A   1      36.966  30.569  27.598  1.00  0.00     0.014 A 
ATOM      9  C   UNL A   1      35.923  29.594  29.551  1.00  0.00     0.014 A 
ATOM     10  C   UNL A   1      38.197  30.052  27.995  1.00  0.00     0.010 A 
ATOM     11  C   UNL A   1      37.172  29.144  29.989  1.00  0.00     0.010 A 
ATOM     12  C   UNL A   1      38.316  29.338  29.197  1.00  0.00    -0.014 A 
BRANCH  12  13
ATOM     13  C   UNL A   1      39.642  28.843  29.653  1.00  0.00     0.031 A 
ATOM     14  C   UNL A   1      40.402  29.556  30.741  1.00  0.00     0.074 A 
ATOM     15  C   UNL A   1      40.178  27.759  29.057  1.00  0.00     0.049 A 
ATOM     16  N   UNL A   1      41.611  29.326  31.186  1.00  0.00    -0.248 NA
ATOM     17  C   UNL A   1      39.720  30.674  31.416  1.00  0.00     0.031 C 
ATOM     18  C   UNL A   1      39.544  26.983  27.989  1.00  0.00     0.029 A 
ATOM     19  N   UNL A   1      41.385  27.134  29.248  1.00  0.00    -0.354 N 
ATOM     20  C   UNL A   1      41.849  30.285  32.165  1.00  0.00     0.074 A 
ATOM     21  C   UNL A   1      40.659  31.105  32.248  1.00  0.00     0.031 C 
ATOM     22  C   UNL A   1      40.364  25.988  27.620  1.00  0.00     0.029 A 
ATOM     23  C   UNL A   1      41.607  26.093  28.375  1.00  0.00     0.049 A 
ATOM     24  H   UNL A   1      42.030  27.404  29.941  1.00  0.00     0.167 HD
ATOM     25  C   UNL A   1      42.954  30.455  32.930  1.00  0.00     0.034 A 
ATOM     26  C   UNL A   1      42.699  25.330  28.176  1.00  0.00     0.034 A 
ATOM     27  C   UNL A   1      44.124  29.618  32.864  1.00  0.00     0.049 A 
ATOM     28  C   UNL A   1      43.918  25.567  29.023  1.00  0.00     0.074 A 
ATOM     29  C   UNL A   1      45.279  29.698  33.625  1.00  0.00     0.029 A 
ATOM     30  N   UNL A   1      44.296  28.554  31.994  1.00  0.00    -0.354 N 
ATOM     31  N   UNL A   1      44.092  26.423  30.001  1.00  0.00    -0.248 NA
ATOM     32  C   UNL A   1      45.086  24.715  28.756  1.00  0.00     0.031 C 
ATOM     33  C   UNL A   1      46.157  28.699  33.197  1.00  0.00     0.029 A 
ATOM     34  C   UNL A   1      45.537  27.974  32.193  1.00  0.00     0.049 A 
ATOM     35  H   UNL A   1      43.632  28.255  31.330  1.00  0.00     0.167 HD
ATOM     36  C   UNL A   1      45.374  26.192  30.484  1.00  0.00     0.074 A 
ATOM     37  C   UNL A   1      45.919  25.092  29.716  1.00  0.00     0.031 C 
ATOM     38  C   UNL A   1      46.050  26.846  31.461  1.00  0.00     0.034 A 
BRANCH  25  39
ATOM     39  C   UNL A   1      42.959  31.563  33.953  1.00  0.00     0.023 A 
ATOM     40  C   UNL A   1      43.486  32.823  33.605  1.00  0.00     0.012 A 
ATOM     41  C   UNL A   1      42.310  31.403  35.195  1.00  0.00     0.148 A 
ATOM     42  C   UNL A   1      43.371  33.905  34.477  1.00  0.00     0.002 A 
ATOM     43  C   UNL A   1      42.162  32.497  36.039  1.00  0.00     0.091 A 
ATOM     44  F   UNL A   1      41.826  30.193  35.509  1.00  0.00    -0.205 F 
ATOM     45  C   UNL A   1      42.698  33.746  35.685  1.00  0.00     0.022 A 
BRANCH  43  46
ATOM     46  S   UNL A   1      41.237  32.424  37.579  1.00  0.00     0.127 S 
ATOM     47  O   UNL A   1      42.127  31.622  38.419  1.00  0.00    -0.237 OA
ATOM     48  O   UNL A   1      41.156  33.836  37.952  1.00  0.00    -0.237 OA
ATOM     49  O   UNL A   1      39.963  31.797  37.257  1.00  0.00    -0.744 OA
ENDBRANCH  43  46
ENDBRANCH  25  39
BRANCH  26  50
ATOM     50  C   UNL A   1      42.683  24.253  27.145  1.00  0.00     0.023 A 
ATOM     51  C   UNL A   1      43.315  24.475  25.906  1.00  0.00     0.012 A 
ATOM     52  C   UNL A   1      42.062  23.012  27.386  1.00  0.00     0.148 A 
ATOM     53  C   UNL A   1      43.294  23.496  24.912  1.00  0.00     0.002 A 
ATOM     54  C   UNL A   1      42.102  22.018  26.417  1.00  0.00     0.091 A 
ATOM     55  F   UNL A   1      41.453  22.824  28.566  1.00  0.00    -0.205 F 
ATOM     56  C   UNL A   1      42.698  22.265  25.171  1.00  0.00     0.022 A 
BRANCH  54  57
ATOM     57  S   UNL A   1      41.488  20.357  26.716  1.00  0.00     0.127 S 
ATOM     58  O   UNL A   1      42.286  19.946  27.868  1.00  0.00    -0.237 OA
ATOM     59  O   UNL A   1      40.075  20.604  27.001  1.00  0.00    -0.237 OA
ATOM     60  O   UNL A   1      41.731  19.621  25.482  1.00  0.00    -0.744 OA
ENDBRANCH  54  57
ENDBRANCH  26  50
BRANCH  38  61
ATOM     61  C   UNL A   1      47.445  26.375  31.780  1.00  0.00     0.023 A 
ATOM     62  C   UNL A   1      47.656  25.482  32.851  1.00  0.00     0.012 A 
ATOM     63  C   UNL A   1      48.540  26.764  30.983  1.00  0.00     0.148 A 
ATOM     64  C   UNL A   1      48.937  25.019  33.149  1.00  0.00     0.002 A 
ATOM     65  C   UNL A   1      49.805  26.254  31.250  1.00  0.00     0.091 A 
ATOM     66  F   UNL A   1      48.326  27.627  29.978  1.00  0.00    -0.205 F 
ATOM     67  C   UNL A   1      50.008  25.395  32.342  1.00  0.00     0.022 A 
BRANCH  65  68
ATOM     68  S   UNL A   1      51.224  26.597  30.202  1.00  0.00     0.127 S 
ATOM     69  O   UNL A   1      52.285  25.860  30.886  1.00  0.00    -0.237 OA
ATOM     70  O   UNL A   1      50.811  26.023  28.921  1.00  0.00    -0.237 OA
ATOM     71  O   UNL A   1      51.374  28.046  30.194  1.00  0.00    -0.744 OA
ENDBRANCH  65  68
ENDBRANCH  38  61
ENDBRANCH  12  13
ENDBRANCH   5   7
ENDBRANCH   2   3
ENDBRANCH   1   2
BRANCH   1  72
ATOM     72  C   UNL A   1      33.558  29.134  24.505  1.00  0.00     0.023 C 
BRANCH  72  73
ATOM     73  C   UNL A   1      33.447  28.755  23.030  1.00  0.00     0.116 C 
BRANCH  73  74
ATOM     74  N   UNL A   1      32.148  29.078  22.465  1.00  0.00    -0.352 N 
ATOM     75  C   UNL A   1      30.985  28.347  22.525  1.00  0.00     0.251 C 
ATOM     76  H   UNL A   1      32.094  29.931  21.975  1.00  0.00     0.163 HD
ATOM     77  O   UNL A   1      29.982  28.689  21.914  1.00  0.00    -0.269 OA
BRANCH  75  78
ATOM     78  C   UNL A   1      30.959  27.113  23.331  1.00  0.00     0.042 A 
ATOM     79  C   UNL A   1      30.474  27.141  24.641  1.00  0.00     0.014 A 
ATOM     80  C   UNL A   1      31.440  25.931  22.772  1.00  0.00     0.053 A 
ATOM     81  C   UNL A   1      30.542  25.985  25.422  1.00  0.00     0.013 A 
ATOM     82  C   UNL A   1      31.536  24.799  23.575  1.00  0.00     0.132 A 
ATOM     83  C   UNL A   1      31.141  24.816  24.917  1.00  0.00     0.042 A 
ATOM     84  F   UNL A   1      32.053  23.680  23.045  1.00  0.00    -0.206 F 
BRANCH  83  85
ATOM     85  C   UNL A   1      31.382  23.621  25.808  1.00  0.00     0.302 C 
BRANCH  85  86
ATOM     86  N   UNL A   1      32.571  23.624  26.673  1.00  0.00    -0.322 N 
ATOM     87  C   UNL A   1      32.866  22.373  27.384  1.00  0.00     0.324 C 
ATOM     88  C   UNL A   1      33.795  24.202  26.104  1.00  0.00     0.328 C 
ATOM     89  H   UNL A   1      32.248  24.286  27.378  1.00  0.00     0.348 HD
ATOM     90  C   UNL A   1      33.861  21.397  26.704  1.00  0.00     0.324 C 
ATOM     91  C   UNL A   1      34.672  23.197  25.311  1.00  0.00     0.239 C 
ATOM     92  N   UNL A   1      35.068  22.037  26.133  1.00  0.00    -0.323 N 
ATOM     93  C   UNL A   1      35.897  23.904  24.720  1.00  0.00     0.071 C 
ATOM     94  C   UNL A   1      35.824  21.059  25.330  1.00  0.00     0.262 C 
ATOM     95  H   UNL A   1      35.671  22.362  26.889  1.00  0.00     0.348 HD
ATOM     96  C   UNL A   1      36.682  22.934  23.846  1.00  0.00     0.012 C 
ATOM     97  C   UNL A   1      37.041  21.681  24.638  1.00  0.00     0.062 C 
ENDBRANCH  85  86
ENDBRANCH  83  85
ENDBRANCH  75  78
ENDBRANCH  73  74
ENDBRANCH  72  73
ENDBRANCH   1  72
TORSDOF 16
ENDMDL
MODEL 3
REMARK VINA RESULT:     -12.0      0.401      7.698
REMARK SMILES O=C(NCCCCNC(=O)c1ccc(C[N@H+]2CC[N@H+]3CCCC[C@@H]3C2)c(F)c1)c1ccc(-c2c3nc(c(-c4cccc(S(=O)(=O)[O-])c4F)c4ccc([nH]4)c(-c4cccc(S(=O)(=O)[O-])c4F)c4nc(c(-c5cccc(S(=O)(=O)[O-])c5F)c5ccc2[nH]5)C=C4)C=C3)cc1
REMARK SMILES IDX 5 1 4 2 3 3 1 4 2 5 29 7 30 8 91 9 31 10 90 11 32 12 33 13
REMARK SMILES IDX 34 14 84 15 35 16 89 17 83 18 85 19 36 20 88 21 82 22 81 23
REMARK SMILES IDX 37 25 69 26 49 27 68 28 50 29 53 30 67 31 86 32 51 33 52 34
REMARK SMILES IDX 66 36 87 37 54 38 38 39 39 40 47 41 40 42 42 43 48 44 41 45
REMARK SMILES IDX 43 46 44 47 45 48 46 49 70 50 71 51 79 52 72 53 74 54 80 55
REMARK SMILES IDX 73 56 75 57 76 58 77 59 78 60 55 61 56 62 64 63 57 64 59 65
REMARK SMILES IDX 65 66 58 67 60 68 61 69 62 70 63 71 6 72 7 73 8 74 9 75
REMARK SMILES IDX 10 77 11 78 12 79 28 80 13 81 26 82 14 83 27 84 15 85 16 86
REMARK SMILES IDX 17 87 25 88 18 90 24 91 19 92 23 93 20 94 22 96 21 97
REMARK H PARENT 3 6 85 24 53 35 8 76 16 89 19 95
REMARK Flexibility Score: inf
ROOT
ATOM      1  C   UNL A   1      33.878  27.853  25.084  1.00  0.00     0.023 C 
ENDROOT
BRANCH   1   2
ATOM      2  C   UNL A   1      33.962  28.197  26.569  1.00  0.00     0.116 C 
BRANCH   2   3
ATOM      3  N   UNL A   1      33.703  29.601  26.848  1.00  0.00    -0.352 N 
ATOM      4  O   UNL A   1      33.994  31.622  27.792  1.00  0.00    -0.269 OA
ATOM      5  C   UNL A   1      34.456  30.508  27.560  1.00  0.00     0.251 C 
ATOM      6  H   UNL A   1      32.865  29.956  26.471  1.00  0.00     0.163 HD
BRANCH   5   7
ATOM      7  C   UNL A   1      35.794  30.130  28.070  1.00  0.00     0.039 A 
ATOM      8  C   UNL A   1      36.943  30.330  27.301  1.00  0.00     0.014 A 
ATOM      9  C   UNL A   1      35.898  29.563  29.343  1.00  0.00     0.014 A 
ATOM     10  C   UNL A   1      38.167  29.828  27.736  1.00  0.00     0.010 A 
ATOM     11  C   UNL A   1      37.142  29.131  29.813  1.00  0.00     0.010 A 
ATOM     12  C   UNL A   1      38.282  29.226  28.998  1.00  0.00    -0.014 A 
BRANCH  12  13
ATOM     13  C   UNL A   1      39.603  28.749  29.490  1.00  0.00     0.031 A 
ATOM     14  C   UNL A   1      40.301  27.590  28.829  1.00  0.00     0.074 A 
ATOM     15  C   UNL A   1      40.159  29.348  30.562  1.00  0.00     0.049 A 
ATOM     16  N   UNL A   1      41.400  26.978  29.189  1.00  0.00    -0.248 NA
ATOM     17  C   UNL A   1      39.688  27.044  27.606  1.00  0.00     0.031 C 
ATOM     18  C   UNL A   1      39.580  30.478  31.293  1.00  0.00     0.029 A 
ATOM     19  N   UNL A   1      41.324  29.079  31.237  1.00  0.00    -0.354 N 
ATOM     20  C   UNL A   1      41.593  25.957  28.265  1.00  0.00     0.074 A 
ATOM     21  C   UNL A   1      40.495  26.028  27.325  1.00  0.00     0.031 C 
ATOM     22  C   UNL A   1      40.388  30.805  32.312  1.00  0.00     0.029 A 
ATOM     23  C   UNL A   1      41.508  29.871  32.348  1.00  0.00     0.049 A 
ATOM     24  H   UNL A   1      41.964  28.388  30.955  1.00  0.00     0.167 HD
ATOM     25  C   UNL A   1      42.601  25.054  28.201  1.00  0.00     0.034 A 
ATOM     26  C   UNL A   1      42.448  29.829  33.311  1.00  0.00     0.034 A 
ATOM     27  C   UNL A   1      43.708  25.007  29.122  1.00  0.00     0.049 A 
ATOM     28  C   UNL A   1      43.535  28.794  33.224  1.00  0.00     0.074 A 
ATOM     29  C   UNL A   1      44.792  24.145  29.113  1.00  0.00     0.029 A 
ATOM     30  N   UNL A   1      43.877  25.846  30.210  1.00  0.00    -0.354 N 
ATOM     31  N   UNL A   1      43.747  27.894  32.295  1.00  0.00    -0.248 NA
ATOM     32  C   UNL A   1      44.529  28.785  34.307  1.00  0.00     0.031 C 
ATOM     33  C   UNL A   1      45.602  24.448  30.211  1.00  0.00     0.029 A 
ATOM     34  C   UNL A   1      45.042  25.520  30.884  1.00  0.00     0.049 A 
ATOM     35  H   UNL A   1      43.259  26.569  30.467  1.00  0.00     0.167 HD
ATOM     36  C   UNL A   1      44.912  27.233  32.665  1.00  0.00     0.074 A 
ATOM     37  C   UNL A   1      45.381  27.861  33.883  1.00  0.00     0.031 C 
ATOM     38  C   UNL A   1      45.528  26.185  32.064  1.00  0.00     0.034 A 
BRANCH  25  39
ATOM     39  C   UNL A   1      42.602  24.053  27.073  1.00  0.00     0.023 A 
ATOM     40  C   UNL A   1      43.393  24.296  25.934  1.00  0.00     0.012 A 
ATOM     41  C   UNL A   1      41.944  22.813  27.208  1.00  0.00     0.148 A 
ATOM     42  C   UNL A   1      43.528  23.324  24.943  1.00  0.00     0.002 A 
ATOM     43  C   UNL A   1      42.118  21.834  26.238  1.00  0.00     0.091 A 
ATOM     44  F   UNL A   1      41.188  22.608  28.296  1.00  0.00    -0.205 F 
ATOM     45  C   UNL A   1      42.903  22.090  25.102  1.00  0.00     0.022 A 
BRANCH  43  46
ATOM     46  S   UNL A   1      41.430  20.179  26.385  1.00  0.00     0.127 S 
ATOM     47  O   UNL A   1      41.889  19.787  27.718  1.00  0.00    -0.237 OA
ATOM     48  O   UNL A   1      39.994  20.437  26.285  1.00  0.00    -0.237 OA
ATOM     49  O   UNL A   1      41.995  19.406  25.288  1.00  0.00    -0.744 OA
ENDBRANCH  43  46
ENDBRANCH  25  39
BRANCH  26  50
ATOM     50  C   UNL A   1      42.420  30.814  34.430  1.00  0.00     0.023 A 
ATOM     51  C   UNL A   1      41.727  30.493  35.613  1.00  0.00     0.012 A 
ATOM     52  C   UNL A   1      43.081  32.054  34.337  1.00  0.00     0.148 A 
ATOM     53  C   UNL A   1      41.659  31.405  36.668  1.00  0.00     0.002 A 
ATOM     54  C   UNL A   1      43.066  32.930  35.416  1.00  0.00     0.091 A 
ATOM     55  F   UNL A   1      43.723  32.349  33.198  1.00  0.00    -0.205 F 
ATOM     56  C   UNL A   1      42.337  32.616  36.574  1.00  0.00     0.022 A 
BRANCH  54  57
ATOM     57  S   UNL A   1      44.027  34.446  35.438  1.00  0.00     0.127 S 
ATOM     58  O   UNL A   1      43.751  34.995  34.113  1.00  0.00    -0.237 OA
ATOM     59  O   UNL A   1      43.414  35.176  36.548  1.00  0.00    -0.237 OA
ATOM     60  O   UNL A   1      45.403  34.034  35.680  1.00  0.00    -0.744 OA
ENDBRANCH  54  57
ENDBRANCH  26  50
BRANCH  38  61
ATOM     61  C   UNL A   1      46.795  25.665  32.694  1.00  0.00     0.023 A 
ATOM     62  C   UNL A   1      48.035  26.241  32.353  1.00  0.00     0.012 A 
ATOM     63  C   UNL A   1      46.752  24.649  33.671  1.00  0.00     0.148 A 
ATOM     64  C   UNL A   1      49.215  25.787  32.941  1.00  0.00     0.002 A 
ATOM     65  C   UNL A   1      47.925  24.241  34.294  1.00  0.00     0.091 A 
ATOM     66  F   UNL A   1      45.565  24.099  33.971  1.00  0.00    -0.205 F 
ATOM     67  C   UNL A   1      49.159  24.796  33.919  1.00  0.00     0.022 A 
BRANCH  65  68
ATOM     68  S   UNL A   1      47.937  23.048  35.638  1.00  0.00     0.127 S 
ATOM     69  O   UNL A   1      49.351  23.031  36.008  1.00  0.00    -0.237 OA
ATOM     70  O   UNL A   1      47.058  23.679  36.622  1.00  0.00    -0.237 OA
ATOM     71  O   UNL A   1      47.423  21.807  35.077  1.00  0.00    -0.744 OA
ENDBRANCH  65  68
ENDBRANCH  38  61
ENDBRANCH  12  13
ENDBRANCH   5   7
ENDBRANCH   2   3
ENDBRANCH   1   2
BRANCH   1  72
ATOM     72  C   UNL A   1      33.523  29.016  24.159  1.00  0.00     0.023 C 
BRANCH  72  73
ATOM     73  C   UNL A   1      33.212  28.635  22.713  1.00  0.00     0.116 C 
BRANCH  73  74
ATOM     74  N   UNL A   1      31.855  28.978  22.323  1.00  0.00    -0.352 N 
ATOM     75  C   UNL A   1      30.699  28.266  22.539  1.00  0.00     0.251 C 
ATOM     76  H   UNL A   1      31.751  29.830  21.841  1.00  0.00     0.163 HD
ATOM     77  O   UNL A   1      29.630  28.623  22.063  1.00  0.00    -0.269 OA
BRANCH  75  78
ATOM     78  C   UNL A   1      30.760  27.035  23.347  1.00  0.00     0.042 A 
ATOM     79  C   UNL A   1      30.404  27.063  24.697  1.00  0.00     0.014 A 
ATOM     80  C   UNL A   1      31.193  25.854  22.747  1.00  0.00     0.053 A 
ATOM     81  C   UNL A   1      30.556  25.910  25.471  1.00  0.00     0.013 A 
ATOM     82  C   UNL A   1      31.375  24.725  23.539  1.00  0.00     0.132 A 
ATOM     83  C   UNL A   1      31.112  24.743  24.913  1.00  0.00     0.042 A 
ATOM     84  F   UNL A   1      31.846  23.609  22.965  1.00  0.00    -0.206 F 
BRANCH  83  85
ATOM     85  C   UNL A   1      31.446  23.553  25.780  1.00  0.00     0.302 C 
BRANCH  85  86
ATOM     86  N   UNL A   1      32.658  23.614  26.611  1.00  0.00    -0.322 N 
ATOM     87  C   UNL A   1      32.971  22.414  27.399  1.00  0.00     0.324 C 
ATOM     88  C   UNL A   1      33.866  24.149  25.971  1.00  0.00     0.328 C 
ATOM     89  H   UNL A   1      32.353  24.323  27.276  1.00  0.00     0.348 HD
ATOM     90  C   UNL A   1      33.947  21.391  26.762  1.00  0.00     0.324 C 
ATOM     91  C   UNL A   1      34.722  23.090  25.227  1.00  0.00     0.239 C 
ATOM     92  N   UNL A   1      35.140  21.988  26.116  1.00  0.00    -0.323 N 
ATOM     93  C   UNL A   1      35.931  23.752  24.556  1.00  0.00     0.071 C 
ATOM     94  C   UNL A   1      35.873  20.956  25.363  1.00  0.00     0.262 C 
ATOM     95  H   UNL A   1      35.762  22.364  26.832  1.00  0.00     0.348 HD
ATOM     96  C   UNL A   1      36.692  22.722  23.730  1.00  0.00     0.012 C 
ATOM     97  C   UNL A   1      37.072  21.526  24.597  1.00  0.00     0.062 C 
ENDBRANCH  85  86
ENDBRANCH  83  85
ENDBRANCH  75  78
ENDBRANCH  73  74
ENDBRANCH  72  73
ENDBRANCH   1  72
TORSDOF 16
ENDMDL
