MODEL 1
REMARK VINA RESULT:     -12.8      0.000      0.000
REMARK SMILES CC[NH2+][C@@]1(C(=O)NCCCCNC(=O)c2ccc(-c3c4nc(c(-c5cccc(S(=O)(=O)[O-])c5F)c5ccc([nH]5)c(-c5cccc(S(=O)(=O)[O-])c5F)c5nc(c(-c6cccc(S(=O)(=O)[O-])c6F)c6ccc3[nH]6)C=C5)C=C4)cc2)CC[C@@H](n2cnc3ccccc32)C1
REMARK SMILES IDX 10 1 9 2 8 3 7 4 5 5 6 6 4 8 78 9 90 10 79 11 80 12 3 13
REMARK SMILES IDX 2 16 1 17 81 18 82 19 89 20 83 21 84 22 88 23 85 24 87 25
REMARK SMILES IDX 86 26 11 27 12 28 13 29 14 31 15 32 16 33 77 34 17 35 76 36
REMARK SMILES IDX 18 37 19 38 20 39 70 40 21 41 75 42 69 43 71 44 22 45 74 46
REMARK SMILES IDX 68 47 67 48 23 50 55 51 35 52 54 53 36 54 39 55 53 56 72 57
REMARK SMILES IDX 37 58 38 59 52 61 73 62 40 63 24 64 25 65 33 66 26 67 28 68
REMARK SMILES IDX 34 69 27 70 29 71 30 72 31 73 32 74 56 75 57 76 65 77 58 78
REMARK SMILES IDX 60 79 66 80 59 81 61 82 62 83 63 84 64 85 41 86 42 87 50 88
REMARK SMILES IDX 43 89 45 90 51 91 44 92 46 93 47 94 48 95 49 96
REMARK H PARENT 7 7 3 14 3 15 12 30 71 49 39 60
REMARK Flexibility Score: inf
ROOT
ATOM      1  C   UNL A   1      37.473  19.643  24.790  1.00  0.00     0.023 C 
ENDROOT
BRANCH   1   2
ATOM      2  C   UNL A   1      36.135  20.317  25.000  1.00  0.00     0.023 C 
BRANCH   2   3
ATOM      3  C   UNL A   1      34.894  19.428  24.779  1.00  0.00     0.116 C 
BRANCH   3   4
ATOM      4  N   UNL A   1      33.645  20.007  25.281  1.00  0.00    -0.351 N 
ATOM      5  C   UNL A   1      32.874  21.136  25.075  1.00  0.00     0.281 C 
ATOM      6  O   UNL A   1      31.697  20.794  25.301  1.00  0.00    -0.268 OA
ATOM      7  H   UNL A   1      33.239  19.424  25.963  1.00  0.00     0.163 HD
BRANCH   5   8
ATOM      8  C   UNL A   1      33.481  22.800  24.500  1.00  0.00     0.177 C 
ATOM      9  C   UNL A   1      32.927  23.632  25.977  1.00  0.00     0.081 C 
ATOM     10  C   UNL A   1      31.849  23.212  23.790  1.00  0.00     0.104 C 
ATOM     11  C   UNL A   1      31.871  24.709  25.606  1.00  0.00     0.033 C 
ATOM     12  C   UNL A   1      31.669  24.671  24.078  1.00  0.00     0.096 C 
BRANCH   8  13
ATOM     13  N   UNL A   1      35.296  23.144  23.485  1.00  0.00    -0.334 N 
ATOM     14  H   UNL A   1      35.303  22.365  22.827  1.00  0.00     0.347 HD
ATOM     15  H   UNL A   1      35.141  24.152  23.475  1.00  0.00     0.347 HD
BRANCH  13  16
ATOM     16  C   UNL A   1      36.827  23.324  23.752  1.00  0.00     0.257 C 
ATOM     17  C   UNL A   1      37.075  23.689  25.216  1.00  0.00     0.071 C 
ENDBRANCH  13  16
ENDBRANCH   8  13
BRANCH  12  18
ATOM     18  N   UNL A   1      32.742  25.268  23.275  1.00  0.00    -0.327 N 
ATOM     19  C   UNL A   1      32.712  25.124  21.887  1.00  0.00     0.200 A 
ATOM     20  C   UNL A   1      32.827  26.649  23.549  1.00  0.00     0.068 A 
ATOM     21  N   UNL A   1      31.905  25.983  21.278  1.00  0.00    -0.237 NA
ATOM     22  C   UNL A   1      31.677  26.950  22.225  1.00  0.00     0.088 A 
ATOM     23  C   UNL A   1      32.782  27.721  25.070  1.00  0.00     0.028 A 
ATOM     24  C   UNL A   1      30.406  28.229  22.397  1.00  0.00     0.030 A 
ATOM     25  C   UNL A   1      31.578  29.072  25.169  1.00  0.00     0.002 A 
ATOM     26  C   UNL A   1      30.339  29.270  23.862  1.00  0.00     0.002 A 
ENDBRANCH  12  18
ENDBRANCH   5   8
ENDBRANCH   3   4
ENDBRANCH   2   3
ENDBRANCH   1   2
BRANCH   1  27
ATOM     27  C   UNL A   1      38.537  20.081  25.768  1.00  0.00     0.116 C 
BRANCH  27  28
ATOM     28  N   UNL A   1      39.704  19.200  25.805  1.00  0.00    -0.352 N 
ATOM     29  C   UNL A   1      40.988  19.558  26.140  1.00  0.00     0.251 C 
ATOM     30  H   UNL A   1      39.553  18.257  25.565  1.00  0.00     0.163 HD
ATOM     31  O   UNL A   1      41.924  18.777  26.035  1.00  0.00    -0.269 OA
BRANCH  29  32
ATOM     32  C   UNL A   1      41.182  20.944  26.594  1.00  0.00     0.039 A 
ATOM     33  C   UNL A   1      41.957  21.184  27.726  1.00  0.00     0.014 A 
ATOM     34  C   UNL A   1      40.787  21.982  25.744  1.00  0.00     0.014 A 
ATOM     35  C   UNL A   1      42.392  22.483  27.975  1.00  0.00     0.010 A 
ATOM     36  C   UNL A   1      41.337  23.238  25.923  1.00  0.00     0.010 A 
ATOM     37  C   UNL A   1      42.121  23.509  27.054  1.00  0.00    -0.014 A 
BRANCH  37  38
ATOM     38  C   UNL A   1      42.620  24.887  27.267  1.00  0.00     0.031 A 
ATOM     39  C   UNL A   1      41.727  25.896  27.936  1.00  0.00     0.074 A 
ATOM     40  C   UNL A   1      43.835  25.243  26.805  1.00  0.00     0.049 A 
ATOM     41  N   UNL A   1      41.960  27.154  28.195  1.00  0.00    -0.248 NA
ATOM     42  C   UNL A   1      40.382  25.443  28.334  1.00  0.00     0.031 C 
ATOM     43  C   UNL A   1      44.755  24.372  26.069  1.00  0.00     0.029 A 
ATOM     44  N   UNL A   1      44.499  26.440  26.876  1.00  0.00    -0.354 N 
ATOM     45  C   UNL A   1      40.785  27.646  28.749  1.00  0.00     0.074 A 
ATOM     46  C   UNL A   1      39.822  26.571  28.734  1.00  0.00     0.031 C 
ATOM     47  C   UNL A   1      45.875  25.056  25.784  1.00  0.00     0.029 A 
ATOM     48  C   UNL A   1      45.737  26.422  26.277  1.00  0.00     0.049 A 
ATOM     49  H   UNL A   1      44.125  27.239  27.314  1.00  0.00     0.167 HD
ATOM     50  C   UNL A   1      40.539  28.874  29.259  1.00  0.00     0.034 A 
ATOM     51  C   UNL A   1      46.652  27.401  26.139  1.00  0.00     0.034 A 
ATOM     52  C   UNL A   1      41.512  29.927  29.298  1.00  0.00     0.049 A 
ATOM     53  C   UNL A   1      46.358  28.755  26.726  1.00  0.00     0.074 A 
ATOM     54  C   UNL A   1      41.398  31.181  29.868  1.00  0.00     0.029 A 
ATOM     55  N   UNL A   1      42.774  29.857  28.729  1.00  0.00    -0.354 N 
ATOM     56  N   UNL A   1      45.300  29.157  27.387  1.00  0.00    -0.248 NA
ATOM     57  C   UNL A   1      47.400  29.781  26.578  1.00  0.00     0.031 C 
ATOM     58  C   UNL A   1      42.573  31.888  29.598  1.00  0.00     0.029 A 
ATOM     59  C   UNL A   1      43.442  31.054  28.913  1.00  0.00     0.049 A 
ATOM     60  H   UNL A   1      43.140  29.071  28.263  1.00  0.00     0.167 HD
ATOM     61  C   UNL A   1      45.564  30.466  27.770  1.00  0.00     0.074 A 
ATOM     62  C   UNL A   1      46.891  30.783  27.282  1.00  0.00     0.031 C 
ATOM     63  C   UNL A   1      44.779  31.333  28.457  1.00  0.00     0.034 A 
BRANCH  50  64
ATOM     64  C   UNL A   1      39.169  29.127  29.833  1.00  0.00     0.023 A 
ATOM     65  C   UNL A   1      38.859  28.695  31.139  1.00  0.00     0.012 A 
ATOM     66  C   UNL A   1      38.198  29.821  29.088  1.00  0.00     0.148 A 
ATOM     67  C   UNL A   1      37.592  28.908  31.677  1.00  0.00     0.002 A 
ATOM     68  C   UNL A   1      36.955  30.078  29.651  1.00  0.00     0.091 A 
ATOM     69  F   UNL A   1      38.501  30.201  27.838  1.00  0.00    -0.205 F 
ATOM     70  C   UNL A   1      36.644  29.609  30.937  1.00  0.00     0.022 A 
BRANCH  68  71
ATOM     71  S   UNL A   1      35.696  31.047  28.813  1.00  0.00     0.127 S 
ATOM     72  O   UNL A   1      34.936  31.582  29.943  1.00  0.00    -0.237 OA
ATOM     73  O   UNL A   1      36.502  32.036  28.096  1.00  0.00    -0.237 OA
ATOM     74  O   UNL A   1      34.973  30.116  27.959  1.00  0.00    -0.744 OA
ENDBRANCH  68  71
ENDBRANCH  50  64
BRANCH  51  75
ATOM     75  C   UNL A   1      47.952  27.125  25.464  1.00  0.00     0.023 A 
ATOM     76  C   UNL A   1      49.030  26.610  26.213  1.00  0.00     0.012 A 
ATOM     77  C   UNL A   1      48.127  27.361  24.087  1.00  0.00     0.148 A 
ATOM     78  C   UNL A   1      50.266  26.375  25.613  1.00  0.00     0.002 A 
ATOM     79  C   UNL A   1      49.344  27.071  23.483  1.00  0.00     0.091 A 
ATOM     80  F   UNL A   1      47.092  27.855  23.394  1.00  0.00    -0.205 F 
ATOM     81  C   UNL A   1      50.422  26.598  24.247  1.00  0.00     0.022 A 
BRANCH  79  82
ATOM     82  S   UNL A   1      49.597  27.206  21.710  1.00  0.00     0.127 S 
ATOM     83  O   UNL A   1      49.360  28.629  21.483  1.00  0.00    -0.237 OA
ATOM     84  O   UNL A   1      50.991  26.782  21.576  1.00  0.00    -0.237 OA
ATOM     85  O   UNL A   1      48.632  26.301  21.102  1.00  0.00    -0.744 OA
ENDBRANCH  79  82
ENDBRANCH  51  75
BRANCH  63  86
ATOM     86  C   UNL A   1      45.349  32.692  28.773  1.00  0.00     0.023 A 
ATOM     87  C   UNL A   1      46.052  32.907  29.973  1.00  0.00     0.012 A 
ATOM     88  C   UNL A   1      45.246  33.738  27.833  1.00  0.00     0.148 A 
ATOM     89  C   UNL A   1      46.610  34.154  30.252  1.00  0.00     0.002 A 
ATOM     90  C   UNL A   1      45.854  34.958  28.092  1.00  0.00     0.091 A 
ATOM     91  F   UNL A   1      44.559  33.516  26.702  1.00  0.00    -0.205 F 
ATOM     92  C   UNL A   1      46.522  35.174  29.307  1.00  0.00     0.022 A 
BRANCH  90  93
ATOM     93  S   UNL A   1      45.882  36.294  26.892  1.00  0.00     0.127 S 
ATOM     94  O   UNL A   1      44.479  36.704  26.872  1.00  0.00    -0.237 OA
ATOM     95  O   UNL A   1      46.790  37.253  27.522  1.00  0.00    -0.237 OA
ATOM     96  O   UNL A   1      46.378  35.713  25.652  1.00  0.00    -0.744 OA
ENDBRANCH  90  93
ENDBRANCH  63  86
ENDBRANCH  37  38
ENDBRANCH  29  32
ENDBRANCH  27  28
ENDBRANCH   1  27
TORSDOF 17
ENDMDL
MODEL 2
REMARK VINA RESULT:     -12.8      2.049      7.827
REMARK SMILES CC[NH2+][C@@]1(C(=O)NCCCCNC(=O)c2ccc(-c3c4nc(c(-c5cccc(S(=O)(=O)[O-])c5F)c5ccc([nH]5)c(-c5cccc(S(=O)(=O)[O-])c5F)c5nc(c(-c6cccc(S(=O)(=O)[O-])c6F)c6ccc3[nH]6)C=C5)C=C4)cc2)CC[C@@H](n2cnc3ccccc32)C1
REMARK SMILES IDX 10 1 9 2 8 3 7 4 5 5 6 6 4 8 78 9 90 10 79 11 80 12 3 13
REMARK SMILES IDX 2 16 1 17 81 18 82 19 89 20 83 21 84 22 88 23 85 24 87 25
REMARK SMILES IDX 86 26 11 27 12 28 13 29 14 31 15 32 16 33 77 34 17 35 76 36
REMARK SMILES IDX 18 37 19 38 20 39 70 40 21 41 75 42 69 43 71 44 22 45 74 46
REMARK SMILES IDX 68 47 67 48 23 50 55 51 35 52 54 53 36 54 39 55 53 56 72 57
REMARK SMILES IDX 37 58 38 59 52 61 73 62 40 63 24 64 25 65 33 66 26 67 28 68
REMARK SMILES IDX 34 69 27 70 29 71 30 72 31 73 32 74 56 75 57 76 65 77 58 78
REMARK SMILES IDX 60 79 66 80 59 81 61 82 62 83 63 84 64 85 41 86 42 87 50 88
REMARK SMILES IDX 43 89 45 90 51 91 44 92 46 93 47 94 48 95 49 96
REMARK H PARENT 7 7 3 14 3 15 12 30 71 49 39 60
REMARK Flexibility Score: inf
ROOT
ATOM      1  C   UNL A   1      35.458  21.557  26.101  1.00  0.00     0.023 C 
ENDROOT
BRANCH   1   2
ATOM      2  C   UNL A   1      34.576  22.670  26.623  1.00  0.00     0.023 C 
BRANCH   2   3
ATOM      3  C   UNL A   1      33.486  22.247  27.628  1.00  0.00     0.116 C 
BRANCH   3   4
ATOM      4  N   UNL A   1      32.121  22.560  27.199  1.00  0.00    -0.351 N 
ATOM      5  C   UNL A   1      31.492  23.306  26.219  1.00  0.00     0.281 C 
ATOM      6  O   UNL A   1      30.420  22.719  25.976  1.00  0.00    -0.268 OA
ATOM      7  H   UNL A   1      31.461  22.110  27.775  1.00  0.00     0.163 HD
BRANCH   5   8
ATOM      8  C   UNL A   1      32.165  24.829  25.386  1.00  0.00     0.177 C 
ATOM      9  C   UNL A   1      31.884  25.863  26.812  1.00  0.00     0.081 C 
ATOM     10  C   UNL A   1      30.497  25.331  24.833  1.00  0.00     0.104 C 
ATOM     11  C   UNL A   1      30.888  26.998  26.448  1.00  0.00     0.033 C 
ATOM     12  C   UNL A   1      30.487  26.823  24.969  1.00  0.00     0.096 C 
BRANCH   8  13
ATOM     13  N   UNL A   1      33.855  24.877  24.129  1.00  0.00    -0.334 N 
ATOM     14  H   UNL A   1      33.785  25.818  23.741  1.00  0.00     0.347 HD
ATOM     15  H   UNL A   1      34.421  24.371  24.810  1.00  0.00     0.347 HD
BRANCH  13  16
ATOM     16  C   UNL A   1      34.506  24.107  22.932  1.00  0.00     0.257 C 
ATOM     17  C   UNL A   1      33.556  23.031  22.408  1.00  0.00     0.071 C 
ENDBRANCH  13  16
ENDBRANCH   8  13
BRANCH  12  18
ATOM     18  N   UNL A   1      31.495  27.220  23.980  1.00  0.00    -0.327 N 
ATOM     19  C   UNL A   1      31.302  26.883  22.640  1.00  0.00     0.200 A 
ATOM     20  C   UNL A   1      31.690  28.615  24.036  1.00  0.00     0.068 A 
ATOM     21  N   UNL A   1      30.481  27.704  21.996  1.00  0.00    -0.237 NA
ATOM     22  C   UNL A   1      30.418  28.810  22.807  1.00  0.00     0.088 A 
ATOM     23  C   UNL A   1      31.878  29.893  25.377  1.00  0.00     0.028 A 
ATOM     24  C   UNL A   1      29.249  30.190  22.916  1.00  0.00     0.030 A 
ATOM     25  C   UNL A   1      30.772  31.328  25.397  1.00  0.00     0.002 A 
ATOM     26  C   UNL A   1      29.407  31.430  24.210  1.00  0.00     0.002 A 
ENDBRANCH  12  18
ENDBRANCH   5   8
ENDBRANCH   3   4
ENDBRANCH   2   3
ENDBRANCH   1   2
BRANCH   1  27
ATOM     27  C   UNL A   1      36.800  22.030  25.594  1.00  0.00     0.116 C 
BRANCH  27  28
ATOM     28  N   UNL A   1      37.821  20.983  25.564  1.00  0.00    -0.352 N 
ATOM     29  C   UNL A   1      39.120  21.096  25.999  1.00  0.00     0.251 C 
ATOM     30  H   UNL A   1      37.550  20.112  25.194  1.00  0.00     0.163 HD
ATOM     31  O   UNL A   1      39.937  20.200  25.831  1.00  0.00    -0.269 OA
BRANCH  29  32
ATOM     32  C   UNL A   1      39.486  22.368  26.640  1.00  0.00     0.039 A 
ATOM     33  C   UNL A   1      40.502  22.379  27.593  1.00  0.00     0.014 A 
ATOM     34  C   UNL A   1      38.973  23.554  26.104  1.00  0.00     0.014 A 
ATOM     35  C   UNL A   1      41.054  23.601  27.968  1.00  0.00     0.010 A 
ATOM     36  C   UNL A   1      39.617  24.746  26.379  1.00  0.00     0.010 A 
ATOM     37  C   UNL A   1      40.645  24.787  27.334  1.00  0.00    -0.014 A 
BRANCH  37  38
ATOM     38  C   UNL A   1      41.254  26.092  27.675  1.00  0.00     0.031 A 
ATOM     39  C   UNL A   1      42.660  26.386  27.230  1.00  0.00     0.074 A 
ATOM     40  C   UNL A   1      40.575  26.975  28.433  1.00  0.00     0.049 A 
ATOM     41  N   UNL A   1      43.384  27.451  27.443  1.00  0.00    -0.248 NA
ATOM     42  C   UNL A   1      43.360  25.329  26.476  1.00  0.00     0.031 C 
ATOM     43  C   UNL A   1      39.236  26.766  28.991  1.00  0.00     0.029 A 
ATOM     44  N   UNL A   1      40.926  28.225  28.877  1.00  0.00    -0.354 N 
ATOM     45  C   UNL A   1      44.626  27.179  26.886  1.00  0.00     0.074 A 
ATOM     46  C   UNL A   1      44.581  25.827  26.378  1.00  0.00     0.031 C 
ATOM     47  C   UNL A   1      38.868  27.862  29.676  1.00  0.00     0.029 A 
ATOM     48  C   UNL A   1      39.958  28.831  29.643  1.00  0.00     0.049 A 
ATOM     49  H   UNL A   1      41.790  28.647  28.667  1.00  0.00     0.167 HD
ATOM     50  C   UNL A   1      45.701  27.991  26.773  1.00  0.00     0.034 A 
ATOM     51  C   UNL A   1      39.956  30.032  30.253  1.00  0.00     0.034 A 
ATOM     52  C   UNL A   1      45.728  29.343  27.252  1.00  0.00     0.049 A 
ATOM     53  C   UNL A   1      41.160  30.923  30.101  1.00  0.00     0.074 A 
ATOM     54  C   UNL A   1      46.731  30.284  27.115  1.00  0.00     0.029 A 
ATOM     55  N   UNL A   1      44.710  29.943  27.978  1.00  0.00    -0.354 N 
ATOM     56  N   UNL A   1      42.268  30.708  29.435  1.00  0.00    -0.248 NA
ATOM     57  C   UNL A   1      41.099  32.237  30.757  1.00  0.00     0.031 C 
ATOM     58  C   UNL A   1      46.341  31.436  27.803  1.00  0.00     0.029 A 
ATOM     59  C   UNL A   1      45.070  31.234  28.317  1.00  0.00     0.049 A 
ATOM     60  H   UNL A   1      43.857  29.513  28.216  1.00  0.00     0.167 HD
ATOM     61  C   UNL A   1      43.017  31.872  29.555  1.00  0.00     0.074 A 
ATOM     62  C   UNL A   1      42.227  32.796  30.344  1.00  0.00     0.031 C 
ATOM     63  C   UNL A   1      44.251  32.152  29.066  1.00  0.00     0.034 A 
BRANCH  50  64
ATOM     64  C   UNL A   1      46.922  27.440  26.084  1.00  0.00     0.023 A 
ATOM     65  C   UNL A   1      47.089  27.615  24.694  1.00  0.00     0.012 A 
ATOM     66  C   UNL A   1      47.919  26.773  26.819  1.00  0.00     0.148 A 
ATOM     67  C   UNL A   1      48.205  27.096  24.040  1.00  0.00     0.002 A 
ATOM     68  C   UNL A   1      49.055  26.308  26.171  1.00  0.00     0.091 A 
ATOM     69  F   UNL A   1      47.731  26.593  28.134  1.00  0.00    -0.205 F 
ATOM     70  C   UNL A   1      49.193  26.453  24.780  1.00  0.00     0.022 A 
BRANCH  68  71
ATOM     71  S   UNL A   1      50.423  25.542  27.047  1.00  0.00     0.127 S 
ATOM     72  O   UNL A   1      51.357  25.271  25.954  1.00  0.00    -0.237 OA
ATOM     73  O   UNL A   1      50.839  26.612  27.954  1.00  0.00    -0.237 OA
ATOM     74  O   UNL A   1      49.873  24.365  27.703  1.00  0.00    -0.744 OA
ENDBRANCH  68  71
ENDBRANCH  50  64
BRANCH  51  75
ATOM     75  C   UNL A   1      38.759  30.486  31.015  1.00  0.00     0.023 A 
ATOM     76  C   UNL A   1      38.682  30.241  32.401  1.00  0.00     0.012 A 
ATOM     77  C   UNL A   1      37.701  31.165  30.380  1.00  0.00     0.148 A 
ATOM     78  C   UNL A   1      37.558  30.626  33.131  1.00  0.00     0.002 A 
ATOM     79  C   UNL A   1      36.610  31.597  31.124  1.00  0.00     0.091 A 
ATOM     80  F   UNL A   1      37.791  31.385  29.062  1.00  0.00    -0.205 F 
ATOM     81  C   UNL A   1      36.525  31.310  32.495  1.00  0.00     0.022 A 
BRANCH  79  82
ATOM     82  S   UNL A   1      35.294  32.593  30.416  1.00  0.00     0.127 S 
ATOM     83  O   UNL A   1      36.007  33.814  30.051  1.00  0.00    -0.237 OA
ATOM     84  O   UNL A   1      34.867  31.765  29.288  1.00  0.00    -0.237 OA
ATOM     85  O   UNL A   1      34.297  32.737  31.469  1.00  0.00    -0.744 OA
ENDBRANCH  79  82
ENDBRANCH  51  75
BRANCH  63  86
ATOM     86  C   UNL A   1      44.807  33.529  29.318  1.00  0.00     0.023 A 
ATOM     87  C   UNL A   1      45.479  33.816  30.522  1.00  0.00     0.012 A 
ATOM     88  C   UNL A   1      44.724  34.519  28.318  1.00  0.00     0.148 A 
ATOM     89  C   UNL A   1      46.024  35.080  30.744  1.00  0.00     0.002 A 
ATOM     90  C   UNL A   1      45.320  35.756  28.523  1.00  0.00     0.091 A 
ATOM     91  F   UNL A   1      44.067  34.231  27.185  1.00  0.00    -0.205 F 
ATOM     92  C   UNL A   1      45.956  36.044  29.740  1.00  0.00     0.022 A 
BRANCH  90  93
ATOM     93  S   UNL A   1      45.373  37.022  27.250  1.00  0.00     0.127 S 
ATOM     94  O   UNL A   1      43.951  37.248  26.997  1.00  0.00    -0.237 OA
ATOM     95  O   UNL A   1      46.053  38.120  27.937  1.00  0.00    -0.237 OA
ATOM     96  O   UNL A   1      46.119  36.447  26.139  1.00  0.00    -0.744 OA
ENDBRANCH  90  93
ENDBRANCH  63  86
ENDBRANCH  37  38
ENDBRANCH  29  32
ENDBRANCH  27  28
ENDBRANCH   1  27
TORSDOF 17
ENDMDL
MODEL 3
REMARK VINA RESULT:     -12.8      5.279      8.735
REMARK SMILES CC[NH2+][C@@]1(C(=O)NCCCCNC(=O)c2ccc(-c3c4nc(c(-c5cccc(S(=O)(=O)[O-])c5F)c5ccc([nH]5)c(-c5cccc(S(=O)(=O)[O-])c5F)c5nc(c(-c6cccc(S(=O)(=O)[O-])c6F)c6ccc3[nH]6)C=C5)C=C4)cc2)CC[C@@H](n2cnc3ccccc32)C1
REMARK SMILES IDX 10 1 9 2 8 3 7 4 5 5 6 6 4 8 78 9 90 10 79 11 80 12 3 13
REMARK SMILES IDX 2 16 1 17 81 18 82 19 89 20 83 21 84 22 88 23 85 24 87 25
REMARK SMILES IDX 86 26 11 27 12 28 13 29 14 31 15 32 16 33 77 34 17 35 76 36
REMARK SMILES IDX 18 37 19 38 20 39 70 40 21 41 75 42 69 43 71 44 22 45 74 46
REMARK SMILES IDX 68 47 67 48 23 50 55 51 35 52 54 53 36 54 39 55 53 56 72 57
REMARK SMILES IDX 37 58 38 59 52 61 73 62 40 63 24 64 25 65 33 66 26 67 28 68
REMARK SMILES IDX 34 69 27 70 29 71 30 72 31 73 32 74 56 75 57 76 65 77 58 78
REMARK SMILES IDX 60 79 66 80 59 81 61 82 62 83 63 84 64 85 41 86 42 87 50 88
REMARK SMILES IDX 43 89 45 90 51 91 44 92 46 93 47 94 48 95 49 96
REMARK H PARENT 7 7 3 14 3 15 12 30 71 49 39 60
REMARK Flexibility Score: inf
ROOT
ATOM      1  C   UNL A   1      32.643  29.265  24.394  1.00  0.00     0.023 C 
ENDROOT
BRANCH   1   2
ATOM      2  C   UNL A   1      31.199  28.876  24.168  1.00  0.00     0.023 C 
BRANCH   2   3
ATOM      3  C   UNL A   1      30.912  28.080  22.879  1.00  0.00     0.116 C 
BRANCH   3   4
ATOM      4  N   UNL A   1      32.111  27.556  22.219  1.00  0.00    -0.351 N 
ATOM      5  C   UNL A   1      32.899  26.421  22.260  1.00  0.00     0.281 C 
ATOM      6  O   UNL A   1      33.361  26.282  21.111  1.00  0.00    -0.268 OA
ATOM      7  H   UNL A   1      32.454  28.198  21.556  1.00  0.00     0.163 HD
BRANCH   5   8
ATOM      8  C   UNL A   1      33.143  25.296  23.724  1.00  0.00     0.177 C 
ATOM      9  C   UNL A   1      34.767  24.781  23.194  1.00  0.00     0.081 C 
ATOM     10  C   UNL A   1      32.505  23.857  22.796  1.00  0.00     0.104 C 
ATOM     11  C   UNL A   1      34.774  23.248  22.946  1.00  0.00     0.033 C 
ATOM     12  C   UNL A   1      33.359  22.711  23.243  1.00  0.00     0.096 C 
BRANCH   8  13
ATOM     13  N   UNL A   1      32.563  25.737  25.702  1.00  0.00    -0.334 N 
ATOM     14  H   UNL A   1      33.395  25.454  26.218  1.00  0.00     0.347 HD
ATOM     15  H   UNL A   1      32.099  26.599  25.411  1.00  0.00     0.347 HD
BRANCH  13  16
ATOM     16  C   UNL A   1      31.440  25.416  26.742  1.00  0.00     0.257 C 
ATOM     17  C   UNL A   1      30.059  25.593  26.111  1.00  0.00     0.071 C 
ENDBRANCH  13  16
ENDBRANCH   8  13
BRANCH  12  18
ATOM     18  N   UNL A   1      32.999  22.606  24.661  1.00  0.00    -0.327 N 
ATOM     19  C   UNL A   1      31.772  22.039  25.011  1.00  0.00     0.200 A 
ATOM     20  C   UNL A   1      34.000  21.893  25.353  1.00  0.00     0.068 A 
ATOM     21  N   UNL A   1      31.778  20.712  25.009  1.00  0.00    -0.237 NA
ATOM     22  C   UNL A   1      33.111  20.387  25.022  1.00  0.00     0.088 A 
ATOM     23  C   UNL A   1      35.861  21.876  25.381  1.00  0.00     0.028 A 
ATOM     24  C   UNL A   1      34.012  18.868  24.618  1.00  0.00     0.030 A 
ATOM     25  C   UNL A   1      36.740  20.318  25.090  1.00  0.00     0.002 A 
ATOM     26  C   UNL A   1      35.810  18.833  24.630  1.00  0.00     0.002 A 
ENDBRANCH  12  18
ENDBRANCH   5   8
ENDBRANCH   3   4
ENDBRANCH   2   3
ENDBRANCH   1   2
BRANCH   1  27
ATOM     27  C   UNL A   1      32.993  29.496  25.845  1.00  0.00     0.116 C 
BRANCH  27  28
ATOM     28  N   UNL A   1      32.596  30.812  26.346  1.00  0.00    -0.352 N 
ATOM     29  C   UNL A   1      33.307  31.603  27.217  1.00  0.00     0.251 C 
ATOM     30  H   UNL A   1      31.735  31.165  26.026  1.00  0.00     0.163 HD
ATOM     31  O   UNL A   1      32.845  32.641  27.669  1.00  0.00    -0.269 OA
BRANCH  29  32
ATOM     32  C   UNL A   1      34.637  31.110  27.609  1.00  0.00     0.039 A 
ATOM     33  C   UNL A   1      35.663  32.028  27.823  1.00  0.00     0.014 A 
ATOM     34  C   UNL A   1      34.764  29.770  27.986  1.00  0.00     0.014 A 
ATOM     35  C   UNL A   1      36.813  31.604  28.482  1.00  0.00     0.010 A 
ATOM     36  C   UNL A   1      35.848  29.393  28.758  1.00  0.00     0.010 A 
ATOM     37  C   UNL A   1      36.895  30.296  28.990  1.00  0.00    -0.014 A 
BRANCH  37  38
ATOM     38  C   UNL A   1      38.085  29.836  29.743  1.00  0.00     0.031 A 
ATOM     39  C   UNL A   1      38.311  30.341  31.141  1.00  0.00     0.074 A 
ATOM     40  C   UNL A   1      38.985  29.026  29.150  1.00  0.00     0.049 A 
ATOM     41  N   UNL A   1      39.296  30.083  31.959  1.00  0.00    -0.248 NA
ATOM     42  C   UNL A   1      37.320  31.290  31.680  1.00  0.00     0.031 C 
ATOM     43  C   UNL A   1      38.913  28.538  27.771  1.00  0.00     0.029 A 
ATOM     44  N   UNL A   1      40.147  28.482  29.633  1.00  0.00    -0.354 N 
ATOM     45  C   UNL A   1      39.062  30.861  33.085  1.00  0.00     0.074 A 
ATOM     46  C   UNL A   1      37.877  31.645  32.825  1.00  0.00     0.031 C 
ATOM     47  C   UNL A   1      39.969  27.742  27.530  1.00  0.00     0.029 A 
ATOM     48  C   UNL A   1      40.812  27.698  28.719  1.00  0.00     0.049 A 
ATOM     49  H   UNL A   1      40.476  28.638  30.549  1.00  0.00     0.167 HD
ATOM     50  C   UNL A   1      39.749  30.895  34.249  1.00  0.00     0.034 A 
ATOM     51  C   UNL A   1      41.974  27.026  28.830  1.00  0.00     0.034 A 
ATOM     52  C   UNL A   1      40.906  30.089  34.511  1.00  0.00     0.049 A 
ATOM     53  C   UNL A   1      42.714  27.070  30.141  1.00  0.00     0.074 A 
ATOM     54  C   UNL A   1      41.630  29.980  35.684  1.00  0.00     0.029 A 
ATOM     55  N   UNL A   1      41.522  29.267  33.580  1.00  0.00    -0.354 N 
ATOM     56  N   UNL A   1      42.392  27.689  31.250  1.00  0.00    -0.248 NA
ATOM     57  C   UNL A   1      43.960  26.295  30.224  1.00  0.00     0.031 C 
ATOM     58  C   UNL A   1      42.714  29.130  35.446  1.00  0.00     0.029 A 
ATOM     59  C   UNL A   1      42.632  28.664  34.143  1.00  0.00     0.049 A 
ATOM     60  H   UNL A   1      41.215  29.132  32.654  1.00  0.00     0.167 HD
ATOM     61  C   UNL A   1      43.370  27.346  32.176  1.00  0.00     0.074 A 
ATOM     62  C   UNL A   1      44.286  26.449  31.500  1.00  0.00     0.031 C 
ATOM     63  C   UNL A   1      43.505  27.741  33.466  1.00  0.00     0.034 A 
BRANCH  50  64
ATOM     64  C   UNL A   1      39.246  31.818  35.328  1.00  0.00     0.023 A 
ATOM     65  C   UNL A   1      38.271  31.371  36.243  1.00  0.00     0.012 A 
ATOM     66  C   UNL A   1      39.763  33.121  35.452  1.00  0.00     0.148 A 
ATOM     67  C   UNL A   1      37.785  32.220  37.236  1.00  0.00     0.002 A 
ATOM     68  C   UNL A   1      39.314  33.943  36.478  1.00  0.00     0.091 A 
ATOM     69  F   UNL A   1      40.670  33.538  34.557  1.00  0.00    -0.205 F 
ATOM     70  C   UNL A   1      38.315  33.501  37.360  1.00  0.00     0.022 A 
BRANCH  68  71
ATOM     71  S   UNL A   1      39.995  35.577  36.775  1.00  0.00     0.127 S 
ATOM     72  O   UNL A   1      39.316  35.958  38.014  1.00  0.00    -0.237 OA
ATOM     73  O   UNL A   1      41.422  35.290  36.925  1.00  0.00    -0.237 OA
ATOM     74  O   UNL A   1      39.654  36.375  35.606  1.00  0.00    -0.744 OA
ENDBRANCH  68  71
ENDBRANCH  50  64
BRANCH  51  75
ATOM     75  C   UNL A   1      42.483  26.211  27.691  1.00  0.00     0.023 A 
ATOM     76  C   UNL A   1      43.398  26.779  26.783  1.00  0.00     0.012 A 
ATOM     77  C   UNL A   1      42.074  24.876  27.506  1.00  0.00     0.148 A 
ATOM     78  C   UNL A   1      43.864  26.049  25.689  1.00  0.00     0.002 A 
ATOM     79  C   UNL A   1      42.585  24.135  26.448  1.00  0.00     0.091 A 
ATOM     80  F   UNL A   1      41.200  24.355  28.378  1.00  0.00    -0.205 F 
ATOM     81  C   UNL A   1      43.464  24.725  25.526  1.00  0.00     0.022 A 
BRANCH  79  82
ATOM     82  S   UNL A   1      42.226  22.389  26.230  1.00  0.00     0.127 S 
ATOM     83  O   UNL A   1      42.756  21.819  27.465  1.00  0.00    -0.237 OA
ATOM     84  O   UNL A   1      40.766  22.396  26.129  1.00  0.00    -0.237 OA
ATOM     85  O   UNL A   1      42.912  21.994  25.008  1.00  0.00    -0.744 OA
ENDBRANCH  79  82
ENDBRANCH  51  75
BRANCH  63  86
ATOM     86  C   UNL A   1      44.653  27.168  34.256  1.00  0.00     0.023 A 
ATOM     87  C   UNL A   1      45.869  27.871  34.357  1.00  0.00     0.012 A 
ATOM     88  C   UNL A   1      44.492  25.958  34.961  1.00  0.00     0.148 A 
ATOM     89  C   UNL A   1      46.921  27.359  35.115  1.00  0.00     0.002 A 
ATOM     90  C   UNL A   1      45.524  25.484  35.760  1.00  0.00     0.091 A 
ATOM     91  F   UNL A   1      43.331  25.296  34.839  1.00  0.00    -0.205 F 
ATOM     92  C   UNL A   1      46.744  26.174  35.826  1.00  0.00     0.022 A 
BRANCH  90  93
ATOM     93  S   UNL A   1      45.350  24.024  36.792  1.00  0.00     0.127 S 
ATOM     94  O   UNL A   1      44.569  23.141  35.926  1.00  0.00    -0.237 OA
ATOM     95  O   UNL A   1      46.741  23.617  36.984  1.00  0.00    -0.237 OA
ATOM     96  O   UNL A   1      44.673  24.464  38.004  1.00  0.00    -0.744 OA
ENDBRANCH  90  93
ENDBRANCH  63  86
ENDBRANCH  37  38
ENDBRANCH  29  32
ENDBRANCH  27  28
ENDBRANCH   1  27
TORSDOF 17
ENDMDL
