MODEL 1
REMARK VINA RESULT:     -11.5      0.000      0.000
REMARK SMILES C[N@H+](C[C@H]1CCC[N@H+]1C)C[C@]([NH3+])(C(=O)NCCCCNC(=O)c1ccc(-c2c3nc(c(-c4cccc(S(=O)(=O)[O-])c4F)c4ccc([nH]4)c(-c4cccc(S(=O)(=O)[O-])c4F)c4nc(c(-c5cccc(S(=O)(=O)[O-])c5F)c5ccc2[nH]5)C=C4)C=C3)cc1)c1ccccc1
REMARK SMILES IDX 17 1 16 2 15 3 13 4 14 5 11 7 10 8 2 9 1 10 3 12 4 13 5 14
REMARK SMILES IDX 8 15 6 16 7 17 9 18 86 20 87 21 91 22 88 23 90 24 89 25
REMARK SMILES IDX 12 26 18 30 19 31 20 32 21 33 22 35 23 36 24 37 85 38 25 39
REMARK SMILES IDX 84 40 26 41 27 42 28 43 78 44 29 45 83 46 77 47 79 48 30 49
REMARK SMILES IDX 82 50 76 51 75 52 31 54 63 55 43 56 62 57 44 58 47 59 61 60
REMARK SMILES IDX 80 61 45 62 46 63 60 65 81 66 48 67 32 68 33 69 41 70 34 71
REMARK SMILES IDX 36 72 42 73 35 74 37 75 38 76 39 77 40 78 64 79 65 80 73 81
REMARK SMILES IDX 66 82 68 83 74 84 67 85 69 86 70 87 71 88 72 89 49 90 50 91
REMARK SMILES IDX 58 92 51 93 53 94 59 95 52 96 54 97 55 98 56 99 57 100
REMARK H PARENT 15 6 2 11 8 19 12 27 12 28 12 29 20 34 79 53 47 64
REMARK Flexibility Score: inf
ROOT
ATOM      1  C   UNL A   1      35.741  21.949  24.067  1.00  0.00     0.023 C 
ENDROOT
BRANCH   1   2
ATOM      2  C   UNL A   1      35.265  23.372  24.379  1.00  0.00     0.116 C 
BRANCH   2   3
ATOM      3  N   UNL A   1      34.787  23.642  25.728  1.00  0.00    -0.350 N 
ATOM      4  C   UNL A   1      33.695  23.137  26.423  1.00  0.00     0.292 C 
ATOM      5  O   UNL A   1      33.882  22.945  27.629  1.00  0.00    -0.267 OA
ATOM      6  H   UNL A   1      35.330  24.290  26.233  1.00  0.00     0.163 HD
BRANCH   4   7
ATOM      7  C   UNL A   1      32.306  22.839  25.706  1.00  0.00     0.248 C 
BRANCH   7   8
ATOM      8  C   UNL A   1      31.862  24.127  24.885  1.00  0.00     0.347 C 
BRANCH   8   9
ATOM      9  N   UNL A   1      31.357  25.268  25.720  1.00  0.00    -0.326 N 
ATOM     10  C   UNL A   1      29.960  25.567  25.392  1.00  0.00     0.333 C 
ATOM     11  H   UNL A   1      31.414  24.951  26.688  1.00  0.00     0.348 HD
BRANCH   9  12
ATOM     12  C   UNL A   1      32.197  26.477  25.678  1.00  0.00     0.327 C 
BRANCH  12  13
ATOM     13  C   UNL A   1      31.542  27.795  26.234  1.00  0.00     0.239 C 
ATOM     14  C   UNL A   1      32.094  28.361  27.549  1.00  0.00     0.077 C 
ATOM     15  N   UNL A   1      31.762  28.990  25.391  1.00  0.00    -0.330 N 
ATOM     16  C   UNL A   1      33.259  29.275  27.160  1.00  0.00     0.068 C 
ATOM     17  C   UNL A   1      33.129  29.441  25.655  1.00  0.00     0.262 C 
ATOM     18  C   UNL A   1      31.463  28.842  23.983  1.00  0.00     0.333 C 
ATOM     19  H   UNL A   1      31.079  29.701  25.655  1.00  0.00     0.348 HD
ENDBRANCH  12  13
ENDBRANCH   9  12
ENDBRANCH   8   9
ENDBRANCH   7   8
BRANCH   7  20
ATOM     20  C   UNL A   1      32.254  21.583  24.768  1.00  0.00     0.028 A 
ATOM     21  C   UNL A   1      32.080  21.644  23.379  1.00  0.00     0.011 A 
ATOM     22  C   UNL A   1      32.535  20.296  25.297  1.00  0.00     0.011 A 
ATOM     23  C   UNL A   1      32.125  20.484  22.588  1.00  0.00     0.001 A 
ATOM     24  C   UNL A   1      32.579  19.140  24.518  1.00  0.00     0.001 A 
ATOM     25  C   UNL A   1      32.365  19.234  23.155  1.00  0.00     0.000 A 
ENDBRANCH   7  20
BRANCH   7  26
ATOM     26  N   UNL A   1      31.370  22.509  26.798  1.00  0.00    -0.336 N 
ATOM     27  H   UNL A   1      31.525  23.143  27.582  1.00  0.00     0.345 HD
ATOM     28  H   UNL A   1      31.528  21.547  27.101  1.00  0.00     0.345 HD
ATOM     29  H   UNL A   1      30.411  22.608  26.466  1.00  0.00     0.345 HD
ENDBRANCH   7  26
ENDBRANCH   4   7
ENDBRANCH   2   3
ENDBRANCH   1   2
BRANCH   1  30
ATOM     30  C   UNL A   1      36.590  21.234  25.108  1.00  0.00     0.023 C 
BRANCH  30  31
ATOM     31  C   UNL A   1      38.017  21.725  25.267  1.00  0.00     0.116 C 
BRANCH  31  32
ATOM     32  N   UNL A   1      38.973  20.722  25.724  1.00  0.00    -0.352 N 
ATOM     33  C   UNL A   1      40.043  20.913  26.574  1.00  0.00     0.251 C 
ATOM     34  H   UNL A   1      38.840  19.806  25.387  1.00  0.00     0.163 HD
ATOM     35  O   UNL A   1      40.797  19.984  26.850  1.00  0.00    -0.269 OA
BRANCH  33  36
ATOM     36  C   UNL A   1      40.296  22.272  27.101  1.00  0.00     0.039 A 
ATOM     37  C   UNL A   1      41.279  22.458  28.075  1.00  0.00     0.014 A 
ATOM     38  C   UNL A   1      39.644  23.371  26.538  1.00  0.00     0.014 A 
ATOM     39  C   UNL A   1      41.678  23.755  28.411  1.00  0.00     0.010 A 
ATOM     40  C   UNL A   1      40.119  24.650  26.791  1.00  0.00     0.010 A 
ATOM     41  C   UNL A   1      41.137  24.860  27.733  1.00  0.00    -0.014 A 
BRANCH  41  42
ATOM     42  C   UNL A   1      41.606  26.248  27.982  1.00  0.00     0.031 A 
ATOM     43  C   UNL A   1      43.011  26.640  27.599  1.00  0.00     0.074 A 
ATOM     44  C   UNL A   1      40.825  27.116  28.658  1.00  0.00     0.049 A 
ATOM     45  N   UNL A   1      43.652  27.753  27.838  1.00  0.00    -0.248 NA
ATOM     46  C   UNL A   1      43.815  25.625  26.897  1.00  0.00     0.031 C 
ATOM     47  C   UNL A   1      39.483  26.829  29.172  1.00  0.00     0.029 A 
ATOM     48  N   UNL A   1      41.061  28.408  29.058  1.00  0.00    -0.354 N 
ATOM     49  C   UNL A   1      44.944  27.553  27.367  1.00  0.00     0.074 A 
ATOM     50  C   UNL A   1      45.009  26.197  26.871  1.00  0.00     0.031 C 
ATOM     51  C   UNL A   1      39.013  27.915  29.808  1.00  0.00     0.029 A 
ATOM     52  C   UNL A   1      40.026  28.964  29.774  1.00  0.00     0.049 A 
ATOM     53  H   UNL A   1      41.893  28.892  28.851  1.00  0.00     0.167 HD
ATOM     54  C   UNL A   1      45.975  28.428  27.313  1.00  0.00     0.034 A 
ATOM     55  C   UNL A   1      39.908  30.181  30.342  1.00  0.00     0.034 A 
ATOM     56  C   UNL A   1      45.882  29.799  27.735  1.00  0.00     0.049 A 
ATOM     57  C   UNL A   1      41.039  31.166  30.194  1.00  0.00     0.074 A 
ATOM     58  C   UNL A   1      46.830  30.800  27.622  1.00  0.00     0.029 A 
ATOM     59  N   UNL A   1      44.773  30.362  28.346  1.00  0.00    -0.354 N 
ATOM     60  N   UNL A   1      42.195  31.010  29.596  1.00  0.00    -0.248 NA
ATOM     61  C   UNL A   1      40.835  32.505  30.766  1.00  0.00     0.031 C 
ATOM     62  C   UNL A   1      46.295  31.968  28.175  1.00  0.00     0.029 A 
ATOM     63  C   UNL A   1      45.010  31.698  28.617  1.00  0.00     0.049 A 
ATOM     64  H   UNL A   1      43.940  29.882  28.557  1.00  0.00     0.167 HD
ATOM     65  C   UNL A   1      42.839  32.239  29.687  1.00  0.00     0.074 A 
ATOM     66  C   UNL A   1      41.936  33.134  30.379  1.00  0.00     0.031 C 
ATOM     67  C   UNL A   1      44.075  32.590  29.250  1.00  0.00     0.034 A 
BRANCH  54  68
ATOM     68  C   UNL A   1      47.268  27.946  26.711  1.00  0.00     0.023 A 
ATOM     69  C   UNL A   1      48.317  27.531  27.559  1.00  0.00     0.012 A 
ATOM     70  C   UNL A   1      47.437  27.866  25.315  1.00  0.00     0.148 A 
ATOM     71  C   UNL A   1      49.527  27.087  27.030  1.00  0.00     0.002 A 
ATOM     72  C   UNL A   1      48.630  27.378  24.794  1.00  0.00     0.091 A 
ATOM     73  F   UNL A   1      46.439  28.285  24.524  1.00  0.00    -0.205 F 
ATOM     74  C   UNL A   1      49.680  27.002  25.649  1.00  0.00     0.022 A 
BRANCH  72  75
ATOM     75  S   UNL A   1      48.897  27.151  23.032  1.00  0.00     0.127 S 
ATOM     76  O   UNL A   1      48.227  25.873  22.795  1.00  0.00    -0.237 OA
ATOM     77  O   UNL A   1      48.213  28.313  22.465  1.00  0.00    -0.237 OA
ATOM     78  O   UNL A   1      50.341  27.146  22.844  1.00  0.00    -0.744 OA
ENDBRANCH  72  75
ENDBRANCH  54  68
BRANCH  55  79
ATOM     79  C   UNL A   1      38.641  30.570  31.024  1.00  0.00     0.023 A 
ATOM     80  C   UNL A   1      38.473  30.262  32.389  1.00  0.00     0.012 A 
ATOM     81  C   UNL A   1      37.618  31.261  30.348  1.00  0.00     0.148 A 
ATOM     82  C   UNL A   1      37.299  30.605  33.060  1.00  0.00     0.002 A 
ATOM     83  C   UNL A   1      36.471  31.647  31.035  1.00  0.00     0.091 A 
ATOM     84  F   UNL A   1      37.790  31.537  29.048  1.00  0.00    -0.205 F 
ATOM     85  C   UNL A   1      36.303  31.306  32.386  1.00  0.00     0.022 A 
BRANCH  83  86
ATOM     86  S   UNL A   1      35.193  32.664  30.286  1.00  0.00     0.127 S 
ATOM     87  O   UNL A   1      35.948  33.849  29.890  1.00  0.00    -0.237 OA
ATOM     88  O   UNL A   1      34.745  31.819  29.178  1.00  0.00    -0.237 OA
ATOM     89  O   UNL A   1      34.194  32.865  31.327  1.00  0.00    -0.744 OA
ENDBRANCH  83  86
ENDBRANCH  55  79
BRANCH  67  90
ATOM     90  C   UNL A   1      44.517  34.012  29.468  1.00  0.00     0.023 A 
ATOM     91  C   UNL A   1      45.099  34.384  30.696  1.00  0.00     0.012 A 
ATOM     92  C   UNL A   1      44.437  34.956  28.425  1.00  0.00     0.148 A 
ATOM     93  C   UNL A   1      45.571  35.681  30.891  1.00  0.00     0.002 A 
ATOM     94  C   UNL A   1      44.953  36.233  28.611  1.00  0.00     0.091 A 
ATOM     95  F   UNL A   1      43.861  34.588  27.271  1.00  0.00    -0.205 F 
ATOM     96  C   UNL A   1      45.510  36.600  29.846  1.00  0.00     0.022 A 
BRANCH  94  97
ATOM     97  S   UNL A   1      45.007  37.448  27.289  1.00  0.00     0.127 S 
ATOM     98  O   UNL A   1      45.831  36.768  26.291  1.00  0.00    -0.237 OA
ATOM     99  O   UNL A   1      43.594  37.578  26.928  1.00  0.00    -0.237 OA
ATOM    100  O   UNL A   1      45.591  38.648  27.873  1.00  0.00    -0.744 OA
ENDBRANCH  94  97
ENDBRANCH  67  90
ENDBRANCH  41  42
ENDBRANCH  33  36
ENDBRANCH  31  32
ENDBRANCH  30  31
ENDBRANCH   1  30
TORSDOF 20
ENDMDL
MODEL 2
REMARK VINA RESULT:     -11.5      5.048     10.091
REMARK SMILES C[N@H+](C[C@H]1CCC[N@H+]1C)C[C@]([NH3+])(C(=O)NCCCCNC(=O)c1ccc(-c2c3nc(c(-c4cccc(S(=O)(=O)[O-])c4F)c4ccc([nH]4)c(-c4cccc(S(=O)(=O)[O-])c4F)c4nc(c(-c5cccc(S(=O)(=O)[O-])c5F)c5ccc2[nH]5)C=C4)C=C3)cc1)c1ccccc1
REMARK SMILES IDX 17 1 16 2 15 3 13 4 14 5 11 7 10 8 2 9 1 10 3 12 4 13 5 14
REMARK SMILES IDX 8 15 6 16 7 17 9 18 86 20 87 21 91 22 88 23 90 24 89 25
REMARK SMILES IDX 12 26 18 30 19 31 20 32 21 33 22 35 23 36 24 37 85 38 25 39
REMARK SMILES IDX 84 40 26 41 27 42 28 43 78 44 29 45 83 46 77 47 79 48 30 49
REMARK SMILES IDX 82 50 76 51 75 52 31 54 63 55 43 56 62 57 44 58 47 59 61 60
REMARK SMILES IDX 80 61 45 62 46 63 60 65 81 66 48 67 32 68 33 69 41 70 34 71
REMARK SMILES IDX 36 72 42 73 35 74 37 75 38 76 39 77 40 78 64 79 65 80 73 81
REMARK SMILES IDX 66 82 68 83 74 84 67 85 69 86 70 87 71 88 72 89 49 90 50 91
REMARK SMILES IDX 58 92 51 93 53 94 59 95 52 96 54 97 55 98 56 99 57 100
REMARK H PARENT 15 6 2 11 8 19 12 27 12 28 12 29 20 34 79 53 47 64
REMARK Flexibility Score: inf
ROOT
ATOM      1  C   UNL A   1      32.192  28.238  27.542  1.00  0.00     0.023 C 
ENDROOT
BRANCH   1   2
ATOM      2  C   UNL A   1      32.197  27.068  26.552  1.00  0.00     0.116 C 
BRANCH   2   3
ATOM      3  N   UNL A   1      31.242  25.992  26.776  1.00  0.00    -0.350 N 
ATOM      4  C   UNL A   1      31.227  24.680  26.317  1.00  0.00     0.292 C 
ATOM      5  O   UNL A   1      30.801  23.846  27.122  1.00  0.00    -0.267 OA
ATOM      6  H   UNL A   1      30.479  26.233  27.350  1.00  0.00     0.163 HD
BRANCH   4   7
ATOM      7  C   UNL A   1      31.721  24.296  24.854  1.00  0.00     0.248 C 
BRANCH   7   8
ATOM      8  C   UNL A   1      31.947  25.630  24.018  1.00  0.00     0.347 C 
BRANCH   8   9
ATOM      9  N   UNL A   1      30.838  25.978  23.067  1.00  0.00    -0.326 N 
ATOM     10  C   UNL A   1      31.352  26.096  21.699  1.00  0.00     0.333 C 
ATOM     11  H   UNL A   1      30.179  25.202  23.112  1.00  0.00     0.348 HD
BRANCH   9  12
ATOM     12  C   UNL A   1      30.046  27.158  23.455  1.00  0.00     0.327 C 
BRANCH  12  13
ATOM     13  C   UNL A   1      30.039  28.354  22.433  1.00  0.00     0.239 C 
ATOM     14  C   UNL A   1      28.722  29.118  22.244  1.00  0.00     0.077 C 
ATOM     15  N   UNL A   1      30.884  29.502  22.828  1.00  0.00    -0.330 N 
ATOM     16  C   UNL A   1      28.714  30.217  23.310  1.00  0.00     0.068 C 
ATOM     17  C   UNL A   1      30.136  30.239  23.847  1.00  0.00     0.262 C 
ATOM     18  C   UNL A   1      32.241  29.190  23.220  1.00  0.00     0.333 C 
ATOM     19  H   UNL A   1      31.053  30.077  22.003  1.00  0.00     0.348 HD
ENDBRANCH  12  13
ENDBRANCH   9  12
ENDBRANCH   8   9
ENDBRANCH   7   8
BRANCH   7  20
ATOM     20  C   UNL A   1      33.005  23.400  24.756  1.00  0.00     0.028 A 
ATOM     21  C   UNL A   1      33.033  22.031  25.047  1.00  0.00     0.011 A 
ATOM     22  C   UNL A   1      34.200  23.938  24.210  1.00  0.00     0.011 A 
ATOM     23  C   UNL A   1      34.200  21.271  24.859  1.00  0.00     0.001 A 
ATOM     24  C   UNL A   1      35.362  23.191  24.023  1.00  0.00     0.001 A 
ATOM     25  C   UNL A   1      35.364  21.849  24.357  1.00  0.00     0.000 A 
ENDBRANCH   7  20
BRANCH   7  26
ATOM     26  N   UNL A   1      30.650  23.449  24.295  1.00  0.00    -0.336 N 
ATOM     27  H   UNL A   1      30.250  23.903  23.474  1.00  0.00     0.345 HD
ATOM     28  H   UNL A   1      29.922  23.314  24.998  1.00  0.00     0.345 HD
ATOM     29  H   UNL A   1      31.037  22.543  24.028  1.00  0.00     0.345 HD
ENDBRANCH   7  26
ENDBRANCH   4   7
ENDBRANCH   2   3
ENDBRANCH   1   2
BRANCH   1  30
ATOM     30  C   UNL A   1      31.716  29.595  27.045  1.00  0.00     0.023 C 
BRANCH  30  31
ATOM     31  C   UNL A   1      32.785  30.530  26.511  1.00  0.00     0.116 C 
BRANCH  31  32
ATOM     32  N   UNL A   1      32.686  31.913  26.965  1.00  0.00    -0.352 N 
ATOM     33  C   UNL A   1      33.629  32.631  27.671  1.00  0.00     0.251 C 
ATOM     34  H   UNL A   1      31.852  32.387  26.742  1.00  0.00     0.163 HD
ATOM     35  O   UNL A   1      33.401  33.785  28.027  1.00  0.00    -0.269 OA
BRANCH  33  36
ATOM     36  C   UNL A   1      34.896  31.964  28.042  1.00  0.00     0.039 A 
ATOM     37  C   UNL A   1      36.060  32.726  28.169  1.00  0.00     0.014 A 
ATOM     38  C   UNL A   1      34.898  30.611  28.383  1.00  0.00     0.014 A 
ATOM     39  C   UNL A   1      37.201  32.148  28.733  1.00  0.00     0.010 A 
ATOM     40  C   UNL A   1      35.994  30.074  29.044  1.00  0.00     0.010 A 
ATOM     41  C   UNL A   1      37.161  30.833  29.224  1.00  0.00    -0.014 A 
BRANCH  41  42
ATOM     42  C   UNL A   1      38.316  30.214  29.925  1.00  0.00     0.031 A 
ATOM     43  C   UNL A   1      38.650  30.643  31.331  1.00  0.00     0.074 A 
ATOM     44  C   UNL A   1      39.132  29.366  29.267  1.00  0.00     0.049 A 
ATOM     45  N   UNL A   1      39.677  30.321  32.071  1.00  0.00    -0.248 NA
ATOM     46  C   UNL A   1      37.730  31.600  31.970  1.00  0.00     0.031 C 
ATOM     47  C   UNL A   1      38.976  28.946  27.872  1.00  0.00     0.029 A 
ATOM     48  N   UNL A   1      40.278  28.729  29.676  1.00  0.00    -0.354 N 
ATOM     49  C   UNL A   1      39.557  31.073  33.233  1.00  0.00     0.074 A 
ATOM     50  C   UNL A   1      38.383  31.902  33.082  1.00  0.00     0.031 C 
ATOM     51  C   UNL A   1      39.981  28.116  27.546  1.00  0.00     0.029 A 
ATOM     52  C   UNL A   1      40.868  27.965  28.694  1.00  0.00     0.049 A 
ATOM     53  H   UNL A   1      40.644  28.811  30.587  1.00  0.00     0.167 HD
ATOM     54  C   UNL A   1      40.328  31.050  34.345  1.00  0.00     0.034 A 
ATOM     55  C   UNL A   1      41.997  27.229  28.718  1.00  0.00     0.034 A 
ATOM     56  C   UNL A   1      41.448  30.167  34.523  1.00  0.00     0.049 A 
ATOM     57  C   UNL A   1      42.791  27.155  29.996  1.00  0.00     0.074 A 
ATOM     58  C   UNL A   1      42.228  29.983  35.650  1.00  0.00     0.029 A 
ATOM     59  N   UNL A   1      41.943  29.316  33.547  1.00  0.00    -0.354 N 
ATOM     60  N   UNL A   1      42.566  27.748  31.143  1.00  0.00    -0.248 NA
ATOM     61  C   UNL A   1      43.974  26.280  29.995  1.00  0.00     0.031 C 
ATOM     62  C   UNL A   1      43.203  29.026  35.351  1.00  0.00     0.029 A 
ATOM     63  C   UNL A   1      43.019  28.602  34.045  1.00  0.00     0.049 A 
ATOM     64  H   UNL A   1      41.582  29.232  32.635  1.00  0.00     0.167 HD
ATOM     65  C   UNL A   1      43.553  27.292  32.009  1.00  0.00     0.074 A 
ATOM     66  C   UNL A   1      44.366  26.356  31.259  1.00  0.00     0.031 C 
ATOM     67  C   UNL A   1      43.777  27.629  33.304  1.00  0.00     0.034 A 
BRANCH  54  68
ATOM     68  C   UNL A   1      39.939  31.958  35.482  1.00  0.00     0.023 A 
ATOM     69  C   UNL A   1      40.542  33.228  35.594  1.00  0.00     0.012 A 
ATOM     70  C   UNL A   1      38.956  31.576  36.416  1.00  0.00     0.148 A 
ATOM     71  C   UNL A   1      40.207  34.086  36.640  1.00  0.00     0.002 A 
ATOM     72  C   UNL A   1      38.593  32.456  37.429  1.00  0.00     0.091 A 
ATOM     73  F   UNL A   1      38.410  30.357  36.308  1.00  0.00    -0.205 F 
ATOM     74  C   UNL A   1      39.227  33.704  37.550  1.00  0.00     0.022 A 
BRANCH  72  75
ATOM     75  S   UNL A   1      37.284  32.093  38.604  1.00  0.00     0.127 S 
ATOM     76  O   UNL A   1      37.878  32.556  39.858  1.00  0.00    -0.237 OA
ATOM     77  O   UNL A   1      36.185  32.920  38.108  1.00  0.00    -0.237 OA
ATOM     78  O   UNL A   1      37.053  30.658  38.515  1.00  0.00    -0.744 OA
ENDBRANCH  72  75
ENDBRANCH  54  68
BRANCH  55  79
ATOM     79  C   UNL A   1      42.396  26.432  27.523  1.00  0.00     0.023 A 
ATOM     80  C   UNL A   1      43.144  27.053  26.503  1.00  0.00     0.012 A 
ATOM     81  C   UNL A   1      42.069  25.069  27.399  1.00  0.00     0.148 A 
ATOM     82  C   UNL A   1      43.532  26.341  25.367  1.00  0.00     0.002 A 
ATOM     83  C   UNL A   1      42.503  24.351  26.289  1.00  0.00     0.091 A 
ATOM     84  F   UNL A   1      41.348  24.497  28.373  1.00  0.00    -0.205 F 
ATOM     85  C   UNL A   1      43.219  24.988  25.265  1.00  0.00     0.022 A 
BRANCH  83  86
ATOM     86  S   UNL A   1      42.259  22.577  26.131  1.00  0.00     0.127 S 
ATOM     87  O   UNL A   1      40.803  22.473  26.136  1.00  0.00    -0.237 OA
ATOM     88  O   UNL A   1      42.894  22.297  24.843  1.00  0.00    -0.237 OA
ATOM     89  O   UNL A   1      42.941  21.987  27.275  1.00  0.00    -0.744 OA
ENDBRANCH  83  86
ENDBRANCH  55  79
BRANCH  67  90
ATOM     90  C   UNL A   1      44.922  26.958  34.014  1.00  0.00     0.023 A 
ATOM     91  C   UNL A   1      46.213  27.517  33.944  1.00  0.00     0.012 A 
ATOM     92  C   UNL A   1      44.699  25.827  34.823  1.00  0.00     0.148 A 
ATOM     93  C   UNL A   1      47.271  26.944  34.649  1.00  0.00     0.002 A 
ATOM     94  C   UNL A   1      45.748  25.290  35.560  1.00  0.00     0.091 A 
ATOM     95  F   UNL A   1      43.467  25.298  34.861  1.00  0.00    -0.205 F 
ATOM     96  C   UNL A   1      47.036  25.840  35.465  1.00  0.00     0.022 A 
BRANCH  94  97
ATOM     97  S   UNL A   1      45.515  23.932  36.713  1.00  0.00     0.127 S 
ATOM     98  O   UNL A   1      45.024  22.873  35.832  1.00  0.00    -0.237 OA
ATOM     99  O   UNL A   1      46.871  23.721  37.224  1.00  0.00    -0.237 OA
ATOM    100  O   UNL A   1      44.565  24.411  37.708  1.00  0.00    -0.744 OA
ENDBRANCH  94  97
ENDBRANCH  67  90
ENDBRANCH  41  42
ENDBRANCH  33  36
ENDBRANCH  31  32
ENDBRANCH  30  31
ENDBRANCH   1  30
TORSDOF 20
ENDMDL
MODEL 3
REMARK VINA RESULT:     -11.3      4.925     10.296
REMARK SMILES C[N@H+](C[C@H]1CCC[N@H+]1C)C[C@]([NH3+])(C(=O)NCCCCNC(=O)c1ccc(-c2c3nc(c(-c4cccc(S(=O)(=O)[O-])c4F)c4ccc([nH]4)c(-c4cccc(S(=O)(=O)[O-])c4F)c4nc(c(-c5cccc(S(=O)(=O)[O-])c5F)c5ccc2[nH]5)C=C4)C=C3)cc1)c1ccccc1
REMARK SMILES IDX 17 1 16 2 15 3 13 4 14 5 11 7 10 8 2 9 1 10 3 12 4 13 5 14
REMARK SMILES IDX 8 15 6 16 7 17 9 18 86 20 87 21 91 22 88 23 90 24 89 25
REMARK SMILES IDX 12 26 18 30 19 31 20 32 21 33 22 35 23 36 24 37 85 38 25 39
REMARK SMILES IDX 84 40 26 41 27 42 28 43 78 44 29 45 83 46 77 47 79 48 30 49
REMARK SMILES IDX 82 50 76 51 75 52 31 54 63 55 43 56 62 57 44 58 47 59 61 60
REMARK SMILES IDX 80 61 45 62 46 63 60 65 81 66 48 67 32 68 33 69 41 70 34 71
REMARK SMILES IDX 36 72 42 73 35 74 37 75 38 76 39 77 40 78 64 79 65 80 73 81
REMARK SMILES IDX 66 82 68 83 74 84 67 85 69 86 70 87 71 88 72 89 49 90 50 91
REMARK SMILES IDX 58 92 51 93 53 94 59 95 52 96 54 97 55 98 56 99 57 100
REMARK H PARENT 15 6 2 11 8 19 12 27 12 28 12 29 20 34 79 53 47 64
REMARK Flexibility Score: inf
ROOT
ATOM      1  C   UNL A   1      31.388  28.387  26.730  1.00  0.00     0.023 C 
ENDROOT
BRANCH   1   2
ATOM      2  C   UNL A   1      32.002  26.988  26.851  1.00  0.00     0.116 C 
BRANCH   2   3
ATOM      3  N   UNL A   1      31.099  25.848  26.782  1.00  0.00    -0.350 N 
ATOM      4  C   UNL A   1      31.357  24.493  26.609  1.00  0.00     0.292 C 
ATOM      5  O   UNL A   1      30.625  23.732  27.250  1.00  0.00    -0.267 OA
ATOM      6  H   UNL A   1      30.145  26.074  26.875  1.00  0.00     0.163 HD
BRANCH   4   7
ATOM      7  C   UNL A   1      32.513  23.974  25.647  1.00  0.00     0.248 C 
BRANCH   7   8
ATOM      8  C   UNL A   1      32.311  22.417  25.391  1.00  0.00     0.347 C 
BRANCH   8   9
ATOM      9  N   UNL A   1      33.256  21.810  24.395  1.00  0.00    -0.326 N 
ATOM     10  C   UNL A   1      32.624  20.678  23.710  1.00  0.00     0.333 C 
ATOM     11  H   UNL A   1      33.454  22.544  23.717  1.00  0.00     0.348 HD
BRANCH   9  12
ATOM     12  C   UNL A   1      34.574  21.448  24.943  1.00  0.00     0.327 C 
BRANCH  12  13
ATOM     13  C   UNL A   1      35.820  21.844  24.068  1.00  0.00     0.239 C 
ATOM     14  C   UNL A   1      36.148  23.338  23.937  1.00  0.00     0.077 C 
ATOM     15  N   UNL A   1      37.119  21.399  24.617  1.00  0.00    -0.330 N 
ATOM     16  C   UNL A   1      37.054  23.677  25.124  1.00  0.00     0.068 C 
ATOM     17  C   UNL A   1      37.457  22.328  25.696  1.00  0.00     0.262 C 
ATOM     18  C   UNL A   1      37.206  20.008  25.004  1.00  0.00     0.333 C 
ATOM     19  H   UNL A   1      37.813  21.430  23.869  1.00  0.00     0.348 HD
ENDBRANCH  12  13
ENDBRANCH   9  12
ENDBRANCH   8   9
ENDBRANCH   7   8
BRANCH   7  20
ATOM     20  C   UNL A   1      32.667  24.709  24.271  1.00  0.00     0.028 A 
ATOM     21  C   UNL A   1      31.877  24.446  23.144  1.00  0.00     0.011 A 
ATOM     22  C   UNL A   1      33.553  25.812  24.156  1.00  0.00     0.011 A 
ATOM     23  C   UNL A   1      32.014  25.199  21.966  1.00  0.00     0.001 A 
ATOM     24  C   UNL A   1      33.696  26.564  22.990  1.00  0.00     0.001 A 
ATOM     25  C   UNL A   1      32.926  26.251  21.885  1.00  0.00     0.000 A 
ENDBRANCH   7  20
BRANCH   7  26
ATOM     26  N   UNL A   1      33.771  24.276  26.357  1.00  0.00    -0.336 N 
ATOM     27  H   UNL A   1      33.928  25.284  26.358  1.00  0.00     0.345 HD
ATOM     28  H   UNL A   1      34.547  23.811  25.884  1.00  0.00     0.345 HD
ATOM     29  H   UNL A   1      33.708  23.941  27.318  1.00  0.00     0.345 HD
ENDBRANCH   7  26
ENDBRANCH   4   7
ENDBRANCH   2   3
ENDBRANCH   1   2
BRANCH   1  30
ATOM     30  C   UNL A   1      31.987  29.347  25.712  1.00  0.00     0.023 C 
BRANCH  30  31
ATOM     31  C   UNL A   1      33.240  30.089  26.141  1.00  0.00     0.116 C 
BRANCH  31  32
ATOM     32  N   UNL A   1      33.010  31.392  26.756  1.00  0.00    -0.352 N 
ATOM     33  C   UNL A   1      33.844  32.064  27.626  1.00  0.00     0.251 C 
ATOM     34  H   UNL A   1      32.166  31.842  26.524  1.00  0.00     0.163 HD
ATOM     35  O   UNL A   1      33.511  33.146  28.103  1.00  0.00    -0.269 OA
BRANCH  33  36
ATOM     36  C   UNL A   1      35.122  31.428  28.017  1.00  0.00     0.039 A 
ATOM     37  C   UNL A   1      36.272  32.212  28.129  1.00  0.00     0.014 A 
ATOM     38  C   UNL A   1      35.145  30.084  28.392  1.00  0.00     0.014 A 
ATOM     39  C   UNL A   1      37.421  31.669  28.712  1.00  0.00     0.010 A 
ATOM     40  C   UNL A   1      36.248  29.582  29.069  1.00  0.00     0.010 A 
ATOM     41  C   UNL A   1      37.401  30.365  29.234  1.00  0.00    -0.014 A 
BRANCH  41  42
ATOM     42  C   UNL A   1      38.564  29.784  29.955  1.00  0.00     0.031 A 
ATOM     43  C   UNL A   1      38.912  30.286  31.333  1.00  0.00     0.074 A 
ATOM     44  C   UNL A   1      39.374  28.903  29.333  1.00  0.00     0.049 A 
ATOM     45  N   UNL A   1      39.947  30.002  32.077  1.00  0.00    -0.248 NA
ATOM     46  C   UNL A   1      37.998  31.274  31.931  1.00  0.00     0.031 C 
ATOM     47  C   UNL A   1      39.204  28.412  27.963  1.00  0.00     0.029 A 
ATOM     48  N   UNL A   1      40.524  28.289  29.762  1.00  0.00    -0.354 N 
ATOM     49  C   UNL A   1      39.839  30.814  33.201  1.00  0.00     0.074 A 
ATOM     50  C   UNL A   1      38.662  31.633  33.019  1.00  0.00     0.031 C 
ATOM     51  C   UNL A   1      40.206  27.566  27.670  1.00  0.00     0.029 A 
ATOM     52  C   UNL A   1      41.104  27.475  28.815  1.00  0.00     0.049 A 
ATOM     53  H   UNL A   1      40.899  28.417  30.663  1.00  0.00     0.167 HD
ATOM     54  C   UNL A   1      40.621  30.848  34.304  1.00  0.00     0.034 A 
ATOM     55  C   UNL A   1      42.234  26.741  28.865  1.00  0.00     0.034 A 
ATOM     56  C   UNL A   1      41.744  29.976  34.515  1.00  0.00     0.049 A 
ATOM     57  C   UNL A   1      43.042  26.734  30.136  1.00  0.00     0.074 A 
ATOM     58  C   UNL A   1      42.536  29.850  35.642  1.00  0.00     0.029 A 
ATOM     59  N   UNL A   1      42.229  29.076  33.580  1.00  0.00    -0.354 N 
ATOM     60  N   UNL A   1      42.828  27.385  31.254  1.00  0.00    -0.248 NA
ATOM     61  C   UNL A   1      44.225  25.861  30.169  1.00  0.00     0.031 C 
ATOM     62  C   UNL A   1      43.508  28.879  35.383  1.00  0.00     0.029 A 
ATOM     63  C   UNL A   1      43.310  28.389  34.103  1.00  0.00     0.049 A 
ATOM     64  H   UNL A   1      41.859  28.944  32.677  1.00  0.00     0.167 HD
ATOM     65  C   UNL A   1      43.825  26.975  32.131  1.00  0.00     0.074 A 
ATOM     66  C   UNL A   1      44.631  26.002  31.423  1.00  0.00     0.031 C 
ATOM     67  C   UNL A   1      44.062  27.378  33.405  1.00  0.00     0.034 A 
BRANCH  54  68
ATOM     68  C   UNL A   1      40.243  31.813  35.397  1.00  0.00     0.023 A 
ATOM     69  C   UNL A   1      40.958  33.022  35.534  1.00  0.00     0.012 A 
ATOM     70  C   UNL A   1      39.164  31.549  36.262  1.00  0.00     0.148 A 
ATOM     71  C   UNL A   1      40.636  33.930  36.540  1.00  0.00     0.002 A 
ATOM     72  C   UNL A   1      38.818  32.481  37.233  1.00  0.00     0.091 A 
ATOM     73  F   UNL A   1      38.510  30.386  36.132  1.00  0.00    -0.205 F 
ATOM     74  C   UNL A   1      39.561  33.664  37.383  1.00  0.00     0.022 A 
BRANCH  72  75
ATOM     75  S   UNL A   1      37.399  32.271  38.315  1.00  0.00     0.127 S 
ATOM     76  O   UNL A   1      36.381  33.060  37.622  1.00  0.00    -0.237 OA
ATOM     77  O   UNL A   1      37.186  30.825  38.268  1.00  0.00    -0.237 OA
ATOM     78  O   UNL A   1      37.809  32.781  39.616  1.00  0.00    -0.744 OA
ENDBRANCH  72  75
ENDBRANCH  54  68
BRANCH  55  79
ATOM     79  C   UNL A   1      42.621  25.884  27.708  1.00  0.00     0.023 A 
ATOM     80  C   UNL A   1      43.490  26.405  26.728  1.00  0.00     0.012 A 
ATOM     81  C   UNL A   1      42.164  24.559  27.583  1.00  0.00     0.148 A 
ATOM     82  C   UNL A   1      43.871  25.634  25.629  1.00  0.00     0.002 A 
ATOM     83  C   UNL A   1      42.589  23.778  26.513  1.00  0.00     0.091 A 
ATOM     84  F   UNL A   1      41.331  24.083  28.519  1.00  0.00    -0.205 F 
ATOM     85  C   UNL A   1      43.428  24.318  25.527  1.00  0.00     0.022 A 
BRANCH  83  86
ATOM     86  S   UNL A   1      42.175  22.036  26.366  1.00  0.00     0.127 S 
ATOM     87  O   UNL A   1      42.958  21.639  25.199  1.00  0.00    -0.237 OA
ATOM     88  O   UNL A   1      42.656  21.501  27.641  1.00  0.00    -0.237 OA
ATOM     89  O   UNL A   1      40.728  21.990  26.204  1.00  0.00    -0.744 OA
ENDBRANCH  83  86
ENDBRANCH  55  79
BRANCH  67  90
ATOM     90  C   UNL A   1      45.214  26.746  34.137  1.00  0.00     0.023 A 
ATOM     91  C   UNL A   1      46.488  27.346  34.089  1.00  0.00     0.012 A 
ATOM     92  C   UNL A   1      45.013  25.609  34.944  1.00  0.00     0.148 A 
ATOM     93  C   UNL A   1      47.551  26.808  34.814  1.00  0.00     0.002 A 
ATOM     94  C   UNL A   1      46.066  25.107  35.701  1.00  0.00     0.091 A 
ATOM     95  F   UNL A   1      43.799  25.041  34.961  1.00  0.00    -0.205 F 
ATOM     96  C   UNL A   1      47.337  25.698  35.628  1.00  0.00     0.022 A 
BRANCH  94  97
ATOM     97  S   UNL A   1      45.856  23.743  36.852  1.00  0.00     0.127 S 
ATOM     98  O   UNL A   1      45.366  22.683  35.973  1.00  0.00    -0.237 OA
ATOM     99  O   UNL A   1      47.218  23.543  37.349  1.00  0.00    -0.237 OA
ATOM    100  O   UNL A   1      44.911  24.211  37.857  1.00  0.00    -0.744 OA
ENDBRANCH  94  97
ENDBRANCH  67  90
ENDBRANCH  41  42
ENDBRANCH  33  36
ENDBRANCH  31  32
ENDBRANCH  30  31
ENDBRANCH   1  30
TORSDOF 20
ENDMDL
