MODEL 1
REMARK VINA RESULT:     -11.8      0.000      0.000
REMARK SMILES Cc1nn(CC(=O)NCCCCNC(=O)c2ccc(-c3c4nc(c(-c5cccc(S(=O)(=O)[O-])c5F)c5ccc([nH]5)c(-c5cccc(S(=O)(=O)[O-])c5F)c5nc(c(-c6cccc(S(=O)(=O)[O-])c6F)c6ccc3[nH]6)C=C5)C=C4)cc2)c(C)c1NS(=O)(=O)c1cccc2cccnc12
REMARK SMILES IDX 10 1 9 2 8 3 6 4 7 5 5 7 4 8 1 9 2 10 3 11 81 12 79 13 80 14
REMARK SMILES IDX 82 15 83 17 84 18 85 19 86 20 87 21 95 22 88 23 90 24 94 25
REMARK SMILES IDX 89 26 91 27 93 28 92 29 11 30 12 31 13 32 14 33 15 35 16 36
REMARK SMILES IDX 17 37 78 38 18 39 77 40 19 41 20 42 21 43 71 44 22 45 76 46
REMARK SMILES IDX 70 47 72 48 23 49 75 50 69 51 68 52 24 54 56 55 36 56 55 57
REMARK SMILES IDX 37 58 40 59 54 60 73 61 38 62 39 63 53 65 74 66 41 67 25 68
REMARK SMILES IDX 26 69 34 70 27 71 29 72 35 73 28 74 30 75 31 76 32 77 33 78
REMARK SMILES IDX 57 79 58 80 66 81 59 82 61 83 67 84 60 85 62 86 63 87 64 88
REMARK SMILES IDX 65 89 42 90 43 91 51 92 44 93 46 94 52 95 45 96 47 97 48 98
REMARK SMILES IDX 49 99 50 100
REMARK H PARENT 8 6 82 16 13 34 72 53 40 64
REMARK Flexibility Score: inf
ROOT
ATOM      1  C   UNL A   1      39.323  21.758  26.109  1.00  0.00     0.023 C 
ENDROOT
BRANCH   1   2
ATOM      2  C   UNL A   1      37.848  22.023  25.780  1.00  0.00     0.116 C 
BRANCH   2   3
ATOM      3  N   UNL A   1      37.573  22.309  24.380  1.00  0.00    -0.354 N 
ATOM      4  C   UNL A   1      36.578  22.969  23.720  1.00  0.00     0.241 C 
ATOM      5  O   UNL A   1      36.790  23.121  22.505  1.00  0.00    -0.273 OA
ATOM      6  H   UNL A   1      38.258  21.945  23.774  1.00  0.00     0.163 HD
BRANCH   4   7
ATOM      7  C   UNL A   1      35.324  23.637  24.294  1.00  0.00     0.244 C 
BRANCH   7   8
ATOM      8  N   UNL A   1      34.062  22.965  24.109  1.00  0.00    -0.258 N 
ATOM      9  C   UNL A   1      32.170  20.154  24.972  1.00  0.00     0.071 C 
ATOM     10  C   UNL A   1      32.677  21.505  24.647  1.00  0.00     0.084 A 
ATOM     11  N   UNL A   1      33.969  21.639  24.319  1.00  0.00    -0.175 NA
ATOM     12  C   UNL A   1      32.026  22.777  24.615  1.00  0.00     0.093 A 
ATOM     13  C   UNL A   1      32.835  23.497  23.771  1.00  0.00     0.060 A 
ATOM     14  C   UNL A   1      32.591  24.637  22.859  1.00  0.00     0.069 C 
BRANCH  12  15
ATOM     15  N   UNL A   1      30.896  23.158  25.311  1.00  0.00    -0.276 N 
ATOM     16  H   UNL A   1      30.097  22.614  25.121  1.00  0.00     0.180 HD
BRANCH  15  17
ATOM     17  S   UNL A   1      30.651  24.375  26.411  1.00  0.00     0.264 S 
ATOM     18  O   UNL A   1      29.315  24.209  26.951  1.00  0.00    -0.201 OA
ATOM     19  O   UNL A   1      31.785  24.166  27.306  1.00  0.00    -0.201 OA
BRANCH  17  20
ATOM     20  C   UNL A   1      30.813  26.097  25.955  1.00  0.00     0.114 A 
ATOM     21  C   UNL A   1      31.626  26.769  26.900  1.00  0.00     0.024 A 
ATOM     22  C   UNL A   1      30.289  26.835  24.871  1.00  0.00     0.091 A 
ATOM     23  C   UNL A   1      32.057  28.069  26.700  1.00  0.00     0.002 A 
ATOM     24  C   UNL A   1      30.950  28.060  24.573  1.00  0.00     0.002 A 
ATOM     25  N   UNL A   1      29.148  26.597  24.177  1.00  0.00    -0.255 NA
ATOM     26  C   UNL A   1      31.813  28.664  25.482  1.00  0.00     0.010 A 
ATOM     27  C   UNL A   1      30.648  28.792  23.419  1.00  0.00     0.012 A 
ATOM     28  C   UNL A   1      28.725  27.511  23.245  1.00  0.00     0.112 A 
ATOM     29  C   UNL A   1      29.476  28.543  22.755  1.00  0.00     0.021 A 
ENDBRANCH  17  20
ENDBRANCH  15  17
ENDBRANCH  12  15
ENDBRANCH   7   8
ENDBRANCH   4   7
ENDBRANCH   2   3
ENDBRANCH   1   2
BRANCH   1  30
ATOM     30  C   UNL A   1      39.919  22.545  27.283  1.00  0.00     0.023 C 
BRANCH  30  31
ATOM     31  C   UNL A   1      41.374  22.218  27.587  1.00  0.00     0.116 C 
BRANCH  31  32
ATOM     32  N   UNL A   1      42.245  22.105  26.407  1.00  0.00    -0.352 N 
ATOM     33  C   UNL A   1      42.700  23.140  25.587  1.00  0.00     0.251 C 
ATOM     34  H   UNL A   1      42.541  21.196  26.169  1.00  0.00     0.163 HD
ATOM     35  O   UNL A   1      43.180  22.931  24.494  1.00  0.00    -0.269 OA
BRANCH  33  36
ATOM     36  C   UNL A   1      42.592  24.517  26.119  1.00  0.00     0.039 A 
ATOM     37  C   UNL A   1      41.580  25.409  25.752  1.00  0.00     0.014 A 
ATOM     38  C   UNL A   1      43.516  24.854  27.095  1.00  0.00     0.014 A 
ATOM     39  C   UNL A   1      41.471  26.612  26.452  1.00  0.00     0.010 A 
ATOM     40  C   UNL A   1      43.234  25.877  27.946  1.00  0.00     0.010 A 
ATOM     41  C   UNL A   1      42.300  26.826  27.563  1.00  0.00    -0.014 A 
BRANCH  41  42
ATOM     42  C   UNL A   1      42.221  28.014  28.397  1.00  0.00     0.031 A 
ATOM     43  C   UNL A   1      43.132  29.120  28.012  1.00  0.00     0.074 A 
ATOM     44  C   UNL A   1      41.225  28.175  29.299  1.00  0.00     0.049 A 
ATOM     45  N   UNL A   1      44.166  29.535  28.663  1.00  0.00    -0.248 NA
ATOM     46  C   UNL A   1      42.965  29.750  26.695  1.00  0.00     0.031 C 
ATOM     47  C   UNL A   1      40.073  27.294  29.565  1.00  0.00     0.029 A 
ATOM     48  N   UNL A   1      40.947  29.254  30.071  1.00  0.00    -0.354 N 
ATOM     49  C   UNL A   1      44.636  30.640  27.962  1.00  0.00     0.074 A 
ATOM     50  C   UNL A   1      43.998  30.596  26.671  1.00  0.00     0.031 C 
ATOM     51  C   UNL A   1      39.111  27.987  30.210  1.00  0.00     0.029 A 
ATOM     52  C   UNL A   1      39.651  29.279  30.576  1.00  0.00     0.049 A 
ATOM     53  H   UNL A   1      41.606  29.960  30.258  1.00  0.00     0.167 HD
ATOM     54  C   UNL A   1      45.318  31.637  28.592  1.00  0.00     0.034 A 
ATOM     55  C   UNL A   1      39.055  30.311  31.215  1.00  0.00     0.034 A 
ATOM     56  C   UNL A   1      45.685  31.253  29.933  1.00  0.00     0.049 A 
ATOM     57  C   UNL A   1      40.141  31.156  31.762  1.00  0.00     0.074 A 
ATOM     58  C   UNL A   1      46.455  30.254  30.494  1.00  0.00     0.029 A 
ATOM     59  N   UNL A   1      44.881  31.723  30.946  1.00  0.00    -0.354 N 
ATOM     60  N   UNL A   1      40.978  30.730  32.667  1.00  0.00    -0.248 NA
ATOM     61  C   UNL A   1      40.597  32.282  30.965  1.00  0.00     0.031 C 
ATOM     62  C   UNL A   1      45.737  29.853  31.660  1.00  0.00     0.029 A 
ATOM     63  C   UNL A   1      44.612  30.672  31.782  1.00  0.00     0.049 A 
ATOM     64  H   UNL A   1      44.557  32.647  31.051  1.00  0.00     0.167 HD
ATOM     65  C   UNL A   1      42.214  31.203  32.243  1.00  0.00     0.074 A 
ATOM     66  C   UNL A   1      41.900  32.241  31.260  1.00  0.00     0.031 C 
ATOM     67  C   UNL A   1      43.365  30.510  32.501  1.00  0.00     0.034 A 
BRANCH  54  68
ATOM     68  C   UNL A   1      45.343  33.087  28.175  1.00  0.00     0.023 A 
ATOM     69  C   UNL A   1      46.613  33.692  28.030  1.00  0.00     0.012 A 
ATOM     70  C   UNL A   1      44.221  33.944  28.197  1.00  0.00     0.148 A 
ATOM     71  C   UNL A   1      46.761  35.082  27.970  1.00  0.00     0.002 A 
ATOM     72  C   UNL A   1      44.368  35.320  28.068  1.00  0.00     0.091 A 
ATOM     73  F   UNL A   1      43.011  33.451  28.480  1.00  0.00    -0.205 F 
ATOM     74  C   UNL A   1      45.638  35.897  27.986  1.00  0.00     0.022 A 
BRANCH  72  75
ATOM     75  S   UNL A   1      42.951  36.425  28.050  1.00  0.00     0.127 S 
ATOM     76  O   UNL A   1      42.418  36.235  29.396  1.00  0.00    -0.237 OA
ATOM     77  O   UNL A   1      43.585  37.722  27.811  1.00  0.00    -0.237 OA
ATOM     78  O   UNL A   1      42.109  35.961  26.956  1.00  0.00    -0.744 OA
ENDBRANCH  72  75
ENDBRANCH  54  68
BRANCH  55  79
ATOM     79  C   UNL A   1      37.649  30.760  31.106  1.00  0.00     0.023 A 
ATOM     80  C   UNL A   1      36.921  31.112  32.257  1.00  0.00     0.012 A 
ATOM     81  C   UNL A   1      37.105  31.095  29.844  1.00  0.00     0.148 A 
ATOM     82  C   UNL A   1      35.702  31.798  32.155  1.00  0.00     0.002 A 
ATOM     83  C   UNL A   1      35.890  31.764  29.746  1.00  0.00     0.091 A 
ATOM     84  F   UNL A   1      37.822  30.835  28.742  1.00  0.00    -0.205 F 
ATOM     85  C   UNL A   1      35.192  32.131  30.901  1.00  0.00     0.022 A 
BRANCH  83  86
ATOM     86  S   UNL A   1      35.178  32.217  28.158  1.00  0.00     0.127 S 
ATOM     87  O   UNL A   1      33.902  32.810  28.557  1.00  0.00    -0.237 OA
ATOM     88  O   UNL A   1      36.163  33.162  27.642  1.00  0.00    -0.237 OA
ATOM     89  O   UNL A   1      35.042  30.970  27.411  1.00  0.00    -0.744 OA
ENDBRANCH  83  86
ENDBRANCH  55  79
BRANCH  67  90
ATOM     90  C   UNL A   1      43.277  29.314  33.422  1.00  0.00     0.023 A 
ATOM     91  C   UNL A   1      42.869  28.041  32.966  1.00  0.00     0.012 A 
ATOM     92  C   UNL A   1      43.786  29.428  34.724  1.00  0.00     0.148 A 
ATOM     93  C   UNL A   1      42.944  26.916  33.792  1.00  0.00     0.002 A 
ATOM     94  C   UNL A   1      43.897  28.301  35.532  1.00  0.00     0.091 A 
ATOM     95  F   UNL A   1      44.189  30.637  35.140  1.00  0.00    -0.205 F 
ATOM     96  C   UNL A   1      43.469  27.044  35.074  1.00  0.00     0.022 A 
BRANCH  94  97
ATOM     97  S   UNL A   1      44.669  28.369  37.149  1.00  0.00     0.127 S 
ATOM     98  O   UNL A   1      46.035  28.770  36.818  1.00  0.00    -0.237 OA
ATOM     99  O   UNL A   1      43.878  29.396  37.829  1.00  0.00    -0.237 OA
ATOM    100  O   UNL A   1      44.532  27.035  37.719  1.00  0.00    -0.744 OA
ENDBRANCH  94  97
ENDBRANCH  67  90
ENDBRANCH  41  42
ENDBRANCH  33  36
ENDBRANCH  31  32
ENDBRANCH  30  31
ENDBRANCH   1  30
TORSDOF 18
ENDMDL
MODEL 2
REMARK VINA RESULT:     -11.4      1.513      2.326
REMARK SMILES Cc1nn(CC(=O)NCCCCNC(=O)c2ccc(-c3c4nc(c(-c5cccc(S(=O)(=O)[O-])c5F)c5ccc([nH]5)c(-c5cccc(S(=O)(=O)[O-])c5F)c5nc(c(-c6cccc(S(=O)(=O)[O-])c6F)c6ccc3[nH]6)C=C5)C=C4)cc2)c(C)c1NS(=O)(=O)c1cccc2cccnc12
REMARK SMILES IDX 10 1 9 2 8 3 6 4 7 5 5 7 4 8 1 9 2 10 3 11 81 12 79 13 80 14
REMARK SMILES IDX 82 15 83 17 84 18 85 19 86 20 87 21 95 22 88 23 90 24 94 25
REMARK SMILES IDX 89 26 91 27 93 28 92 29 11 30 12 31 13 32 14 33 15 35 16 36
REMARK SMILES IDX 17 37 78 38 18 39 77 40 19 41 20 42 21 43 71 44 22 45 76 46
REMARK SMILES IDX 70 47 72 48 23 49 75 50 69 51 68 52 24 54 56 55 36 56 55 57
REMARK SMILES IDX 37 58 40 59 54 60 73 61 38 62 39 63 53 65 74 66 41 67 25 68
REMARK SMILES IDX 26 69 34 70 27 71 29 72 35 73 28 74 30 75 31 76 32 77 33 78
REMARK SMILES IDX 57 79 58 80 66 81 59 82 61 83 67 84 60 85 62 86 63 87 64 88
REMARK SMILES IDX 65 89 42 90 43 91 51 92 44 93 46 94 52 95 45 96 47 97 48 98
REMARK SMILES IDX 49 99 50 100
REMARK H PARENT 8 6 82 16 13 34 72 53 40 64
REMARK Flexibility Score: inf
ROOT
ATOM      1  C   UNL A   1      37.134  21.883  24.821  1.00  0.00     0.023 C 
ENDROOT
BRANCH   1   2
ATOM      2  C   UNL A   1      35.695  21.364  24.947  1.00  0.00     0.116 C 
BRANCH   2   3
ATOM      3  N   UNL A   1      35.574  19.923  25.109  1.00  0.00    -0.354 N 
ATOM      4  C   UNL A   1      34.674  18.989  24.686  1.00  0.00     0.241 C 
ATOM      5  O   UNL A   1      35.015  17.816  24.917  1.00  0.00    -0.273 OA
ATOM      6  H   UNL A   1      36.305  19.535  25.643  1.00  0.00     0.163 HD
BRANCH   4   7
ATOM      7  C   UNL A   1      33.392  19.190  23.873  1.00  0.00     0.244 C 
BRANCH   7   8
ATOM      8  N   UNL A   1      32.614  20.377  24.130  1.00  0.00    -0.258 N 
ATOM      9  C   UNL A   1      31.631  22.671  26.579  1.00  0.00     0.071 C 
ATOM     10  C   UNL A   1      32.078  21.977  25.351  1.00  0.00     0.084 A 
ATOM     11  N   UNL A   1      32.184  20.641  25.378  1.00  0.00    -0.175 NA
ATOM     12  C   UNL A   1      32.447  22.475  24.064  1.00  0.00     0.093 A 
ATOM     13  C   UNL A   1      32.246  21.381  23.259  1.00  0.00     0.060 A 
ATOM     14  C   UNL A   1      31.904  21.224  21.828  1.00  0.00     0.069 C 
BRANCH  12  15
ATOM     15  N   UNL A   1      32.927  23.734  23.758  1.00  0.00    -0.276 N 
ATOM     16  H   UNL A   1      33.797  23.949  24.166  1.00  0.00     0.180 HD
BRANCH  15  17
ATOM     17  S   UNL A   1      32.289  24.947  22.823  1.00  0.00     0.264 S 
ATOM     18  O   UNL A   1      33.146  25.094  21.662  1.00  0.00    -0.201 OA
ATOM     19  O   UNL A   1      30.934  24.448  22.618  1.00  0.00    -0.201 OA
BRANCH  17  20
ATOM     20  C   UNL A   1      32.018  26.589  23.476  1.00  0.00     0.114 A 
ATOM     21  C   UNL A   1      31.313  27.371  22.529  1.00  0.00     0.024 A 
ATOM     22  C   UNL A   1      32.376  27.182  24.708  1.00  0.00     0.091 A 
ATOM     23  C   UNL A   1      30.821  28.628  22.839  1.00  0.00     0.002 A 
ATOM     24  C   UNL A   1      31.645  28.347  25.074  1.00  0.00     0.002 A 
ATOM     25  N   UNL A   1      33.424  26.868  25.508  1.00  0.00    -0.255 NA
ATOM     26  C   UNL A   1      30.889  29.057  24.147  1.00  0.00     0.010 A 
ATOM     27  C   UNL A   1      31.773  28.922  26.343  1.00  0.00     0.012 A 
ATOM     28  C   UNL A   1      33.696  27.654  26.600  1.00  0.00     0.112 A 
ATOM     29  C   UNL A   1      32.857  28.601  27.118  1.00  0.00     0.021 A 
ENDBRANCH  17  20
ENDBRANCH  15  17
ENDBRANCH  12  15
ENDBRANCH   7   8
ENDBRANCH   4   7
ENDBRANCH   2   3
ENDBRANCH   1   2
BRANCH   1  30
ATOM     30  C   UNL A   1      38.177  21.248  25.748  1.00  0.00     0.023 C 
BRANCH  30  31
ATOM     31  C   UNL A   1      39.217  22.221  26.286  1.00  0.00     0.116 C 
BRANCH  31  32
ATOM     32  N   UNL A   1      40.575  22.039  25.750  1.00  0.00    -0.352 N 
ATOM     33  C   UNL A   1      41.632  22.952  25.794  1.00  0.00     0.251 C 
ATOM     34  H   UNL A   1      40.759  21.177  25.310  1.00  0.00     0.163 HD
ATOM     35  O   UNL A   1      42.616  22.830  25.097  1.00  0.00    -0.269 OA
BRANCH  33  36
ATOM     36  C   UNL A   1      41.513  24.073  26.753  1.00  0.00     0.039 A 
ATOM     37  C   UNL A   1      42.105  24.071  28.020  1.00  0.00     0.014 A 
ATOM     38  C   UNL A   1      40.847  25.193  26.282  1.00  0.00     0.014 A 
ATOM     39  C   UNL A   1      42.081  25.251  28.764  1.00  0.00     0.010 A 
ATOM     40  C   UNL A   1      41.073  26.395  26.878  1.00  0.00     0.010 A 
ATOM     41  C   UNL A   1      41.573  26.416  28.170  1.00  0.00    -0.014 A 
BRANCH  41  42
ATOM     42  C   UNL A   1      41.563  27.709  28.835  1.00  0.00     0.031 A 
ATOM     43  C   UNL A   1      42.532  28.700  28.307  1.00  0.00     0.074 A 
ATOM     44  C   UNL A   1      40.582  28.044  29.704  1.00  0.00     0.049 A 
ATOM     45  N   UNL A   1      43.590  29.142  28.900  1.00  0.00    -0.248 NA
ATOM     46  C   UNL A   1      42.394  29.155  26.916  1.00  0.00     0.031 C 
ATOM     47  C   UNL A   1      39.384  27.272  30.083  1.00  0.00     0.029 A 
ATOM     48  N   UNL A   1      40.366  29.232  30.322  1.00  0.00    -0.354 N 
ATOM     49  C   UNL A   1      44.118  30.114  28.057  1.00  0.00     0.074 A 
ATOM     50  C   UNL A   1      43.472  29.932  26.782  1.00  0.00     0.031 C 
ATOM     51  C   UNL A   1      38.464  28.098  30.625  1.00  0.00     0.029 A 
ATOM     52  C   UNL A   1      39.076  29.396  30.815  1.00  0.00     0.049 A 
ATOM     53  H   UNL A   1      41.064  29.920  30.414  1.00  0.00     0.167 HD
ATOM     54  C   UNL A   1      44.856  31.149  28.548  1.00  0.00     0.034 A 
ATOM     55  C   UNL A   1      38.540  30.537  31.307  1.00  0.00     0.034 A 
ATOM     56  C   UNL A   1      45.207  30.930  29.930  1.00  0.00     0.049 A 
ATOM     57  C   UNL A   1      39.674  31.387  31.738  1.00  0.00     0.074 A 
ATOM     58  C   UNL A   1      45.923  29.975  30.623  1.00  0.00     0.029 A 
ATOM     59  N   UNL A   1      44.434  31.576  30.868  1.00  0.00    -0.354 N 
ATOM     60  N   UNL A   1      40.490  31.042  32.695  1.00  0.00    -0.248 NA
ATOM     61  C   UNL A   1      40.188  32.367  30.797  1.00  0.00     0.031 C 
ATOM     62  C   UNL A   1      45.189  29.776  31.831  1.00  0.00     0.029 A 
ATOM     63  C   UNL A   1      44.111  30.664  31.838  1.00  0.00     0.049 A 
ATOM     64  H   UNL A   1      44.162  32.522  30.845  1.00  0.00     0.167 HD
ATOM     65  C   UNL A   1      41.748  31.384  32.214  1.00  0.00     0.074 A 
ATOM     66  C   UNL A   1      41.488  32.295  31.099  1.00  0.00     0.031 C 
ATOM     67  C   UNL A   1      42.860  30.670  32.567  1.00  0.00     0.034 A 
BRANCH  54  68
ATOM     68  C   UNL A   1      44.959  32.525  27.939  1.00  0.00     0.023 A 
ATOM     69  C   UNL A   1      46.228  32.921  27.457  1.00  0.00     0.012 A 
ATOM     70  C   UNL A   1      43.977  33.532  28.070  1.00  0.00     0.148 A 
ATOM     71  C   UNL A   1      46.522  34.260  27.178  1.00  0.00     0.002 A 
ATOM     72  C   UNL A   1      44.253  34.850  27.725  1.00  0.00     0.091 A 
ATOM     73  F   UNL A   1      42.810  33.253  28.657  1.00  0.00    -0.205 F 
ATOM     74  C   UNL A   1      45.533  35.226  27.308  1.00  0.00     0.022 A 
BRANCH  72  75
ATOM     75  S   UNL A   1      43.006  36.139  27.843  1.00  0.00     0.127 S 
ATOM     76  O   UNL A   1      41.964  35.615  26.966  1.00  0.00    -0.237 OA
ATOM     77  O   UNL A   1      42.686  36.115  29.271  1.00  0.00    -0.237 OA
ATOM     78  O   UNL A   1      43.665  37.360  27.399  1.00  0.00    -0.744 OA
ENDBRANCH  72  75
ENDBRANCH  54  68
BRANCH  55  79
ATOM     79  C   UNL A   1      37.161  31.044  31.133  1.00  0.00     0.023 A 
ATOM     80  C   UNL A   1      36.397  31.428  32.249  1.00  0.00     0.012 A 
ATOM     81  C   UNL A   1      36.690  31.398  29.847  1.00  0.00     0.148 A 
ATOM     82  C   UNL A   1      35.214  32.164  32.092  1.00  0.00     0.002 A 
ATOM     83  C   UNL A   1      35.509  32.117  29.694  1.00  0.00     0.091 A 
ATOM     84  F   UNL A   1      37.445  31.106  28.779  1.00  0.00    -0.205 F 
ATOM     85  C   UNL A   1      34.775  32.515  30.816  1.00  0.00     0.022 A 
BRANCH  83  86
ATOM     86  S   UNL A   1      34.890  32.595  28.075  1.00  0.00     0.127 S 
ATOM     87  O   UNL A   1      35.960  33.468  27.589  1.00  0.00    -0.237 OA
ATOM     88  O   UNL A   1      34.791  31.308  27.396  1.00  0.00    -0.237 OA
ATOM     89  O   UNL A   1      33.628  33.287  28.317  1.00  0.00    -0.744 OA
ENDBRANCH  83  86
ENDBRANCH  55  79
BRANCH  67  90
ATOM     90  C   UNL A   1      42.711  29.616  33.642  1.00  0.00     0.023 A 
ATOM     91  C   UNL A   1      42.060  28.385  33.403  1.00  0.00     0.012 A 
ATOM     92  C   UNL A   1      43.393  29.789  34.855  1.00  0.00     0.148 A 
ATOM     93  C   UNL A   1      42.069  27.363  34.357  1.00  0.00     0.002 A 
ATOM     94  C   UNL A   1      43.434  28.757  35.787  1.00  0.00     0.091 A 
ATOM     95  F   UNL A   1      44.025  30.954  35.062  1.00  0.00    -0.205 F 
ATOM     96  C   UNL A   1      42.766  27.546  35.546  1.00  0.00     0.022 A 
BRANCH  94  97
ATOM     97  S   UNL A   1      44.408  28.877  37.288  1.00  0.00     0.127 S 
ATOM     98  O   UNL A   1      44.113  27.606  37.945  1.00  0.00    -0.237 OA
ATOM     99  O   UNL A   1      45.771  28.994  36.766  1.00  0.00    -0.237 OA
ATOM    100  O   UNL A   1      43.932  30.065  37.985  1.00  0.00    -0.744 OA
ENDBRANCH  94  97
ENDBRANCH  67  90
ENDBRANCH  41  42
ENDBRANCH  33  36
ENDBRANCH  31  32
ENDBRANCH  30  31
ENDBRANCH   1  30
TORSDOF 18
ENDMDL
MODEL 3
REMARK VINA RESULT:     -11.1      8.851     14.753
REMARK SMILES Cc1nn(CC(=O)NCCCCNC(=O)c2ccc(-c3c4nc(c(-c5cccc(S(=O)(=O)[O-])c5F)c5ccc([nH]5)c(-c5cccc(S(=O)(=O)[O-])c5F)c5nc(c(-c6cccc(S(=O)(=O)[O-])c6F)c6ccc3[nH]6)C=C5)C=C4)cc2)c(C)c1NS(=O)(=O)c1cccc2cccnc12
REMARK SMILES IDX 10 1 9 2 8 3 6 4 7 5 5 7 4 8 1 9 2 10 3 11 81 12 79 13 80 14
REMARK SMILES IDX 82 15 83 17 84 18 85 19 86 20 87 21 95 22 88 23 90 24 94 25
REMARK SMILES IDX 89 26 91 27 93 28 92 29 11 30 12 31 13 32 14 33 15 35 16 36
REMARK SMILES IDX 17 37 78 38 18 39 77 40 19 41 20 42 21 43 71 44 22 45 76 46
REMARK SMILES IDX 70 47 72 48 23 49 75 50 69 51 68 52 24 54 56 55 36 56 55 57
REMARK SMILES IDX 37 58 40 59 54 60 73 61 38 62 39 63 53 65 74 66 41 67 25 68
REMARK SMILES IDX 26 69 34 70 27 71 29 72 35 73 28 74 30 75 31 76 32 77 33 78
REMARK SMILES IDX 57 79 58 80 66 81 59 82 61 83 67 84 60 85 62 86 63 87 64 88
REMARK SMILES IDX 65 89 42 90 43 91 51 92 44 93 46 94 52 95 45 96 47 97 48 98
REMARK SMILES IDX 49 99 50 100
REMARK H PARENT 8 6 82 16 13 34 72 53 40 64
REMARK Flexibility Score: inf
ROOT
ATOM      1  C   UNL A   1      46.098  20.324  36.900  1.00  0.00     0.023 C 
ENDROOT
BRANCH   1   2
ATOM      2  C   UNL A   1      46.454  20.596  38.367  1.00  0.00     0.116 C 
BRANCH   2   3
ATOM      3  N   UNL A   1      47.296  19.587  38.992  1.00  0.00    -0.354 N 
ATOM      4  C   UNL A   1      47.225  18.872  40.153  1.00  0.00     0.241 C 
ATOM      5  O   UNL A   1      48.087  17.982  40.253  1.00  0.00    -0.273 OA
ATOM      6  H   UNL A   1      48.094  19.370  38.459  1.00  0.00     0.163 HD
BRANCH   4   7
ATOM      7  C   UNL A   1      46.170  18.944  41.261  1.00  0.00     0.244 C 
BRANCH   7   8
ATOM      8  N   UNL A   1      44.991  18.126  41.120  1.00  0.00    -0.258 N 
ATOM      9  C   UNL A   1      43.363  15.790  39.090  1.00  0.00     0.071 C 
ATOM     10  C   UNL A   1      43.945  16.578  40.199  1.00  0.00     0.084 A 
ATOM     11  N   UNL A   1      44.609  17.704  39.901  1.00  0.00    -0.175 NA
ATOM     12  C   UNL A   1      43.947  16.365  41.612  1.00  0.00     0.093 A 
ATOM     13  C   UNL A   1      44.153  17.632  42.098  1.00  0.00     0.060 A 
ATOM     14  C   UNL A   1      43.778  18.309  43.359  1.00  0.00     0.069 C 
BRANCH  12  15
ATOM     15  N   UNL A   1      43.817  15.162  42.279  1.00  0.00    -0.276 N 
ATOM     16  H   UNL A   1      44.671  14.716  42.484  1.00  0.00     0.180 HD
BRANCH  15  17
ATOM     17  S   UNL A   1      42.472  14.338  42.792  1.00  0.00     0.264 S 
ATOM     18  O   UNL A   1      41.747  15.213  43.694  1.00  0.00    -0.201 OA
ATOM     19  O   UNL A   1      41.854  14.003  41.515  1.00  0.00    -0.201 OA
BRANCH  17  20
ATOM     20  C   UNL A   1      42.600  12.751  43.605  1.00  0.00     0.114 A 
ATOM     21  C   UNL A   1      41.658  11.851  43.049  1.00  0.00     0.024 A 
ATOM     22  C   UNL A   1      43.439  12.291  44.645  1.00  0.00     0.091 A 
ATOM     23  C   UNL A   1      41.655  10.504  43.372  1.00  0.00     0.002 A 
ATOM     24  C   UNL A   1      43.576  10.879  44.757  1.00  0.00     0.002 A 
ATOM     25  N   UNL A   1      44.008  13.020  45.637  1.00  0.00    -0.255 NA
ATOM     26  C   UNL A   1      42.690  10.007  44.134  1.00  0.00     0.010 A 
ATOM     27  C   UNL A   1      44.514  10.302  45.621  1.00  0.00     0.012 A 
ATOM     28  C   UNL A   1      44.678  12.374  46.646  1.00  0.00     0.112 A 
ATOM     29  C   UNL A   1      45.052  11.059  46.629  1.00  0.00     0.021 A 
ENDBRANCH  17  20
ENDBRANCH  15  17
ENDBRANCH  12  15
ENDBRANCH   7   8
ENDBRANCH   4   7
ENDBRANCH   2   3
ENDBRANCH   1   2
BRANCH   1  30
ATOM     30  C   UNL A   1      46.267  21.495  35.923  1.00  0.00     0.023 C 
BRANCH  30  31
ATOM     31  C   UNL A   1      45.145  22.522  35.972  1.00  0.00     0.116 C 
BRANCH  31  32
ATOM     32  N   UNL A   1      45.333  23.601  36.955  1.00  0.00    -0.352 N 
ATOM     33  C   UNL A   1      45.667  24.933  36.696  1.00  0.00     0.251 C 
ATOM     34  H   UNL A   1      45.209  23.357  37.901  1.00  0.00     0.163 HD
ATOM     35  O   UNL A   1      46.065  25.676  37.567  1.00  0.00    -0.269 OA
BRANCH  33  36
ATOM     36  C   UNL A   1      45.492  25.414  35.308  1.00  0.00     0.039 A 
ATOM     37  C   UNL A   1      46.524  25.440  34.365  1.00  0.00     0.014 A 
ATOM     38  C   UNL A   1      44.197  25.758  34.954  1.00  0.00     0.014 A 
ATOM     39  C   UNL A   1      46.203  25.739  33.039  1.00  0.00     0.010 A 
ATOM     40  C   UNL A   1      43.852  25.767  33.637  1.00  0.00     0.010 A 
ATOM     41  C   UNL A   1      44.853  25.885  32.687  1.00  0.00    -0.014 A 
BRANCH  41  42
ATOM     42  C   UNL A   1      44.409  26.132  31.324  1.00  0.00     0.031 A 
ATOM     43  C   UNL A   1      44.538  24.982  30.397  1.00  0.00     0.074 A 
ATOM     44  C   UNL A   1      43.717  27.250  31.002  1.00  0.00     0.049 A 
ATOM     45  N   UNL A   1      45.360  24.870  29.409  1.00  0.00    -0.248 NA
ATOM     46  C   UNL A   1      43.768  23.760  30.673  1.00  0.00     0.031 C 
ATOM     47  C   UNL A   1      43.249  28.330  31.890  1.00  0.00     0.029 A 
ATOM     48  N   UNL A   1      43.145  27.581  29.818  1.00  0.00    -0.354 N 
ATOM     49  C   UNL A   1      45.042  23.667  28.786  1.00  0.00     0.074 A 
ATOM     50  C   UNL A   1      44.213  22.942  29.716  1.00  0.00     0.031 C 
ATOM     51  C   UNL A   1      42.261  29.021  31.281  1.00  0.00     0.029 A 
ATOM     52  C   UNL A   1      42.171  28.570  29.909  1.00  0.00     0.049 A 
ATOM     53  H   UNL A   1      43.397  27.157  28.967  1.00  0.00     0.167 HD
ATOM     54  C   UNL A   1      45.279  23.476  27.459  1.00  0.00     0.034 A 
ATOM     55  C   UNL A   1      41.323  28.958  28.929  1.00  0.00     0.034 A 
ATOM     56  C   UNL A   1      46.101  24.530  26.917  1.00  0.00     0.049 A 
ATOM     57  C   UNL A   1      41.953  28.574  27.646  1.00  0.00     0.074 A 
ATOM     58  C   UNL A   1      47.371  25.010  27.164  1.00  0.00     0.029 A 
ATOM     59  N   UNL A   1      45.446  25.530  26.236  1.00  0.00    -0.354 N 
ATOM     60  N   UNL A   1      43.083  29.079  27.235  1.00  0.00    -0.248 NA
ATOM     61  C   UNL A   1      41.590  27.293  27.064  1.00  0.00     0.031 C 
ATOM     62  C   UNL A   1      47.251  26.428  27.054  1.00  0.00     0.029 A 
ATOM     63  C   UNL A   1      45.939  26.727  26.682  1.00  0.00     0.049 A 
ATOM     64  H   UNL A   1      44.749  25.406  25.551  1.00  0.00     0.167 HD
ATOM     65  C   UNL A   1      43.783  27.990  26.729  1.00  0.00     0.074 A 
ATOM     66  C   UNL A   1      42.773  26.947  26.547  1.00  0.00     0.031 C 
ATOM     67  C   UNL A   1      45.149  27.936  26.787  1.00  0.00     0.034 A 
BRANCH  54  68
ATOM     68  C   UNL A   1      44.489  22.572  26.544  1.00  0.00     0.023 A 
ATOM     69  C   UNL A   1      43.082  22.594  26.676  1.00  0.00     0.012 A 
ATOM     70  C   UNL A   1      45.047  21.521  25.784  1.00  0.00     0.148 A 
ATOM     71  C   UNL A   1      42.277  21.589  26.131  1.00  0.00     0.002 A 
ATOM     72  C   UNL A   1      44.238  20.562  25.185  1.00  0.00     0.091 A 
ATOM     73  F   UNL A   1      46.373  21.357  25.745  1.00  0.00    -0.205 F 
ATOM     74  C   UNL A   1      42.854  20.573  25.381  1.00  0.00     0.022 A 
BRANCH  72  75
ATOM     75  S   UNL A   1      44.924  19.241  24.178  1.00  0.00     0.127 S 
ATOM     76  O   UNL A   1      44.215  18.078  24.703  1.00  0.00    -0.237 OA
ATOM     77  O   UNL A   1      44.527  19.655  22.832  1.00  0.00    -0.237 OA
ATOM     78  O   UNL A   1      46.361  19.277  24.415  1.00  0.00    -0.744 OA
ENDBRANCH  72  75
ENDBRANCH  54  68
BRANCH  55  79
ATOM     79  C   UNL A   1      39.900  29.342  29.056  1.00  0.00     0.023 A 
ATOM     80  C   UNL A   1      38.885  28.379  28.908  1.00  0.00     0.012 A 
ATOM     81  C   UNL A   1      39.548  30.606  29.584  1.00  0.00     0.148 A 
ATOM     82  C   UNL A   1      37.567  28.656  29.297  1.00  0.00     0.002 A 
ATOM     83  C   UNL A   1      38.237  30.882  29.958  1.00  0.00     0.091 A 
ATOM     84  F   UNL A   1      40.516  31.507  29.802  1.00  0.00    -0.205 F 
ATOM     85  C   UNL A   1      37.245  29.904  29.829  1.00  0.00     0.022 A 
BRANCH  83  86
ATOM     86  S   UNL A   1      37.759  32.474  30.645  1.00  0.00     0.127 S 
ATOM     87  O   UNL A   1      37.921  33.361  29.493  1.00  0.00    -0.237 OA
ATOM     88  O   UNL A   1      36.378  32.230  31.046  1.00  0.00    -0.237 OA
ATOM     89  O   UNL A   1      38.700  32.739  31.730  1.00  0.00    -0.744 OA
ENDBRANCH  83  86
ENDBRANCH  55  79
BRANCH  67  90
ATOM     90  C   UNL A   1      45.885  29.175  27.247  1.00  0.00     0.023 A 
ATOM     91  C   UNL A   1      46.100  30.282  26.397  1.00  0.00     0.012 A 
ATOM     92  C   UNL A   1      46.206  29.303  28.606  1.00  0.00     0.148 A 
ATOM     93  C   UNL A   1      46.642  31.476  26.882  1.00  0.00     0.002 A 
ATOM     94  C   UNL A   1      46.708  30.504  29.096  1.00  0.00     0.091 A 
ATOM     95  F   UNL A   1      45.978  28.252  29.409  1.00  0.00    -0.205 F 
ATOM     96  C   UNL A   1      46.936  31.590  28.236  1.00  0.00     0.022 A 
BRANCH  94  97
ATOM     97  S   UNL A   1      47.001  30.763  30.846  1.00  0.00     0.127 S 
ATOM     98  O   UNL A   1      47.653  32.070  30.856  1.00  0.00    -0.237 OA
ATOM     99  O   UNL A   1      45.643  30.753  31.394  1.00  0.00    -0.237 OA
ATOM    100  O   UNL A   1      47.830  29.649  31.287  1.00  0.00    -0.744 OA
ENDBRANCH  94  97
ENDBRANCH  67  90
ENDBRANCH  41  42
ENDBRANCH  33  36
ENDBRANCH  31  32
ENDBRANCH  30  31
ENDBRANCH   1  30
TORSDOF 18
ENDMDL
