MODEL 1
REMARK VINA RESULT:     -10.8      0.000      0.000
REMARK SMILES [NH3+]CCOCC(=O)N[C@H](C(=O)NCCCCNC(=O)c1ccc(-c2c3nc(c(-c4cccc(S(=O)(=O)[O-])c4F)c4ccc([nH]4)c(-c4cccc(S(=O)(=O)[O-])c4F)c4nc(c(-c5cccc(S(=O)(=O)[O-])c5F)c5ccc2[nH]5)C=C4)C=C3)cc1)C1CCCCC1
REMARK SMILES IDX 13 1 12 2 10 3 11 4 9 6 8 7 6 8 7 9 5 11 4 12 3 13 2 14 1 15
REMARK SMILES IDX 83 19 84 20 88 21 85 22 87 23 86 24 14 25 15 26 16 27 17 28
REMARK SMILES IDX 18 29 19 31 20 32 21 33 82 34 22 35 81 36 23 37 24 38 25 39
REMARK SMILES IDX 75 40 26 41 80 42 74 43 76 44 27 45 79 46 73 47 72 48 28 50
REMARK SMILES IDX 60 51 40 52 59 53 41 54 44 55 58 56 77 57 42 58 43 59 57 61
REMARK SMILES IDX 78 62 45 63 29 64 30 65 38 66 31 67 33 68 39 69 32 70 34 71
REMARK SMILES IDX 35 72 36 73 37 74 61 75 62 76 70 77 63 78 65 79 71 80 64 81
REMARK SMILES IDX 66 82 67 83 68 84 69 85 46 86 47 87 55 88 48 89 50 90 56 91
REMARK SMILES IDX 49 92 51 93 52 94 53 95 54 96
REMARK H PARENT 12 5 8 10 1 16 1 17 1 18 17 30 76 49 44 60
REMARK Flexibility Score: inf
ROOT
ATOM      1  C   UNL A   1      31.778  26.514  26.051  1.00  0.00     0.116 C 
ENDROOT
BRANCH   1   2
ATOM      2  N   UNL A   1      30.882  25.778  25.179  1.00  0.00    -0.354 N 
ATOM      3  C   UNL A   1      30.413  26.067  23.926  1.00  0.00     0.242 C 
ATOM      4  O   UNL A   1      29.752  25.192  23.368  1.00  0.00    -0.273 OA
ATOM      5  H   UNL A   1      30.557  24.926  25.550  1.00  0.00     0.163 HD
BRANCH   3   6
ATOM      6  C   UNL A   1      30.913  27.341  23.200  1.00  0.00     0.174 C 
BRANCH   6   7
ATOM      7  N   UNL A   1      31.681  26.815  22.047  1.00  0.00    -0.342 N 
ATOM      8  C   UNL A   1      32.846  26.167  21.825  1.00  0.00     0.246 C 
ATOM      9  O   UNL A   1      33.236  26.123  20.650  1.00  0.00    -0.272 OA
ATOM     10  H   UNL A   1      31.207  26.986  21.202  1.00  0.00     0.164 HD
BRANCH   8  11
ATOM     11  C   UNL A   1      33.635  25.418  22.901  1.00  0.00     0.260 C 
BRANCH  11  12
ATOM     12  O   UNL A   1      34.368  24.259  22.574  1.00  0.00    -0.366 OA
BRANCH  12  13
ATOM     13  C   UNL A   1      33.589  23.062  22.487  1.00  0.00     0.222 C 
BRANCH  13  14
ATOM     14  C   UNL A   1      33.067  22.620  23.861  1.00  0.00     0.287 C 
BRANCH  14  15
ATOM     15  N   UNL A   1      31.610  22.697  23.993  1.00  0.00    -0.356 N 
ATOM     16  H   UNL A   1      31.344  22.494  24.956  1.00  0.00     0.344 HD
ATOM     17  H   UNL A   1      31.176  22.015  23.370  1.00  0.00     0.344 HD
ATOM     18  H   UNL A   1      31.293  23.634  23.742  1.00  0.00     0.344 HD
ENDBRANCH  14  15
ENDBRANCH  13  14
ENDBRANCH  12  13
ENDBRANCH  11  12
ENDBRANCH   8  11
ENDBRANCH   6   7
BRANCH   6  19
ATOM     19  C   UNL A   1      29.859  28.447  22.962  1.00  0.00     0.021 C 
ATOM     20  C   UNL A   1      28.396  28.054  23.215  1.00  0.00     0.006 C 
ATOM     21  C   UNL A   1      30.148  29.694  23.828  1.00  0.00     0.006 C 
ATOM     22  C   UNL A   1      27.454  29.164  22.757  1.00  0.00     0.000 C 
ATOM     23  C   UNL A   1      29.213  30.850  23.454  1.00  0.00     0.000 C 
ATOM     24  C   UNL A   1      27.738  30.460  23.509  1.00  0.00     0.000 C 
ENDBRANCH   6  19
ENDBRANCH   3   6
ENDBRANCH   1   2
BRANCH   1  25
ATOM     25  C   UNL A   1      31.043  27.571  26.873  1.00  0.00     0.023 C 
BRANCH  25  26
ATOM     26  C   UNL A   1      31.932  28.685  27.436  1.00  0.00     0.023 C 
BRANCH  26  27
ATOM     27  C   UNL A   1      32.586  29.599  26.403  1.00  0.00     0.116 C 
BRANCH  27  28
ATOM     28  N   UNL A   1      32.271  31.006  26.600  1.00  0.00    -0.352 N 
ATOM     29  C   UNL A   1      33.018  31.962  27.252  1.00  0.00     0.251 C 
ATOM     30  H   UNL A   1      31.418  31.314  26.219  1.00  0.00     0.163 HD
ATOM     31  O   UNL A   1      32.565  33.089  27.426  1.00  0.00    -0.269 OA
BRANCH  29  32
ATOM     32  C   UNL A   1      34.356  31.605  27.771  1.00  0.00     0.039 A 
ATOM     33  C   UNL A   1      35.361  32.576  27.788  1.00  0.00     0.014 A 
ATOM     34  C   UNL A   1      34.597  30.326  28.280  1.00  0.00     0.014 A 
ATOM     35  C   UNL A   1      36.590  32.288  28.388  1.00  0.00     0.010 A 
ATOM     36  C   UNL A   1      35.799  30.063  28.928  1.00  0.00     0.010 A 
ATOM     37  C   UNL A   1      36.805  31.041  28.995  1.00  0.00    -0.014 A 
BRANCH  37  38
ATOM     38  C   UNL A   1      38.061  30.717  29.718  1.00  0.00     0.031 A 
ATOM     39  C   UNL A   1      39.031  29.738  29.115  1.00  0.00     0.074 A 
ATOM     40  C   UNL A   1      38.260  31.188  30.965  1.00  0.00     0.049 A 
ATOM     41  N   UNL A   1      40.077  29.171  29.657  1.00  0.00    -0.248 NA
ATOM     42  C   UNL A   1      38.767  29.315  27.729  1.00  0.00     0.031 C 
ATOM     43  C   UNL A   1      37.366  32.099  31.680  1.00  0.00     0.029 A 
ATOM     44  N   UNL A   1      39.259  30.925  31.871  1.00  0.00    -0.354 N 
ATOM     45  C   UNL A   1      40.563  28.285  28.702  1.00  0.00     0.074 A 
ATOM     46  C   UNL A   1      39.689  28.380  27.553  1.00  0.00     0.031 C 
ATOM     47  C   UNL A   1      37.845  32.306  32.918  1.00  0.00     0.029 A 
ATOM     48  C   UNL A   1      39.059  31.516  33.098  1.00  0.00     0.049 A 
ATOM     49  H   UNL A   1      40.044  30.367  31.663  1.00  0.00     0.167 HD
ATOM     50  C   UNL A   1      41.650  27.481  28.769  1.00  0.00     0.034 A 
ATOM     51  C   UNL A   1      39.761  31.414  34.245  1.00  0.00     0.034 A 
ATOM     52  C   UNL A   1      42.550  27.439  29.888  1.00  0.00     0.049 A 
ATOM     53  C   UNL A   1      40.995  30.552  34.275  1.00  0.00     0.074 A 
ATOM     54  C   UNL A   1      43.725  26.721  30.019  1.00  0.00     0.029 A 
ATOM     55  N   UNL A   1      42.378  28.146  31.067  1.00  0.00    -0.354 N 
ATOM     56  N   UNL A   1      41.514  29.824  33.316  1.00  0.00    -0.248 NA
ATOM     57  C   UNL A   1      41.760  30.522  35.531  1.00  0.00     0.031 C 
ATOM     58  C   UNL A   1      44.263  26.991  31.281  1.00  0.00     0.029 A 
ATOM     59  C   UNL A   1      43.428  27.888  31.930  1.00  0.00     0.049 A 
ATOM     60  H   UNL A   1      41.621  28.746  31.262  1.00  0.00     0.167 HD
ATOM     61  C   UNL A   1      42.686  29.286  33.837  1.00  0.00     0.074 A 
ATOM     62  C   UNL A   1      42.805  29.777  35.194  1.00  0.00     0.031 C 
ATOM     63  C   UNL A   1      43.575  28.450  33.247  1.00  0.00     0.034 A 
BRANCH  50  64
ATOM     64  C   UNL A   1      41.961  26.624  27.572  1.00  0.00     0.023 A 
ATOM     65  C   UNL A   1      42.633  27.190  26.471  1.00  0.00     0.012 A 
ATOM     66  C   UNL A   1      41.645  25.251  27.560  1.00  0.00     0.148 A 
ATOM     67  C   UNL A   1      42.958  26.412  25.360  1.00  0.00     0.002 A 
ATOM     68  C   UNL A   1      42.009  24.473  26.467  1.00  0.00     0.091 A 
ATOM     69  F   UNL A   1      40.986  24.735  28.607  1.00  0.00    -0.205 F 
ATOM     70  C   UNL A   1      42.655  25.053  25.363  1.00  0.00     0.022 A 
BRANCH  68  71
ATOM     71  S   UNL A   1      41.732  22.699  26.412  1.00  0.00     0.127 S 
ATOM     72  O   UNL A   1      42.363  22.263  27.657  1.00  0.00    -0.237 OA
ATOM     73  O   UNL A   1      40.272  22.611  26.406  1.00  0.00    -0.237 OA
ATOM     74  O   UNL A   1      42.370  22.234  25.188  1.00  0.00    -0.744 OA
ENDBRANCH  68  71
ENDBRANCH  50  64
BRANCH  51  75
ATOM     75  C   UNL A   1      39.350  32.204  35.441  1.00  0.00     0.023 A 
ATOM     76  C   UNL A   1      38.546  31.594  36.422  1.00  0.00     0.012 A 
ATOM     77  C   UNL A   1      39.773  33.534  35.631  1.00  0.00     0.148 A 
ATOM     78  C   UNL A   1      38.147  32.300  37.558  1.00  0.00     0.002 A 
ATOM     79  C   UNL A   1      39.416  34.215  36.790  1.00  0.00     0.091 A 
ATOM     80  F   UNL A   1      40.527  34.105  34.680  1.00  0.00    -0.205 F 
ATOM     81  C   UNL A   1      38.590  33.606  37.747  1.00  0.00     0.022 A 
BRANCH  79  82
ATOM     82  S   UNL A   1      40.051  35.851  37.176  1.00  0.00     0.127 S 
ATOM     83  O   UNL A   1      39.366  36.149  38.430  1.00  0.00    -0.237 OA
ATOM     84  O   UNL A   1      41.487  35.599  37.303  1.00  0.00    -0.237 OA
ATOM     85  O   UNL A   1      39.691  36.686  36.039  1.00  0.00    -0.744 OA
ENDBRANCH  79  82
ENDBRANCH  51  75
BRANCH  63  86
ATOM     86  C   UNL A   1      44.797  28.049  34.027  1.00  0.00     0.023 A 
ATOM     87  C   UNL A   1      45.935  28.878  34.022  1.00  0.00     0.012 A 
ATOM     88  C   UNL A   1      44.767  26.914  34.862  1.00  0.00     0.148 A 
ATOM     89  C   UNL A   1      47.031  28.577  34.829  1.00  0.00     0.002 A 
ATOM     90  C   UNL A   1      45.845  26.644  35.696  1.00  0.00     0.091 A 
ATOM     91  F   UNL A   1      43.679  26.131  34.836  1.00  0.00    -0.205 F 
ATOM     92  C   UNL A   1      46.981  27.470  35.675  1.00  0.00     0.022 A 
BRANCH  90  93
ATOM     93  S   UNL A   1      45.830  25.299  36.886  1.00  0.00     0.127 S 
ATOM     94  O   UNL A   1      45.692  24.132  36.016  1.00  0.00    -0.237 OA
ATOM     95  O   UNL A   1      47.141  25.434  37.521  1.00  0.00    -0.237 OA
ATOM     96  O   UNL A   1      44.701  25.554  37.770  1.00  0.00    -0.744 OA
ENDBRANCH  90  93
ENDBRANCH  63  86
ENDBRANCH  37  38
ENDBRANCH  29  32
ENDBRANCH  27  28
ENDBRANCH  26  27
ENDBRANCH  25  26
ENDBRANCH   1  25
TORSDOF 21
ENDMDL
MODEL 2
REMARK VINA RESULT:     -10.4      2.733      8.811
REMARK SMILES [NH3+]CCOCC(=O)N[C@H](C(=O)NCCCCNC(=O)c1ccc(-c2c3nc(c(-c4cccc(S(=O)(=O)[O-])c4F)c4ccc([nH]4)c(-c4cccc(S(=O)(=O)[O-])c4F)c4nc(c(-c5cccc(S(=O)(=O)[O-])c5F)c5ccc2[nH]5)C=C4)C=C3)cc1)C1CCCCC1
REMARK SMILES IDX 13 1 12 2 10 3 11 4 9 6 8 7 6 8 7 9 5 11 4 12 3 13 2 14 1 15
REMARK SMILES IDX 83 19 84 20 88 21 85 22 87 23 86 24 14 25 15 26 16 27 17 28
REMARK SMILES IDX 18 29 19 31 20 32 21 33 82 34 22 35 81 36 23 37 24 38 25 39
REMARK SMILES IDX 75 40 26 41 80 42 74 43 76 44 27 45 79 46 73 47 72 48 28 50
REMARK SMILES IDX 60 51 40 52 59 53 41 54 44 55 58 56 77 57 42 58 43 59 57 61
REMARK SMILES IDX 78 62 45 63 29 64 30 65 38 66 31 67 33 68 39 69 32 70 34 71
REMARK SMILES IDX 35 72 36 73 37 74 61 75 62 76 70 77 63 78 65 79 71 80 64 81
REMARK SMILES IDX 66 82 67 83 68 84 69 85 46 86 47 87 55 88 48 89 50 90 56 91
REMARK SMILES IDX 49 92 51 93 52 94 53 95 54 96
REMARK H PARENT 12 5 8 10 1 16 1 17 1 18 17 30 76 49 44 60
REMARK Flexibility Score: inf
ROOT
ATOM      1  C   UNL A   1      33.436  25.709  24.762  1.00  0.00     0.116 C 
ENDROOT
BRANCH   1   2
ATOM      2  N   UNL A   1      33.552  25.003  23.499  1.00  0.00    -0.354 N 
ATOM      3  C   UNL A   1      34.039  23.758  23.209  1.00  0.00     0.242 C 
ATOM      4  O   UNL A   1      33.901  23.366  22.050  1.00  0.00    -0.273 OA
ATOM      5  H   UNL A   1      33.224  25.506  22.719  1.00  0.00     0.163 HD
BRANCH   3   6
ATOM      6  C   UNL A   1      34.512  22.837  24.361  1.00  0.00     0.174 C 
BRANCH   6   7
ATOM      7  N   UNL A   1      33.853  21.541  24.074  1.00  0.00    -0.342 N 
ATOM      8  C   UNL A   1      32.796  20.827  24.522  1.00  0.00     0.246 C 
ATOM      9  O   UNL A   1      32.735  19.646  24.157  1.00  0.00    -0.272 OA
ATOM     10  H   UNL A   1      34.319  21.063  23.350  1.00  0.00     0.164 HD
BRANCH   8  11
ATOM     11  C   UNL A   1      31.650  21.412  25.350  1.00  0.00     0.260 C 
BRANCH  11  12
ATOM     12  O   UNL A   1      31.918  22.152  26.520  1.00  0.00    -0.366 OA
BRANCH  12  13
ATOM     13  C   UNL A   1      30.867  23.034  26.926  1.00  0.00     0.222 C 
BRANCH  13  14
ATOM     14  C   UNL A   1      30.350  23.881  25.756  1.00  0.00     0.287 C 
BRANCH  14  15
ATOM     15  N   UNL A   1      29.834  25.193  26.158  1.00  0.00    -0.356 N 
ATOM     16  H   UNL A   1      30.279  25.481  27.030  1.00  0.00     0.344 HD
ATOM     17  H   UNL A   1      28.825  25.134  26.295  1.00  0.00     0.344 HD
ATOM     18  H   UNL A   1      30.038  25.878  25.430  1.00  0.00     0.344 HD
ENDBRANCH  14  15
ENDBRANCH  13  14
ENDBRANCH  12  13
ENDBRANCH  11  12
ENDBRANCH   8  11
ENDBRANCH   6   7
BRANCH   6  19
ATOM     19  C   UNL A   1      36.026  22.861  24.675  1.00  0.00     0.021 C 
ATOM     20  C   UNL A   1      36.474  23.834  25.776  1.00  0.00     0.006 C 
ATOM     21  C   UNL A   1      36.539  21.459  25.074  1.00  0.00     0.006 C 
ATOM     22  C   UNL A   1      37.997  23.902  25.845  1.00  0.00     0.000 C 
ATOM     23  C   UNL A   1      38.067  21.451  25.203  1.00  0.00     0.000 C 
ATOM     24  C   UNL A   1      38.587  22.529  26.151  1.00  0.00     0.000 C 
ENDBRANCH   6  19
ENDBRANCH   3   6
ENDBRANCH   1   2
BRANCH   1  25
ATOM     25  C   UNL A   1      33.722  27.202  24.617  1.00  0.00     0.023 C 
BRANCH  25  26
ATOM     26  C   UNL A   1      33.283  28.063  25.806  1.00  0.00     0.023 C 
BRANCH  26  27
ATOM     27  C   UNL A   1      34.402  28.780  26.556  1.00  0.00     0.116 C 
BRANCH  27  28
ATOM     28  N   UNL A   1      34.075  30.156  26.898  1.00  0.00    -0.352 N 
ATOM     29  C   UNL A   1      34.738  30.999  27.762  1.00  0.00     0.251 C 
ATOM     30  H   UNL A   1      33.280  30.533  26.456  1.00  0.00     0.163 HD
ATOM     31  O   UNL A   1      34.274  32.104  28.027  1.00  0.00    -0.269 OA
BRANCH  29  32
ATOM     32  C   UNL A   1      35.994  30.544  28.395  1.00  0.00     0.039 A 
ATOM     33  C   UNL A   1      35.930  29.804  29.579  1.00  0.00     0.014 A 
ATOM     34  C   UNL A   1      37.225  30.810  27.792  1.00  0.00     0.014 A 
ATOM     35  C   UNL A   1      37.099  29.262  30.121  1.00  0.00     0.010 A 
ATOM     36  C   UNL A   1      38.379  30.221  28.300  1.00  0.00     0.010 A 
ATOM     37  C   UNL A   1      38.328  29.437  29.464  1.00  0.00    -0.014 A 
BRANCH  37  38
ATOM     38  C   UNL A   1      39.584  28.813  29.953  1.00  0.00     0.031 A 
ATOM     39  C   UNL A   1      40.370  29.486  31.044  1.00  0.00     0.074 A 
ATOM     40  C   UNL A   1      40.085  27.730  29.326  1.00  0.00     0.049 A 
ATOM     41  N   UNL A   1      41.574  29.222  31.478  1.00  0.00    -0.248 NA
ATOM     42  C   UNL A   1      39.726  30.630  31.712  1.00  0.00     0.031 C 
ATOM     43  C   UNL A   1      39.444  27.020  28.217  1.00  0.00     0.029 A 
ATOM     44  N   UNL A   1      41.274  27.065  29.502  1.00  0.00    -0.354 N 
ATOM     45  C   UNL A   1      41.856  30.198  32.427  1.00  0.00     0.074 A 
ATOM     46  C   UNL A   1      40.701  31.067  32.496  1.00  0.00     0.031 C 
ATOM     47  C   UNL A   1      40.253  26.032  27.801  1.00  0.00     0.029 A 
ATOM     48  C   UNL A   1      41.484  26.059  28.586  1.00  0.00     0.049 A 
ATOM     49  H   UNL A   1      41.916  27.287  30.215  1.00  0.00     0.167 HD
ATOM     50  C   UNL A   1      42.967  30.344  33.187  1.00  0.00     0.034 A 
ATOM     51  C   UNL A   1      42.555  25.265  28.386  1.00  0.00     0.034 A 
ATOM     52  C   UNL A   1      44.083  29.441  33.159  1.00  0.00     0.049 A 
ATOM     53  C   UNL A   1      43.757  25.416  29.280  1.00  0.00     0.074 A 
ATOM     54  C   UNL A   1      45.219  29.454  33.949  1.00  0.00     0.029 A 
ATOM     55  N   UNL A   1      44.204  28.360  32.301  1.00  0.00    -0.354 N 
ATOM     56  N   UNL A   1      43.950  26.261  30.263  1.00  0.00    -0.248 NA
ATOM     57  C   UNL A   1      44.875  24.486  29.061  1.00  0.00     0.031 C 
ATOM     58  C   UNL A   1      46.030  28.383  33.564  1.00  0.00     0.029 A 
ATOM     59  C   UNL A   1      45.392  27.695  32.544  1.00  0.00     0.049 A 
ATOM     60  H   UNL A   1      43.542  28.103  31.618  1.00  0.00     0.167 HD
ATOM     61  C   UNL A   1      45.188  25.937  30.808  1.00  0.00     0.074 A 
ATOM     62  C   UNL A   1      45.697  24.814  30.050  1.00  0.00     0.031 C 
ATOM     63  C   UNL A   1      45.847  26.527  31.835  1.00  0.00     0.034 A 
BRANCH  50  64
ATOM     64  C   UNL A   1      43.004  31.493  34.158  1.00  0.00     0.023 A 
ATOM     65  C   UNL A   1      43.556  32.724  33.753  1.00  0.00     0.012 A 
ATOM     66  C   UNL A   1      42.440  31.377  35.444  1.00  0.00     0.148 A 
ATOM     67  C   UNL A   1      43.579  33.813  34.623  1.00  0.00     0.002 A 
ATOM     68  C   UNL A   1      42.429  32.479  36.291  1.00  0.00     0.091 A 
ATOM     69  F   UNL A   1      41.939  30.191  35.819  1.00  0.00    -0.205 F 
ATOM     70  C   UNL A   1      43.006  33.694  35.887  1.00  0.00     0.022 A 
BRANCH  68  71
ATOM     71  S   UNL A   1      41.645  32.445  37.906  1.00  0.00     0.127 S 
ATOM     72  O   UNL A   1      42.418  31.408  38.588  1.00  0.00    -0.237 OA
ATOM     73  O   UNL A   1      41.882  33.803  38.397  1.00  0.00    -0.237 OA
ATOM     74  O   UNL A   1      40.244  32.128  37.664  1.00  0.00    -0.744 OA
ENDBRANCH  68  71
ENDBRANCH  50  64
BRANCH  51  75
ATOM     75  C   UNL A   1      42.510  24.206  27.336  1.00  0.00     0.023 A 
ATOM     76  C   UNL A   1      42.960  24.511  26.037  1.00  0.00     0.012 A 
ATOM     77  C   UNL A   1      42.062  22.902  27.618  1.00  0.00     0.148 A 
ATOM     78  C   UNL A   1      42.940  23.545  25.031  1.00  0.00     0.002 A 
ATOM     79  C   UNL A   1      42.093  21.929  26.625  1.00  0.00     0.091 A 
ATOM     80  F   UNL A   1      41.624  22.632  28.857  1.00  0.00    -0.205 F 
ATOM     81  C   UNL A   1      42.516  22.252  25.326  1.00  0.00     0.022 A 
BRANCH  79  82
ATOM     82  S   UNL A   1      41.693  20.208  26.953  1.00  0.00     0.127 S 
ATOM     83  O   UNL A   1      41.645  19.650  25.605  1.00  0.00    -0.237 OA
ATOM     84  O   UNL A   1      42.836  19.777  27.758  1.00  0.00    -0.237 OA
ATOM     85  O   UNL A   1      40.430  20.234  27.677  1.00  0.00    -0.744 OA
ENDBRANCH  79  82
ENDBRANCH  51  75
BRANCH  63  86
ATOM     86  C   UNL A   1      47.168  25.945  32.257  1.00  0.00     0.023 A 
ATOM     87  C   UNL A   1      48.359  26.412  31.668  1.00  0.00     0.012 A 
ATOM     88  C   UNL A   1      47.234  25.027  33.324  1.00  0.00     0.148 A 
ATOM     89  C   UNL A   1      49.596  25.965  32.127  1.00  0.00     0.002 A 
ATOM     90  C   UNL A   1      48.472  24.619  33.805  1.00  0.00     0.091 A 
ATOM     91  F   UNL A   1      46.086  24.584  33.857  1.00  0.00    -0.205 F 
ATOM     92  C   UNL A   1      49.653  25.080  33.203  1.00  0.00     0.022 A 
BRANCH  90  93
ATOM     93  S   UNL A   1      48.644  23.560  35.246  1.00  0.00     0.127 S 
ATOM     94  O   UNL A   1      47.851  22.396  34.857  1.00  0.00    -0.237 OA
ATOM     95  O   UNL A   1      50.088  23.328  35.288  1.00  0.00    -0.237 OA
ATOM     96  O   UNL A   1      48.121  24.322  36.372  1.00  0.00    -0.744 OA
ENDBRANCH  90  93
ENDBRANCH  63  86
ENDBRANCH  37  38
ENDBRANCH  29  32
ENDBRANCH  27  28
ENDBRANCH  26  27
ENDBRANCH  25  26
ENDBRANCH   1  25
TORSDOF 21
ENDMDL
MODEL 3
REMARK VINA RESULT:     -10.4      2.278      3.046
REMARK SMILES [NH3+]CCOCC(=O)N[C@H](C(=O)NCCCCNC(=O)c1ccc(-c2c3nc(c(-c4cccc(S(=O)(=O)[O-])c4F)c4ccc([nH]4)c(-c4cccc(S(=O)(=O)[O-])c4F)c4nc(c(-c5cccc(S(=O)(=O)[O-])c5F)c5ccc2[nH]5)C=C4)C=C3)cc1)C1CCCCC1
REMARK SMILES IDX 13 1 12 2 10 3 11 4 9 6 8 7 6 8 7 9 5 11 4 12 3 13 2 14 1 15
REMARK SMILES IDX 83 19 84 20 88 21 85 22 87 23 86 24 14 25 15 26 16 27 17 28
REMARK SMILES IDX 18 29 19 31 20 32 21 33 82 34 22 35 81 36 23 37 24 38 25 39
REMARK SMILES IDX 75 40 26 41 80 42 74 43 76 44 27 45 79 46 73 47 72 48 28 50
REMARK SMILES IDX 60 51 40 52 59 53 41 54 44 55 58 56 77 57 42 58 43 59 57 61
REMARK SMILES IDX 78 62 45 63 29 64 30 65 38 66 31 67 33 68 39 69 32 70 34 71
REMARK SMILES IDX 35 72 36 73 37 74 61 75 62 76 70 77 63 78 65 79 71 80 64 81
REMARK SMILES IDX 66 82 67 83 68 84 69 85 46 86 47 87 55 88 48 89 50 90 56 91
REMARK SMILES IDX 49 92 51 93 52 94 53 95 54 96
REMARK H PARENT 12 5 8 10 1 16 1 17 1 18 17 30 76 49 44 60
REMARK Flexibility Score: inf
ROOT
ATOM      1  C   UNL A   1      31.848  29.275  25.495  1.00  0.00     0.116 C 
ENDROOT
BRANCH   1   2
ATOM      2  N   UNL A   1      32.834  29.093  24.444  1.00  0.00    -0.354 N 
ATOM      3  C   UNL A   1      32.725  28.534  23.201  1.00  0.00     0.242 C 
ATOM      4  O   UNL A   1      33.708  28.625  22.465  1.00  0.00    -0.273 OA
ATOM      5  H   UNL A   1      33.732  29.431  24.664  1.00  0.00     0.163 HD
BRANCH   3   6
ATOM      6  C   UNL A   1      31.343  28.037  22.706  1.00  0.00     0.174 C 
BRANCH   6   7
ATOM      7  N   UNL A   1      31.236  26.669  23.265  1.00  0.00    -0.342 N 
ATOM      8  C   UNL A   1      31.595  25.411  22.925  1.00  0.00     0.246 C 
ATOM      9  O   UNL A   1      31.086  24.496  23.586  1.00  0.00    -0.272 OA
ATOM     10  H   UNL A   1      30.770  26.680  24.132  1.00  0.00     0.164 HD
BRANCH   8  11
ATOM     11  C   UNL A   1      32.643  25.071  21.863  1.00  0.00     0.260 C 
BRANCH  11  12
ATOM     12  O   UNL A   1      33.759  24.273  22.190  1.00  0.00    -0.366 OA
BRANCH  12  13
ATOM     13  C   UNL A   1      34.354  24.565  23.458  1.00  0.00     0.222 C 
BRANCH  13  14
ATOM     14  C   UNL A   1      34.386  23.331  24.371  1.00  0.00     0.287 C 
BRANCH  14  15
ATOM     15  N   UNL A   1      33.325  23.315  25.381  1.00  0.00    -0.356 N 
ATOM     16  H   UNL A   1      32.992  24.266  25.540  1.00  0.00     0.344 HD
ATOM     17  H   UNL A   1      33.692  22.934  26.253  1.00  0.00     0.344 HD
ATOM     18  H   UNL A   1      32.552  22.734  25.056  1.00  0.00     0.344 HD
ENDBRANCH  14  15
ENDBRANCH  13  14
ENDBRANCH  12  13
ENDBRANCH  11  12
ENDBRANCH   8  11
ENDBRANCH   6   7
BRANCH   6  19
ATOM     19  C   UNL A   1      30.163  29.020  22.884  1.00  0.00     0.021 C 
ATOM     20  C   UNL A   1      30.032  30.121  21.821  1.00  0.00     0.006 C 
ATOM     21  C   UNL A   1      28.811  28.272  22.929  1.00  0.00     0.006 C 
ATOM     22  C   UNL A   1      28.959  31.130  22.220  1.00  0.00     0.000 C 
ATOM     23  C   UNL A   1      27.668  29.228  23.289  1.00  0.00     0.000 C 
ATOM     24  C   UNL A   1      27.604  30.446  22.371  1.00  0.00     0.000 C 
ENDBRANCH   6  19
ENDBRANCH   3   6
ENDBRANCH   1   2
BRANCH   1  25
ATOM     25  C   UNL A   1      31.625  30.749  25.826  1.00  0.00     0.023 C 
BRANCH  25  26
ATOM     26  C   UNL A   1      32.087  31.174  27.224  1.00  0.00     0.023 C 
BRANCH  26  27
ATOM     27  C   UNL A   1      33.200  32.219  27.267  1.00  0.00     0.116 C 
BRANCH  27  28
ATOM     28  N   UNL A   1      32.717  33.560  27.559  1.00  0.00    -0.352 N 
ATOM     29  C   UNL A   1      33.173  34.438  28.518  1.00  0.00     0.251 C 
ATOM     30  H   UNL A   1      31.972  33.882  27.002  1.00  0.00     0.163 HD
ATOM     31  O   UNL A   1      32.589  35.500  28.712  1.00  0.00    -0.269 OA
BRANCH  29  32
ATOM     32  C   UNL A   1      34.349  34.070  29.334  1.00  0.00     0.039 A 
ATOM     33  C   UNL A   1      34.164  33.301  30.487  1.00  0.00     0.014 A 
ATOM     34  C   UNL A   1      35.633  34.448  28.933  1.00  0.00     0.014 A 
ATOM     35  C   UNL A   1      35.277  32.842  31.198  1.00  0.00     0.010 A 
ATOM     36  C   UNL A   1      36.738  33.942  29.610  1.00  0.00     0.010 A 
ATOM     37  C   UNL A   1      36.573  33.129  30.743  1.00  0.00    -0.014 A 
BRANCH  37  38
ATOM     38  C   UNL A   1      37.785  32.597  31.416  1.00  0.00     0.031 A 
ATOM     39  C   UNL A   1      38.538  31.454  30.791  1.00  0.00     0.074 A 
ATOM     40  C   UNL A   1      38.124  33.041  32.643  1.00  0.00     0.049 A 
ATOM     41  N   UNL A   1      39.492  30.718  31.297  1.00  0.00    -0.248 NA
ATOM     42  C   UNL A   1      38.137  31.067  29.428  1.00  0.00     0.031 C 
ATOM     43  C   UNL A   1      37.439  34.105  33.377  1.00  0.00     0.029 A 
ATOM     44  N   UNL A   1      39.102  32.617  33.508  1.00  0.00    -0.354 N 
ATOM     45  C   UNL A   1      39.768  29.748  30.341  1.00  0.00     0.074 A 
ATOM     46  C   UNL A   1      38.871  29.981  29.230  1.00  0.00     0.031 C 
ATOM     47  C   UNL A   1      38.005  34.240  34.588  1.00  0.00     0.029 A 
ATOM     48  C   UNL A   1      39.068  33.250  34.731  1.00  0.00     0.049 A 
ATOM     49  H   UNL A   1      39.766  31.927  33.277  1.00  0.00     0.167 HD
ATOM     50  C   UNL A   1      40.699  28.765  30.376  1.00  0.00     0.034 A 
ATOM     51  C   UNL A   1      39.795  33.040  35.847  1.00  0.00     0.034 A 
ATOM     52  C   UNL A   1      41.629  28.578  31.455  1.00  0.00     0.049 A 
ATOM     53  C   UNL A   1      40.858  31.974  35.840  1.00  0.00     0.074 A 
ATOM     54  C   UNL A   1      42.664  27.666  31.548  1.00  0.00     0.029 A 
ATOM     55  N   UNL A   1      41.641  29.320  32.625  1.00  0.00    -0.354 N 
ATOM     56  N   UNL A   1      41.194  31.153  34.875  1.00  0.00    -0.248 NA
ATOM     57  C   UNL A   1      41.664  31.824  37.061  1.00  0.00     0.031 C 
ATOM     58  C   UNL A   1      43.300  27.852  32.779  1.00  0.00     0.029 A 
ATOM     59  C   UNL A   1      42.669  28.891  33.445  1.00  0.00     0.049 A 
ATOM     60  H   UNL A   1      41.011  30.046  32.841  1.00  0.00     0.167 HD
ATOM     61  C   UNL A   1      42.276  30.423  35.354  1.00  0.00     0.074 A 
ATOM     62  C   UNL A   1      42.545  30.902  36.693  1.00  0.00     0.031 C 
ATOM     63  C   UNL A   1      42.975  29.435  34.742  1.00  0.00     0.034 A 
BRANCH  50  64
ATOM     64  C   UNL A   1      40.796  27.851  29.185  1.00  0.00     0.023 A 
ATOM     65  C   UNL A   1      39.965  26.716  29.114  1.00  0.00     0.012 A 
ATOM     66  C   UNL A   1      41.660  28.144  28.112  1.00  0.00     0.148 A 
ATOM     67  C   UNL A   1      40.015  25.866  28.009  1.00  0.00     0.002 A 
ATOM     68  C   UNL A   1      41.675  27.317  26.996  1.00  0.00     0.091 A 
ATOM     69  F   UNL A   1      42.460  29.217  28.207  1.00  0.00    -0.205 F 
ATOM     70  C   UNL A   1      40.861  26.172  26.947  1.00  0.00     0.022 A 
BRANCH  68  71
ATOM     71  S   UNL A   1      42.673  27.671  25.545  1.00  0.00     0.127 S 
ATOM     72  O   UNL A   1      42.045  28.894  25.046  1.00  0.00    -0.237 OA
ATOM     73  O   UNL A   1      44.004  27.862  26.122  1.00  0.00    -0.237 OA
ATOM     74  O   UNL A   1      42.551  26.504  24.682  1.00  0.00    -0.744 OA
ENDBRANCH  68  71
ENDBRANCH  50  64
BRANCH  51  75
ATOM     75  C   UNL A   1      39.588  33.906  37.043  1.00  0.00     0.023 A 
ATOM     76  C   UNL A   1      40.009  35.249  36.998  1.00  0.00     0.012 A 
ATOM     77  C   UNL A   1      38.951  33.426  38.204  1.00  0.00     0.148 A 
ATOM     78  C   UNL A   1      39.827  36.090  38.095  1.00  0.00     0.002 A 
ATOM     79  C   UNL A   1      38.725  34.284  39.275  1.00  0.00     0.091 A 
ATOM     80  F   UNL A   1      38.569  32.141  38.235  1.00  0.00    -0.205 F 
ATOM     81  C   UNL A   1      39.176  35.612  39.229  1.00  0.00     0.022 A 
BRANCH  79  82
ATOM     82  S   UNL A   1      37.777  33.788  40.719  1.00  0.00     0.127 S 
ATOM     83  O   UNL A   1      36.604  33.169  40.109  1.00  0.00    -0.237 OA
ATOM     84  O   UNL A   1      38.692  32.857  41.380  1.00  0.00    -0.237 OA
ATOM     85  O   UNL A   1      37.534  35.015  41.464  1.00  0.00    -0.744 OA
ENDBRANCH  79  82
ENDBRANCH  51  75
BRANCH  63  86
ATOM     86  C   UNL A   1      44.143  28.834  35.476  1.00  0.00     0.023 A 
ATOM     87  C   UNL A   1      45.424  29.401  35.338  1.00  0.00     0.012 A 
ATOM     88  C   UNL A   1      43.942  27.786  36.395  1.00  0.00     0.148 A 
ATOM     89  C   UNL A   1      46.492  28.926  36.097  1.00  0.00     0.002 A 
ATOM     90  C   UNL A   1      45.000  27.347  37.181  1.00  0.00     0.091 A 
ATOM     91  F   UNL A   1      42.716  27.251  36.496  1.00  0.00    -0.205 F 
ATOM     92  C   UNL A   1      46.277  27.910  37.027  1.00  0.00     0.022 A 
BRANCH  90  93
ATOM     93  S   UNL A   1      44.798  26.112  38.470  1.00  0.00     0.127 S 
ATOM     94  O   UNL A   1      44.230  24.991  37.723  1.00  0.00    -0.237 OA
ATOM     95  O   UNL A   1      46.174  25.909  38.923  1.00  0.00    -0.237 OA
ATOM     96  O   UNL A   1      43.915  26.708  39.464  1.00  0.00    -0.744 OA
ENDBRANCH  90  93
ENDBRANCH  63  86
ENDBRANCH  37  38
ENDBRANCH  29  32
ENDBRANCH  27  28
ENDBRANCH  26  27
ENDBRANCH  25  26
ENDBRANCH   1  25
TORSDOF 21
ENDMDL
