MODEL 1
REMARK VINA RESULT:     -13.6      0.000      0.000
REMARK SMILES O=C(NCCCCNC(=O)[C@@H]1CN(C(=O)[C@H]2CC=CCC2)c2ccccc2O1)c1ccc(-c2c3nc(c(-c4cccc(S(=O)(=O)[O-])c4F)c4ccc([nH]4)c(-c4cccc(S(=O)(=O)[O-])c4F)c4nc(c(-c5cccc(S(=O)(=O)[O-])c5F)c5ccc2[nH]5)C=C4)C=C3)cc1
REMARK SMILES IDX 5 1 4 2 3 3 1 4 2 5 29 7 30 8 91 9 31 10 90 11 32 12 33 13
REMARK SMILES IDX 34 14 84 15 35 16 89 17 83 18 85 19 36 20 88 21 82 22 81 23
REMARK SMILES IDX 37 25 69 26 49 27 68 28 50 29 53 30 67 31 86 32 51 33 52 34
REMARK SMILES IDX 66 36 87 37 54 38 38 39 39 40 47 41 40 42 42 43 48 44 41 45
REMARK SMILES IDX 43 46 44 47 45 48 46 49 70 50 71 51 79 52 72 53 74 54 80 55
REMARK SMILES IDX 73 56 75 57 76 58 77 59 78 60 55 61 56 62 64 63 57 64 59 65
REMARK SMILES IDX 65 66 58 67 60 68 61 69 62 70 63 71 6 72 7 73 8 74 9 75
REMARK SMILES IDX 10 77 11 78 12 79 28 80 13 81 27 82 22 83 26 84 23 85 25 86
REMARK SMILES IDX 24 87 14 88 15 89 16 90 17 91 21 92 18 93 20 94 19 95
REMARK H PARENT 3 6 85 24 53 35 8 76
REMARK Flexibility Score: inf
ROOT
ATOM      1  C   UNL A   1      31.889  28.890  26.832  1.00  0.00     0.023 C 
ENDROOT
BRANCH   1   2
ATOM      2  C   UNL A   1      32.639  30.074  26.224  1.00  0.00     0.116 C 
BRANCH   2   3
ATOM      3  N   UNL A   1      32.472  31.344  26.916  1.00  0.00    -0.352 N 
ATOM      4  O   UNL A   1      33.111  33.148  28.147  1.00  0.00    -0.269 OA
ATOM      5  C   UNL A   1      33.406  32.076  27.624  1.00  0.00     0.251 C 
ATOM      6  H   UNL A   1      31.570  31.735  26.873  1.00  0.00     0.163 HD
BRANCH   5   7
ATOM      7  C   UNL A   1      34.765  31.521  27.810  1.00  0.00     0.039 A 
ATOM      8  C   UNL A   1      34.947  30.162  28.066  1.00  0.00     0.014 A 
ATOM      9  C   UNL A   1      35.851  32.397  27.864  1.00  0.00     0.014 A 
ATOM     10  C   UNL A   1      36.144  29.733  28.630  1.00  0.00     0.010 A 
ATOM     11  C   UNL A   1      37.088  31.936  28.326  1.00  0.00     0.010 A 
ATOM     12  C   UNL A   1      37.218  30.624  28.804  1.00  0.00    -0.014 A 
BRANCH  12  13
ATOM     13  C   UNL A   1      38.437  30.171  29.535  1.00  0.00     0.031 A 
ATOM     14  C   UNL A   1      38.697  30.604  30.961  1.00  0.00     0.074 A 
ATOM     15  C   UNL A   1      39.291  29.321  28.933  1.00  0.00     0.049 A 
ATOM     16  N   UNL A   1      39.675  30.254  31.760  1.00  0.00    -0.248 NA
ATOM     17  C   UNL A   1      37.752  31.556  31.567  1.00  0.00     0.031 C 
ATOM     18  C   UNL A   1      39.176  28.852  27.551  1.00  0.00     0.029 A 
ATOM     19  N   UNL A   1      40.411  28.685  29.407  1.00  0.00    -0.354 N 
ATOM     20  C   UNL A   1      39.498  30.984  32.932  1.00  0.00     0.074 A 
ATOM     21  C   UNL A   1      38.318  31.799  32.742  1.00  0.00     0.031 C 
ATOM     22  C   UNL A   1      40.152  27.967  27.304  1.00  0.00     0.029 A 
ATOM     23  C   UNL A   1      40.992  27.840  28.491  1.00  0.00     0.049 A 
ATOM     24  H   UNL A   1      40.765  28.821  30.316  1.00  0.00     0.167 HD
ATOM     25  C   UNL A   1      40.234  30.967  34.069  1.00  0.00     0.034 A 
ATOM     26  C   UNL A   1      42.075  27.046  28.590  1.00  0.00     0.034 A 
ATOM     27  C   UNL A   1      41.360  30.098  34.293  1.00  0.00     0.049 A 
ATOM     28  C   UNL A   1      42.828  26.991  29.888  1.00  0.00     0.074 A 
ATOM     29  C   UNL A   1      42.123  29.957  35.440  1.00  0.00     0.029 A 
ATOM     30  N   UNL A   1      41.879  29.217  33.358  1.00  0.00    -0.354 N 
ATOM     31  N   UNL A   1      42.570  27.603  31.018  1.00  0.00    -0.248 NA
ATOM     32  C   UNL A   1      44.008  26.114  29.934  1.00  0.00     0.031 C 
ATOM     33  C   UNL A   1      43.106  28.991  35.197  1.00  0.00     0.029 A 
ATOM     34  C   UNL A   1      42.950  28.527  33.901  1.00  0.00     0.049 A 
ATOM     35  H   UNL A   1      41.537  29.100  32.442  1.00  0.00     0.167 HD
ATOM     36  C   UNL A   1      43.537  27.169  31.915  1.00  0.00     0.074 A 
ATOM     37  C   UNL A   1      44.372  26.220  31.205  1.00  0.00     0.031 C 
ATOM     38  C   UNL A   1      43.733  27.540  33.204  1.00  0.00     0.034 A 
BRANCH  25  39
ATOM     39  C   UNL A   1      39.820  31.880  35.194  1.00  0.00     0.023 A 
ATOM     40  C   UNL A   1      40.221  33.232  35.176  1.00  0.00     0.012 A 
ATOM     41  C   UNL A   1      38.971  31.425  36.223  1.00  0.00     0.148 A 
ATOM     42  C   UNL A   1      39.803  34.110  36.176  1.00  0.00     0.002 A 
ATOM     43  C   UNL A   1      38.531  32.316  37.197  1.00  0.00     0.091 A 
ATOM     44  F   UNL A   1      38.620  30.132  36.240  1.00  0.00    -0.205 F 
ATOM     45  C   UNL A   1      38.951  33.655  37.180  1.00  0.00     0.022 A 
BRANCH  43  46
ATOM     46  S   UNL A   1      37.369  31.833  38.482  1.00  0.00     0.127 S 
ATOM     47  O   UNL A   1      37.086  30.446  38.117  1.00  0.00    -0.237 OA
ATOM     48  O   UNL A   1      38.164  31.992  39.700  1.00  0.00    -0.237 OA
ATOM     49  O   UNL A   1      36.251  32.758  38.369  1.00  0.00    -0.744 OA
ENDBRANCH  43  46
ENDBRANCH  25  39
BRANCH  26  50
ATOM     50  C   UNL A   1      42.455  26.178  27.440  1.00  0.00     0.023 A 
ATOM     51  C   UNL A   1      43.309  26.690  26.445  1.00  0.00     0.012 A 
ATOM     52  C   UNL A   1      42.034  24.837  27.361  1.00  0.00     0.148 A 
ATOM     53  C   UNL A   1      43.725  25.886  25.384  1.00  0.00     0.002 A 
ATOM     54  C   UNL A   1      42.501  24.025  26.335  1.00  0.00     0.091 A 
ATOM     55  F   UNL A   1      41.201  24.373  28.304  1.00  0.00    -0.205 F 
ATOM     56  C   UNL A   1      43.335  24.550  25.337  1.00  0.00     0.022 A 
BRANCH  54  57
ATOM     57  S   UNL A   1      42.167  22.260  26.301  1.00  0.00     0.127 S 
ATOM     58  O   UNL A   1      40.719  22.231  26.117  1.00  0.00    -0.237 OA
ATOM     59  O   UNL A   1      42.944  21.820  25.141  1.00  0.00    -0.237 OA
ATOM     60  O   UNL A   1      42.664  21.753  27.573  1.00  0.00    -0.744 OA
ENDBRANCH  54  57
ENDBRANCH  26  50
BRANCH  38  61
ATOM     61  C   UNL A   1      44.879  26.906  33.943  1.00  0.00     0.023 A 
ATOM     62  C   UNL A   1      46.167  27.466  33.838  1.00  0.00     0.012 A 
ATOM     63  C   UNL A   1      44.673  25.797  34.786  1.00  0.00     0.148 A 
ATOM     64  C   UNL A   1      47.239  26.914  34.539  1.00  0.00     0.002 A 
ATOM     65  C   UNL A   1      45.739  25.276  35.512  1.00  0.00     0.091 A 
ATOM     66  F   UNL A   1      43.445  25.260  34.855  1.00  0.00    -0.205 F 
ATOM     67  C   UNL A   1      47.023  25.827  35.382  1.00  0.00     0.022 A 
BRANCH  65  68
ATOM     68  S   UNL A   1      45.515  23.931  36.681  1.00  0.00     0.127 S 
ATOM     69  O   UNL A   1      44.573  24.514  37.634  1.00  0.00    -0.237 OA
ATOM     70  O   UNL A   1      44.955  22.869  35.843  1.00  0.00    -0.237 OA
ATOM     71  O   UNL A   1      46.846  23.642  37.200  1.00  0.00    -0.744 OA
ENDBRANCH  65  68
ENDBRANCH  38  61
ENDBRANCH  12  13
ENDBRANCH   5   7
ENDBRANCH   2   3
ENDBRANCH   1   2
BRANCH   1  72
ATOM     72  C   UNL A   1      32.578  27.523  26.764  1.00  0.00     0.023 C 
BRANCH  72  73
ATOM     73  C   UNL A   1      31.749  26.441  26.079  1.00  0.00     0.116 C 
BRANCH  73  74
ATOM     74  N   UNL A   1      31.642  25.197  26.812  1.00  0.00    -0.353 N 
ATOM     75  C   UNL A   1      31.944  23.909  26.520  1.00  0.00     0.262 C 
ATOM     76  H   UNL A   1      31.272  25.311  27.717  1.00  0.00     0.163 HD
ATOM     77  O   UNL A   1      32.144  23.184  27.508  1.00  0.00    -0.271 OA
BRANCH  75  78
ATOM     78  C   UNL A   1      31.949  23.257  25.120  1.00  0.00     0.281 C 
ATOM     79  C   UNL A   1      31.727  21.770  24.913  1.00  0.00     0.181 C 
ATOM     80  O   UNL A   1      33.025  23.756  24.342  1.00  0.00    -0.477 OA
ATOM     81  N   UNL A   1      32.911  20.928  25.066  1.00  0.00    -0.304 N 
ATOM     82  C   UNL A   1      34.154  22.992  24.448  1.00  0.00     0.144 A 
ATOM     83  C   UNL A   1      34.159  21.612  24.734  1.00  0.00     0.086 A 
ATOM     84  C   UNL A   1      35.336  23.716  24.240  1.00  0.00     0.049 A 
ATOM     85  C   UNL A   1      35.418  20.988  24.730  1.00  0.00     0.030 A 
ATOM     86  C   UNL A   1      36.567  23.083  24.319  1.00  0.00     0.004 A 
ATOM     87  C   UNL A   1      36.606  21.715  24.550  1.00  0.00     0.002 A 
BRANCH  81  88
ATOM     88  C   UNL A   1      32.863  19.623  25.565  1.00  0.00     0.230 C 
ATOM     89  O   UNL A   1      33.218  19.359  26.723  1.00  0.00    -0.274 OA
BRANCH  88  90
ATOM     90  C   UNL A   1      32.374  18.389  24.754  1.00  0.00     0.083 C 
ATOM     91  C   UNL A   1      32.469  18.334  23.221  1.00  0.00     0.040 C 
ATOM     92  C   UNL A   1      32.729  17.059  25.424  1.00  0.00     0.018 C 
ATOM     93  C   UNL A   1      33.505  17.388  22.679  1.00  0.00    -0.030 C 
ATOM     94  C   UNL A   1      34.031  16.438  24.930  1.00  0.00     0.028 C 
ATOM     95  C   UNL A   1      34.219  16.554  23.449  1.00  0.00    -0.031 C 
ENDBRANCH  88  90
ENDBRANCH  81  88
ENDBRANCH  75  78
ENDBRANCH  73  74
ENDBRANCH  72  73
ENDBRANCH   1  72
TORSDOF 16
ENDMDL
MODEL 2
REMARK VINA RESULT:     -13.2      5.221     10.682
REMARK SMILES O=C(NCCCCNC(=O)[C@@H]1CN(C(=O)[C@H]2CC=CCC2)c2ccccc2O1)c1ccc(-c2c3nc(c(-c4cccc(S(=O)(=O)[O-])c4F)c4ccc([nH]4)c(-c4cccc(S(=O)(=O)[O-])c4F)c4nc(c(-c5cccc(S(=O)(=O)[O-])c5F)c5ccc2[nH]5)C=C4)C=C3)cc1
REMARK SMILES IDX 5 1 4 2 3 3 1 4 2 5 29 7 30 8 91 9 31 10 90 11 32 12 33 13
REMARK SMILES IDX 34 14 84 15 35 16 89 17 83 18 85 19 36 20 88 21 82 22 81 23
REMARK SMILES IDX 37 25 69 26 49 27 68 28 50 29 53 30 67 31 86 32 51 33 52 34
REMARK SMILES IDX 66 36 87 37 54 38 38 39 39 40 47 41 40 42 42 43 48 44 41 45
REMARK SMILES IDX 43 46 44 47 45 48 46 49 70 50 71 51 79 52 72 53 74 54 80 55
REMARK SMILES IDX 73 56 75 57 76 58 77 59 78 60 55 61 56 62 64 63 57 64 59 65
REMARK SMILES IDX 65 66 58 67 60 68 61 69 62 70 63 71 6 72 7 73 8 74 9 75
REMARK SMILES IDX 10 77 11 78 12 79 28 80 13 81 27 82 22 83 26 84 23 85 25 86
REMARK SMILES IDX 24 87 14 88 15 89 16 90 17 91 21 92 18 93 20 94 19 95
REMARK H PARENT 3 6 85 24 53 35 8 76
REMARK Flexibility Score: inf
ROOT
ATOM      1  C   UNL A   1      35.296  22.155  25.068  1.00  0.00     0.023 C 
ENDROOT
BRANCH   1   2
ATOM      2  C   UNL A   1      36.747  22.498  24.738  1.00  0.00     0.116 C 
BRANCH   2   3
ATOM      3  N   UNL A   1      37.697  21.403  24.878  1.00  0.00    -0.352 N 
ATOM      4  O   UNL A   1      39.509  20.307  25.710  1.00  0.00    -0.269 OA
ATOM      5  C   UNL A   1      38.805  21.313  25.699  1.00  0.00     0.251 C 
ATOM      6  H   UNL A   1      37.525  20.618  24.309  1.00  0.00     0.163 HD
BRANCH   5   7
ATOM      7  C   UNL A   1      39.184  22.481  26.524  1.00  0.00     0.039 A 
ATOM      8  C   UNL A   1      38.545  23.709  26.353  1.00  0.00     0.014 A 
ATOM      9  C   UNL A   1      40.284  22.375  27.379  1.00  0.00     0.014 A 
ATOM     10  C   UNL A   1      39.162  24.865  26.820  1.00  0.00     0.010 A 
ATOM     11  C   UNL A   1      40.836  23.532  27.940  1.00  0.00     0.010 A 
ATOM     12  C   UNL A   1      40.338  24.794  27.587  1.00  0.00    -0.014 A 
BRANCH  12  13
ATOM     13  C   UNL A   1      41.051  26.051  27.957  1.00  0.00     0.031 A 
ATOM     14  C   UNL A   1      42.447  26.335  27.448  1.00  0.00     0.074 A 
ATOM     15  C   UNL A   1      40.420  26.972  28.711  1.00  0.00     0.049 A 
ATOM     16  N   UNL A   1      43.184  27.404  27.624  1.00  0.00    -0.248 NA
ATOM     17  C   UNL A   1      43.107  25.288  26.651  1.00  0.00     0.031 C 
ATOM     18  C   UNL A   1      39.087  26.810  29.294  1.00  0.00     0.029 A 
ATOM     19  N   UNL A   1      40.803  28.230  29.102  1.00  0.00    -0.354 N 
ATOM     20  C   UNL A   1      44.408  27.135  27.018  1.00  0.00     0.074 A 
ATOM     21  C   UNL A   1      44.317  25.801  26.467  1.00  0.00     0.031 C 
ATOM     22  C   UNL A   1      38.741  27.942  29.924  1.00  0.00     0.029 A 
ATOM     23  C   UNL A   1      39.845  28.893  29.834  1.00  0.00     0.049 A 
ATOM     24  H   UNL A   1      41.679  28.621  28.880  1.00  0.00     0.167 HD
ATOM     25  C   UNL A   1      45.500  27.929  26.909  1.00  0.00     0.034 A 
ATOM     26  C   UNL A   1      39.846  30.129  30.370  1.00  0.00     0.034 A 
ATOM     27  C   UNL A   1      45.567  29.287  27.384  1.00  0.00     0.049 A 
ATOM     28  C   UNL A   1      41.043  31.014  30.170  1.00  0.00     0.074 A 
ATOM     29  C   UNL A   1      46.605  30.193  27.254  1.00  0.00     0.029 A 
ATOM     30  N   UNL A   1      44.553  29.936  28.068  1.00  0.00    -0.354 N 
ATOM     31  N   UNL A   1      42.139  30.778  29.491  1.00  0.00    -0.248 NA
ATOM     32  C   UNL A   1      40.992  32.347  30.787  1.00  0.00     0.031 C 
ATOM     33  C   UNL A   1      46.220  31.392  27.863  1.00  0.00     0.029 A 
ATOM     34  C   UNL A   1      44.939  31.233  28.367  1.00  0.00     0.049 A 
ATOM     35  H   UNL A   1      43.686  29.536  28.309  1.00  0.00     0.167 HD
ATOM     36  C   UNL A   1      42.897  31.938  29.579  1.00  0.00     0.074 A 
ATOM     37  C   UNL A   1      42.124  32.888  30.353  1.00  0.00     0.031 C 
ATOM     38  C   UNL A   1      44.134  32.188  29.083  1.00  0.00     0.034 A 
BRANCH  25  39
ATOM     39  C   UNL A   1      46.710  27.374  26.202  1.00  0.00     0.023 A 
ATOM     40  C   UNL A   1      46.842  27.546  24.810  1.00  0.00     0.012 A 
ATOM     41  C   UNL A   1      47.751  26.755  26.923  1.00  0.00     0.148 A 
ATOM     42  C   UNL A   1      47.979  27.090  24.142  1.00  0.00     0.002 A 
ATOM     43  C   UNL A   1      48.898  26.336  26.255  1.00  0.00     0.091 A 
ATOM     44  F   UNL A   1      47.600  26.577  28.243  1.00  0.00    -0.205 F 
ATOM     45  C   UNL A   1      49.010  26.495  24.865  1.00  0.00     0.022 A 
BRANCH  43  46
ATOM     46  S   UNL A   1      50.306  25.630  27.121  1.00  0.00     0.127 S 
ATOM     47  O   UNL A   1      50.536  26.622  28.169  1.00  0.00    -0.237 OA
ATOM     48  O   UNL A   1      49.775  24.353  27.597  1.00  0.00    -0.237 OA
ATOM     49  O   UNL A   1      51.360  25.507  26.123  1.00  0.00    -0.744 OA
ENDBRANCH  43  46
ENDBRANCH  25  39
BRANCH  26  50
ATOM     50  C   UNL A   1      38.632  30.621  31.079  1.00  0.00     0.023 A 
ATOM     51  C   UNL A   1      38.566  30.520  32.481  1.00  0.00     0.012 A 
ATOM     52  C   UNL A   1      37.579  31.246  30.384  1.00  0.00     0.148 A 
ATOM     53  C   UNL A   1      37.466  31.020  33.178  1.00  0.00     0.002 A 
ATOM     54  C   UNL A   1      36.515  31.795  31.089  1.00  0.00     0.091 A 
ATOM     55  F   UNL A   1      37.647  31.311  29.046  1.00  0.00    -0.205 F 
ATOM     56  C   UNL A   1      36.448  31.671  32.485  1.00  0.00     0.022 A 
BRANCH  54  57
ATOM     57  S   UNL A   1      35.253  32.783  30.277  1.00  0.00     0.127 S 
ATOM     58  O   UNL A   1      36.033  33.906  29.766  1.00  0.00    -0.237 OA
ATOM     59  O   UNL A   1      34.753  31.864  29.253  1.00  0.00    -0.237 OA
ATOM     60  O   UNL A   1      34.283  33.094  31.318  1.00  0.00    -0.744 OA
ENDBRANCH  54  57
ENDBRANCH  26  50
BRANCH  38  61
ATOM     61  C   UNL A   1      44.724  33.547  29.340  1.00  0.00     0.023 A 
ATOM     62  C   UNL A   1      45.461  33.772  30.519  1.00  0.00     0.012 A 
ATOM     63  C   UNL A   1      44.600  34.581  28.393  1.00  0.00     0.148 A 
ATOM     64  C   UNL A   1      46.044  35.015  30.764  1.00  0.00     0.002 A 
ATOM     65  C   UNL A   1      45.217  35.807  28.626  1.00  0.00     0.091 A 
ATOM     66  F   UNL A   1      43.873  34.359  27.287  1.00  0.00    -0.205 F 
ATOM     67  C   UNL A   1      45.930  36.028  29.815  1.00  0.00     0.022 A 
BRANCH  65  68
ATOM     68  S   UNL A   1      45.182  37.127  27.408  1.00  0.00     0.127 S 
ATOM     69  O   UNL A   1      45.744  38.245  28.162  1.00  0.00    -0.237 OA
ATOM     70  O   UNL A   1      46.051  36.608  26.350  1.00  0.00    -0.237 OA
ATOM     71  O   UNL A   1      43.784  37.260  27.021  1.00  0.00    -0.744 OA
ENDBRANCH  65  68
ENDBRANCH  38  61
ENDBRANCH  12  13
ENDBRANCH   5   7
ENDBRANCH   2   3
ENDBRANCH   1   2
BRANCH   1  72
ATOM     72  C   UNL A   1      34.414  23.296  25.586  1.00  0.00     0.023 C 
BRANCH  72  73
ATOM     73  C   UNL A   1      34.796  24.673  25.050  1.00  0.00     0.116 C 
BRANCH  73  74
ATOM     74  N   UNL A   1      34.206  25.016  23.773  1.00  0.00    -0.353 N 
ATOM     75  C   UNL A   1      33.137  25.764  23.407  1.00  0.00     0.262 C 
ATOM     76  H   UNL A   1      34.684  24.623  23.007  1.00  0.00     0.163 HD
ATOM     77  O   UNL A   1      33.182  26.204  22.247  1.00  0.00    -0.271 OA
BRANCH  75  78
ATOM     78  C   UNL A   1      31.858  26.012  24.235  1.00  0.00     0.281 C 
ATOM     79  C   UNL A   1      30.710  26.863  23.725  1.00  0.00     0.181 C 
ATOM     80  O   UNL A   1      32.186  26.302  25.584  1.00  0.00    -0.477 OA
ATOM     81  N   UNL A   1      30.853  28.303  23.925  1.00  0.00    -0.304 N 
ATOM     82  C   UNL A   1      32.322  27.642  25.820  1.00  0.00     0.144 A 
ATOM     83  C   UNL A   1      31.658  28.651  25.094  1.00  0.00     0.086 A 
ATOM     84  C   UNL A   1      33.198  27.935  26.874  1.00  0.00     0.049 A 
ATOM     85  C   UNL A   1      31.873  29.968  25.534  1.00  0.00     0.030 A 
ATOM     86  C   UNL A   1      33.446  29.251  27.233  1.00  0.00     0.004 A 
ATOM     87  C   UNL A   1      32.771  30.267  26.571  1.00  0.00     0.002 A 
BRANCH  81  88
ATOM     88  C   UNL A   1      30.343  29.254  23.036  1.00  0.00     0.230 C 
ATOM     89  O   UNL A   1      30.946  29.556  21.996  1.00  0.00    -0.274 OA
BRANCH  88  90
ATOM     90  C   UNL A   1      29.004  30.019  23.239  1.00  0.00     0.083 C 
ATOM     91  C   UNL A   1      28.961  31.445  23.809  1.00  0.00     0.040 C 
ATOM     92  C   UNL A   1      28.016  29.802  22.089  1.00  0.00     0.018 C 
ATOM     93  C   UNL A   1      28.601  32.517  22.818  1.00  0.00    -0.030 C 
ATOM     94  C   UNL A   1      28.069  30.877  21.009  1.00  0.00     0.028 C 
ATOM     95  C   UNL A   1      28.222  32.262  21.557  1.00  0.00    -0.031 C 
ENDBRANCH  88  90
ENDBRANCH  81  88
ENDBRANCH  75  78
ENDBRANCH  73  74
ENDBRANCH  72  73
ENDBRANCH   1  72
TORSDOF 16
ENDMDL
MODEL 3
REMARK VINA RESULT:     -13.2      1.668      2.629
REMARK SMILES O=C(NCCCCNC(=O)[C@@H]1CN(C(=O)[C@H]2CC=CCC2)c2ccccc2O1)c1ccc(-c2c3nc(c(-c4cccc(S(=O)(=O)[O-])c4F)c4ccc([nH]4)c(-c4cccc(S(=O)(=O)[O-])c4F)c4nc(c(-c5cccc(S(=O)(=O)[O-])c5F)c5ccc2[nH]5)C=C4)C=C3)cc1
REMARK SMILES IDX 5 1 4 2 3 3 1 4 2 5 29 7 30 8 91 9 31 10 90 11 32 12 33 13
REMARK SMILES IDX 34 14 84 15 35 16 89 17 83 18 85 19 36 20 88 21 82 22 81 23
REMARK SMILES IDX 37 25 69 26 49 27 68 28 50 29 53 30 67 31 86 32 51 33 52 34
REMARK SMILES IDX 66 36 87 37 54 38 38 39 39 40 47 41 40 42 42 43 48 44 41 45
REMARK SMILES IDX 43 46 44 47 45 48 46 49 70 50 71 51 79 52 72 53 74 54 80 55
REMARK SMILES IDX 73 56 75 57 76 58 77 59 78 60 55 61 56 62 64 63 57 64 59 65
REMARK SMILES IDX 65 66 58 67 60 68 61 69 62 70 63 71 6 72 7 73 8 74 9 75
REMARK SMILES IDX 10 77 11 78 12 79 28 80 13 81 27 82 22 83 26 84 23 85 25 86
REMARK SMILES IDX 24 87 14 88 15 89 16 90 17 91 21 92 18 93 20 94 19 95
REMARK H PARENT 3 6 85 24 53 35 8 76
REMARK Flexibility Score: inf
ROOT
ATOM      1  C   UNL A   1      31.434  29.430  25.084  1.00  0.00     0.023 C 
ENDROOT
BRANCH   1   2
ATOM      2  C   UNL A   1      32.619  30.022  25.845  1.00  0.00     0.116 C 
BRANCH   2   3
ATOM      3  N   UNL A   1      32.338  31.238  26.595  1.00  0.00    -0.352 N 
ATOM      4  O   UNL A   1      32.798  32.999  27.961  1.00  0.00    -0.269 OA
ATOM      5  C   UNL A   1      33.185  31.978  27.397  1.00  0.00     0.251 C 
ATOM      6  H   UNL A   1      31.418  31.580  26.520  1.00  0.00     0.163 HD
BRANCH   5   7
ATOM      7  C   UNL A   1      34.562  31.490  27.633  1.00  0.00     0.039 A 
ATOM      8  C   UNL A   1      34.807  30.132  27.841  1.00  0.00     0.014 A 
ATOM      9  C   UNL A   1      35.592  32.421  27.784  1.00  0.00     0.014 A 
ATOM     10  C   UNL A   1      35.996  29.744  28.451  1.00  0.00     0.010 A 
ATOM     11  C   UNL A   1      36.828  32.007  28.293  1.00  0.00     0.010 A 
ATOM     12  C   UNL A   1      37.007  30.684  28.721  1.00  0.00    -0.014 A 
BRANCH  12  13
ATOM     13  C   UNL A   1      38.210  30.265  29.498  1.00  0.00     0.031 A 
ATOM     14  C   UNL A   1      38.387  30.676  30.943  1.00  0.00     0.074 A 
ATOM     15  C   UNL A   1      39.125  29.464  28.918  1.00  0.00     0.049 A 
ATOM     16  N   UNL A   1      39.342  30.348  31.778  1.00  0.00    -0.248 NA
ATOM     17  C   UNL A   1      37.376  31.574  31.525  1.00  0.00     0.031 C 
ATOM     18  C   UNL A   1      39.092  29.022  27.523  1.00  0.00     0.029 A 
ATOM     19  N   UNL A   1      40.248  28.865  29.430  1.00  0.00    -0.354 N 
ATOM     20  C   UNL A   1      39.082  31.045  32.955  1.00  0.00     0.074 A 
ATOM     21  C   UNL A   1      37.878  31.814  32.728  1.00  0.00     0.031 C 
ATOM     22  C   UNL A   1      40.115  28.184  27.302  1.00  0.00     0.029 A 
ATOM     23  C   UNL A   1      40.906  28.065  28.524  1.00  0.00     0.049 A 
ATOM     24  H   UNL A   1      40.555  28.995  30.357  1.00  0.00     0.167 HD
ATOM     25  C   UNL A   1      39.767  31.032  34.125  1.00  0.00     0.034 A 
ATOM     26  C   UNL A   1      42.015  27.314  28.656  1.00  0.00     0.034 A 
ATOM     27  C   UNL A   1      40.917  30.206  34.382  1.00  0.00     0.049 A 
ATOM     28  C   UNL A   1      42.711  27.261  29.986  1.00  0.00     0.074 A 
ATOM     29  C   UNL A   1      41.633  30.070  35.559  1.00  0.00     0.029 A 
ATOM     30  N   UNL A   1      41.514  29.368  33.454  1.00  0.00    -0.354 N 
ATOM     31  N   UNL A   1      42.377  27.836  31.115  1.00  0.00    -0.248 NA
ATOM     32  C   UNL A   1      43.924  26.433  30.068  1.00  0.00     0.031 C 
ATOM     33  C   UNL A   1      42.665  29.152  35.342  1.00  0.00     0.029 A 
ATOM     34  C   UNL A   1      42.587  28.711  34.031  1.00  0.00     0.049 A 
ATOM     35  H   UNL A   1      41.219  29.257  32.521  1.00  0.00     0.167 HD
ATOM     36  C   UNL A   1      43.320  27.423  32.046  1.00  0.00     0.074 A 
ATOM     37  C   UNL A   1      44.226  26.526  31.357  1.00  0.00     0.031 C 
ATOM     38  C   UNL A   1      43.442  27.773  33.351  1.00  0.00     0.034 A 
BRANCH  25  39
ATOM     39  C   UNL A   1      39.264  31.902  35.248  1.00  0.00     0.023 A 
ATOM     40  C   UNL A   1      38.362  31.369  36.190  1.00  0.00     0.012 A 
ATOM     41  C   UNL A   1      39.743  33.217  35.417  1.00  0.00     0.148 A 
ATOM     42  C   UNL A   1      37.926  32.137  37.270  1.00  0.00     0.002 A 
ATOM     43  C   UNL A   1      39.331  33.964  36.516  1.00  0.00     0.091 A 
ATOM     44  F   UNL A   1      40.580  33.718  34.498  1.00  0.00    -0.205 F 
ATOM     45  C   UNL A   1      38.418  33.430  37.438  1.00  0.00     0.022 A 
BRANCH  43  46
ATOM     46  S   UNL A   1      39.975  35.609  36.851  1.00  0.00     0.127 S 
ATOM     47  O   UNL A   1      39.263  35.961  38.078  1.00  0.00    -0.237 OA
ATOM     48  O   UNL A   1      41.405  35.356  37.028  1.00  0.00    -0.237 OA
ATOM     49  O   UNL A   1      39.646  36.407  35.678  1.00  0.00    -0.744 OA
ENDBRANCH  43  46
ENDBRANCH  25  39
BRANCH  26  50
ATOM     50  C   UNL A   1      42.483  26.489  27.507  1.00  0.00     0.023 A 
ATOM     51  C   UNL A   1      43.400  27.041  26.592  1.00  0.00     0.012 A 
ATOM     52  C   UNL A   1      42.080  25.149  27.354  1.00  0.00     0.148 A 
ATOM     53  C   UNL A   1      43.897  26.276  25.537  1.00  0.00     0.002 A 
ATOM     54  C   UNL A   1      42.625  24.375  26.336  1.00  0.00     0.091 A 
ATOM     55  F   UNL A   1      41.187  24.648  28.219  1.00  0.00    -0.205 F 
ATOM     56  C   UNL A   1      43.522  24.940  25.417  1.00  0.00     0.022 A 
BRANCH  54  57
ATOM     57  S   UNL A   1      42.310  22.610  26.219  1.00  0.00     0.127 S 
ATOM     58  O   UNL A   1      40.852  22.568  26.174  1.00  0.00    -0.237 OA
ATOM     59  O   UNL A   1      42.976  22.260  24.964  1.00  0.00    -0.237 OA
ATOM     60  O   UNL A   1      42.934  22.032  27.402  1.00  0.00    -0.744 OA
ENDBRANCH  54  57
ENDBRANCH  26  50
BRANCH  38  61
ATOM     61  C   UNL A   1      44.579  27.170  34.128  1.00  0.00     0.023 A 
ATOM     62  C   UNL A   1      45.853  27.770  34.072  1.00  0.00     0.012 A 
ATOM     63  C   UNL A   1      44.377  26.050  34.957  1.00  0.00     0.148 A 
ATOM     64  C   UNL A   1      46.915  27.247  34.809  1.00  0.00     0.002 A 
ATOM     65  C   UNL A   1      45.431  25.558  35.720  1.00  0.00     0.091 A 
ATOM     66  F   UNL A   1      43.165  25.475  34.979  1.00  0.00    -0.205 F 
ATOM     67  C   UNL A   1      46.702  26.149  35.640  1.00  0.00     0.022 A 
BRANCH  65  68
ATOM     68  S   UNL A   1      45.207  24.200  36.874  1.00  0.00     0.127 S 
ATOM     69  O   UNL A   1      46.537  24.089  37.469  1.00  0.00    -0.237 OA
ATOM     70  O   UNL A   1      44.177  24.714  37.777  1.00  0.00    -0.237 OA
ATOM     71  O   UNL A   1      44.779  23.068  36.062  1.00  0.00    -0.744 OA
ENDBRANCH  65  68
ENDBRANCH  38  61
ENDBRANCH  12  13
ENDBRANCH   5   7
ENDBRANCH   2   3
ENDBRANCH   1   2
BRANCH   1  72
ATOM     72  C   UNL A   1      31.741  28.736  23.753  1.00  0.00     0.023 C 
BRANCH  72  73
ATOM     73  C   UNL A   1      33.229  28.647  23.425  1.00  0.00     0.116 C 
BRANCH  73  74
ATOM     74  N   UNL A   1      33.708  27.314  23.123  1.00  0.00    -0.353 N 
ATOM     75  C   UNL A   1      33.792  26.165  23.836  1.00  0.00     0.262 C 
ATOM     76  H   UNL A   1      34.046  27.223  22.202  1.00  0.00     0.163 HD
ATOM     77  O   UNL A   1      33.831  25.130  23.153  1.00  0.00    -0.271 OA
BRANCH  75  78
ATOM     78  C   UNL A   1      33.953  26.039  25.366  1.00  0.00     0.281 C 
ATOM     79  C   UNL A   1      34.632  24.849  26.018  1.00  0.00     0.181 C 
ATOM     80  O   UNL A   1      32.750  26.401  26.025  1.00  0.00    -0.477 OA
ATOM     81  N   UNL A   1      33.786  23.678  26.234  1.00  0.00    -0.304 N 
ATOM     82  C   UNL A   1      31.929  25.333  26.255  1.00  0.00     0.144 A 
ATOM     83  C   UNL A   1      32.376  24.006  26.425  1.00  0.00     0.086 A 
ATOM     84  C   UNL A   1      30.572  25.676  26.312  1.00  0.00     0.049 A 
ATOM     85  C   UNL A   1      31.382  23.058  26.724  1.00  0.00     0.030 A 
ATOM     86  C   UNL A   1      29.611  24.701  26.533  1.00  0.00     0.004 A 
ATOM     87  C   UNL A   1      30.020  23.394  26.754  1.00  0.00     0.002 A 
BRANCH  81  88
ATOM     88  C   UNL A   1      34.266  22.366  26.174  1.00  0.00     0.230 C 
ATOM     89  O   UNL A   1      34.551  21.734  27.202  1.00  0.00    -0.274 OA
BRANCH  88  90
ATOM     90  C   UNL A   1      34.492  21.571  24.857  1.00  0.00     0.083 C 
ATOM     91  C   UNL A   1      35.091  20.157  24.854  1.00  0.00     0.040 C 
ATOM     92  C   UNL A   1      33.343  21.738  23.857  1.00  0.00     0.018 C 
ATOM     93  C   UNL A   1      34.124  19.055  24.516  1.00  0.00    -0.030 C 
ATOM     94  C   UNL A   1      32.286  20.643  23.933  1.00  0.00     0.028 C 
ATOM     95  C   UNL A   1      32.861  19.274  24.125  1.00  0.00    -0.031 C 
ENDBRANCH  88  90
ENDBRANCH  81  88
ENDBRANCH  75  78
ENDBRANCH  73  74
ENDBRANCH  72  73
ENDBRANCH   1  72
TORSDOF 16
ENDMDL
