MODEL 1
REMARK VINA RESULT:     -12.2      0.000      0.000
REMARK SMILES COc1ccc([C@H]([NH3+])C(F)(F)F)c(C(=O)NCCCCNC(=O)c2ccc(-c3c4nc(c(-c5cccc(S(=O)(=O)[O-])c5F)c5ccc([nH]5)c(-c5cccc(S(=O)(=O)[O-])c5F)c5nc(c(-c6cccc(S(=O)(=O)[O-])c6F)c6ccc3[nH]6)C=C5)C=C4)cc2)c1
REMARK SMILES IDX 19 1 18 2 17 3 16 4 14 5 15 6 13 8 3 9 4 10 87 11 5 12 6 13
REMARK SMILES IDX 2 14 1 15 7 16 9 17 10 18 11 19 12 20 8 21 20 25 21 26 22 27
REMARK SMILES IDX 23 29 24 30 25 31 86 32 26 33 85 34 27 35 28 36 29 37 79 38
REMARK SMILES IDX 30 39 84 40 78 41 80 42 31 43 83 44 77 45 76 46 32 48 64 49
REMARK SMILES IDX 44 50 63 51 45 52 48 53 62 54 81 55 46 56 47 57 61 59 82 60
REMARK SMILES IDX 49 61 33 62 34 63 42 64 35 65 37 66 43 67 36 68 38 69 39 70
REMARK SMILES IDX 40 71 41 72 65 73 66 74 74 75 67 76 69 77 75 78 68 79 70 80
REMARK SMILES IDX 71 81 72 82 73 83 50 84 51 85 59 86 52 87 54 88 60 89 53 90
REMARK SMILES IDX 55 91 56 92 57 93 58 94
REMARK H PARENT 16 7 8 22 8 23 8 24 21 28 80 47 48 58
REMARK Flexibility Score: inf
ROOT
ATOM      1  C   UNL A   1      31.770  31.726  26.711  1.00  0.00     0.023 C 
ENDROOT
BRANCH   1   2
ATOM      2  C   UNL A   1      31.910  30.206  26.748  1.00  0.00     0.023 C 
BRANCH   2   3
ATOM      3  C   UNL A   1      33.255  29.632  26.317  1.00  0.00     0.116 C 
BRANCH   3   4
ATOM      4  N   UNL A   1      33.397  29.488  24.876  1.00  0.00    -0.352 N 
ATOM      5  C   UNL A   1      32.641  28.901  23.884  1.00  0.00     0.251 C 
ATOM      6  O   UNL A   1      33.151  28.943  22.769  1.00  0.00    -0.269 OA
ATOM      7  H   UNL A   1      34.221  29.903  24.532  1.00  0.00     0.163 HD
BRANCH   5   8
ATOM      8  C   UNL A   1      31.323  28.209  24.129  1.00  0.00     0.052 A 
ATOM      9  C   UNL A   1      30.296  26.332  25.338  1.00  0.00     0.119 A 
ATOM     10  C   UNL A   1      29.276  26.304  24.406  1.00  0.00     0.047 A 
ATOM     11  C   UNL A   1      31.283  27.307  25.216  1.00  0.00     0.060 A 
ATOM     12  C   UNL A   1      29.203  27.296  23.431  1.00  0.00     0.015 A 
ATOM     13  C   UNL A   1      30.159  28.343  23.325  1.00  0.00     0.031 A 
BRANCH   9  14
ATOM     14  O   UNL A   1      30.234  25.359  26.293  1.00  0.00    -0.497 OA
ATOM     15  C   UNL A   1      31.356  24.492  26.402  1.00  0.00     0.278 C 
ENDBRANCH   9  14
BRANCH  13  16
ATOM     16  C   UNL A   1      29.715  29.498  22.388  1.00  0.00     0.319 C 
BRANCH  16  17
ATOM     17  C   UNL A   1      28.934  30.619  23.195  1.00  0.00     0.445 C 
ATOM     18  F   UNL A   1      29.599  30.996  24.316  1.00  0.00    -0.165 F 
ATOM     19  F   UNL A   1      28.757  31.753  22.472  1.00  0.00    -0.165 F 
ATOM     20  F   UNL A   1      27.708  30.190  23.584  1.00  0.00    -0.165 F 
ENDBRANCH  16  17
BRANCH  16  21
ATOM     21  N   UNL A   1      30.748  30.139  21.561  1.00  0.00    -0.344 N 
ATOM     22  H   UNL A   1      31.402  29.432  21.227  1.00  0.00     0.345 HD
ATOM     23  H   UNL A   1      31.251  30.830  22.119  1.00  0.00     0.345 HD
ATOM     24  H   UNL A   1      30.309  30.599  20.764  1.00  0.00     0.345 HD
ENDBRANCH  16  21
ENDBRANCH  13  16
ENDBRANCH   5   8
ENDBRANCH   3   4
ENDBRANCH   2   3
ENDBRANCH   1   2
BRANCH   1  25
ATOM     25  C   UNL A   1      32.903  32.523  27.348  1.00  0.00     0.116 C 
BRANCH  25  26
ATOM     26  N   UNL A   1      32.546  33.902  27.651  1.00  0.00    -0.352 N 
ATOM     27  C   UNL A   1      33.083  34.760  28.585  1.00  0.00     0.251 C 
ATOM     28  H   UNL A   1      31.815  34.275  27.108  1.00  0.00     0.163 HD
ATOM     29  O   UNL A   1      32.589  35.868  28.751  1.00  0.00    -0.269 OA
BRANCH  27  30
ATOM     30  C   UNL A   1      34.229  34.322  29.411  1.00  0.00     0.039 A 
ATOM     31  C   UNL A   1      33.982  33.551  30.551  1.00  0.00     0.014 A 
ATOM     32  C   UNL A   1      35.539  34.634  29.043  1.00  0.00     0.014 A 
ATOM     33  C   UNL A   1      35.055  33.022  31.274  1.00  0.00     0.010 A 
ATOM     34  C   UNL A   1      36.603  34.042  29.716  1.00  0.00     0.010 A 
ATOM     35  C   UNL A   1      36.374  33.228  30.836  1.00  0.00    -0.014 A 
BRANCH  35  36
ATOM     36  C   UNL A   1      37.526  32.583  31.516  1.00  0.00     0.031 A 
ATOM     37  C   UNL A   1      38.252  31.442  30.858  1.00  0.00     0.074 A 
ATOM     38  C   UNL A   1      37.852  32.955  32.771  1.00  0.00     0.049 A 
ATOM     39  N   UNL A   1      39.232  30.711  31.322  1.00  0.00    -0.248 NA
ATOM     40  C   UNL A   1      37.796  31.048  29.515  1.00  0.00     0.031 C 
ATOM     41  C   UNL A   1      37.167  33.987  33.553  1.00  0.00     0.029 A 
ATOM     42  N   UNL A   1      38.825  32.488  33.620  1.00  0.00    -0.354 N 
ATOM     43  C   UNL A   1      39.479  29.748  30.352  1.00  0.00     0.074 A 
ATOM     44  C   UNL A   1      38.525  29.966  29.288  1.00  0.00     0.031 C 
ATOM     45  C   UNL A   1      37.744  34.079  34.762  1.00  0.00     0.029 A 
ATOM     46  C   UNL A   1      38.821  33.098  34.854  1.00  0.00     0.049 A 
ATOM     47  H   UNL A   1      39.464  31.782  33.370  1.00  0.00     0.167 HD
ATOM     48  C   UNL A   1      40.436  28.789  30.331  1.00  0.00     0.034 A 
ATOM     49  C   UNL A   1      39.596  32.891  35.935  1.00  0.00     0.034 A 
ATOM     50  C   UNL A   1      41.420  28.614  31.363  1.00  0.00     0.049 A 
ATOM     51  C   UNL A   1      40.692  31.861  35.863  1.00  0.00     0.074 A 
ATOM     52  C   UNL A   1      42.497  27.744  31.388  1.00  0.00     0.029 A 
ATOM     53  N   UNL A   1      41.449  29.318  32.558  1.00  0.00    -0.354 N 
ATOM     54  N   UNL A   1      41.021  31.077  34.866  1.00  0.00    -0.248 NA
ATOM     55  C   UNL A   1      41.545  31.714  37.050  1.00  0.00     0.031 C 
ATOM     56  C   UNL A   1      43.167  27.914  32.605  1.00  0.00     0.029 A 
ATOM     57  C   UNL A   1      42.518  28.900  33.330  1.00  0.00     0.049 A 
ATOM     58  H   UNL A   1      40.802  30.015  32.817  1.00  0.00     0.167 HD
ATOM     59  C   UNL A   1      42.140  30.369  35.291  1.00  0.00     0.074 A 
ATOM     60  C   UNL A   1      42.443  30.833  36.630  1.00  0.00     0.031 C 
ATOM     61  C   UNL A   1      42.842  29.410  34.638  1.00  0.00     0.034 A 
BRANCH  48  62
ATOM     62  C   UNL A   1      40.501  27.898  29.119  1.00  0.00     0.023 A 
ATOM     63  C   UNL A   1      39.601  26.817  29.005  1.00  0.00     0.012 A 
ATOM     64  C   UNL A   1      41.414  28.148  28.078  1.00  0.00     0.148 A 
ATOM     65  C   UNL A   1      39.638  25.975  27.895  1.00  0.00     0.002 A 
ATOM     66  C   UNL A   1      41.416  27.329  26.953  1.00  0.00     0.091 A 
ATOM     67  F   UNL A   1      42.279  29.163  28.213  1.00  0.00    -0.205 F 
ATOM     68  C   UNL A   1      40.537  26.237  26.865  1.00  0.00     0.022 A 
BRANCH  66  69
ATOM     69  S   UNL A   1      42.485  27.632  25.541  1.00  0.00     0.127 S 
ATOM     70  O   UNL A   1      42.295  26.412  24.760  1.00  0.00    -0.237 OA
ATOM     71  O   UNL A   1      41.889  28.832  24.953  1.00  0.00    -0.237 OA
ATOM     72  O   UNL A   1      43.820  27.829  26.090  1.00  0.00    -0.744 OA
ENDBRANCH  66  69
ENDBRANCH  48  62
BRANCH  49  73
ATOM     73  C   UNL A   1      39.421  33.740  37.148  1.00  0.00     0.023 A 
ATOM     74  C   UNL A   1      39.894  35.067  37.129  1.00  0.00     0.012 A 
ATOM     75  C   UNL A   1      38.755  33.264  38.294  1.00  0.00     0.148 A 
ATOM     76  C   UNL A   1      39.733  35.896  38.239  1.00  0.00     0.002 A 
ATOM     77  C   UNL A   1      38.551  34.112  39.377  1.00  0.00     0.091 A 
ATOM     78  F   UNL A   1      38.321  31.996  38.295  1.00  0.00    -0.205 F 
ATOM     79  C   UNL A   1      39.052  35.423  39.358  1.00  0.00     0.022 A 
BRANCH  77  80
ATOM     80  S   UNL A   1      37.572  33.634  40.806  1.00  0.00     0.127 S 
ATOM     81  O   UNL A   1      38.447  32.662  41.456  1.00  0.00    -0.237 OA
ATOM     82  O   UNL A   1      37.429  34.906  41.514  1.00  0.00    -0.237 OA
ATOM     83  O   UNL A   1      36.326  33.105  40.268  1.00  0.00    -0.744 OA
ENDBRANCH  77  80
ENDBRANCH  49  73
BRANCH  61  84
ATOM     84  C   UNL A   1      44.030  28.811  35.342  1.00  0.00     0.023 A 
ATOM     85  C   UNL A   1      45.314  29.354  35.130  1.00  0.00     0.012 A 
ATOM     86  C   UNL A   1      43.866  27.768  36.273  1.00  0.00     0.148 A 
ATOM     87  C   UNL A   1      46.418  28.848  35.815  1.00  0.00     0.002 A 
ATOM     88  C   UNL A   1      44.963  27.300  36.986  1.00  0.00     0.091 A 
ATOM     89  F   UNL A   1      42.640  27.251  36.445  1.00  0.00    -0.205 F 
ATOM     90  C   UNL A   1      46.242  27.832  36.751  1.00  0.00     0.022 A 
BRANCH  88  91
ATOM     91  S   UNL A   1      44.810  26.061  38.278  1.00  0.00     0.127 S 
ATOM     92  O   UNL A   1      44.225  24.939  37.548  1.00  0.00    -0.237 OA
ATOM     93  O   UNL A   1      46.201  25.863  38.688  1.00  0.00    -0.237 OA
ATOM     94  O   UNL A   1      43.961  26.655  39.302  1.00  0.00    -0.744 OA
ENDBRANCH  88  91
ENDBRANCH  61  84
ENDBRANCH  35  36
ENDBRANCH  27  30
ENDBRANCH  25  26
ENDBRANCH   1  25
TORSDOF 18
ENDMDL
MODEL 2
REMARK VINA RESULT:     -11.4      2.410      3.348
REMARK SMILES COc1ccc([C@H]([NH3+])C(F)(F)F)c(C(=O)NCCCCNC(=O)c2ccc(-c3c4nc(c(-c5cccc(S(=O)(=O)[O-])c5F)c5ccc([nH]5)c(-c5cccc(S(=O)(=O)[O-])c5F)c5nc(c(-c6cccc(S(=O)(=O)[O-])c6F)c6ccc3[nH]6)C=C5)C=C4)cc2)c1
REMARK SMILES IDX 19 1 18 2 17 3 16 4 14 5 15 6 13 8 3 9 4 10 87 11 5 12 6 13
REMARK SMILES IDX 2 14 1 15 7 16 9 17 10 18 11 19 12 20 8 21 20 25 21 26 22 27
REMARK SMILES IDX 23 29 24 30 25 31 86 32 26 33 85 34 27 35 28 36 29 37 79 38
REMARK SMILES IDX 30 39 84 40 78 41 80 42 31 43 83 44 77 45 76 46 32 48 64 49
REMARK SMILES IDX 44 50 63 51 45 52 48 53 62 54 81 55 46 56 47 57 61 59 82 60
REMARK SMILES IDX 49 61 33 62 34 63 42 64 35 65 37 66 43 67 36 68 38 69 39 70
REMARK SMILES IDX 40 71 41 72 65 73 66 74 74 75 67 76 69 77 75 78 68 79 70 80
REMARK SMILES IDX 71 81 72 82 73 83 50 84 51 85 59 86 52 87 54 88 60 89 53 90
REMARK SMILES IDX 55 91 56 92 57 93 58 94
REMARK H PARENT 16 7 8 22 8 23 8 24 21 28 80 47 48 58
REMARK Flexibility Score: inf
ROOT
ATOM      1  C   UNL A   1      31.887  29.769  25.488  1.00  0.00     0.023 C 
ENDROOT
BRANCH   1   2
ATOM      2  C   UNL A   1      33.190  29.564  24.718  1.00  0.00     0.023 C 
BRANCH   2   3
ATOM      3  C   UNL A   1      33.921  28.247  24.950  1.00  0.00     0.116 C 
BRANCH   3   4
ATOM      4  N   UNL A   1      34.070  27.439  23.749  1.00  0.00    -0.352 N 
ATOM      5  C   UNL A   1      33.198  26.760  22.926  1.00  0.00     0.251 C 
ATOM      6  O   UNL A   1      33.742  26.130  22.025  1.00  0.00    -0.269 OA
ATOM      7  H   UNL A   1      35.008  27.359  23.460  1.00  0.00     0.163 HD
BRANCH   5   8
ATOM      8  C   UNL A   1      31.703  26.729  23.128  1.00  0.00     0.052 A 
ATOM      9  C   UNL A   1      29.642  27.987  22.668  1.00  0.00     0.119 A 
ATOM     10  C   UNL A   1      29.042  27.380  23.755  1.00  0.00     0.047 A 
ATOM     11  C   UNL A   1      30.947  27.627  22.341  1.00  0.00     0.060 A 
ATOM     12  C   UNL A   1      29.710  26.364  24.436  1.00  0.00     0.015 A 
ATOM     13  C   UNL A   1      31.015  25.929  24.080  1.00  0.00     0.031 A 
BRANCH   9  14
ATOM     14  O   UNL A   1      28.875  28.916  22.028  1.00  0.00    -0.497 OA
ATOM     15  C   UNL A   1      29.487  30.168  21.739  1.00  0.00     0.278 C 
ENDBRANCH   9  14
BRANCH  13  16
ATOM     16  C   UNL A   1      31.431  24.595  24.754  1.00  0.00     0.319 C 
BRANCH  16  17
ATOM     17  C   UNL A   1      32.178  24.858  26.129  1.00  0.00     0.445 C 
ATOM     18  F   UNL A   1      31.945  23.871  27.032  1.00  0.00    -0.165 F 
ATOM     19  F   UNL A   1      33.525  24.918  25.988  1.00  0.00    -0.165 F 
ATOM     20  F   UNL A   1      31.777  26.021  26.699  1.00  0.00    -0.165 F 
ENDBRANCH  16  17
BRANCH  16  21
ATOM     21  N   UNL A   1      30.385  23.583  24.966  1.00  0.00    -0.344 N 
ATOM     22  H   UNL A   1      30.010  23.289  24.065  1.00  0.00     0.345 HD
ATOM     23  H   UNL A   1      29.636  23.982  25.532  1.00  0.00     0.345 HD
ATOM     24  H   UNL A   1      30.784  22.778  25.448  1.00  0.00     0.345 HD
ENDBRANCH  16  21
ENDBRANCH  13  16
ENDBRANCH   5   8
ENDBRANCH   3   4
ENDBRANCH   2   3
ENDBRANCH   1   2
BRANCH   1  25
ATOM     25  C   UNL A   1      32.018  30.326  26.900  1.00  0.00     0.116 C 
BRANCH  25  26
ATOM     26  N   UNL A   1      31.940  31.779  26.964  1.00  0.00    -0.352 N 
ATOM     27  C   UNL A   1      32.856  32.685  27.453  1.00  0.00     0.251 C 
ATOM     28  H   UNL A   1      31.112  32.171  26.605  1.00  0.00     0.163 HD
ATOM     29  O   UNL A   1      32.573  33.875  27.497  1.00  0.00    -0.269 OA
BRANCH  27  30
ATOM     30  C   UNL A   1      34.162  32.208  27.958  1.00  0.00     0.039 A 
ATOM     31  C   UNL A   1      35.187  33.137  28.157  1.00  0.00     0.014 A 
ATOM     32  C   UNL A   1      34.361  30.862  28.272  1.00  0.00     0.014 A 
ATOM     33  C   UNL A   1      36.384  32.729  28.750  1.00  0.00     0.010 A 
ATOM     34  C   UNL A   1      35.521  30.474  28.934  1.00  0.00     0.010 A 
ATOM     35  C   UNL A   1      36.544  31.403  29.184  1.00  0.00    -0.014 A 
BRANCH  35  36
ATOM     36  C   UNL A   1      37.758  30.968  29.921  1.00  0.00     0.031 A 
ATOM     37  C   UNL A   1      38.740  30.029  29.276  1.00  0.00     0.074 A 
ATOM     38  C   UNL A   1      37.923  31.336  31.208  1.00  0.00     0.049 A 
ATOM     39  N   UNL A   1      39.816  29.486  29.782  1.00  0.00    -0.248 NA
ATOM     40  C   UNL A   1      38.458  29.619  27.891  1.00  0.00     0.031 C 
ATOM     41  C   UNL A   1      36.996  32.170  31.976  1.00  0.00     0.029 A 
ATOM     42  N   UNL A   1      38.915  31.030  32.107  1.00  0.00    -0.354 N 
ATOM     43  C   UNL A   1      40.314  28.641  28.798  1.00  0.00     0.074 A 
ATOM     44  C   UNL A   1      39.403  28.716  27.677  1.00  0.00     0.031 C 
ATOM     45  C   UNL A   1      37.465  32.315  33.225  1.00  0.00     0.029 A 
ATOM     46  C   UNL A   1      38.710  31.566  33.358  1.00  0.00     0.049 A 
ATOM     47  H   UNL A   1      39.698  30.479  31.878  1.00  0.00     0.167 HD
ATOM     48  C   UNL A   1      41.444  27.894  28.812  1.00  0.00     0.034 A 
ATOM     49  C   UNL A   1      39.442  31.464  34.485  1.00  0.00     0.034 A 
ATOM     50  C   UNL A   1      42.377  27.868  29.904  1.00  0.00     0.049 A 
ATOM     51  C   UNL A   1      40.726  30.679  34.454  1.00  0.00     0.074 A 
ATOM     52  C   UNL A   1      43.603  27.230  29.974  1.00  0.00     0.029 A 
ATOM     53  N   UNL A   1      42.187  28.504  31.122  1.00  0.00    -0.354 N 
ATOM     54  N   UNL A   1      41.269  30.026  33.455  1.00  0.00    -0.248 NA
ATOM     55  C   UNL A   1      41.515  30.646  35.693  1.00  0.00     0.031 C 
ATOM     56  C   UNL A   1      44.148  27.470  31.241  1.00  0.00     0.029 A 
ATOM     57  C   UNL A   1      43.269  28.270  31.953  1.00  0.00     0.049 A 
ATOM     58  H   UNL A   1      41.398  29.044  31.360  1.00  0.00     0.167 HD
ATOM     59  C   UNL A   1      42.478  29.536  33.933  1.00  0.00     0.074 A 
ATOM     60  C   UNL A   1      42.597  29.983  35.306  1.00  0.00     0.031 C 
ATOM     61  C   UNL A   1      43.400  28.769  33.298  1.00  0.00     0.034 A 
BRANCH  48  62
ATOM     62  C   UNL A   1      41.763  27.095  27.576  1.00  0.00     0.023 A 
ATOM     63  C   UNL A   1      42.213  27.761  26.416  1.00  0.00     0.012 A 
ATOM     64  C   UNL A   1      41.662  25.691  27.569  1.00  0.00     0.148 A 
ATOM     65  C   UNL A   1      42.516  27.047  25.258  1.00  0.00     0.002 A 
ATOM     66  C   UNL A   1      42.008  24.982  26.423  1.00  0.00     0.091 A 
ATOM     67  F   UNL A   1      41.210  25.075  28.671  1.00  0.00    -0.205 F 
ATOM     68  C   UNL A   1      42.423  25.659  25.264  1.00  0.00     0.022 A 
BRANCH  66  69
ATOM     69  S   UNL A   1      41.994  23.186  26.359  1.00  0.00     0.127 S 
ATOM     70  O   UNL A   1      42.565  22.934  25.037  1.00  0.00    -0.237 OA
ATOM     71  O   UNL A   1      42.866  22.830  27.478  1.00  0.00    -0.237 OA
ATOM     72  O   UNL A   1      40.602  22.794  26.530  1.00  0.00    -0.744 OA
ENDBRANCH  66  69
ENDBRANCH  48  62
BRANCH  49  73
ATOM     73  C   UNL A   1      39.023  32.201  35.711  1.00  0.00     0.023 A 
ATOM     74  C   UNL A   1      39.309  33.575  35.816  1.00  0.00     0.012 A 
ATOM     75  C   UNL A   1      38.310  31.566  36.747  1.00  0.00     0.148 A 
ATOM     76  C   UNL A   1      38.917  34.301  36.942  1.00  0.00     0.002 A 
ATOM     77  C   UNL A   1      37.876  32.306  37.841  1.00  0.00     0.091 A 
ATOM     78  F   UNL A   1      38.056  30.255  36.632  1.00  0.00    -0.205 F 
ATOM     79  C   UNL A   1      38.192  33.669  37.948  1.00  0.00     0.022 A 
BRANCH  77  80
ATOM     80  S   UNL A   1      36.825  31.610  39.121  1.00  0.00     0.127 S 
ATOM     81  O   UNL A   1      35.591  32.369  38.941  1.00  0.00    -0.237 OA
ATOM     82  O   UNL A   1      36.749  30.205  38.720  1.00  0.00    -0.237 OA
ATOM     83  O   UNL A   1      37.532  31.837  40.375  1.00  0.00    -0.744 OA
ENDBRANCH  77  80
ENDBRANCH  49  73
BRANCH  61  84
ATOM     84  C   UNL A   1      44.638  28.386  34.063  1.00  0.00     0.023 A 
ATOM     85  C   UNL A   1      45.754  29.247  34.063  1.00  0.00     0.012 A 
ATOM     86  C   UNL A   1      44.668  27.216  34.847  1.00  0.00     0.148 A 
ATOM     87  C   UNL A   1      46.889  28.935  34.810  1.00  0.00     0.002 A 
ATOM     88  C   UNL A   1      45.785  26.935  35.625  1.00  0.00     0.091 A 
ATOM     89  F   UNL A   1      43.604  26.399  34.817  1.00  0.00    -0.205 F 
ATOM     90  C   UNL A   1      46.900  27.787  35.600  1.00  0.00     0.022 A 
BRANCH  88  91
ATOM     91  S   UNL A   1      45.845  25.531  36.744  1.00  0.00     0.127 S 
ATOM     92  O   UNL A   1      45.796  24.405  35.813  1.00  0.00    -0.237 OA
ATOM     93  O   UNL A   1      47.135  25.716  37.410  1.00  0.00    -0.237 OA
ATOM     94  O   UNL A   1      44.691  25.669  37.621  1.00  0.00    -0.744 OA
ENDBRANCH  88  91
ENDBRANCH  61  84
ENDBRANCH  35  36
ENDBRANCH  27  30
ENDBRANCH  25  26
ENDBRANCH   1  25
TORSDOF 18
ENDMDL
MODEL 3
REMARK VINA RESULT:     -11.4      5.847      8.965
REMARK SMILES COc1ccc([C@H]([NH3+])C(F)(F)F)c(C(=O)NCCCCNC(=O)c2ccc(-c3c4nc(c(-c5cccc(S(=O)(=O)[O-])c5F)c5ccc([nH]5)c(-c5cccc(S(=O)(=O)[O-])c5F)c5nc(c(-c6cccc(S(=O)(=O)[O-])c6F)c6ccc3[nH]6)C=C5)C=C4)cc2)c1
REMARK SMILES IDX 19 1 18 2 17 3 16 4 14 5 15 6 13 8 3 9 4 10 87 11 5 12 6 13
REMARK SMILES IDX 2 14 1 15 7 16 9 17 10 18 11 19 12 20 8 21 20 25 21 26 22 27
REMARK SMILES IDX 23 29 24 30 25 31 86 32 26 33 85 34 27 35 28 36 29 37 79 38
REMARK SMILES IDX 30 39 84 40 78 41 80 42 31 43 83 44 77 45 76 46 32 48 64 49
REMARK SMILES IDX 44 50 63 51 45 52 48 53 62 54 81 55 46 56 47 57 61 59 82 60
REMARK SMILES IDX 49 61 33 62 34 63 42 64 35 65 37 66 43 67 36 68 38 69 39 70
REMARK SMILES IDX 40 71 41 72 65 73 66 74 74 75 67 76 69 77 75 78 68 79 70 80
REMARK SMILES IDX 71 81 72 82 73 83 50 84 51 85 59 86 52 87 54 88 60 89 53 90
REMARK SMILES IDX 55 91 56 92 57 93 58 94
REMARK H PARENT 16 7 8 22 8 23 8 24 21 28 80 47 48 58
REMARK Flexibility Score: inf
ROOT
ATOM      1  C   UNL A   1      35.730  21.780  26.075  1.00  0.00     0.023 C 
ENDROOT
BRANCH   1   2
ATOM      2  C   UNL A   1      34.992  23.107  26.231  1.00  0.00     0.023 C 
BRANCH   2   3
ATOM      3  C   UNL A   1      33.760  23.310  25.355  1.00  0.00     0.116 C 
BRANCH   3   4
ATOM      4  N   UNL A   1      32.516  23.399  26.104  1.00  0.00    -0.352 N 
ATOM      5  C   UNL A   1      31.560  24.376  26.278  1.00  0.00     0.251 C 
ATOM      6  O   UNL A   1      30.665  24.073  27.060  1.00  0.00    -0.269 OA
ATOM      7  H   UNL A   1      32.312  22.573  26.600  1.00  0.00     0.163 HD
BRANCH   5   8
ATOM      8  C   UNL A   1      31.615  25.733  25.620  1.00  0.00     0.052 A 
ATOM      9  C   UNL A   1      31.872  28.129  26.100  1.00  0.00     0.119 A 
ATOM     10  C   UNL A   1      31.202  28.425  24.929  1.00  0.00     0.047 A 
ATOM     11  C   UNL A   1      32.108  26.793  26.413  1.00  0.00     0.060 A 
ATOM     12  C   UNL A   1      30.863  27.400  24.047  1.00  0.00     0.015 A 
ATOM     13  C   UNL A   1      31.154  26.033  24.309  1.00  0.00     0.031 A 
BRANCH   9  14
ATOM     14  O   UNL A   1      32.221  29.211  26.855  1.00  0.00    -0.497 OA
ATOM     15  C   UNL A   1      33.572  29.278  27.297  1.00  0.00     0.278 C 
ENDBRANCH   9  14
BRANCH  13  16
ATOM     16  C   UNL A   1      30.981  25.112  23.072  1.00  0.00     0.319 C 
BRANCH  16  17
ATOM     17  C   UNL A   1      32.351  24.947  22.288  1.00  0.00     0.445 C 
ATOM     18  F   UNL A   1      32.689  23.643  22.123  1.00  0.00    -0.165 F 
ATOM     19  F   UNL A   1      32.304  25.476  21.041  1.00  0.00    -0.165 F 
ATOM     20  F   UNL A   1      33.376  25.544  22.944  1.00  0.00    -0.165 F 
ENDBRANCH  16  17
BRANCH  16  21
ATOM     21  N   UNL A   1      30.394  23.782  23.290  1.00  0.00    -0.344 N 
ATOM     22  H   UNL A   1      30.860  23.329  24.075  1.00  0.00     0.345 HD
ATOM     23  H   UNL A   1      30.513  23.216  22.449  1.00  0.00     0.345 HD
ATOM     24  H   UNL A   1      29.399  23.880  23.496  1.00  0.00     0.345 HD
ENDBRANCH  16  21
ENDBRANCH  13  16
ENDBRANCH   5   8
ENDBRANCH   3   4
ENDBRANCH   2   3
ENDBRANCH   1   2
BRANCH   1  25
ATOM     25  C   UNL A   1      36.881  21.760  25.077  1.00  0.00     0.116 C 
BRANCH  25  26
ATOM     26  N   UNL A   1      37.887  20.748  25.365  1.00  0.00    -0.352 N 
ATOM     27  C   UNL A   1      39.120  20.883  25.964  1.00  0.00     0.251 C 
ATOM     28  H   UNL A   1      37.651  19.832  25.091  1.00  0.00     0.163 HD
ATOM     29  O   UNL A   1      39.868  19.918  26.046  1.00  0.00    -0.269 OA
BRANCH  27  30
ATOM     30  C   UNL A   1      39.548  22.205  26.472  1.00  0.00     0.039 A 
ATOM     31  C   UNL A   1      40.568  22.263  27.424  1.00  0.00     0.014 A 
ATOM     32  C   UNL A   1      38.975  23.381  25.982  1.00  0.00     0.014 A 
ATOM     33  C   UNL A   1      41.073  23.503  27.823  1.00  0.00     0.010 A 
ATOM     34  C   UNL A   1      39.532  24.610  26.320  1.00  0.00     0.010 A 
ATOM     35  C   UNL A   1      40.588  24.686  27.241  1.00  0.00    -0.014 A 
BRANCH  35  36
ATOM     36  C   UNL A   1      41.184  26.008  27.559  1.00  0.00     0.031 A 
ATOM     37  C   UNL A   1      42.596  26.322  27.145  1.00  0.00     0.074 A 
ATOM     38  C   UNL A   1      40.491  26.888  28.310  1.00  0.00     0.049 A 
ATOM     39  N   UNL A   1      43.309  27.390  27.391  1.00  0.00    -0.248 NA
ATOM     40  C   UNL A   1      43.313  25.286  26.384  1.00  0.00     0.031 C 
ATOM     41  C   UNL A   1      39.147  26.666  28.849  1.00  0.00     0.029 A 
ATOM     42  N   UNL A   1      40.833  28.133  28.776  1.00  0.00    -0.354 N 
ATOM     43  C   UNL A   1      44.567  27.138  26.856  1.00  0.00     0.074 A 
ATOM     44  C   UNL A   1      44.529  25.803  26.301  1.00  0.00     0.031 C 
ATOM     45  C   UNL A   1      38.777  27.740  29.565  1.00  0.00     0.029 A 
ATOM     46  C   UNL A   1      39.862  28.716  29.559  1.00  0.00     0.049 A 
ATOM     47  H   UNL A   1      41.691  28.569  28.569  1.00  0.00     0.167 HD
ATOM     48  C   UNL A   1      45.645  27.955  26.800  1.00  0.00     0.034 A 
ATOM     49  C   UNL A   1      39.849  29.900  30.200  1.00  0.00     0.034 A 
ATOM     50  C   UNL A   1      45.659  29.303  27.300  1.00  0.00     0.049 A 
ATOM     51  C   UNL A   1      41.037  30.815  30.070  1.00  0.00     0.074 A 
ATOM     52  C   UNL A   1      46.664  30.249  27.197  1.00  0.00     0.029 A 
ATOM     53  N   UNL A   1      44.621  29.897  28.001  1.00  0.00    -0.354 N 
ATOM     54  N   UNL A   1      42.154  30.627  29.410  1.00  0.00    -0.248 NA
ATOM     55  C   UNL A   1      40.949  32.120  30.742  1.00  0.00     0.031 C 
ATOM     56  C   UNL A   1      46.237  31.411  27.849  1.00  0.00     0.029 A 
ATOM     57  C   UNL A   1      44.961  31.194  28.344  1.00  0.00     0.049 A 
ATOM     58  H   UNL A   1      43.766  29.460  28.223  1.00  0.00     0.167 HD
ATOM     59  C   UNL A   1      42.885  31.800  29.556  1.00  0.00     0.074 A 
ATOM     60  C   UNL A   1      42.076  32.700  30.353  1.00  0.00     0.031 C 
ATOM     61  C   UNL A   1      44.123  32.099  29.088  1.00  0.00     0.034 A 
BRANCH  48  62
ATOM     62  C   UNL A   1      46.880  27.431  26.116  1.00  0.00     0.023 A 
ATOM     63  C   UNL A   1      47.056  27.658  24.735  1.00  0.00     0.012 A 
ATOM     64  C   UNL A   1      47.882  26.754  26.837  1.00  0.00     0.148 A 
ATOM     65  C   UNL A   1      48.188  27.185  24.075  1.00  0.00     0.002 A 
ATOM     66  C   UNL A   1      49.030  26.323  26.180  1.00  0.00     0.091 A 
ATOM     67  F   UNL A   1      47.688  26.524  28.143  1.00  0.00    -0.205 F 
ATOM     68  C   UNL A   1      49.179  26.526  24.798  1.00  0.00     0.022 A 
BRANCH  66  69
ATOM     69  S   UNL A   1      50.394  25.533  27.041  1.00  0.00     0.127 S 
ATOM     70  O   UNL A   1      50.744  26.548  28.033  1.00  0.00    -0.237 OA
ATOM     71  O   UNL A   1      49.761  24.335  27.592  1.00  0.00    -0.237 OA
ATOM     72  O   UNL A   1      51.404  25.269  26.025  1.00  0.00    -0.744 OA
ENDBRANCH  66  69
ENDBRANCH  48  62
BRANCH  49  73
ATOM     73  C   UNL A   1      38.631  30.326  30.948  1.00  0.00     0.023 A 
ATOM     74  C   UNL A   1      38.529  30.024  32.319  1.00  0.00     0.012 A 
ATOM     75  C   UNL A   1      37.602  31.059  30.327  1.00  0.00     0.148 A 
ATOM     76  C   UNL A   1      37.412  30.421  33.055  1.00  0.00     0.002 A 
ATOM     77  C   UNL A   1      36.516  31.498  31.077  1.00  0.00     0.091 A 
ATOM     78  F   UNL A   1      37.714  31.328  29.018  1.00  0.00    -0.205 F 
ATOM     79  C   UNL A   1      36.412  31.166  32.437  1.00  0.00     0.022 A 
BRANCH  77  80
ATOM     80  S   UNL A   1      35.246  32.573  30.400  1.00  0.00     0.127 S 
ATOM     81  O   UNL A   1      34.354  32.739  31.544  1.00  0.00    -0.237 OA
ATOM     82  O   UNL A   1      36.018  33.764  30.041  1.00  0.00    -0.237 OA
ATOM     83  O   UNL A   1      34.691  31.854  29.261  1.00  0.00    -0.744 OA
ENDBRANCH  77  80
ENDBRANCH  49  73
BRANCH  61  84
ATOM     84  C   UNL A   1      44.675  33.466  29.393  1.00  0.00     0.023 A 
ATOM     85  C   UNL A   1      45.358  33.688  30.606  1.00  0.00     0.012 A 
ATOM     86  C   UNL A   1      44.591  34.505  28.447  1.00  0.00     0.148 A 
ATOM     87  C   UNL A   1      45.923  34.931  30.883  1.00  0.00     0.002 A 
ATOM     88  C   UNL A   1      45.198  35.728  28.710  1.00  0.00     0.091 A 
ATOM     89  F   UNL A   1      43.920  34.281  27.307  1.00  0.00    -0.205 F 
ATOM     90  C   UNL A   1      45.856  35.946  29.931  1.00  0.00     0.022 A 
BRANCH  88  91
ATOM     91  S   UNL A   1      45.241  37.056  27.501  1.00  0.00     0.127 S 
ATOM     92  O   UNL A   1      43.818  37.312  27.288  1.00  0.00    -0.237 OA
ATOM     93  O   UNL A   1      45.949  38.114  28.223  1.00  0.00    -0.237 OA
ATOM     94  O   UNL A   1      45.963  36.527  26.352  1.00  0.00    -0.744 OA
ENDBRANCH  88  91
ENDBRANCH  61  84
ENDBRANCH  35  36
ENDBRANCH  27  30
ENDBRANCH  25  26
ENDBRANCH   1  25
TORSDOF 18
ENDMDL
