MODEL 1
REMARK VINA RESULT:     -12.9      0.000      0.000
REMARK SMILES CS(=O)(=O)c1ccc(N2N=C(C(=O)NCCCCNC(=O)c3ccc(-c4c5nc(c(-c6cccc(S(=O)(=O)[O-])c6F)c6ccc([nH]6)c(-c6cccc(S(=O)(=O)[O-])c6F)c6nc(c(-c7cccc(S(=O)(=O)[O-])c7F)c7ccc4[nH]7)C=C6)C=C5)cc3)C[C@H]2c2cccs2)cc1
REMARK SMILES IDX 17 1 16 2 15 3 14 4 12 5 13 6 11 8 9 9 10 10 86 11 85 12
REMARK SMILES IDX 8 13 5 14 6 15 93 16 7 17 92 18 2 19 1 20 3 21 4 22 87 23
REMARK SMILES IDX 88 24 91 25 89 26 90 27 18 28 19 29 20 30 21 32 22 33 23 34
REMARK SMILES IDX 84 35 24 36 83 37 25 38 26 39 27 40 77 41 28 42 82 43 76 44
REMARK SMILES IDX 78 45 29 46 81 47 75 48 74 49 30 51 62 52 42 53 61 54 43 55
REMARK SMILES IDX 46 56 60 57 79 58 44 59 45 60 59 62 80 63 47 64 31 65 32 66
REMARK SMILES IDX 40 67 33 68 35 69 41 70 34 71 36 72 37 73 38 74 39 75 63 76
REMARK SMILES IDX 64 77 72 78 65 79 67 80 73 81 66 82 68 83 69 84 70 85 71 86
REMARK SMILES IDX 48 87 49 88 57 89 50 90 52 91 58 92 51 93 53 94 54 95 55 96
REMARK SMILES IDX 56 97
REMARK H PARENT 14 7 19 31 78 50 46 61
REMARK Flexibility Score: inf
ROOT
ATOM      1  C   UNL A   1      34.952  21.482  25.357  1.00  0.00     0.023 C 
ENDROOT
BRANCH   1   2
ATOM      2  C   UNL A   1      34.032  21.355  26.569  1.00  0.00     0.023 C 
BRANCH   2   3
ATOM      3  C   UNL A   1      33.613  22.684  27.187  1.00  0.00     0.116 C 
BRANCH   3   4
ATOM      4  N   UNL A   1      32.181  22.747  27.406  1.00  0.00    -0.351 N 
ATOM      5  C   UNL A   1      31.155  23.487  26.873  1.00  0.00     0.267 C 
ATOM      6  O   UNL A   1      30.031  23.329  27.347  1.00  0.00    -0.268 OA
ATOM      7  H   UNL A   1      31.875  22.115  28.096  1.00  0.00     0.163 HD
BRANCH   5   8
ATOM      8  C   UNL A   1      31.311  24.461  25.713  1.00  0.00     0.128 C 
ATOM      9  N   UNL A   1      30.726  25.886  24.220  1.00  0.00    -0.256 N 
ATOM     10  N   UNL A   1      30.327  25.228  25.347  1.00  0.00    -0.171 NA
ATOM     11  C   UNL A   1      32.134  25.646  23.880  1.00  0.00     0.154 C 
ATOM     12  C   UNL A   1      32.571  24.630  24.938  1.00  0.00     0.097 C 
BRANCH   9  13
ATOM     13  C   UNL A   1      30.154  27.124  23.908  1.00  0.00     0.060 A 
ATOM     14  C   UNL A   1      29.001  29.641  23.436  1.00  0.00     0.067 A 
ATOM     15  C   UNL A   1      28.230  28.487  23.280  1.00  0.00     0.022 A 
ATOM     16  C   UNL A   1      30.344  29.552  23.799  1.00  0.00     0.022 A 
ATOM     17  C   UNL A   1      28.817  27.235  23.500  1.00  0.00     0.029 A 
ATOM     18  C   UNL A   1      30.910  28.297  24.032  1.00  0.00     0.029 A 
BRANCH  14  19
ATOM     19  S   UNL A   1      28.271  31.240  23.188  1.00  0.00     0.175 S 
ATOM     20  C   UNL A   1      28.243  31.468  21.431  1.00  0.00     0.163 C 
ATOM     21  O   UNL A   1      29.184  32.230  23.731  1.00  0.00    -0.224 OA
ATOM     22  O   UNL A   1      26.904  31.156  23.661  1.00  0.00    -0.224 OA
ENDBRANCH  14  19
ENDBRANCH   9  13
BRANCH  11  23
ATOM     23  C   UNL A   1      32.434  25.227  22.448  1.00  0.00     0.030 A 
ATOM     24  C   UNL A   1      32.150  25.944  21.297  1.00  0.00     0.017 A 
ATOM     25  S   UNL A   1      33.174  23.726  22.048  1.00  0.00    -0.147 S 
ATOM     26  C   UNL A   1      32.586  25.287  20.111  1.00  0.00     0.012 A 
ATOM     27  C   UNL A   1      33.212  24.095  20.385  1.00  0.00     0.065 A 
ENDBRANCH  11  23
ENDBRANCH   5   8
ENDBRANCH   3   4
ENDBRANCH   2   3
ENDBRANCH   1   2
BRANCH   1  28
ATOM     28  C   UNL A   1      36.339  22.051  25.645  1.00  0.00     0.116 C 
BRANCH  28  29
ATOM     29  N   UNL A   1      37.398  21.050  25.606  1.00  0.00    -0.352 N 
ATOM     30  C   UNL A   1      38.726  21.184  25.936  1.00  0.00     0.251 C 
ATOM     31  H   UNL A   1      37.124  20.155  25.302  1.00  0.00     0.163 HD
ATOM     32  O   UNL A   1      39.502  20.253  25.741  1.00  0.00    -0.269 OA
BRANCH  30  33
ATOM     33  C   UNL A   1      39.214  22.463  26.488  1.00  0.00     0.039 A 
ATOM     34  C   UNL A   1      40.327  22.451  27.332  1.00  0.00     0.014 A 
ATOM     35  C   UNL A   1      38.606  23.671  26.137  1.00  0.00     0.014 A 
ATOM     36  C   UNL A   1      40.879  23.660  27.758  1.00  0.00     0.010 A 
ATOM     37  C   UNL A   1      39.204  24.873  26.498  1.00  0.00     0.010 A 
ATOM     38  C   UNL A   1      40.349  24.882  27.309  1.00  0.00    -0.014 A 
BRANCH  38  39
ATOM     39  C   UNL A   1      41.013  26.169  27.640  1.00  0.00     0.031 A 
ATOM     40  C   UNL A   1      42.426  26.441  27.205  1.00  0.00     0.074 A 
ATOM     41  C   UNL A   1      40.368  27.058  28.421  1.00  0.00     0.049 A 
ATOM     42  N   UNL A   1      43.160  27.502  27.414  1.00  0.00    -0.248 NA
ATOM     43  C   UNL A   1      43.117  25.370  26.468  1.00  0.00     0.031 C 
ATOM     44  C   UNL A   1      39.039  26.863  29.004  1.00  0.00     0.029 A 
ATOM     45  N   UNL A   1      40.755  28.292  28.883  1.00  0.00    -0.354 N 
ATOM     46  C   UNL A   1      44.406  27.217  26.872  1.00  0.00     0.074 A 
ATOM     47  C   UNL A   1      44.340  25.869  26.353  1.00  0.00     0.031 C 
ATOM     48  C   UNL A   1      38.720  27.938  29.742  1.00  0.00     0.029 A 
ATOM     49  C   UNL A   1      39.826  28.888  29.703  1.00  0.00     0.049 A 
ATOM     50  H   UNL A   1      41.615  28.710  28.650  1.00  0.00     0.167 HD
ATOM     51  C   UNL A   1      45.498  28.015  26.785  1.00  0.00     0.034 A 
ATOM     52  C   UNL A   1      39.860  30.068  30.354  1.00  0.00     0.034 A 
ATOM     53  C   UNL A   1      45.545  29.371  27.262  1.00  0.00     0.049 A 
ATOM     54  C   UNL A   1      41.051  30.967  30.179  1.00  0.00     0.074 A 
ATOM     55  C   UNL A   1      46.557  30.302  27.109  1.00  0.00     0.029 A 
ATOM     56  N   UNL A   1      44.546  29.985  28.001  1.00  0.00    -0.354 N 
ATOM     57  N   UNL A   1      42.143  30.760  29.484  1.00  0.00    -0.248 NA
ATOM     58  C   UNL A   1      40.998  32.278  30.840  1.00  0.00     0.031 C 
ATOM     59  C   UNL A   1      46.181  31.470  27.783  1.00  0.00     0.029 A 
ATOM     60  C   UNL A   1      44.923  31.276  28.330  1.00  0.00     0.049 A 
ATOM     61  H   UNL A   1      43.692  29.565  28.255  1.00  0.00     0.167 HD
ATOM     62  C   UNL A   1      42.899  31.921  29.606  1.00  0.00     0.074 A 
ATOM     63  C   UNL A   1      42.123  32.839  30.415  1.00  0.00     0.031 C 
ATOM     64  C   UNL A   1      44.131  32.195  29.108  1.00  0.00     0.034 A 
BRANCH  51  65
ATOM     65  C   UNL A   1      46.719  27.453  26.102  1.00  0.00     0.023 A 
ATOM     66  C   UNL A   1      47.576  26.585  26.810  1.00  0.00     0.012 A 
ATOM     67  C   UNL A   1      46.994  27.746  24.752  1.00  0.00     0.148 A 
ATOM     68  C   UNL A   1      48.710  26.049  26.199  1.00  0.00     0.002 A 
ATOM     69  C   UNL A   1      48.100  27.170  24.136  1.00  0.00     0.091 A 
ATOM     70  F   UNL A   1      46.183  28.592  24.102  1.00  0.00    -0.205 F 
ATOM     71  C   UNL A   1      48.965  26.334  24.860  1.00  0.00     0.022 A 
BRANCH  69  72
ATOM     72  S   UNL A   1      48.468  27.412  22.394  1.00  0.00     0.127 S 
ATOM     73  O   UNL A   1      49.700  28.198  22.460  1.00  0.00    -0.237 OA
ATOM     74  O   UNL A   1      48.647  26.038  21.923  1.00  0.00    -0.237 OA
ATOM     75  O   UNL A   1      47.313  28.098  21.834  1.00  0.00    -0.744 OA
ENDBRANCH  69  72
ENDBRANCH  51  65
BRANCH  52  76
ATOM     76  C   UNL A   1      38.689  30.487  31.176  1.00  0.00     0.023 A 
ATOM     77  C   UNL A   1      38.703  30.267  32.566  1.00  0.00     0.012 A 
ATOM     78  C   UNL A   1      37.592  31.152  30.595  1.00  0.00     0.148 A 
ATOM     79  C   UNL A   1      37.634  30.681  33.362  1.00  0.00     0.002 A 
ATOM     80  C   UNL A   1      36.558  31.613  31.400  1.00  0.00     0.091 A 
ATOM     81  F   UNL A   1      37.596  31.341  29.268  1.00  0.00    -0.205 F 
ATOM     82  C   UNL A   1      36.568  31.364  32.782  1.00  0.00     0.022 A 
BRANCH  80  83
ATOM     83  S   UNL A   1      35.219  32.626  30.762  1.00  0.00     0.127 S 
ATOM     84  O   UNL A   1      34.294  32.646  31.892  1.00  0.00    -0.237 OA
ATOM     85  O   UNL A   1      35.901  33.894  30.499  1.00  0.00    -0.237 OA
ATOM     86  O   UNL A   1      34.744  31.943  29.566  1.00  0.00    -0.744 OA
ENDBRANCH  80  83
ENDBRANCH  52  76
BRANCH  64  87
ATOM     87  C   UNL A   1      44.719  33.548  29.416  1.00  0.00     0.023 A 
ATOM     88  C   UNL A   1      45.724  33.665  30.397  1.00  0.00     0.012 A 
ATOM     89  C   UNL A   1      44.318  34.692  28.698  1.00  0.00     0.148 A 
ATOM     90  C   UNL A   1      46.293  34.905  30.685  1.00  0.00     0.002 A 
ATOM     91  C   UNL A   1      44.925  35.916  28.956  1.00  0.00     0.091 A 
ATOM     92  F   UNL A   1      43.346  34.565  27.782  1.00  0.00    -0.205 F 
ATOM     93  C   UNL A   1      45.902  36.026  29.959  1.00  0.00     0.022 A 
BRANCH  91  94
ATOM     94  S   UNL A   1      44.550  37.391  28.003  1.00  0.00     0.127 S 
ATOM     95  O   UNL A   1      45.529  38.342  28.528  1.00  0.00    -0.237 OA
ATOM     96  O   UNL A   1      44.804  36.950  26.631  1.00  0.00    -0.237 OA
ATOM     97  O   UNL A   1      43.156  37.705  28.285  1.00  0.00    -0.744 OA
ENDBRANCH  91  94
ENDBRANCH  64  87
ENDBRANCH  38  39
ENDBRANCH  30  33
ENDBRANCH  28  29
ENDBRANCH   1  28
TORSDOF 17
ENDMDL
MODEL 2
REMARK VINA RESULT:     -12.9      2.553      3.626
REMARK SMILES CS(=O)(=O)c1ccc(N2N=C(C(=O)NCCCCNC(=O)c3ccc(-c4c5nc(c(-c6cccc(S(=O)(=O)[O-])c6F)c6ccc([nH]6)c(-c6cccc(S(=O)(=O)[O-])c6F)c6nc(c(-c7cccc(S(=O)(=O)[O-])c7F)c7ccc4[nH]7)C=C6)C=C5)cc3)C[C@H]2c2cccs2)cc1
REMARK SMILES IDX 17 1 16 2 15 3 14 4 12 5 13 6 11 8 9 9 10 10 86 11 85 12
REMARK SMILES IDX 8 13 5 14 6 15 93 16 7 17 92 18 2 19 1 20 3 21 4 22 87 23
REMARK SMILES IDX 88 24 91 25 89 26 90 27 18 28 19 29 20 30 21 32 22 33 23 34
REMARK SMILES IDX 84 35 24 36 83 37 25 38 26 39 27 40 77 41 28 42 82 43 76 44
REMARK SMILES IDX 78 45 29 46 81 47 75 48 74 49 30 51 62 52 42 53 61 54 43 55
REMARK SMILES IDX 46 56 60 57 79 58 44 59 45 60 59 62 80 63 47 64 31 65 32 66
REMARK SMILES IDX 40 67 33 68 35 69 41 70 34 71 36 72 37 73 38 74 39 75 63 76
REMARK SMILES IDX 64 77 72 78 65 79 67 80 73 81 66 82 68 83 69 84 70 85 71 86
REMARK SMILES IDX 48 87 49 88 57 89 50 90 52 91 58 92 51 93 53 94 54 95 55 96
REMARK SMILES IDX 56 97
REMARK H PARENT 14 7 19 31 78 50 46 61
REMARK Flexibility Score: inf
ROOT
ATOM      1  C   UNL A   1      35.698  22.937  24.835  1.00  0.00     0.023 C 
ENDROOT
BRANCH   1   2
ATOM      2  C   UNL A   1      34.353  22.469  25.387  1.00  0.00     0.023 C 
BRANCH   2   3
ATOM      3  C   UNL A   1      34.018  23.004  26.774  1.00  0.00     0.116 C 
BRANCH   3   4
ATOM      4  N   UNL A   1      32.588  23.028  27.009  1.00  0.00    -0.351 N 
ATOM      5  C   UNL A   1      31.602  23.973  26.867  1.00  0.00     0.267 C 
ATOM      6  O   UNL A   1      30.466  23.673  27.230  1.00  0.00    -0.268 OA
ATOM      7  H   UNL A   1      32.244  22.171  27.351  1.00  0.00     0.163 HD
BRANCH   5   8
ATOM      8  C   UNL A   1      31.816  25.351  26.257  1.00  0.00     0.128 C 
ATOM      9  N   UNL A   1      32.050  27.484  26.190  1.00  0.00    -0.256 N 
ATOM     10  N   UNL A   1      32.019  26.392  27.009  1.00  0.00    -0.171 NA
ATOM     11  C   UNL A   1      31.999  27.136  24.764  1.00  0.00     0.154 C 
ATOM     12  C   UNL A   1      31.834  25.614  24.791  1.00  0.00     0.097 C 
BRANCH   9  13
ATOM     13  C   UNL A   1      32.760  28.621  26.586  1.00  0.00     0.060 A 
ATOM     14  C   UNL A   1      34.189  30.848  27.530  1.00  0.00     0.067 A 
ATOM     15  C   UNL A   1      32.838  30.981  27.202  1.00  0.00     0.022 A 
ATOM     16  C   UNL A   1      34.839  29.625  27.369  1.00  0.00     0.022 A 
ATOM     17  C   UNL A   1      32.137  29.871  26.716  1.00  0.00     0.029 A 
ATOM     18  C   UNL A   1      34.123  28.523  26.900  1.00  0.00     0.029 A 
BRANCH  14  19
ATOM     19  S   UNL A   1      35.089  32.235  28.173  1.00  0.00     0.175 S 
ATOM     20  C   UNL A   1      34.687  32.288  29.898  1.00  0.00     0.163 C 
ATOM     21  O   UNL A   1      34.537  33.436  27.570  1.00  0.00    -0.224 OA
ATOM     22  O   UNL A   1      36.498  31.921  28.039  1.00  0.00    -0.224 OA
ENDBRANCH  14  19
ENDBRANCH   9  13
BRANCH  11  23
ATOM     23  C   UNL A   1      30.967  27.863  23.915  1.00  0.00     0.030 A 
ATOM     24  C   UNL A   1      31.130  29.078  23.271  1.00  0.00     0.017 A 
ATOM     25  S   UNL A   1      29.377  27.257  23.653  1.00  0.00    -0.147 S 
ATOM     26  C   UNL A   1      29.979  29.475  22.530  1.00  0.00     0.012 A 
ATOM     27  C   UNL A   1      28.973  28.542  22.608  1.00  0.00     0.065 A 
ENDBRANCH  11  23
ENDBRANCH   5   8
ENDBRANCH   3   4
ENDBRANCH   2   3
ENDBRANCH   1   2
BRANCH   1  28
ATOM     28  C   UNL A   1      36.781  23.190  25.880  1.00  0.00     0.116 C 
BRANCH  28  29
ATOM     29  N   UNL A   1      37.740  22.098  25.999  1.00  0.00    -0.352 N 
ATOM     30  C   UNL A   1      39.064  22.147  26.367  1.00  0.00     0.251 C 
ATOM     31  H   UNL A   1      37.390  21.203  25.788  1.00  0.00     0.163 HD
ATOM     32  O   UNL A   1      39.753  21.133  26.312  1.00  0.00    -0.269 OA
BRANCH  30  33
ATOM     33  C   UNL A   1      39.656  23.432  26.790  1.00  0.00     0.039 A 
ATOM     34  C   UNL A   1      40.543  23.442  27.868  1.00  0.00     0.014 A 
ATOM     35  C   UNL A   1      39.373  24.611  26.095  1.00  0.00     0.014 A 
ATOM     36  C   UNL A   1      41.210  24.623  28.198  1.00  0.00     0.010 A 
ATOM     37  C   UNL A   1      40.097  25.765  26.376  1.00  0.00     0.010 A 
ATOM     38  C   UNL A   1      41.026  25.784  27.427  1.00  0.00    -0.014 A 
BRANCH  38  39
ATOM     39  C   UNL A   1      41.833  27.004  27.679  1.00  0.00     0.031 A 
ATOM     40  C   UNL A   1      43.265  27.087  27.227  1.00  0.00     0.074 A 
ATOM     41  C   UNL A   1      41.301  28.006  28.408  1.00  0.00     0.049 A 
ATOM     42  N   UNL A   1      44.117  28.069  27.372  1.00  0.00    -0.248 NA
ATOM     43  C   UNL A   1      43.824  25.903  26.554  1.00  0.00     0.031 C 
ATOM     44  C   UNL A   1      39.963  27.998  29.004  1.00  0.00     0.029 A 
ATOM     45  N   UNL A   1      41.829  29.212  28.794  1.00  0.00    -0.354 N 
ATOM     46  C   UNL A   1      45.317  27.612  26.845  1.00  0.00     0.074 A 
ATOM     47  C   UNL A   1      45.094  26.251  26.407  1.00  0.00     0.031 C 
ATOM     48  C   UNL A   1      39.774  29.144  29.676  1.00  0.00     0.029 A 
ATOM     49  C   UNL A   1      40.981  29.958  29.579  1.00  0.00     0.049 A 
ATOM     50  H   UNL A   1      42.729  29.515  28.536  1.00  0.00     0.167 HD
ATOM     51  C   UNL A   1      46.492  28.273  26.709  1.00  0.00     0.034 A 
ATOM     52  C   UNL A   1      41.154  31.162  30.159  1.00  0.00     0.034 A 
ATOM     53  C   UNL A   1      46.697  29.641  27.105  1.00  0.00     0.049 A 
ATOM     54  C   UNL A   1      42.438  31.908  29.928  1.00  0.00     0.074 A 
ATOM     55  C   UNL A   1      47.807  30.440  26.895  1.00  0.00     0.029 A 
ATOM     56  N   UNL A   1      45.780  30.408  27.807  1.00  0.00    -0.354 N 
ATOM     57  N   UNL A   1      43.494  31.537  29.245  1.00  0.00    -0.248 NA
ATOM     58  C   UNL A   1      42.540  33.253  30.511  1.00  0.00     0.031 C 
ATOM     59  C   UNL A   1      47.572  31.682  27.498  1.00  0.00     0.029 A 
ATOM     60  C   UNL A   1      46.305  31.665  28.058  1.00  0.00     0.049 A 
ATOM     61  H   UNL A   1      44.886  30.103  28.087  1.00  0.00     0.167 HD
ATOM     62  C   UNL A   1      44.378  32.609  29.297  1.00  0.00     0.074 A 
ATOM     63  C   UNL A   1      43.718  33.656  30.051  1.00  0.00     0.031 C 
ATOM     64  C   UNL A   1      45.628  32.711  28.782  1.00  0.00     0.034 A 
BRANCH  51  65
ATOM     65  C   UNL A   1      47.636  27.537  26.059  1.00  0.00     0.023 A 
ATOM     66  C   UNL A   1      47.815  27.621  24.662  1.00  0.00     0.012 A 
ATOM     67  C   UNL A   1      48.557  26.802  26.830  1.00  0.00     0.148 A 
ATOM     68  C   UNL A   1      48.868  26.953  24.038  1.00  0.00     0.002 A 
ATOM     69  C   UNL A   1      49.631  26.176  26.206  1.00  0.00     0.091 A 
ATOM     70  F   UNL A   1      48.357  26.711  28.152  1.00  0.00    -0.205 F 
ATOM     71  C   UNL A   1      49.780  26.240  24.811  1.00  0.00     0.022 A 
BRANCH  69  72
ATOM     72  S   UNL A   1      50.904  25.302  27.123  1.00  0.00     0.127 S 
ATOM     73  O   UNL A   1      51.442  26.367  27.967  1.00  0.00    -0.237 OA
ATOM     74  O   UNL A   1      50.127  24.290  27.840  1.00  0.00    -0.237 OA
ATOM     75  O   UNL A   1      51.819  24.767  26.124  1.00  0.00    -0.744 OA
ENDBRANCH  69  72
ENDBRANCH  51  65
BRANCH  52  76
ATOM     76  C   UNL A   1      40.045  31.759  30.956  1.00  0.00     0.023 A 
ATOM     77  C   UNL A   1      39.121  32.615  30.328  1.00  0.00     0.012 A 
ATOM     78  C   UNL A   1      39.871  31.438  32.316  1.00  0.00     0.148 A 
ATOM     79  C   UNL A   1      38.055  33.159  31.045  1.00  0.00     0.002 A 
ATOM     80  C   UNL A   1      38.776  31.937  33.009  1.00  0.00     0.091 A 
ATOM     81  F   UNL A   1      40.769  30.629  32.897  1.00  0.00    -0.205 F 
ATOM     82  C   UNL A   1      37.875  32.811  32.381  1.00  0.00     0.022 A 
BRANCH  80  83
ATOM     83  S   UNL A   1      38.385  31.428  34.687  1.00  0.00     0.127 S 
ATOM     84  O   UNL A   1      37.125  32.128  34.927  1.00  0.00    -0.237 OA
ATOM     85  O   UNL A   1      38.266  29.976  34.541  1.00  0.00    -0.237 OA
ATOM     86  O   UNL A   1      39.513  31.857  35.502  1.00  0.00    -0.744 OA
ENDBRANCH  80  83
ENDBRANCH  52  76
BRANCH  64  87
ATOM     87  C   UNL A   1      46.369  34.004  29.008  1.00  0.00     0.023 A 
ATOM     88  C   UNL A   1      47.216  34.137  30.126  1.00  0.00     0.012 A 
ATOM     89  C   UNL A   1      46.270  35.066  28.086  1.00  0.00     0.148 A 
ATOM     90  C   UNL A   1      47.924  35.319  30.344  1.00  0.00     0.002 A 
ATOM     91  C   UNL A   1      47.016  36.222  28.283  1.00  0.00     0.091 A 
ATOM     92  F   UNL A   1      45.444  34.930  27.038  1.00  0.00    -0.205 F 
ATOM     93  C   UNL A   1      47.832  36.356  29.418  1.00  0.00     0.022 A 
BRANCH  91  94
ATOM     94  S   UNL A   1      47.032  37.568  27.093  1.00  0.00     0.127 S 
ATOM     95  O   UNL A   1      47.959  38.509  27.719  1.00  0.00    -0.237 OA
ATOM     96  O   UNL A   1      47.546  36.914  25.889  1.00  0.00    -0.237 OA
ATOM     97  O   UNL A   1      45.652  38.022  26.987  1.00  0.00    -0.744 OA
ENDBRANCH  91  94
ENDBRANCH  64  87
ENDBRANCH  38  39
ENDBRANCH  30  33
ENDBRANCH  28  29
ENDBRANCH   1  28
TORSDOF 17
ENDMDL
MODEL 3
REMARK VINA RESULT:     -12.8      1.483      2.127
REMARK SMILES CS(=O)(=O)c1ccc(N2N=C(C(=O)NCCCCNC(=O)c3ccc(-c4c5nc(c(-c6cccc(S(=O)(=O)[O-])c6F)c6ccc([nH]6)c(-c6cccc(S(=O)(=O)[O-])c6F)c6nc(c(-c7cccc(S(=O)(=O)[O-])c7F)c7ccc4[nH]7)C=C6)C=C5)cc3)C[C@H]2c2cccs2)cc1
REMARK SMILES IDX 17 1 16 2 15 3 14 4 12 5 13 6 11 8 9 9 10 10 86 11 85 12
REMARK SMILES IDX 8 13 5 14 6 15 93 16 7 17 92 18 2 19 1 20 3 21 4 22 87 23
REMARK SMILES IDX 88 24 91 25 89 26 90 27 18 28 19 29 20 30 21 32 22 33 23 34
REMARK SMILES IDX 84 35 24 36 83 37 25 38 26 39 27 40 77 41 28 42 82 43 76 44
REMARK SMILES IDX 78 45 29 46 81 47 75 48 74 49 30 51 62 52 42 53 61 54 43 55
REMARK SMILES IDX 46 56 60 57 79 58 44 59 45 60 59 62 80 63 47 64 31 65 32 66
REMARK SMILES IDX 40 67 33 68 35 69 41 70 34 71 36 72 37 73 38 74 39 75 63 76
REMARK SMILES IDX 64 77 72 78 65 79 67 80 73 81 66 82 68 83 69 84 70 85 71 86
REMARK SMILES IDX 48 87 49 88 57 89 50 90 52 91 58 92 51 93 53 94 54 95 55 96
REMARK SMILES IDX 56 97
REMARK H PARENT 14 7 19 31 78 50 46 61
REMARK Flexibility Score: inf
ROOT
ATOM      1  C   UNL A   1      36.786  22.444  23.591  1.00  0.00     0.023 C 
ENDROOT
BRANCH   1   2
ATOM      2  C   UNL A   1      35.420  22.997  23.191  1.00  0.00     0.023 C 
BRANCH   2   3
ATOM      3  C   UNL A   1      34.339  22.843  24.255  1.00  0.00     0.116 C 
BRANCH   3   4
ATOM      4  N   UNL A   1      33.051  22.528  23.671  1.00  0.00    -0.351 N 
ATOM      5  C   UNL A   1      31.847  23.182  23.578  1.00  0.00     0.267 C 
ATOM      6  O   UNL A   1      30.910  22.582  23.054  1.00  0.00    -0.268 OA
ATOM      7  H   UNL A   1      33.034  21.641  23.244  1.00  0.00     0.163 HD
BRANCH   5   8
ATOM      8  C   UNL A   1      31.608  24.610  24.047  1.00  0.00     0.128 C 
ATOM      9  N   UNL A   1      31.325  26.732  23.898  1.00  0.00    -0.256 N 
ATOM     10  N   UNL A   1      31.372  25.564  23.195  1.00  0.00    -0.171 NA
ATOM     11  C   UNL A   1      31.399  26.534  25.352  1.00  0.00     0.154 C 
ATOM     12  C   UNL A   1      31.599  25.021  25.478  1.00  0.00     0.097 C 
BRANCH   9  13
ATOM     13  C   UNL A   1      30.585  27.807  23.397  1.00  0.00     0.060 A 
ATOM     14  C   UNL A   1      29.132  30.047  22.521  1.00  0.00     0.067 A 
ATOM     15  C   UNL A   1      28.452  28.910  22.963  1.00  0.00     0.022 A 
ATOM     16  C   UNL A   1      30.526  30.068  22.488  1.00  0.00     0.022 A 
ATOM     17  C   UNL A   1      29.182  27.792  23.382  1.00  0.00     0.029 A 
ATOM     18  C   UNL A   1      31.241  28.952  22.925  1.00  0.00     0.029 A 
BRANCH  14  19
ATOM     19  S   UNL A   1      28.226  31.485  22.011  1.00  0.00     0.175 S 
ATOM     20  C   UNL A   1      27.903  31.240  20.287  1.00  0.00     0.163 C 
ATOM     21  O   UNL A   1      29.118  32.627  22.120  1.00  0.00    -0.224 OA
ATOM     22  O   UNL A   1      26.964  31.461  22.723  1.00  0.00    -0.224 OA
ENDBRANCH  14  19
ENDBRANCH   9  13
BRANCH  11  23
ATOM     23  C   UNL A   1      32.423  27.366  26.109  1.00  0.00     0.030 A 
ATOM     24  C   UNL A   1      33.788  27.412  25.878  1.00  0.00     0.017 A 
ATOM     25  S   UNL A   1      32.007  28.386  27.430  1.00  0.00    -0.147 S 
ATOM     26  C   UNL A   1      34.469  28.315  26.744  1.00  0.00     0.012 A 
ATOM     27  C   UNL A   1      33.605  28.955  27.600  1.00  0.00     0.065 A 
ENDBRANCH  11  23
ENDBRANCH   5   8
ENDBRANCH   3   4
ENDBRANCH   2   3
ENDBRANCH   1   2
BRANCH   1  28
ATOM     28  C   UNL A   1      37.028  22.323  25.093  1.00  0.00     0.116 C 
BRANCH  28  29
ATOM     29  N   UNL A   1      37.994  21.289  25.445  1.00  0.00    -0.352 N 
ATOM     30  C   UNL A   1      39.187  21.414  26.117  1.00  0.00     0.251 C 
ATOM     31  H   UNL A   1      37.759  20.376  25.163  1.00  0.00     0.163 HD
ATOM     32  O   UNL A   1      39.929  20.443  26.235  1.00  0.00    -0.269 OA
BRANCH  30  33
ATOM     33  C   UNL A   1      39.583  22.729  26.660  1.00  0.00     0.039 A 
ATOM     34  C   UNL A   1      40.598  22.784  27.618  1.00  0.00     0.014 A 
ATOM     35  C   UNL A   1      38.990  23.904  26.190  1.00  0.00     0.014 A 
ATOM     36  C   UNL A   1      41.073  24.024  28.046  1.00  0.00     0.010 A 
ATOM     37  C   UNL A   1      39.519  25.136  26.558  1.00  0.00     0.010 A 
ATOM     38  C   UNL A   1      40.568  25.211  27.486  1.00  0.00    -0.014 A 
BRANCH  38  39
ATOM     39  C   UNL A   1      41.162  26.529  27.827  1.00  0.00     0.031 A 
ATOM     40  C   UNL A   1      42.595  26.838  27.491  1.00  0.00     0.074 A 
ATOM     41  C   UNL A   1      40.432  27.416  28.531  1.00  0.00     0.049 A 
ATOM     42  N   UNL A   1      43.276  27.929  27.723  1.00  0.00    -0.248 NA
ATOM     43  C   UNL A   1      43.374  25.772  26.841  1.00  0.00     0.031 C 
ATOM     44  C   UNL A   1      39.070  27.191  29.019  1.00  0.00     0.029 A 
ATOM     45  N   UNL A   1      40.742  28.675  28.983  1.00  0.00    -0.354 N 
ATOM     46  C   UNL A   1      44.568  27.673  27.284  1.00  0.00     0.074 A 
ATOM     47  C   UNL A   1      44.586  26.309  26.802  1.00  0.00     0.031 C 
ATOM     48  C   UNL A   1      38.660  28.275  29.698  1.00  0.00     0.029 A 
ATOM     49  C   UNL A   1      39.735  29.261  29.714  1.00  0.00     0.049 A 
ATOM     50  H   UNL A   1      41.604  29.115  28.804  1.00  0.00     0.167 HD
ATOM     51  C   UNL A   1      45.637  28.505  27.255  1.00  0.00     0.034 A 
ATOM     52  C   UNL A   1      39.681  30.458  30.330  1.00  0.00     0.034 A 
ATOM     53  C   UNL A   1      45.604  29.874  27.694  1.00  0.00     0.049 A 
ATOM     54  C   UNL A   1      40.853  31.393  30.217  1.00  0.00     0.074 A 
ATOM     55  C   UNL A   1      46.594  30.835  27.589  1.00  0.00     0.029 A 
ATOM     56  N   UNL A   1      44.532  30.474  28.337  1.00  0.00    -0.354 N 
ATOM     57  N   UNL A   1      42.001  31.205  29.613  1.00  0.00    -0.248 NA
ATOM     58  C   UNL A   1      40.708  32.719  30.833  1.00  0.00     0.031 C 
ATOM     59  C   UNL A   1      46.130  32.008  28.198  1.00  0.00     0.029 A 
ATOM     60  C   UNL A   1      44.842  31.786  28.655  1.00  0.00     0.049 A 
ATOM     61  H   UNL A   1      43.676  30.031  28.539  1.00  0.00     0.167 HD
ATOM     62  C   UNL A   1      42.707  32.394  29.756  1.00  0.00     0.074 A 
ATOM     63  C   UNL A   1      41.842  33.306  30.477  1.00  0.00     0.031 C 
ATOM     64  C   UNL A   1      43.963  32.697  29.344  1.00  0.00     0.034 A 
BRANCH  51  65
ATOM     65  C   UNL A   1      46.924  27.967  26.683  1.00  0.00     0.023 A 
ATOM     66  C   UNL A   1      47.913  27.458  27.549  1.00  0.00     0.012 A 
ATOM     67  C   UNL A   1      47.136  27.923  25.291  1.00  0.00     0.148 A 
ATOM     68  C   UNL A   1      49.110  26.952  27.043  1.00  0.00     0.002 A 
ATOM     69  C   UNL A   1      48.312  27.373  24.792  1.00  0.00     0.091 A 
ATOM     70  F   UNL A   1      46.196  28.433  24.483  1.00  0.00    -0.205 F 
ATOM     71  C   UNL A   1      49.304  26.900  25.666  1.00  0.00     0.022 A 
BRANCH  69  72
ATOM     72  S   UNL A   1      48.620  27.189  23.032  1.00  0.00     0.127 S 
ATOM     73  O   UNL A   1      48.269  25.786  22.817  1.00  0.00    -0.237 OA
ATOM     74  O   UNL A   1      47.680  28.148  22.452  1.00  0.00    -0.237 OA
ATOM     75  O   UNL A   1      50.024  27.523  22.836  1.00  0.00    -0.744 OA
ENDBRANCH  69  72
ENDBRANCH  51  65
BRANCH  52  76
ATOM     76  C   UNL A   1      38.439  30.859  31.049  1.00  0.00     0.023 A 
ATOM     77  C   UNL A   1      38.345  30.655  32.439  1.00  0.00     0.012 A 
ATOM     78  C   UNL A   1      37.377  31.492  30.373  1.00  0.00     0.148 A 
ATOM     79  C   UNL A   1      37.206  31.053  33.140  1.00  0.00     0.002 A 
ATOM     80  C   UNL A   1      36.272  31.937  31.086  1.00  0.00     0.091 A 
ATOM     81  F   UNL A   1      37.485  31.666  29.048  1.00  0.00    -0.205 F 
ATOM     82  C   UNL A   1      36.175  31.704  32.466  1.00  0.00     0.022 A 
BRANCH  80  83
ATOM     83  S   UNL A   1      34.967  32.911  30.329  1.00  0.00     0.127 S 
ATOM     84  O   UNL A   1      34.447  31.987  29.324  1.00  0.00    -0.237 OA
ATOM     85  O   UNL A   1      34.076  33.154  31.465  1.00  0.00    -0.237 OA
ATOM     86  O   UNL A   1      35.617  34.108  29.812  1.00  0.00    -0.744 OA
ENDBRANCH  80  83
ENDBRANCH  52  76
BRANCH  64  87
ATOM     87  C   UNL A   1      44.482  34.077  29.654  1.00  0.00     0.023 A 
ATOM     88  C   UNL A   1      45.156  34.312  30.869  1.00  0.00     0.012 A 
ATOM     89  C   UNL A   1      44.352  35.126  28.722  1.00  0.00     0.148 A 
ATOM     90  C   UNL A   1      45.659  35.579  31.168  1.00  0.00     0.002 A 
ATOM     91  C   UNL A   1      44.899  36.372  29.006  1.00  0.00     0.091 A 
ATOM     92  F   UNL A   1      43.690  34.890  27.580  1.00  0.00    -0.205 F 
ATOM     93  C   UNL A   1      45.540  36.604  30.234  1.00  0.00     0.022 A 
BRANCH  91  94
ATOM     94  S   UNL A   1      44.875  37.722  27.821  1.00  0.00     0.127 S 
ATOM     95  O   UNL A   1      43.467  37.748  27.427  1.00  0.00    -0.237 OA
ATOM     96  O   UNL A   1      45.302  38.861  28.635  1.00  0.00    -0.237 OA
ATOM     97  O   UNL A   1      45.814  37.347  26.771  1.00  0.00    -0.744 OA
ENDBRANCH  91  94
ENDBRANCH  64  87
ENDBRANCH  38  39
ENDBRANCH  30  33
ENDBRANCH  28  29
ENDBRANCH   1  28
TORSDOF 17
ENDMDL
