MODEL 1
REMARK VINA RESULT:     -11.5      0.000      0.000
REMARK SMILES [NH3+]CC1([C@H](O)C(=O)NCCCCNC(=O)c2ccc(-c3c4nc(c(-c5cccc(S(=O)(=O)[O-])c5F)c5ccc([nH]5)c(-c5cccc(S(=O)(=O)[O-])c5F)c5nc(c(-c6cccc(S(=O)(=O)[O-])c6F)c6ccc3[nH]6)C=C5)C=C4)cc2)Cc2ccccc2C1
REMARK SMILES IDX 10 1 9 2 8 3 6 4 7 5 4 7 3 8 79 9 86 10 80 11 85 12 81 13
REMARK SMILES IDX 84 14 82 15 83 16 2 17 1 18 5 22 11 24 12 25 13 26 14 27
REMARK SMILES IDX 15 29 16 30 17 31 78 32 18 33 77 34 19 35 20 36 21 37 71 38
REMARK SMILES IDX 22 39 76 40 70 41 72 42 23 43 75 44 69 45 68 46 24 48 56 49
REMARK SMILES IDX 36 50 55 51 37 52 40 53 54 54 73 55 38 56 39 57 53 59 74 60
REMARK SMILES IDX 41 61 25 62 26 63 34 64 27 65 29 66 35 67 28 68 30 69 31 70
REMARK SMILES IDX 32 71 33 72 57 73 58 74 66 75 59 76 61 77 67 78 60 79 62 80
REMARK SMILES IDX 63 81 64 82 65 83 42 84 43 85 51 86 44 87 46 88 52 89 45 90
REMARK SMILES IDX 47 91 48 92 49 93 50 94
REMARK H PARENT 8 6 1 19 1 20 1 21 5 23 13 28 72 47 40 58
REMARK Flexibility Score: inf
ROOT
ATOM      1  C   UNL A   1      35.524  23.704  24.170  1.00  0.00     0.023 C 
ENDROOT
BRANCH   1   2
ATOM      2  C   UNL A   1      34.035  23.964  23.988  1.00  0.00     0.116 C 
BRANCH   2   3
ATOM      3  N   UNL A   1      33.662  24.230  22.615  1.00  0.00    -0.354 N 
ATOM      4  C   UNL A   1      33.215  25.390  22.054  1.00  0.00     0.249 C 
ATOM      5  O   UNL A   1      33.071  25.426  20.831  1.00  0.00    -0.272 OA
ATOM      6  H   UNL A   1      33.740  23.465  21.998  1.00  0.00     0.163 HD
BRANCH   4   7
ATOM      7  C   UNL A   1      32.831  26.605  22.933  1.00  0.00     0.215 C 
BRANCH   7   8
ATOM      8  C   UNL A   1      31.498  26.517  23.778  1.00  0.00     0.062 C 
ATOM      9  C   UNL A   1      30.772  27.914  23.716  1.00  0.00     0.052 C 
ATOM     10  C   UNL A   1      31.753  26.333  25.311  1.00  0.00     0.052 C 
ATOM     11  C   UNL A   1      31.347  28.637  24.895  1.00  0.00    -0.044 A 
ATOM     12  C   UNL A   1      31.921  27.737  25.792  1.00  0.00    -0.044 A 
ATOM     13  C   UNL A   1      31.314  29.992  25.172  1.00  0.00     0.004 A 
ATOM     14  C   UNL A   1      32.500  28.165  26.974  1.00  0.00     0.004 A 
ATOM     15  C   UNL A   1      31.898  30.438  26.360  1.00  0.00     0.000 A 
ATOM     16  C   UNL A   1      32.493  29.532  27.252  1.00  0.00     0.000 A 
BRANCH   8  17
ATOM     17  C   UNL A   1      30.507  25.418  23.309  1.00  0.00     0.269 C 
BRANCH  17  18
ATOM     18  N   UNL A   1      30.292  24.321  24.251  1.00  0.00    -0.357 N 
ATOM     19  H   UNL A   1      30.705  23.466  23.879  1.00  0.00     0.344 HD
ATOM     20  H   UNL A   1      29.289  24.182  24.389  1.00  0.00     0.344 HD
ATOM     21  H   UNL A   1      30.728  24.549  25.144  1.00  0.00     0.344 HD
ENDBRANCH  17  18
ENDBRANCH   8  17
ENDBRANCH   7   8
BRANCH   7  22
ATOM     22  O   UNL A   1      32.909  27.808  22.150  1.00  0.00    -0.382 OA
ATOM     23  H   UNL A   1      32.021  28.056  21.851  1.00  0.00     0.211 HD
ENDBRANCH   7  22
ENDBRANCH   4   7
ENDBRANCH   2   3
ENDBRANCH   1   2
BRANCH   1  24
ATOM     24  C   UNL A   1      35.922  22.240  24.359  1.00  0.00     0.023 C 
BRANCH  24  25
ATOM     25  C   UNL A   1      36.451  21.869  25.741  1.00  0.00     0.116 C 
BRANCH  25  26
ATOM     26  N   UNL A   1      37.521  20.884  25.704  1.00  0.00    -0.352 N 
ATOM     27  C   UNL A   1      38.858  21.044  25.980  1.00  0.00     0.251 C 
ATOM     28  H   UNL A   1      37.248  19.974  25.445  1.00  0.00     0.163 HD
ATOM     29  O   UNL A   1      39.640  20.116  25.788  1.00  0.00    -0.269 OA
BRANCH  27  30
ATOM     30  C   UNL A   1      39.357  22.344  26.475  1.00  0.00     0.039 A 
ATOM     31  C   UNL A   1      40.445  22.362  27.352  1.00  0.00     0.014 A 
ATOM     32  C   UNL A   1      38.774  23.541  26.051  1.00  0.00     0.014 A 
ATOM     33  C   UNL A   1      40.997  23.586  27.744  1.00  0.00     0.010 A 
ATOM     34  C   UNL A   1      39.371  24.755  26.384  1.00  0.00     0.010 A 
ATOM     35  C   UNL A   1      40.489  24.790  27.232  1.00  0.00    -0.014 A 
BRANCH  35  36
ATOM     36  C   UNL A   1      41.116  26.096  27.559  1.00  0.00     0.031 A 
ATOM     37  C   UNL A   1      42.536  26.377  27.149  1.00  0.00     0.074 A 
ATOM     38  C   UNL A   1      40.443  26.992  28.310  1.00  0.00     0.049 A 
ATOM     39  N   UNL A   1      43.275  27.426  27.403  1.00  0.00    -0.248 NA
ATOM     40  C   UNL A   1      43.228  25.329  26.381  1.00  0.00     0.031 C 
ATOM     41  C   UNL A   1      39.092  26.804  28.845  1.00  0.00     0.029 A 
ATOM     42  N   UNL A   1      40.815  28.227  28.780  1.00  0.00    -0.354 N 
ATOM     43  C   UNL A   1      44.525  27.150  26.863  1.00  0.00     0.074 A 
ATOM     44  C   UNL A   1      44.457  25.820  26.297  1.00  0.00     0.031 C 
ATOM     45  C   UNL A   1      38.749  27.883  29.566  1.00  0.00     0.029 A 
ATOM     46  C   UNL A   1      39.861  28.829  29.566  1.00  0.00     0.049 A 
ATOM     47  H   UNL A   1      41.684  28.643  28.573  1.00  0.00     0.167 HD
ATOM     48  C   UNL A   1      45.622  27.942  26.811  1.00  0.00     0.034 A 
ATOM     49  C   UNL A   1      39.879  30.010  30.216  1.00  0.00     0.034 A 
ATOM     50  C   UNL A   1      45.672  29.285  27.322  1.00  0.00     0.049 A 
ATOM     51  C   UNL A   1      41.089  30.897  30.092  1.00  0.00     0.074 A 
ATOM     52  C   UNL A   1      46.702  30.204  27.227  1.00  0.00     0.029 A 
ATOM     53  N   UNL A   1      44.647  29.902  28.023  1.00  0.00    -0.354 N 
ATOM     54  N   UNL A   1      42.200  30.687  29.428  1.00  0.00    -0.248 NA
ATOM     55  C   UNL A   1      41.034  32.198  30.774  1.00  0.00     0.031 C 
ATOM     56  C   UNL A   1      46.304  31.374  27.882  1.00  0.00     0.029 A 
ATOM     57  C   UNL A   1      45.022  31.189  28.371  1.00  0.00     0.049 A 
ATOM     58  H   UNL A   1      43.782  29.487  28.239  1.00  0.00     0.167 HD
ATOM     59  C   UNL A   1      42.961  31.840  29.584  1.00  0.00     0.074 A 
ATOM     60  C   UNL A   1      42.175  32.754  30.386  1.00  0.00     0.031 C 
ATOM     61  C   UNL A   1      44.205  32.111  29.118  1.00  0.00     0.034 A 
BRANCH  48  62
ATOM     62  C   UNL A   1      46.843  27.398  26.117  1.00  0.00     0.023 A 
ATOM     63  C   UNL A   1      47.001  27.610  24.732  1.00  0.00     0.012 A 
ATOM     64  C   UNL A   1      47.855  26.731  26.835  1.00  0.00     0.148 A 
ATOM     65  C   UNL A   1      48.130  27.136  24.064  1.00  0.00     0.002 A 
ATOM     66  C   UNL A   1      48.997  26.297  26.169  1.00  0.00     0.091 A 
ATOM     67  F   UNL A   1      47.678  26.519  28.146  1.00  0.00    -0.205 F 
ATOM     68  C   UNL A   1      49.131  26.490  24.784  1.00  0.00     0.022 A 
BRANCH  66  69
ATOM     69  S   UNL A   1      50.377  25.522  27.020  1.00  0.00     0.127 S 
ATOM     70  O   UNL A   1      50.742  26.553  27.989  1.00  0.00    -0.237 OA
ATOM     71  O   UNL A   1      49.753  24.333  27.601  1.00  0.00    -0.237 OA
ATOM     72  O   UNL A   1      51.371  25.243  25.994  1.00  0.00    -0.744 OA
ENDBRANCH  66  69
ENDBRANCH  48  62
BRANCH  49  73
ATOM     73  C   UNL A   1      38.677  30.460  30.978  1.00  0.00     0.023 A 
ATOM     74  C   UNL A   1      38.606  30.204  32.361  1.00  0.00     0.012 A 
ATOM     75  C   UNL A   1      37.627  31.159  30.354  1.00  0.00     0.148 A 
ATOM     76  C   UNL A   1      37.497  30.610  33.104  1.00  0.00     0.002 A 
ATOM     77  C   UNL A   1      36.549  31.607  31.110  1.00  0.00     0.091 A 
ATOM     78  F   UNL A   1      37.706  31.381  29.034  1.00  0.00    -0.205 F 
ATOM     79  C   UNL A   1      36.475  31.320  32.482  1.00  0.00     0.022 A 
BRANCH  77  80
ATOM     80  S   UNL A   1      35.254  32.641  30.417  1.00  0.00     0.127 S 
ATOM     81  O   UNL A   1      35.998  33.839  30.035  1.00  0.00    -0.237 OA
ATOM     82  O   UNL A   1      34.779  31.827  29.298  1.00  0.00    -0.237 OA
ATOM     83  O   UNL A   1      34.278  32.813  31.486  1.00  0.00    -0.744 OA
ENDBRANCH  77  80
ENDBRANCH  49  73
BRANCH  61  84
ATOM     84  C   UNL A   1      44.794  33.459  29.435  1.00  0.00     0.023 A 
ATOM     85  C   UNL A   1      45.520  33.640  30.629  1.00  0.00     0.012 A 
ATOM     86  C   UNL A   1      44.701  34.521  28.514  1.00  0.00     0.148 A 
ATOM     87  C   UNL A   1      46.122  34.864  30.914  1.00  0.00     0.002 A 
ATOM     88  C   UNL A   1      45.343  35.725  28.784  1.00  0.00     0.091 A 
ATOM     89  F   UNL A   1      43.989  34.336  27.394  1.00  0.00    -0.205 F 
ATOM     90  C   UNL A   1      46.045  35.901  29.988  1.00  0.00     0.022 A 
BRANCH  88  91
ATOM     91  S   UNL A   1      45.374  37.081  27.605  1.00  0.00     0.127 S 
ATOM     92  O   UNL A   1      43.957  37.429  27.513  1.00  0.00    -0.237 OA
ATOM     93  O   UNL A   1      46.202  38.073  28.294  1.00  0.00    -0.237 OA
ATOM     94  O   UNL A   1      45.968  36.540  26.390  1.00  0.00    -0.744 OA
ENDBRANCH  88  91
ENDBRANCH  61  84
ENDBRANCH  35  36
ENDBRANCH  27  30
ENDBRANCH  25  26
ENDBRANCH  24  25
ENDBRANCH   1  24
TORSDOF 18
ENDMDL
MODEL 2
REMARK VINA RESULT:     -11.5      1.836      2.919
REMARK SMILES [NH3+]CC1([C@H](O)C(=O)NCCCCNC(=O)c2ccc(-c3c4nc(c(-c5cccc(S(=O)(=O)[O-])c5F)c5ccc([nH]5)c(-c5cccc(S(=O)(=O)[O-])c5F)c5nc(c(-c6cccc(S(=O)(=O)[O-])c6F)c6ccc3[nH]6)C=C5)C=C4)cc2)Cc2ccccc2C1
REMARK SMILES IDX 10 1 9 2 8 3 6 4 7 5 4 7 3 8 79 9 86 10 80 11 85 12 81 13
REMARK SMILES IDX 84 14 82 15 83 16 2 17 1 18 5 22 11 24 12 25 13 26 14 27
REMARK SMILES IDX 15 29 16 30 17 31 78 32 18 33 77 34 19 35 20 36 21 37 71 38
REMARK SMILES IDX 22 39 76 40 70 41 72 42 23 43 75 44 69 45 68 46 24 48 56 49
REMARK SMILES IDX 36 50 55 51 37 52 40 53 54 54 73 55 38 56 39 57 53 59 74 60
REMARK SMILES IDX 41 61 25 62 26 63 34 64 27 65 29 66 35 67 28 68 30 69 31 70
REMARK SMILES IDX 32 71 33 72 57 73 58 74 66 75 59 76 61 77 67 78 60 79 62 80
REMARK SMILES IDX 63 81 64 82 65 83 42 84 43 85 51 86 44 87 46 88 52 89 45 90
REMARK SMILES IDX 47 91 48 92 49 93 50 94
REMARK H PARENT 8 6 1 19 1 20 1 21 5 23 13 28 72 47 40 58
REMARK Flexibility Score: inf
ROOT
ATOM      1  C   UNL A   1      35.454  22.990  23.456  1.00  0.00     0.023 C 
ENDROOT
BRANCH   1   2
ATOM      2  C   UNL A   1      35.035  24.069  24.444  1.00  0.00     0.116 C 
BRANCH   2   3
ATOM      3  N   UNL A   1      34.305  25.158  23.829  1.00  0.00    -0.354 N 
ATOM      4  C   UNL A   1      33.228  25.848  24.303  1.00  0.00     0.249 C 
ATOM      5  O   UNL A   1      32.837  26.826  23.663  1.00  0.00    -0.272 OA
ATOM      6  H   UNL A   1      34.631  25.441  22.943  1.00  0.00     0.163 HD
BRANCH   4   7
ATOM      7  C   UNL A   1      32.472  25.375  25.568  1.00  0.00     0.215 C 
BRANCH   7   8
ATOM      8  C   UNL A   1      31.084  24.644  25.373  1.00  0.00     0.062 C 
ATOM      9  C   UNL A   1      31.088  23.323  26.231  1.00  0.00     0.052 C 
ATOM     10  C   UNL A   1      30.872  24.105  23.919  1.00  0.00     0.052 C 
ATOM     11  C   UNL A   1      31.636  22.310  25.274  1.00  0.00    -0.044 A 
ATOM     12  C   UNL A   1      31.530  22.766  23.960  1.00  0.00    -0.044 A 
ATOM     13  C   UNL A   1      32.145  21.053  25.550  1.00  0.00     0.004 A 
ATOM     14  C   UNL A   1      31.951  21.994  22.892  1.00  0.00     0.004 A 
ATOM     15  C   UNL A   1      32.577  20.265  24.480  1.00  0.00     0.000 A 
ATOM     16  C   UNL A   1      32.487  20.735  23.161  1.00  0.00     0.000 A 
BRANCH   8  17
ATOM     17  C   UNL A   1      29.845  25.492  25.769  1.00  0.00     0.269 C 
BRANCH  17  18
ATOM     18  N   UNL A   1      29.156  26.154  24.661  1.00  0.00    -0.357 N 
ATOM     19  H   UNL A   1      29.838  26.638  24.076  1.00  0.00     0.344 HD
ATOM     20  H   UNL A   1      28.487  26.830  25.032  1.00  0.00     0.344 HD
ATOM     21  H   UNL A   1      28.662  25.458  24.103  1.00  0.00     0.344 HD
ENDBRANCH  17  18
ENDBRANCH   8  17
ENDBRANCH   7   8
BRANCH   7  22
ATOM     22  O   UNL A   1      32.397  26.454  26.515  1.00  0.00    -0.382 OA
ATOM     23  H   UNL A   1      32.754  27.262  26.112  1.00  0.00     0.211 HD
ENDBRANCH   7  22
ENDBRANCH   4   7
ENDBRANCH   2   3
ENDBRANCH   1   2
BRANCH   1  24
ATOM     24  C   UNL A   1      36.725  22.220  23.817  1.00  0.00     0.023 C 
BRANCH  24  25
ATOM     25  C   UNL A   1      36.948  21.967  25.304  1.00  0.00     0.116 C 
BRANCH  25  26
ATOM     26  N   UNL A   1      37.957  20.954  25.572  1.00  0.00    -0.352 N 
ATOM     27  C   UNL A   1      39.213  21.101  26.112  1.00  0.00     0.251 C 
ATOM     28  H   UNL A   1      37.705  20.033  25.333  1.00  0.00     0.163 HD
ATOM     29  O   UNL A   1      39.975  20.140  26.163  1.00  0.00    -0.269 OA
BRANCH  27  30
ATOM     30  C   UNL A   1      39.654  22.426  26.598  1.00  0.00     0.039 A 
ATOM     31  C   UNL A   1      40.690  22.492  27.533  1.00  0.00     0.014 A 
ATOM     32  C   UNL A   1      39.070  23.597  26.109  1.00  0.00     0.014 A 
ATOM     33  C   UNL A   1      41.193  23.738  27.921  1.00  0.00     0.010 A 
ATOM     34  C   UNL A   1      39.620  24.832  26.441  1.00  0.00     0.010 A 
ATOM     35  C   UNL A   1      40.687  24.916  27.349  1.00  0.00    -0.014 A 
BRANCH  35  36
ATOM     36  C   UNL A   1      41.267  26.245  27.674  1.00  0.00     0.031 A 
ATOM     37  C   UNL A   1      42.682  26.571  27.280  1.00  0.00     0.074 A 
ATOM     38  C   UNL A   1      40.554  27.123  28.410  1.00  0.00     0.049 A 
ATOM     39  N   UNL A   1      43.381  27.646  27.535  1.00  0.00    -0.248 NA
ATOM     40  C   UNL A   1      43.418  25.542  26.527  1.00  0.00     0.031 C 
ATOM     41  C   UNL A   1      39.204  26.893  28.930  1.00  0.00     0.029 A 
ATOM     42  N   UNL A   1      40.879  28.373  28.876  1.00  0.00    -0.354 N 
ATOM     43  C   UNL A   1      44.647  27.408  27.013  1.00  0.00     0.074 A 
ATOM     44  C   UNL A   1      44.630  26.073  26.455  1.00  0.00     0.031 C 
ATOM     45  C   UNL A   1      38.816  27.965  29.640  1.00  0.00     0.029 A 
ATOM     46  C   UNL A   1      39.895  28.948  29.647  1.00  0.00     0.049 A 
ATOM     47  H   UNL A   1      41.736  28.816  28.677  1.00  0.00     0.167 HD
ATOM     48  C   UNL A   1      45.717  28.236  26.968  1.00  0.00     0.034 A 
ATOM     49  C   UNL A   1      39.866  30.133  30.288  1.00  0.00     0.034 A 
ATOM     50  C   UNL A   1      45.716  29.584  27.470  1.00  0.00     0.049 A 
ATOM     51  C   UNL A   1      41.047  31.059  30.172  1.00  0.00     0.074 A 
ATOM     52  C   UNL A   1      46.715  30.535  27.381  1.00  0.00     0.029 A 
ATOM     53  N   UNL A   1      44.662  30.170  28.153  1.00  0.00    -0.354 N 
ATOM     54  N   UNL A   1      42.172  30.882  29.524  1.00  0.00    -0.248 NA
ATOM     55  C   UNL A   1      40.940  32.362  30.845  1.00  0.00     0.031 C 
ATOM     56  C   UNL A   1      46.271  31.696  28.023  1.00  0.00     0.029 A 
ATOM     57  C   UNL A   1      44.989  31.471  28.497  1.00  0.00     0.049 A 
ATOM     58  H   UNL A   1      43.808  29.728  28.363  1.00  0.00     0.167 HD
ATOM     59  C   UNL A   1      42.892  32.061  29.680  1.00  0.00     0.074 A 
ATOM     60  C   UNL A   1      42.066  32.954  30.467  1.00  0.00     0.031 C 
ATOM     61  C   UNL A   1      44.133  32.370  29.228  1.00  0.00     0.034 A 
BRANCH  48  62
ATOM     62  C   UNL A   1      46.964  27.729  26.293  1.00  0.00     0.023 A 
ATOM     63  C   UNL A   1      47.908  27.000  27.045  1.00  0.00     0.012 A 
ATOM     64  C   UNL A   1      47.178  27.923  24.915  1.00  0.00     0.148 A 
ATOM     65  C   UNL A   1      49.063  26.500  26.444  1.00  0.00     0.002 A 
ATOM     66  C   UNL A   1      48.313  27.386  24.314  1.00  0.00     0.091 A 
ATOM     67  F   UNL A   1      46.282  28.637  24.220  1.00  0.00    -0.205 F 
ATOM     68  C   UNL A   1      49.260  26.684  25.079  1.00  0.00     0.022 A 
BRANCH  66  69
ATOM     69  S   UNL A   1      48.620  27.504  22.548  1.00  0.00     0.127 S 
ATOM     70  O   UNL A   1      49.916  28.180  22.518  1.00  0.00    -0.237 OA
ATOM     71  O   UNL A   1      48.657  26.098  22.145  1.00  0.00    -0.237 OA
ATOM     72  O   UNL A   1      47.504  28.262  21.999  1.00  0.00    -0.744 OA
ENDBRANCH  66  69
ENDBRANCH  48  62
BRANCH  49  73
ATOM     73  C   UNL A   1      38.641  30.547  31.032  1.00  0.00     0.023 A 
ATOM     74  C   UNL A   1      38.552  30.280  32.411  1.00  0.00     0.012 A 
ATOM     75  C   UNL A   1      37.584  31.225  30.395  1.00  0.00     0.148 A 
ATOM     76  C   UNL A   1      37.421  30.652  33.138  1.00  0.00     0.002 A 
ATOM     77  C   UNL A   1      36.483  31.641  31.135  1.00  0.00     0.091 A 
ATOM     78  F   UNL A   1      37.680  31.458  29.078  1.00  0.00    -0.205 F 
ATOM     79  C   UNL A   1      36.392  31.341  32.503  1.00  0.00     0.022 A 
BRANCH  77  80
ATOM     80  S   UNL A   1      35.174  32.647  30.427  1.00  0.00     0.127 S 
ATOM     81  O   UNL A   1      34.239  32.753  31.543  1.00  0.00    -0.237 OA
ATOM     82  O   UNL A   1      35.885  33.883  30.097  1.00  0.00    -0.237 OA
ATOM     83  O   UNL A   1      34.698  31.906  29.266  1.00  0.00    -0.744 OA
ENDBRANCH  77  80
ENDBRANCH  49  73
BRANCH  61  84
ATOM     84  C   UNL A   1      44.672  33.740  29.542  1.00  0.00     0.023 A 
ATOM     85  C   UNL A   1      45.358  33.958  30.754  1.00  0.00     0.012 A 
ATOM     86  C   UNL A   1      44.574  34.786  28.604  1.00  0.00     0.148 A 
ATOM     87  C   UNL A   1      45.916  35.204  31.037  1.00  0.00     0.002 A 
ATOM     88  C   UNL A   1      45.172  36.013  28.875  1.00  0.00     0.091 A 
ATOM     89  F   UNL A   1      43.899  34.565  27.467  1.00  0.00    -0.205 F 
ATOM     90  C   UNL A   1      45.833  36.225  30.095  1.00  0.00     0.022 A 
BRANCH  88  91
ATOM     91  S   UNL A   1      45.196  37.353  27.679  1.00  0.00     0.127 S 
ATOM     92  O   UNL A   1      45.946  36.756  26.576  1.00  0.00    -0.237 OA
ATOM     93  O   UNL A   1      43.772  37.555  27.409  1.00  0.00    -0.237 OA
ATOM     94  O   UNL A   1      45.847  38.472  28.347  1.00  0.00    -0.744 OA
ENDBRANCH  88  91
ENDBRANCH  61  84
ENDBRANCH  35  36
ENDBRANCH  27  30
ENDBRANCH  25  26
ENDBRANCH  24  25
ENDBRANCH   1  24
TORSDOF 18
ENDMDL
MODEL 3
REMARK VINA RESULT:     -11.5      4.824      9.477
REMARK SMILES [NH3+]CC1([C@H](O)C(=O)NCCCCNC(=O)c2ccc(-c3c4nc(c(-c5cccc(S(=O)(=O)[O-])c5F)c5ccc([nH]5)c(-c5cccc(S(=O)(=O)[O-])c5F)c5nc(c(-c6cccc(S(=O)(=O)[O-])c6F)c6ccc3[nH]6)C=C5)C=C4)cc2)Cc2ccccc2C1
REMARK SMILES IDX 10 1 9 2 8 3 6 4 7 5 4 7 3 8 79 9 86 10 80 11 85 12 81 13
REMARK SMILES IDX 84 14 82 15 83 16 2 17 1 18 5 22 11 24 12 25 13 26 14 27
REMARK SMILES IDX 15 29 16 30 17 31 78 32 18 33 77 34 19 35 20 36 21 37 71 38
REMARK SMILES IDX 22 39 76 40 70 41 72 42 23 43 75 44 69 45 68 46 24 48 56 49
REMARK SMILES IDX 36 50 55 51 37 52 40 53 54 54 73 55 38 56 39 57 53 59 74 60
REMARK SMILES IDX 41 61 25 62 26 63 34 64 27 65 29 66 35 67 28 68 30 69 31 70
REMARK SMILES IDX 32 71 33 72 57 73 58 74 66 75 59 76 61 77 67 78 60 79 62 80
REMARK SMILES IDX 63 81 64 82 65 83 42 84 43 85 51 86 44 87 46 88 52 89 45 90
REMARK SMILES IDX 47 91 48 92 49 93 50 94
REMARK H PARENT 8 6 1 19 1 20 1 21 5 23 13 28 72 47 40 58
REMARK Flexibility Score: inf
ROOT
ATOM      1  C   UNL A   1      33.004  28.263  24.043  1.00  0.00     0.023 C 
ENDROOT
BRANCH   1   2
ATOM      2  C   UNL A   1      32.474  27.072  23.257  1.00  0.00     0.116 C 
BRANCH   2   3
ATOM      3  N   UNL A   1      31.114  26.714  23.602  1.00  0.00    -0.354 N 
ATOM      4  C   UNL A   1      30.648  26.074  24.713  1.00  0.00     0.249 C 
ATOM      5  O   UNL A   1      29.428  25.980  24.860  1.00  0.00    -0.272 OA
ATOM      6  H   UNL A   1      30.428  26.969  22.942  1.00  0.00     0.163 HD
BRANCH   4   7
ATOM      7  C   UNL A   1      31.621  25.420  25.724  1.00  0.00     0.215 C 
BRANCH   7   8
ATOM      8  C   UNL A   1      31.778  23.848  25.691  1.00  0.00     0.062 C 
ATOM      9  C   UNL A   1      32.932  23.438  26.682  1.00  0.00     0.052 C 
ATOM     10  C   UNL A   1      32.301  23.310  24.317  1.00  0.00     0.052 C 
ATOM     11  C   UNL A   1      34.146  23.471  25.806  1.00  0.00    -0.044 A 
ATOM     12  C   UNL A   1      33.783  23.418  24.461  1.00  0.00    -0.044 A 
ATOM     13  C   UNL A   1      35.477  23.495  26.182  1.00  0.00     0.004 A 
ATOM     14  C   UNL A   1      34.735  23.413  23.456  1.00  0.00     0.004 A 
ATOM     15  C   UNL A   1      36.448  23.495  25.177  1.00  0.00     0.000 A 
ATOM     16  C   UNL A   1      36.080  23.461  23.824  1.00  0.00     0.000 A 
BRANCH   8  17
ATOM     17  C   UNL A   1      30.493  23.062  26.069  1.00  0.00     0.269 C 
BRANCH  17  18
ATOM     18  N   UNL A   1      29.611  23.723  27.031  1.00  0.00    -0.357 N 
ATOM     19  H   UNL A   1      29.770  24.730  27.002  1.00  0.00     0.344 HD
ATOM     20  H   UNL A   1      29.810  23.375  27.970  1.00  0.00     0.344 HD
ATOM     21  H   UNL A   1      28.639  23.525  26.794  1.00  0.00     0.344 HD
ENDBRANCH  17  18
ENDBRANCH   8  17
ENDBRANCH   7   8
BRANCH   7  22
ATOM     22  O   UNL A   1      31.349  25.920  27.044  1.00  0.00    -0.382 OA
ATOM     23  H   UNL A   1      31.897  26.702  27.212  1.00  0.00     0.211 HD
ENDBRANCH   7  22
ENDBRANCH   4   7
ENDBRANCH   2   3
ENDBRANCH   1   2
BRANCH   1  24
ATOM     24  C   UNL A   1      34.241  27.993  24.899  1.00  0.00     0.023 C 
BRANCH  24  25
ATOM     25  C   UNL A   1      34.077  28.232  26.397  1.00  0.00     0.116 C 
BRANCH  25  26
ATOM     26  N   UNL A   1      33.695  29.597  26.725  1.00  0.00    -0.352 N 
ATOM     27  C   UNL A   1      34.342  30.513  27.520  1.00  0.00     0.251 C 
ATOM     28  H   UNL A   1      32.853  29.908  26.320  1.00  0.00     0.163 HD
ATOM     29  O   UNL A   1      33.809  31.591  27.773  1.00  0.00    -0.269 OA
BRANCH  27  30
ATOM     30  C   UNL A   1      35.663  30.184  28.095  1.00  0.00     0.039 A 
ATOM     31  C   UNL A   1      35.722  29.611  29.368  1.00  0.00     0.014 A 
ATOM     32  C   UNL A   1      36.835  30.411  27.369  1.00  0.00     0.014 A 
ATOM     33  C   UNL A   1      36.954  29.194  29.882  1.00  0.00     0.010 A 
ATOM     34  C   UNL A   1      38.049  29.929  27.852  1.00  0.00     0.010 A 
ATOM     35  C   UNL A   1      38.122  29.315  29.112  1.00  0.00    -0.014 A 
BRANCH  35  36
ATOM     36  C   UNL A   1      39.426  28.795  29.596  1.00  0.00     0.031 A 
ATOM     37  C   UNL A   1      40.163  29.507  30.699  1.00  0.00     0.074 A 
ATOM     38  C   UNL A   1      39.996  27.740  28.978  1.00  0.00     0.049 A 
ATOM     39  N   UNL A   1      41.339  29.246  31.206  1.00  0.00    -0.248 NA
ATOM     40  C   UNL A   1      39.505  30.685  31.287  1.00  0.00     0.031 C 
ATOM     41  C   UNL A   1      39.427  27.016  27.839  1.00  0.00     0.029 A 
ATOM     42  N   UNL A   1      41.198  27.113  29.201  1.00  0.00    -0.354 N 
ATOM     43  C   UNL A   1      41.581  30.245  32.141  1.00  0.00     0.074 A 
ATOM     44  C   UNL A   1      40.442  31.138  32.108  1.00  0.00     0.031 C 
ATOM     45  C   UNL A   1      40.275  26.044  27.466  1.00  0.00     0.029 A 
ATOM     46  C   UNL A   1      41.458  26.090  28.320  1.00  0.00     0.049 A 
ATOM     47  H   UNL A   1      41.814  27.372  29.924  1.00  0.00     0.167 HD
ATOM     48  C   UNL A   1      42.635  30.391  32.977  1.00  0.00     0.034 A 
ATOM     49  C   UNL A   1      42.530  25.279  28.210  1.00  0.00     0.034 A 
ATOM     50  C   UNL A   1      43.738  29.471  33.051  1.00  0.00     0.049 A 
ATOM     51  C   UNL A   1      43.662  25.425  29.191  1.00  0.00     0.074 A 
ATOM     52  C   UNL A   1      44.803  29.475  33.933  1.00  0.00     0.029 A 
ATOM     53  N   UNL A   1      43.917  28.383  32.211  1.00  0.00    -0.354 N 
ATOM     54  N   UNL A   1      43.790  26.272  30.183  1.00  0.00    -0.248 NA
ATOM     55  C   UNL A   1      44.781  24.479  29.062  1.00  0.00     0.031 C 
ATOM     56  C   UNL A   1      45.634  28.394  33.619  1.00  0.00     0.029 A 
ATOM     57  C   UNL A   1      45.078  27.710  32.551  1.00  0.00     0.049 A 
ATOM     58  H   UNL A   1      43.308  28.126  31.481  1.00  0.00     0.167 HD
ATOM     59  C   UNL A   1      44.982  25.942  30.816  1.00  0.00     0.074 A 
ATOM     60  C   UNL A   1      45.529  24.802  30.109  1.00  0.00     0.031 C 
ATOM     61  C   UNL A   1      45.579  26.539  31.877  1.00  0.00     0.034 A 
BRANCH  48  62
ATOM     62  C   UNL A   1      42.615  31.556  33.930  1.00  0.00     0.023 A 
ATOM     63  C   UNL A   1      43.104  32.807  33.501  1.00  0.00     0.012 A 
ATOM     64  C   UNL A   1      42.067  31.434  35.221  1.00  0.00     0.148 A 
ATOM     65  C   UNL A   1      43.081  33.911  34.353  1.00  0.00     0.002 A 
ATOM     66  C   UNL A   1      42.010  32.549  36.051  1.00  0.00     0.091 A 
ATOM     67  F   UNL A   1      41.627  30.233  35.621  1.00  0.00    -0.205 F 
ATOM     68  C   UNL A   1      42.525  33.784  35.623  1.00  0.00     0.022 A 
BRANCH  66  69
ATOM     69  S   UNL A   1      41.245  32.507  37.677  1.00  0.00     0.127 S 
ATOM     70  O   UNL A   1      41.308  33.915  38.069  1.00  0.00    -0.237 OA
ATOM     71  O   UNL A   1      39.900  32.019  37.373  1.00  0.00    -0.237 OA
ATOM     72  O   UNL A   1      42.053  31.597  38.474  1.00  0.00    -0.744 OA
ENDBRANCH  66  69
ENDBRANCH  48  62
BRANCH  49  73
ATOM     73  C   UNL A   1      42.546  24.201  27.179  1.00  0.00     0.023 A 
ATOM     74  C   UNL A   1      43.213  24.428  25.960  1.00  0.00     0.012 A 
ATOM     75  C   UNL A   1      41.936  22.953  27.406  1.00  0.00     0.148 A 
ATOM     76  C   UNL A   1      43.248  23.442  24.972  1.00  0.00     0.002 A 
ATOM     77  C   UNL A   1      42.020  21.956  26.440  1.00  0.00     0.091 A 
ATOM     78  F   UNL A   1      41.294  22.761  28.567  1.00  0.00    -0.205 F 
ATOM     79  C   UNL A   1      42.661  22.204  25.217  1.00  0.00     0.022 A 
BRANCH  77  80
ATOM     80  S   UNL A   1      41.407  20.291  26.723  1.00  0.00     0.127 S 
ATOM     81  O   UNL A   1      42.161  19.892  27.908  1.00  0.00    -0.237 OA
ATOM     82  O   UNL A   1      39.981  20.525  26.949  1.00  0.00    -0.237 OA
ATOM     83  O   UNL A   1      41.705  19.554  25.502  1.00  0.00    -0.744 OA
ENDBRANCH  77  80
ENDBRANCH  49  73
BRANCH  61  84
ATOM     84  C   UNL A   1      46.881  25.962  32.365  1.00  0.00     0.023 A 
ATOM     85  C   UNL A   1      48.098  26.452  31.851  1.00  0.00     0.012 A 
ATOM     86  C   UNL A   1      46.901  24.997  33.391  1.00  0.00     0.148 A 
ATOM     87  C   UNL A   1      49.314  25.971  32.333  1.00  0.00     0.002 A 
ATOM     88  C   UNL A   1      48.119  24.555  33.898  1.00  0.00     0.091 A 
ATOM     89  F   UNL A   1      45.733  24.528  33.852  1.00  0.00    -0.205 F 
ATOM     90  C   UNL A   1      49.325  25.034  33.362  1.00  0.00     0.022 A 
BRANCH  88  91
ATOM     91  S   UNL A   1      48.226  23.420  35.287  1.00  0.00     0.127 S 
ATOM     92  O   UNL A   1      47.946  22.137  34.646  1.00  0.00    -0.237 OA
ATOM     93  O   UNL A   1      49.611  23.594  35.725  1.00  0.00    -0.237 OA
ATOM     94  O   UNL A   1      47.229  23.872  36.248  1.00  0.00    -0.744 OA
ENDBRANCH  88  91
ENDBRANCH  61  84
ENDBRANCH  35  36
ENDBRANCH  27  30
ENDBRANCH  25  26
ENDBRANCH  24  25
ENDBRANCH   1  24
TORSDOF 18
ENDMDL
