MODEL 1
REMARK VINA RESULT:     -12.7      0.000      0.000
REMARK SMILES Nc1nccc(N2CCC[C@@](Cc3ccc(F)cc3F)(C(=O)NCCCCNC(=O)c3ccc(-c4c5nc(c(-c6cccc(S(=O)(=O)[O-])c6F)c6ccc([nH]6)c(-c6cccc(S(=O)(=O)[O-])c6F)c6nc(c(-c7cccc(S(=O)(=O)[O-])c7F)c7ccc4[nH]7)C=C6)C=C5)cc3)C2)n1
REMARK SMILES IDX 26 1 25 2 24 3 23 4 21 5 22 6 11 8 7 9 8 10 94 11 9 12 10 13
REMARK SMILES IDX 6 14 2 15 3 16 95 17 4 18 5 19 1 20 12 23 13 24 14 25 19 26
REMARK SMILES IDX 15 27 18 28 20 29 16 30 17 31 27 32 28 33 29 34 30 36 31 37
REMARK SMILES IDX 32 38 93 39 33 40 92 41 34 42 35 43 36 44 86 45 37 46 91 47
REMARK SMILES IDX 85 48 87 49 38 50 90 51 84 52 83 53 39 55 71 56 51 57 70 58
REMARK SMILES IDX 52 59 55 60 69 61 88 62 53 63 54 64 68 66 89 67 56 68 40 69
REMARK SMILES IDX 41 70 49 71 42 72 44 73 50 74 43 75 45 76 46 77 47 78 48 79
REMARK SMILES IDX 72 80 73 81 81 82 74 83 76 84 82 85 75 86 77 87 78 88 79 89
REMARK SMILES IDX 80 90 57 91 58 92 66 93 59 94 61 95 67 96 60 97 62 98 63 99
REMARK SMILES IDX 64 100 65 101
REMARK H PARENT 23 7 1 21 1 22 28 35 87 54 55 65
REMARK Flexibility Score: inf
ROOT
ATOM      1  C   UNL A   1      32.942  30.784  27.274  1.00  0.00     0.023 C 
ENDROOT
BRANCH   1   2
ATOM      2  C   UNL A   1      31.690  30.919  26.409  1.00  0.00     0.023 C 
BRANCH   2   3
ATOM      3  C   UNL A   1      31.500  29.812  25.381  1.00  0.00     0.116 C 
BRANCH   3   4
ATOM      4  N   UNL A   1      32.704  29.063  25.087  1.00  0.00    -0.356 N 
ATOM      5  C   UNL A   1      32.906  27.769  24.709  1.00  0.00     0.228 C 
ATOM      6  O   UNL A   1      34.039  27.514  24.283  1.00  0.00    -0.274 OA
ATOM      7  H   UNL A   1      33.533  29.587  25.178  1.00  0.00     0.163 HD
BRANCH   5   8
ATOM      8  C   UNL A   1      31.823  26.668  24.775  1.00  0.00     0.071 C 
ATOM      9  N   UNL A   1      31.646  24.230  25.106  1.00  0.00    -0.355 N 
ATOM     10  C   UNL A   1      30.942  24.257  26.374  1.00  0.00     0.118 C 
ATOM     11  C   UNL A   1      32.613  25.307  24.889  1.00  0.00     0.135 C 
ATOM     12  C   UNL A   1      30.133  25.544  26.421  1.00  0.00     0.023 C 
ATOM     13  C   UNL A   1      30.968  26.782  26.072  1.00  0.00     0.021 C 
BRANCH   9  14
ATOM     14  C   UNL A   1      31.849  23.002  24.508  1.00  0.00     0.134 A 
ATOM     15  C   UNL A   1      32.243  20.752  24.621  1.00  0.00     0.221 A 
ATOM     16  N   UNL A   1      32.304  20.603  23.293  1.00  0.00    -0.222 NA
ATOM     17  N   UNL A   1      32.042  21.909  25.261  1.00  0.00    -0.196 NA
ATOM     18  C   UNL A   1      32.132  21.718  22.569  1.00  0.00     0.119 A 
ATOM     19  C   UNL A   1      31.883  22.944  23.128  1.00  0.00     0.067 A 
BRANCH  15  20
ATOM     20  N   UNL A   1      32.396  19.628  25.379  1.00  0.00    -0.368 N 
ATOM     21  H   UNL A   1      33.208  19.507  25.923  1.00  0.00     0.159 HD
ATOM     22  H   UNL A   1      31.694  18.938  25.384  1.00  0.00     0.159 HD
ENDBRANCH  15  20
ENDBRANCH   9  14
BRANCH   8  23
ATOM     23  C   UNL A   1      31.023  26.556  23.436  1.00  0.00     0.057 C 
BRANCH  23  24
ATOM     24  C   UNL A   1      30.069  27.641  23.007  1.00  0.00    -0.011 A 
ATOM     25  C   UNL A   1      30.526  28.730  22.247  1.00  0.00     0.010 A 
ATOM     26  C   UNL A   1      28.706  27.574  23.324  1.00  0.00     0.129 A 
ATOM     27  C   UNL A   1      29.642  29.740  21.859  1.00  0.00     0.040 A 
ATOM     28  C   UNL A   1      27.821  28.576  22.947  1.00  0.00     0.078 A 
ATOM     29  F   UNL A   1      28.233  26.534  24.024  1.00  0.00    -0.207 F 
ATOM     30  C   UNL A   1      28.300  29.656  22.220  1.00  0.00     0.126 A 
ATOM     31  F   UNL A   1      27.459  30.632  21.861  1.00  0.00    -0.207 F 
ENDBRANCH  23  24
ENDBRANCH   8  23
ENDBRANCH   5   8
ENDBRANCH   3   4
ENDBRANCH   2   3
ENDBRANCH   1   2
BRANCH   1  32
ATOM     32  C   UNL A   1      33.825  32.027  27.381  1.00  0.00     0.116 C 
BRANCH  32  33
ATOM     33  N   UNL A   1      33.091  33.265  27.624  1.00  0.00    -0.352 N 
ATOM     34  C   UNL A   1      33.344  34.214  28.590  1.00  0.00     0.251 C 
ATOM     35  H   UNL A   1      32.327  33.441  27.029  1.00  0.00     0.163 HD
ATOM     36  O   UNL A   1      32.611  35.186  28.732  1.00  0.00    -0.269 OA
BRANCH  34  37
ATOM     37  C   UNL A   1      34.498  34.005  29.485  1.00  0.00     0.039 A 
ATOM     38  C   UNL A   1      34.324  33.249  30.647  1.00  0.00     0.014 A 
ATOM     39  C   UNL A   1      35.766  34.444  29.096  1.00  0.00     0.014 A 
ATOM     40  C   UNL A   1      35.445  32.844  31.375  1.00  0.00     0.010 A 
ATOM     41  C   UNL A   1      36.881  33.994  29.792  1.00  0.00     0.010 A 
ATOM     42  C   UNL A   1      36.734  33.172  30.922  1.00  0.00    -0.014 A 
BRANCH  42  43
ATOM     43  C   UNL A   1      37.957  32.630  31.567  1.00  0.00     0.031 A 
ATOM     44  C   UNL A   1      38.707  31.506  30.912  1.00  0.00     0.074 A 
ATOM     45  C   UNL A   1      38.289  33.039  32.810  1.00  0.00     0.049 A 
ATOM     46  N   UNL A   1      39.676  30.774  31.392  1.00  0.00    -0.248 NA
ATOM     47  C   UNL A   1      38.287  31.133  29.551  1.00  0.00     0.031 C 
ATOM     48  C   UNL A   1      37.587  34.068  33.581  1.00  0.00     0.029 A 
ATOM     49  N   UNL A   1      39.272  32.600  33.663  1.00  0.00    -0.354 N 
ATOM     50  C   UNL A   1      39.940  29.816  30.423  1.00  0.00     0.074 A 
ATOM     51  C   UNL A   1      39.029  30.058  29.325  1.00  0.00     0.031 C 
ATOM     52  C   UNL A   1      38.145  34.163  34.799  1.00  0.00     0.029 A 
ATOM     53  C   UNL A   1      39.223  33.185  34.908  1.00  0.00     0.049 A 
ATOM     54  H   UNL A   1      39.947  31.930  33.408  1.00  0.00     0.167 HD
ATOM     55  C   UNL A   1      40.870  28.832  30.441  1.00  0.00     0.034 A 
ATOM     56  C   UNL A   1      39.951  32.946  36.018  1.00  0.00     0.034 A 
ATOM     57  C   UNL A   1      41.826  28.648  31.496  1.00  0.00     0.049 A 
ATOM     58  C   UNL A   1      41.035  31.903  35.972  1.00  0.00     0.074 A 
ATOM     59  C   UNL A   1      42.887  27.762  31.547  1.00  0.00     0.029 A 
ATOM     60  N   UNL A   1      41.841  29.362  32.683  1.00  0.00    -0.354 N 
ATOM     61  N   UNL A   1      41.388  31.127  34.977  1.00  0.00    -0.248 NA
ATOM     62  C   UNL A   1      41.845  31.723  37.188  1.00  0.00     0.031 C 
ATOM     63  C   UNL A   1      43.542  27.937  32.769  1.00  0.00     0.029 A 
ATOM     64  C   UNL A   1      42.892  28.936  33.474  1.00  0.00     0.049 A 
ATOM     65  H   UNL A   1      41.199  30.068  32.927  1.00  0.00     0.167 HD
ATOM     66  C   UNL A   1      42.483  30.399  35.430  1.00  0.00     0.074 A 
ATOM     67  C   UNL A   1      42.745  30.835  36.785  1.00  0.00     0.031 C 
ATOM     68  C   UNL A   1      43.195  29.443  34.786  1.00  0.00     0.034 A 
BRANCH  55  69
ATOM     69  C   UNL A   1      40.950  27.914  29.255  1.00  0.00     0.023 A 
ATOM     70  C   UNL A   1      40.138  26.763  29.216  1.00  0.00     0.012 A 
ATOM     71  C   UNL A   1      41.754  28.237  28.144  1.00  0.00     0.148 A 
ATOM     72  C   UNL A   1      40.137  25.936  28.094  1.00  0.00     0.002 A 
ATOM     73  C   UNL A   1      41.719  27.428  27.015  1.00  0.00     0.091 A 
ATOM     74  F   UNL A   1      42.533  29.325  28.214  1.00  0.00    -0.205 F 
ATOM     75  C   UNL A   1      40.917  26.274  26.990  1.00  0.00     0.022 A 
BRANCH  73  76
ATOM     76  S   UNL A   1      42.633  27.814  25.517  1.00  0.00     0.127 S 
ATOM     77  O   UNL A   1      42.410  26.611  24.718  1.00  0.00    -0.237 OA
ATOM     78  O   UNL A   1      41.936  29.006  25.031  1.00  0.00    -0.237 OA
ATOM     79  O   UNL A   1      44.009  28.041  25.933  1.00  0.00    -0.744 OA
ENDBRANCH  73  76
ENDBRANCH  55  69
BRANCH  56  80
ATOM     80  C   UNL A   1      39.724  33.752  37.252  1.00  0.00     0.023 A 
ATOM     81  C   UNL A   1      40.300  35.034  37.351  1.00  0.00     0.012 A 
ATOM     82  C   UNL A   1      38.936  33.273  38.316  1.00  0.00     0.148 A 
ATOM     83  C   UNL A   1      40.126  35.808  38.498  1.00  0.00     0.002 A 
ATOM     84  C   UNL A   1      38.724  34.071  39.435  1.00  0.00     0.091 A 
ATOM     85  F   UNL A   1      38.409  32.044  38.220  1.00  0.00    -0.205 F 
ATOM     86  C   UNL A   1      39.330  35.332  39.537  1.00  0.00     0.022 A 
BRANCH  84  87
ATOM     87  S   UNL A   1      37.598  33.568  40.743  1.00  0.00     0.127 S 
ATOM     88  O   UNL A   1      36.452  33.078  39.985  1.00  0.00    -0.237 OA
ATOM     89  O   UNL A   1      38.365  32.532  41.438  1.00  0.00    -0.237 OA
ATOM     90  O   UNL A   1      37.385  34.774  41.534  1.00  0.00    -0.744 OA
ENDBRANCH  84  87
ENDBRANCH  56  80
BRANCH  68  91
ATOM     91  C   UNL A   1      44.364  28.827  35.503  1.00  0.00     0.023 A 
ATOM     92  C   UNL A   1      45.648  29.381  35.342  1.00  0.00     0.012 A 
ATOM     93  C   UNL A   1      44.166  27.786  36.430  1.00  0.00     0.148 A 
ATOM     94  C   UNL A   1      46.724  28.897  36.086  1.00  0.00     0.002 A 
ATOM     95  C   UNL A   1      45.233  27.337  37.198  1.00  0.00     0.091 A 
ATOM     96  F   UNL A   1      42.937  27.263  36.553  1.00  0.00    -0.205 F 
ATOM     97  C   UNL A   1      46.514  27.887  37.023  1.00  0.00     0.022 A 
BRANCH  95  98
ATOM     98  S   UNL A   1      45.036  26.109  38.494  1.00  0.00     0.127 S 
ATOM     99  O   UNL A   1      46.422  25.877  38.899  1.00  0.00    -0.237 OA
ATOM    100  O   UNL A   1      44.222  26.821  39.480  1.00  0.00    -0.237 OA
ATOM    101  O   UNL A   1      44.369  24.973  37.871  1.00  0.00    -0.744 OA
ENDBRANCH  95  98
ENDBRANCH  68  91
ENDBRANCH  42  43
ENDBRANCH  34  37
ENDBRANCH  32  33
ENDBRANCH   1  32
TORSDOF 18
ENDMDL
MODEL 2
REMARK VINA RESULT:     -12.6      6.322     11.461
REMARK SMILES Nc1nccc(N2CCC[C@@](Cc3ccc(F)cc3F)(C(=O)NCCCCNC(=O)c3ccc(-c4c5nc(c(-c6cccc(S(=O)(=O)[O-])c6F)c6ccc([nH]6)c(-c6cccc(S(=O)(=O)[O-])c6F)c6nc(c(-c7cccc(S(=O)(=O)[O-])c7F)c7ccc4[nH]7)C=C6)C=C5)cc3)C2)n1
REMARK SMILES IDX 26 1 25 2 24 3 23 4 21 5 22 6 11 8 7 9 8 10 94 11 9 12 10 13
REMARK SMILES IDX 6 14 2 15 3 16 95 17 4 18 5 19 1 20 12 23 13 24 14 25 19 26
REMARK SMILES IDX 15 27 18 28 20 29 16 30 17 31 27 32 28 33 29 34 30 36 31 37
REMARK SMILES IDX 32 38 93 39 33 40 92 41 34 42 35 43 36 44 86 45 37 46 91 47
REMARK SMILES IDX 85 48 87 49 38 50 90 51 84 52 83 53 39 55 71 56 51 57 70 58
REMARK SMILES IDX 52 59 55 60 69 61 88 62 53 63 54 64 68 66 89 67 56 68 40 69
REMARK SMILES IDX 41 70 49 71 42 72 44 73 50 74 43 75 45 76 46 77 47 78 48 79
REMARK SMILES IDX 72 80 73 81 81 82 74 83 76 84 82 85 75 86 77 87 78 88 79 89
REMARK SMILES IDX 80 90 57 91 58 92 66 93 59 94 61 95 67 96 60 97 62 98 63 99
REMARK SMILES IDX 64 100 65 101
REMARK H PARENT 23 7 1 21 1 22 28 35 87 54 55 65
REMARK Flexibility Score: inf
ROOT
ATOM      1  C   UNL A   1      37.761  19.368  24.998  1.00  0.00     0.023 C 
ENDROOT
BRANCH   1   2
ATOM      2  C   UNL A   1      36.470  20.186  24.978  1.00  0.00     0.023 C 
BRANCH   2   3
ATOM      3  C   UNL A   1      36.657  21.684  25.177  1.00  0.00     0.116 C 
BRANCH   3   4
ATOM      4  N   UNL A   1      35.798  22.258  26.191  1.00  0.00    -0.356 N 
ATOM      5  C   UNL A   1      34.514  22.715  26.150  1.00  0.00     0.228 C 
ATOM      6  O   UNL A   1      33.984  22.902  27.251  1.00  0.00    -0.274 OA
ATOM      7  H   UNL A   1      36.220  22.334  27.078  1.00  0.00     0.163 HD
BRANCH   5   8
ATOM      8  C   UNL A   1      33.731  22.979  24.843  1.00  0.00     0.071 C 
ATOM      9  N   UNL A   1      32.573  24.830  23.694  1.00  0.00    -0.355 N 
ATOM     10  C   UNL A   1      33.465  24.940  22.556  1.00  0.00     0.118 C 
ATOM     11  C   UNL A   1      33.200  24.460  24.964  1.00  0.00     0.135 C 
ATOM     12  C   UNL A   1      34.080  23.569  22.321  1.00  0.00     0.023 C 
ATOM     13  C   UNL A   1      34.667  22.956  23.599  1.00  0.00     0.021 C 
BRANCH   9  14
ATOM     14  C   UNL A   1      31.435  25.612  23.699  1.00  0.00     0.134 A 
ATOM     15  C   UNL A   1      30.258  27.452  23.021  1.00  0.00     0.221 A 
ATOM     16  N   UNL A   1      29.193  27.163  23.776  1.00  0.00    -0.222 NA
ATOM     17  N   UNL A   1      31.385  26.734  22.965  1.00  0.00    -0.196 NA
ATOM     18  C   UNL A   1      29.283  26.048  24.516  1.00  0.00     0.119 A 
ATOM     19  C   UNL A   1      30.378  25.225  24.500  1.00  0.00     0.067 A 
BRANCH  15  20
ATOM     20  N   UNL A   1      30.183  28.571  22.244  1.00  0.00    -0.368 N 
ATOM     21  H   UNL A   1      29.604  28.580  21.447  1.00  0.00     0.159 HD
ATOM     22  H   UNL A   1      30.707  29.370  22.480  1.00  0.00     0.159 HD
ENDBRANCH  15  20
ENDBRANCH   9  14
BRANCH   8  23
ATOM     23  C   UNL A   1      32.443  22.098  24.747  1.00  0.00     0.057 C 
BRANCH  23  24
ATOM     24  C   UNL A   1      32.529  20.624  24.442  1.00  0.00    -0.011 A 
ATOM     25  C   UNL A   1      32.833  19.705  25.459  1.00  0.00     0.010 A 
ATOM     26  C   UNL A   1      32.279  20.136  23.153  1.00  0.00     0.129 A 
ATOM     27  C   UNL A   1      32.924  18.340  25.172  1.00  0.00     0.040 A 
ATOM     28  C   UNL A   1      32.372  18.781  22.859  1.00  0.00     0.078 A 
ATOM     29  F   UNL A   1      31.958  20.984  22.167  1.00  0.00    -0.207 F 
ATOM     30  C   UNL A   1      32.699  17.894  23.874  1.00  0.00     0.126 A 
ATOM     31  F   UNL A   1      32.802  16.589  23.598  1.00  0.00    -0.207 F 
ENDBRANCH  23  24
ENDBRANCH   8  23
ENDBRANCH   5   8
ENDBRANCH   3   4
ENDBRANCH   2   3
ENDBRANCH   1   2
BRANCH   1  32
ATOM     32  C   UNL A   1      38.884  19.904  25.884  1.00  0.00     0.116 C 
BRANCH  32  33
ATOM     33  N   UNL A   1      40.149  19.189  25.749  1.00  0.00    -0.352 N 
ATOM     34  C   UNL A   1      41.413  19.658  26.033  1.00  0.00     0.251 C 
ATOM     35  H   UNL A   1      40.092  18.264  25.416  1.00  0.00     0.163 HD
ATOM     36  O   UNL A   1      42.407  18.976  25.816  1.00  0.00    -0.269 OA
BRANCH  34  37
ATOM     37  C   UNL A   1      41.542  21.029  26.563  1.00  0.00     0.039 A 
ATOM     38  C   UNL A   1      42.026  21.210  27.861  1.00  0.00     0.014 A 
ATOM     39  C   UNL A   1      41.311  22.122  25.723  1.00  0.00     0.014 A 
ATOM     40  C   UNL A   1      42.376  22.493  28.288  1.00  0.00     0.010 A 
ATOM     41  C   UNL A   1      41.711  23.387  26.133  1.00  0.00     0.010 A 
ATOM     42  C   UNL A   1      42.269  23.582  27.408  1.00  0.00    -0.014 A 
BRANCH  42  43
ATOM     43  C   UNL A   1      42.779  24.931  27.759  1.00  0.00     0.031 A 
ATOM     44  C   UNL A   1      41.848  25.944  28.362  1.00  0.00     0.074 A 
ATOM     45  C   UNL A   1      44.026  25.289  27.384  1.00  0.00     0.049 A 
ATOM     46  N   UNL A   1      42.041  27.219  28.567  1.00  0.00    -0.248 NA
ATOM     47  C   UNL A   1      40.512  25.466  28.755  1.00  0.00     0.031 C 
ATOM     48  C   UNL A   1      44.995  24.415  26.718  1.00  0.00     0.029 A 
ATOM     49  N   UNL A   1      44.672  26.498  27.465  1.00  0.00    -0.354 N 
ATOM     50  C   UNL A   1      40.836  27.710  29.050  1.00  0.00     0.074 A 
ATOM     51  C   UNL A   1      39.916  26.596  29.109  1.00  0.00     0.031 C 
ATOM     52  C   UNL A   1      46.099  25.122  26.428  1.00  0.00     0.029 A 
ATOM     53  C   UNL A   1      45.909  26.503  26.861  1.00  0.00     0.049 A 
ATOM     54  H   UNL A   1      44.287  27.286  27.912  1.00  0.00     0.167 HD
ATOM     55  C   UNL A   1      40.530  28.974  29.426  1.00  0.00     0.034 A 
ATOM     56  C   UNL A   1      46.782  27.511  26.660  1.00  0.00     0.034 A 
ATOM     57  C   UNL A   1      41.472  30.058  29.443  1.00  0.00     0.049 A 
ATOM     58  C   UNL A   1      46.442  28.886  27.170  1.00  0.00     0.074 A 
ATOM     59  C   UNL A   1      41.291  31.342  29.925  1.00  0.00     0.029 A 
ATOM     60  N   UNL A   1      42.768  29.988  28.961  1.00  0.00    -0.354 N 
ATOM     61  N   UNL A   1      45.361  29.289  27.790  1.00  0.00    -0.248 NA
ATOM     62  C   UNL A   1      47.454  29.939  26.985  1.00  0.00     0.031 C 
ATOM     63  C   UNL A   1      42.480  32.051  29.731  1.00  0.00     0.029 A 
ATOM     64  C   UNL A   1      43.399  31.205  29.133  1.00  0.00     0.049 A 
ATOM     65  H   UNL A   1      43.179  29.190  28.556  1.00  0.00     0.167 HD
ATOM     66  C   UNL A   1      45.578  30.626  28.105  1.00  0.00     0.074 A 
ATOM     67  C   UNL A   1      46.899  30.963  27.620  1.00  0.00     0.031 C 
ATOM     68  C   UNL A   1      44.748  31.500  28.725  1.00  0.00     0.034 A 
BRANCH  55  69
ATOM     69  C   UNL A   1      39.137  29.248  29.915  1.00  0.00     0.023 A 
ATOM     70  C   UNL A   1      38.806  28.964  31.255  1.00  0.00     0.012 A 
ATOM     71  C   UNL A   1      38.188  29.872  29.081  1.00  0.00     0.148 A 
ATOM     72  C   UNL A   1      37.544  29.280  31.754  1.00  0.00     0.002 A 
ATOM     73  C   UNL A   1      36.944  30.218  29.596  1.00  0.00     0.091 A 
ATOM     74  F   UNL A   1      38.519  30.113  27.805  1.00  0.00    -0.205 F 
ATOM     75  C   UNL A   1      36.618  29.917  30.930  1.00  0.00     0.022 A 
BRANCH  73  76
ATOM     76  S   UNL A   1      35.710  31.103  28.637  1.00  0.00     0.127 S 
ATOM     77  O   UNL A   1      36.527  32.108  27.962  1.00  0.00    -0.237 OA
ATOM     78  O   UNL A   1      35.190  30.052  27.762  1.00  0.00    -0.237 OA
ATOM     79  O   UNL A   1      34.750  31.622  29.600  1.00  0.00    -0.744 OA
ENDBRANCH  73  76
ENDBRANCH  55  69
BRANCH  56  80
ATOM     80  C   UNL A   1      48.093  27.248  25.999  1.00  0.00     0.023 A 
ATOM     81  C   UNL A   1      49.176  26.793  26.777  1.00  0.00     0.012 A 
ATOM     82  C   UNL A   1      48.273  27.428  24.614  1.00  0.00     0.148 A 
ATOM     83  C   UNL A   1      50.421  26.556  26.196  1.00  0.00     0.002 A 
ATOM     84  C   UNL A   1      49.504  27.140  24.033  1.00  0.00     0.091 A 
ATOM     85  F   UNL A   1      47.242  27.880  23.887  1.00  0.00    -0.205 F 
ATOM     86  C   UNL A   1      50.585  26.720  24.823  1.00  0.00     0.022 A 
BRANCH  84  87
ATOM     87  S   UNL A   1      49.734  27.201  22.251  1.00  0.00     0.127 S 
ATOM     88  O   UNL A   1      48.720  26.263  21.783  1.00  0.00    -0.237 OA
ATOM     89  O   UNL A   1      49.461  28.606  21.945  1.00  0.00    -0.237 OA
ATOM     90  O   UNL A   1      51.124  26.812  22.043  1.00  0.00    -0.744 OA
ENDBRANCH  84  87
ENDBRANCH  56  80
BRANCH  68  91
ATOM     91  C   UNL A   1      45.246  32.897  28.971  1.00  0.00     0.023 A 
ATOM     92  C   UNL A   1      45.984  33.177  30.136  1.00  0.00     0.012 A 
ATOM     93  C   UNL A   1      45.091  33.895  27.989  1.00  0.00     0.148 A 
ATOM     94  C   UNL A   1      46.553  34.436  30.327  1.00  0.00     0.002 A 
ATOM     95  C   UNL A   1      45.694  35.133  28.166  1.00  0.00     0.091 A 
ATOM     96  F   UNL A   1      44.368  33.609  26.895  1.00  0.00    -0.205 F 
ATOM     97  C   UNL A   1      46.420  35.408  29.337  1.00  0.00     0.022 A 
BRANCH  95  98
ATOM     98  S   UNL A   1      45.658  36.410  26.902  1.00  0.00     0.127 S 
ATOM     99  O   UNL A   1      44.223  36.666  26.779  1.00  0.00    -0.237 OA
ATOM    100  O   UNL A   1      46.420  37.491  27.527  1.00  0.00    -0.237 OA
ATOM    101  O   UNL A   1      46.291  35.828  25.727  1.00  0.00    -0.744 OA
ENDBRANCH  95  98
ENDBRANCH  68  91
ENDBRANCH  42  43
ENDBRANCH  34  37
ENDBRANCH  32  33
ENDBRANCH   1  32
TORSDOF 18
ENDMDL
MODEL 3
REMARK VINA RESULT:     -12.6      3.892      8.997
REMARK SMILES Nc1nccc(N2CCC[C@@](Cc3ccc(F)cc3F)(C(=O)NCCCCNC(=O)c3ccc(-c4c5nc(c(-c6cccc(S(=O)(=O)[O-])c6F)c6ccc([nH]6)c(-c6cccc(S(=O)(=O)[O-])c6F)c6nc(c(-c7cccc(S(=O)(=O)[O-])c7F)c7ccc4[nH]7)C=C6)C=C5)cc3)C2)n1
REMARK SMILES IDX 26 1 25 2 24 3 23 4 21 5 22 6 11 8 7 9 8 10 94 11 9 12 10 13
REMARK SMILES IDX 6 14 2 15 3 16 95 17 4 18 5 19 1 20 12 23 13 24 14 25 19 26
REMARK SMILES IDX 15 27 18 28 20 29 16 30 17 31 27 32 28 33 29 34 30 36 31 37
REMARK SMILES IDX 32 38 93 39 33 40 92 41 34 42 35 43 36 44 86 45 37 46 91 47
REMARK SMILES IDX 85 48 87 49 38 50 90 51 84 52 83 53 39 55 71 56 51 57 70 58
REMARK SMILES IDX 52 59 55 60 69 61 88 62 53 63 54 64 68 66 89 67 56 68 40 69
REMARK SMILES IDX 41 70 49 71 42 72 44 73 50 74 43 75 45 76 46 77 47 78 48 79
REMARK SMILES IDX 72 80 73 81 81 82 74 83 76 84 82 85 75 86 77 87 78 88 79 89
REMARK SMILES IDX 80 90 57 91 58 92 66 93 59 94 61 95 67 96 60 97 62 98 63 99
REMARK SMILES IDX 64 100 65 101
REMARK H PARENT 23 7 1 21 1 22 28 35 87 54 55 65
REMARK Flexibility Score: inf
ROOT
ATOM      1  C   UNL A   1      32.709  28.571  27.051  1.00  0.00     0.023 C 
ENDROOT
BRANCH   1   2
ATOM      2  C   UNL A   1      32.942  27.077  26.824  1.00  0.00     0.023 C 
BRANCH   2   3
ATOM      3  C   UNL A   1      31.952  26.412  25.878  1.00  0.00     0.116 C 
BRANCH   3   4
ATOM      4  N   UNL A   1      31.172  25.353  26.486  1.00  0.00    -0.356 N 
ATOM      5  C   UNL A   1      31.369  24.007  26.571  1.00  0.00     0.228 C 
ATOM      6  O   UNL A   1      30.648  23.418  27.384  1.00  0.00    -0.274 OA
ATOM      7  H   UNL A   1      30.344  25.664  26.919  1.00  0.00     0.163 HD
BRANCH   5   8
ATOM      8  C   UNL A   1      32.418  23.231  25.741  1.00  0.00     0.071 C 
ATOM      9  N   UNL A   1      32.539  21.305  24.205  1.00  0.00    -0.355 N 
ATOM     10  C   UNL A   1      32.911  22.034  23.008  1.00  0.00     0.118 C 
ATOM     11  C   UNL A   1      31.641  22.003  25.126  1.00  0.00     0.135 C 
ATOM     12  C   UNL A   1      33.667  23.279  23.446  1.00  0.00     0.023 C 
ATOM     13  C   UNL A   1      32.927  24.070  24.532  1.00  0.00     0.021 C 
BRANCH   9  14
ATOM     14  C   UNL A   1      32.505  19.926  24.135  1.00  0.00     0.134 A 
ATOM     15  C   UNL A   1      32.625  17.860  25.110  1.00  0.00     0.221 A 
ATOM     16  N   UNL A   1      32.489  17.205  23.952  1.00  0.00    -0.222 NA
ATOM     17  N   UNL A   1      32.658  19.190  25.246  1.00  0.00    -0.196 NA
ATOM     18  C   UNL A   1      32.363  17.968  22.856  1.00  0.00     0.119 A 
ATOM     19  C   UNL A   1      32.347  19.337  22.895  1.00  0.00     0.067 A 
BRANCH  15  20
ATOM     20  N   UNL A   1      32.736  17.106  26.241  1.00  0.00    -0.368 N 
ATOM     21  H   UNL A   1      33.446  17.301  26.895  1.00  0.00     0.159 HD
ATOM     22  H   UNL A   1      32.106  16.367  26.403  1.00  0.00     0.159 HD
ENDBRANCH  15  20
ENDBRANCH   9  14
BRANCH   8  23
ATOM     23  C   UNL A   1      33.523  22.595  26.646  1.00  0.00     0.057 C 
BRANCH  23  24
ATOM     24  C   UNL A   1      34.985  22.772  26.330  1.00  0.00    -0.011 A 
ATOM     25  C   UNL A   1      35.604  24.021  26.500  1.00  0.00     0.010 A 
ATOM     26  C   UNL A   1      35.767  21.695  25.891  1.00  0.00     0.129 A 
ATOM     27  C   UNL A   1      36.958  24.185  26.196  1.00  0.00     0.040 A 
ATOM     28  C   UNL A   1      37.112  21.851  25.582  1.00  0.00     0.078 A 
ATOM     29  F   UNL A   1      35.214  20.483  25.745  1.00  0.00    -0.207 F 
ATOM     30  C   UNL A   1      37.695  23.100  25.733  1.00  0.00     0.126 A 
ATOM     31  F   UNL A   1      38.987  23.264  25.427  1.00  0.00    -0.207 F 
ENDBRANCH  23  24
ENDBRANCH   8  23
ENDBRANCH   5   8
ENDBRANCH   3   4
ENDBRANCH   2   3
ENDBRANCH   1   2
BRANCH   1  32
ATOM     32  C   UNL A   1      33.676  29.519  26.343  1.00  0.00     0.116 C 
BRANCH  32  33
ATOM     33  N   UNL A   1      33.764  30.846  26.943  1.00  0.00    -0.352 N 
ATOM     34  C   UNL A   1      34.743  31.322  27.787  1.00  0.00     0.251 C 
ATOM     35  H   UNL A   1      33.039  31.473  26.719  1.00  0.00     0.163 HD
ATOM     36  O   UNL A   1      34.669  32.443  28.277  1.00  0.00    -0.269 OA
BRANCH  34  37
ATOM     37  C   UNL A   1      35.864  30.425  28.126  1.00  0.00     0.039 A 
ATOM     38  C   UNL A   1      36.998  30.420  27.309  1.00  0.00     0.014 A 
ATOM     39  C   UNL A   1      35.836  29.702  29.321  1.00  0.00     0.014 A 
ATOM     40  C   UNL A   1      38.151  29.762  27.742  1.00  0.00     0.010 A 
ATOM     41  C   UNL A   1      37.001  29.095  29.773  1.00  0.00     0.010 A 
ATOM     42  C   UNL A   1      38.175  29.139  29.001  1.00  0.00    -0.014 A 
BRANCH  42  43
ATOM     43  C   UNL A   1      39.421  28.570  29.574  1.00  0.00     0.031 A 
ATOM     44  C   UNL A   1      40.120  29.289  30.692  1.00  0.00     0.074 A 
ATOM     45  C   UNL A   1      39.999  27.505  28.981  1.00  0.00     0.049 A 
ATOM     46  N   UNL A   1      41.302  29.066  31.201  1.00  0.00    -0.248 NA
ATOM     47  C   UNL A   1      39.413  30.432  31.292  1.00  0.00     0.031 C 
ATOM     48  C   UNL A   1      39.453  26.771  27.836  1.00  0.00     0.029 A 
ATOM     49  N   UNL A   1      41.201  26.886  29.227  1.00  0.00    -0.354 N 
ATOM     50  C   UNL A   1      41.508  30.073  32.133  1.00  0.00     0.074 A 
ATOM     51  C   UNL A   1      40.329  30.911  32.121  1.00  0.00     0.031 C 
ATOM     52  C   UNL A   1      40.327  25.821  27.465  1.00  0.00     0.029 A 
ATOM     53  C   UNL A   1      41.505  25.894  28.323  1.00  0.00     0.049 A 
ATOM     54  H   UNL A   1      41.788  27.131  29.979  1.00  0.00     0.167 HD
ATOM     55  C   UNL A   1      42.578  30.272  32.938  1.00  0.00     0.034 A 
ATOM     56  C   UNL A   1      42.617  25.143  28.188  1.00  0.00     0.034 A 
ATOM     57  C   UNL A   1      43.709  29.390  33.005  1.00  0.00     0.049 A 
ATOM     58  C   UNL A   1      43.753  25.335  29.158  1.00  0.00     0.074 A 
ATOM     59  C   UNL A   1      44.782  29.437  33.877  1.00  0.00     0.029 A 
ATOM     60  N   UNL A   1      43.914  28.303  32.172  1.00  0.00    -0.354 N 
ATOM     61  N   UNL A   1      43.850  26.181  30.153  1.00  0.00    -0.248 NA
ATOM     62  C   UNL A   1      44.918  24.448  29.011  1.00  0.00     0.031 C 
ATOM     63  C   UNL A   1      45.640  28.378  33.568  1.00  0.00     0.029 A 
ATOM     64  C   UNL A   1      45.097  27.671  32.508  1.00  0.00     0.049 A 
ATOM     65  H   UNL A   1      43.308  28.021  31.449  1.00  0.00     0.167 HD
ATOM     66  C   UNL A   1      45.062  25.902  30.774  1.00  0.00     0.074 A 
ATOM     67  C   UNL A   1      45.660  24.800  30.052  1.00  0.00     0.031 C 
ATOM     68  C   UNL A   1      45.636  26.518  31.836  1.00  0.00     0.034 A 
BRANCH  55  69
ATOM     69  C   UNL A   1      42.555  31.454  33.866  1.00  0.00     0.023 A 
ATOM     70  C   UNL A   1      43.004  32.706  33.402  1.00  0.00     0.012 A 
ATOM     71  C   UNL A   1      42.003  31.347  35.158  1.00  0.00     0.148 A 
ATOM     72  C   UNL A   1      42.922  33.833  34.217  1.00  0.00     0.002 A 
ATOM     73  C   UNL A   1      41.891  32.482  35.951  1.00  0.00     0.091 A 
ATOM     74  F   UNL A   1      41.603  30.141  35.584  1.00  0.00    -0.205 F 
ATOM     75  C   UNL A   1      42.354  33.724  35.485  1.00  0.00     0.022 A 
BRANCH  73  76
ATOM     76  S   UNL A   1      41.113  32.460  37.570  1.00  0.00     0.127 S 
ATOM     77  O   UNL A   1      39.793  31.915  37.255  1.00  0.00    -0.237 OA
ATOM     78  O   UNL A   1      41.984  31.554  38.317  1.00  0.00    -0.237 OA
ATOM     79  O   UNL A   1      41.123  33.838  38.039  1.00  0.00    -0.744 OA
ENDBRANCH  73  76
ENDBRANCH  55  69
BRANCH  56  80
ATOM     80  C   UNL A   1      42.690  24.093  27.131  1.00  0.00     0.023 A 
ATOM     81  C   UNL A   1      43.400  24.361  25.945  1.00  0.00     0.012 A 
ATOM     82  C   UNL A   1      42.079  22.835  27.294  1.00  0.00     0.148 A 
ATOM     83  C   UNL A   1      43.472  23.411  24.926  1.00  0.00     0.002 A 
ATOM     84  C   UNL A   1      42.198  21.873  26.295  1.00  0.00     0.091 A 
ATOM     85  F   UNL A   1      41.389  22.598  28.418  1.00  0.00    -0.205 F 
ATOM     86  C   UNL A   1      42.880  22.163  25.104  1.00  0.00     0.022 A 
BRANCH  84  87
ATOM     87  S   UNL A   1      41.574  20.203  26.526  1.00  0.00     0.127 S 
ATOM     88  O   UNL A   1      42.158  19.837  27.812  1.00  0.00    -0.237 OA
ATOM     89  O   UNL A   1      40.124  20.408  26.544  1.00  0.00    -0.237 OA
ATOM     90  O   UNL A   1      42.051  19.465  25.363  1.00  0.00    -0.744 OA
ENDBRANCH  84  87
ENDBRANCH  56  80
BRANCH  68  91
ATOM     91  C   UNL A   1      46.955  25.993  32.332  1.00  0.00     0.023 A 
ATOM     92  C   UNL A   1      48.152  26.558  31.853  1.00  0.00     0.012 A 
ATOM     93  C   UNL A   1      47.001  25.032  33.361  1.00  0.00     0.148 A 
ATOM     94  C   UNL A   1      49.380  26.165  32.384  1.00  0.00     0.002 A 
ATOM     95  C   UNL A   1      48.224  24.676  33.914  1.00  0.00     0.091 A 
ATOM     96  F   UNL A   1      45.847  24.495  33.787  1.00  0.00    -0.205 F 
ATOM     97  C   UNL A   1      49.415  25.236  33.423  1.00  0.00     0.022 A 
BRANCH  95  98
ATOM     98  S   UNL A   1      48.356  23.562  35.317  1.00  0.00     0.127 S 
ATOM     99  O   UNL A   1      47.677  22.368  34.815  1.00  0.00    -0.237 OA
ATOM    100  O   UNL A   1      49.805  23.422  35.471  1.00  0.00    -0.237 OA
ATOM    101  O   UNL A   1      47.696  24.236  36.427  1.00  0.00    -0.744 OA
ENDBRANCH  95  98
ENDBRANCH  68  91
ENDBRANCH  42  43
ENDBRANCH  34  37
ENDBRANCH  32  33
ENDBRANCH   1  32
TORSDOF 18
ENDMDL
