MODEL 1
REMARK VINA RESULT:     -10.7      0.000      0.000
REMARK SMILES CC(C)Cc1ccc([C@H](CF)C(=O)NCCCCNC(=O)c2ccc(-c3c4nc(c(-c5cccc(S(=O)(=O)[O-])c5F)c5ccc([nH]5)c(-c5cccc(S(=O)(=O)[O-])c5F)c5nc(c(-c6cccc(S(=O)(=O)[O-])c6F)c6ccc3[nH]6)C=C5)C=C4)cc2)cc1
REMARK SMILES IDX 16 1 15 2 14 3 12 4 13 5 9 7 8 8 5 9 6 10 86 11 7 12 85 13
REMARK SMILES IDX 4 14 2 15 1 16 3 17 10 18 11 19 17 20 18 21 19 22 20 23
REMARK SMILES IDX 21 25 22 26 23 27 84 28 24 29 83 30 25 31 26 32 27 33 77 34
REMARK SMILES IDX 28 35 82 36 76 37 78 38 29 39 81 40 75 41 74 42 30 44 62 45
REMARK SMILES IDX 42 46 61 47 43 48 46 49 60 50 79 51 44 52 45 53 59 55 80 56
REMARK SMILES IDX 47 57 31 58 32 59 40 60 33 61 35 62 41 63 34 64 36 65 37 66
REMARK SMILES IDX 38 67 39 68 63 69 64 70 72 71 65 72 67 73 73 74 66 75 68 76
REMARK SMILES IDX 69 77 70 78 71 79 48 80 49 81 57 82 50 83 52 84 58 85 51 86
REMARK SMILES IDX 53 87 54 88 55 89 56 90
REMARK H PARENT 14 6 19 24 78 43 46 54
REMARK Flexibility Score: inf
ROOT
ATOM      1  C   UNL A   1      33.609  27.234  23.863  1.00  0.00     0.023 C 
ENDROOT
BRANCH   1   2
ATOM      2  C   UNL A   1      33.090  25.911  23.316  1.00  0.00     0.116 C 
BRANCH   2   3
ATOM      3  N   UNL A   1      32.290  25.185  24.288  1.00  0.00    -0.355 N 
ATOM      4  C   UNL A   1      32.612  24.096  25.044  1.00  0.00     0.230 C 
ATOM      5  O   UNL A   1      31.814  23.758  25.922  1.00  0.00    -0.274 OA
ATOM      6  H   UNL A   1      31.378  25.531  24.420  1.00  0.00     0.163 HD
BRANCH   4   7
ATOM      7  C   UNL A   1      33.895  23.308  24.812  1.00  0.00     0.139 C 
BRANCH   7   8
ATOM      8  C   UNL A   1      33.729  21.810  24.562  1.00  0.00    -0.033 A 
ATOM      9  C   UNL A   1      33.475  19.011  24.210  1.00  0.00    -0.048 A 
ATOM     10  C   UNL A   1      32.480  19.878  23.753  1.00  0.00     0.004 A 
ATOM     11  C   UNL A   1      34.617  19.552  24.808  1.00  0.00     0.004 A 
ATOM     12  C   UNL A   1      32.616  21.260  23.908  1.00  0.00     0.005 A 
ATOM     13  C   UNL A   1      34.746  20.933  24.972  1.00  0.00     0.005 A 
BRANCH   9  14
ATOM     14  C   UNL A   1      33.326  17.520  24.023  1.00  0.00     0.038 C 
BRANCH  14  15
ATOM     15  C   UNL A   1      33.641  16.709  25.294  1.00  0.00    -0.013 C 
ATOM     16  C   UNL A   1      32.539  15.695  25.616  1.00  0.00     0.008 C 
ATOM     17  C   UNL A   1      34.976  15.982  25.128  1.00  0.00     0.008 C 
ENDBRANCH  14  15
ENDBRANCH   9  14
ENDBRANCH   7   8
BRANCH   7  18
ATOM     18  C   UNL A   1      34.905  23.643  25.916  1.00  0.00     0.232 C 
ATOM     19  F   UNL A   1      35.801  24.557  25.440  1.00  0.00    -0.250 F 
ENDBRANCH   7  18
ENDBRANCH   4   7
ENDBRANCH   2   3
ENDBRANCH   1   2
BRANCH   1  20
ATOM     20  C   UNL A   1      33.169  27.556  25.293  1.00  0.00     0.023 C 
BRANCH  20  21
ATOM     21  C   UNL A   1      34.207  28.271  26.152  1.00  0.00     0.116 C 
BRANCH  21  22
ATOM     22  N   UNL A   1      33.831  29.641  26.470  1.00  0.00    -0.352 N 
ATOM     23  C   UNL A   1      34.427  30.529  27.339  1.00  0.00     0.251 C 
ATOM     24  H   UNL A   1      33.038  29.982  25.996  1.00  0.00     0.163 HD
ATOM     25  O   UNL A   1      33.889  31.595  27.593  1.00  0.00    -0.269 OA
BRANCH  23  26
ATOM     26  C   UNL A   1      35.709  30.163  27.982  1.00  0.00     0.039 A 
ATOM     27  C   UNL A   1      35.692  29.658  29.284  1.00  0.00     0.014 A 
ATOM     28  C   UNL A   1      36.915  30.289  27.289  1.00  0.00     0.014 A 
ATOM     29  C   UNL A   1      36.881  29.209  29.864  1.00  0.00     0.010 A 
ATOM     30  C   UNL A   1      38.082  29.767  27.837  1.00  0.00     0.010 A 
ATOM     31  C   UNL A   1      38.079  29.222  29.130  1.00  0.00    -0.014 A 
BRANCH  31  32
ATOM     32  C   UNL A   1      39.332  28.650  29.687  1.00  0.00     0.031 A 
ATOM     33  C   UNL A   1      39.998  29.287  30.876  1.00  0.00     0.074 A 
ATOM     34  C   UNL A   1      39.929  27.619  29.058  1.00  0.00     0.049 A 
ATOM     35  N   UNL A   1      41.122  28.966  31.461  1.00  0.00    -0.248 NA
ATOM     36  C   UNL A   1      39.331  30.461  31.461  1.00  0.00     0.031 C 
ATOM     37  C   UNL A   1      39.440  26.976  27.837  1.00  0.00     0.029 A 
ATOM     38  N   UNL A   1      41.098  26.954  29.338  1.00  0.00    -0.354 N 
ATOM     39  C   UNL A   1      41.316  29.915  32.456  1.00  0.00     0.074 A 
ATOM     40  C   UNL A   1      40.215  30.849  32.368  1.00  0.00     0.031 C 
ATOM     41  C   UNL A   1      40.301  26.013  27.471  1.00  0.00     0.029 A 
ATOM     42  C   UNL A   1      41.417  25.989  28.412  1.00  0.00     0.049 A 
ATOM     43  H   UNL A   1      41.655  27.150  30.126  1.00  0.00     0.167 HD
ATOM     44  C   UNL A   1      42.303  29.990  33.382  1.00  0.00     0.034 A 
ATOM     45  C   UNL A   1      42.492  25.181  28.320  1.00  0.00     0.034 A 
ATOM     46  C   UNL A   1      43.378  29.040  33.490  1.00  0.00     0.049 A 
ATOM     47  C   UNL A   1      43.549  25.242  29.387  1.00  0.00     0.074 A 
ATOM     48  C   UNL A   1      44.367  28.964  34.454  1.00  0.00     0.029 A 
ATOM     49  N   UNL A   1      43.616  28.008  32.593  1.00  0.00    -0.354 N 
ATOM     50  N   UNL A   1      43.622  26.032  30.431  1.00  0.00    -0.248 NA
ATOM     51  C   UNL A   1      44.651  24.274  29.289  1.00  0.00     0.031 C 
ATOM     52  C   UNL A   1      45.220  27.904  34.124  1.00  0.00     0.029 A 
ATOM     53  C   UNL A   1      44.744  27.300  32.972  1.00  0.00     0.049 A 
ATOM     54  H   UNL A   1      43.063  27.809  31.803  1.00  0.00     0.167 HD
ATOM     55  C   UNL A   1      44.759  25.643  31.128  1.00  0.00     0.074 A 
ATOM     56  C   UNL A   1      45.332  24.529  30.399  1.00  0.00     0.031 C 
ATOM     57  C   UNL A   1      45.286  26.168  32.262  1.00  0.00     0.034 A 
BRANCH  44  58
ATOM     58  C   UNL A   1      42.233  31.119  34.379  1.00  0.00     0.023 A 
ATOM     59  C   UNL A   1      41.576  30.920  35.612  1.00  0.00     0.012 A 
ATOM     60  C   UNL A   1      42.830  32.366  34.110  1.00  0.00     0.148 A 
ATOM     61  C   UNL A   1      41.465  31.959  36.535  1.00  0.00     0.002 A 
ATOM     62  C   UNL A   1      42.759  33.380  35.058  1.00  0.00     0.091 A 
ATOM     63  F   UNL A   1      43.433  32.547  32.926  1.00  0.00    -0.205 F 
ATOM     64  C   UNL A   1      42.064  33.184  36.263  1.00  0.00     0.022 A 
BRANCH  62  65
ATOM     65  S   UNL A   1      43.571  34.967  34.832  1.00  0.00     0.127 S 
ATOM     66  O   UNL A   1      42.846  35.508  33.684  1.00  0.00    -0.237 OA
ATOM     67  O   UNL A   1      43.293  35.641  36.101  1.00  0.00    -0.237 OA
ATOM     68  O   UNL A   1      44.977  34.664  34.605  1.00  0.00    -0.744 OA
ENDBRANCH  62  65
ENDBRANCH  44  58
BRANCH  45  69
ATOM     69  C   UNL A   1      42.575  24.202  27.200  1.00  0.00     0.023 A 
ATOM     70  C   UNL A   1      43.307  24.531  26.043  1.00  0.00     0.012 A 
ATOM     71  C   UNL A   1      41.996  22.923  27.309  1.00  0.00     0.148 A 
ATOM     72  C   UNL A   1      43.446  23.609  25.005  1.00  0.00     0.002 A 
ATOM     73  C   UNL A   1      42.186  21.990  26.297  1.00  0.00     0.091 A 
ATOM     74  F   UNL A   1      41.300  22.635  28.417  1.00  0.00    -0.205 F 
ATOM     75  C   UNL A   1      42.897  22.336  25.137  1.00  0.00     0.022 A 
BRANCH  73  76
ATOM     76  S   UNL A   1      41.641  20.285  26.438  1.00  0.00     0.127 S 
ATOM     77  O   UNL A   1      40.197  20.416  26.255  1.00  0.00    -0.237 OA
ATOM     78  O   UNL A   1      42.350  19.652  25.326  1.00  0.00    -0.237 OA
ATOM     79  O   UNL A   1      42.069  19.840  27.757  1.00  0.00    -0.744 OA
ENDBRANCH  73  76
ENDBRANCH  45  69
BRANCH  57  80
ATOM     80  C   UNL A   1      46.539  25.534  32.811  1.00  0.00     0.023 A 
ATOM     81  C   UNL A   1      47.801  26.030  32.431  1.00  0.00     0.012 A 
ATOM     82  C   UNL A   1      46.462  24.498  33.762  1.00  0.00     0.148 A 
ATOM     83  C   UNL A   1      48.968  25.485  32.965  1.00  0.00     0.002 A 
ATOM     84  C   UNL A   1      47.627  23.993  34.328  1.00  0.00     0.091 A 
ATOM     85  F   UNL A   1      45.253  24.025  34.097  1.00  0.00    -0.205 F 
ATOM     86  C   UNL A   1      48.881  24.476  33.922  1.00  0.00     0.022 A 
BRANCH  84  87
ATOM     87  S   UNL A   1      47.607  22.761  35.636  1.00  0.00     0.127 S 
ATOM     88  O   UNL A   1      47.517  21.518  34.873  1.00  0.00    -0.237 OA
ATOM     89  O   UNL A   1      48.897  22.983  36.290  1.00  0.00    -0.237 OA
ATOM     90  O   UNL A   1      46.449  23.073  36.463  1.00  0.00    -0.744 OA
ENDBRANCH  84  87
ENDBRANCH  57  80
ENDBRANCH  31  32
ENDBRANCH  23  26
ENDBRANCH  21  22
ENDBRANCH  20  21
ENDBRANCH   1  20
TORSDOF 18
ENDMDL
MODEL 2
REMARK VINA RESULT:     -10.7      4.597      9.632
REMARK SMILES CC(C)Cc1ccc([C@H](CF)C(=O)NCCCCNC(=O)c2ccc(-c3c4nc(c(-c5cccc(S(=O)(=O)[O-])c5F)c5ccc([nH]5)c(-c5cccc(S(=O)(=O)[O-])c5F)c5nc(c(-c6cccc(S(=O)(=O)[O-])c6F)c6ccc3[nH]6)C=C5)C=C4)cc2)cc1
REMARK SMILES IDX 16 1 15 2 14 3 12 4 13 5 9 7 8 8 5 9 6 10 86 11 7 12 85 13
REMARK SMILES IDX 4 14 2 15 1 16 3 17 10 18 11 19 17 20 18 21 19 22 20 23
REMARK SMILES IDX 21 25 22 26 23 27 84 28 24 29 83 30 25 31 26 32 27 33 77 34
REMARK SMILES IDX 28 35 82 36 76 37 78 38 29 39 81 40 75 41 74 42 30 44 62 45
REMARK SMILES IDX 42 46 61 47 43 48 46 49 60 50 79 51 44 52 45 53 59 55 80 56
REMARK SMILES IDX 47 57 31 58 32 59 40 60 33 61 35 62 41 63 34 64 36 65 37 66
REMARK SMILES IDX 38 67 39 68 63 69 64 70 72 71 65 72 67 73 73 74 66 75 68 76
REMARK SMILES IDX 69 77 70 78 71 79 48 80 49 81 57 82 50 83 52 84 58 85 51 86
REMARK SMILES IDX 53 87 54 88 55 89 56 90
REMARK H PARENT 14 6 19 24 78 43 46 54
REMARK Flexibility Score: inf
ROOT
ATOM      1  C   UNL A   1      32.115  30.342  26.020  1.00  0.00     0.023 C 
ENDROOT
BRANCH   1   2
ATOM      2  C   UNL A   1      32.000  28.943  26.613  1.00  0.00     0.116 C 
BRANCH   2   3
ATOM      3  N   UNL A   1      33.115  28.090  26.241  1.00  0.00    -0.355 N 
ATOM      4  C   UNL A   1      33.164  27.051  25.357  1.00  0.00     0.230 C 
ATOM      5  O   UNL A   1      34.273  26.583  25.091  1.00  0.00    -0.274 OA
ATOM      6  H   UNL A   1      33.965  28.292  26.696  1.00  0.00     0.163 HD
BRANCH   4   7
ATOM      7  C   UNL A   1      31.902  26.472  24.731  1.00  0.00     0.139 C 
BRANCH   7   8
ATOM      8  C   UNL A   1      31.032  27.450  23.943  1.00  0.00    -0.033 A 
ATOM      9  C   UNL A   1      29.503  29.257  22.388  1.00  0.00    -0.048 A 
ATOM     10  C   UNL A   1      28.875  28.309  23.199  1.00  0.00     0.004 A 
ATOM     11  C   UNL A   1      30.900  29.325  22.389  1.00  0.00     0.004 A 
ATOM     12  C   UNL A   1      29.630  27.432  23.981  1.00  0.00     0.005 A 
ATOM     13  C   UNL A   1      31.653  28.440  23.163  1.00  0.00     0.005 A 
BRANCH   9  14
ATOM     14  C   UNL A   1      28.678  30.211  21.558  1.00  0.00     0.038 C 
BRANCH  14  15
ATOM     15  C   UNL A   1      28.793  31.677  22.017  1.00  0.00    -0.013 C 
ATOM     16  C   UNL A   1      28.032  32.631  21.090  1.00  0.00     0.008 C 
ATOM     17  C   UNL A   1      28.263  31.817  23.445  1.00  0.00     0.008 C 
ENDBRANCH  14  15
ENDBRANCH   9  14
ENDBRANCH   7   8
BRANCH   7  18
ATOM     18  C   UNL A   1      31.132  25.669  25.785  1.00  0.00     0.232 C 
ATOM     19  F   UNL A   1      30.298  26.509  26.466  1.00  0.00    -0.250 F 
ENDBRANCH   7  18
ENDBRANCH   4   7
ENDBRANCH   2   3
ENDBRANCH   1   2
BRANCH   1  20
ATOM     20  C   UNL A   1      31.856  31.482  27.007  1.00  0.00     0.023 C 
BRANCH  20  21
ATOM     21  C   UNL A   1      33.041  32.408  27.263  1.00  0.00     0.116 C 
BRANCH  21  22
ATOM     22  N   UNL A   1      32.634  33.760  27.621  1.00  0.00    -0.352 N 
ATOM     23  C   UNL A   1      33.102  34.571  28.632  1.00  0.00     0.251 C 
ATOM     24  H   UNL A   1      31.925  34.150  27.060  1.00  0.00     0.163 HD
ATOM     25  O   UNL A   1      32.542  35.628  28.880  1.00  0.00    -0.269 OA
BRANCH  23  26
ATOM     26  C   UNL A   1      34.270  34.134  29.429  1.00  0.00     0.039 A 
ATOM     27  C   UNL A   1      34.051  33.455  30.631  1.00  0.00     0.014 A 
ATOM     28  C   UNL A   1      35.570  34.366  28.975  1.00  0.00     0.014 A 
ATOM     29  C   UNL A   1      35.140  32.944  31.341  1.00  0.00     0.010 A 
ATOM     30  C   UNL A   1      36.645  33.786  29.640  1.00  0.00     0.010 A 
ATOM     31  C   UNL A   1      36.443  33.070  30.830  1.00  0.00    -0.014 A 
BRANCH  31  32
ATOM     32  C   UNL A   1      37.603  32.440  31.511  1.00  0.00     0.031 A 
ATOM     33  C   UNL A   1      38.327  31.285  30.876  1.00  0.00     0.074 A 
ATOM     34  C   UNL A   1      37.941  32.839  32.754  1.00  0.00     0.049 A 
ATOM     35  N   UNL A   1      39.319  30.574  31.345  1.00  0.00    -0.248 NA
ATOM     36  C   UNL A   1      37.850  30.850  29.553  1.00  0.00     0.031 C 
ATOM     37  C   UNL A   1      37.256  33.879  33.523  1.00  0.00     0.029 A 
ATOM     38  N   UNL A   1      38.923  32.391  33.603  1.00  0.00    -0.354 N 
ATOM     39  C   UNL A   1      39.560  29.587  30.398  1.00  0.00     0.074 A 
ATOM     40  C   UNL A   1      38.583  29.766  29.346  1.00  0.00     0.031 C 
ATOM     41  C   UNL A   1      37.835  33.988  34.729  1.00  0.00     0.029 A 
ATOM     42  C   UNL A   1      38.912  33.007  34.832  1.00  0.00     0.049 A 
ATOM     43  H   UNL A   1      39.574  31.695  33.355  1.00  0.00     0.167 HD
ATOM     44  C   UNL A   1      40.525  28.636  30.385  1.00  0.00     0.034 A 
ATOM     45  C   UNL A   1      39.672  32.802  35.925  1.00  0.00     0.034 A 
ATOM     46  C   UNL A   1      41.516  28.482  31.415  1.00  0.00     0.049 A 
ATOM     47  C   UNL A   1      40.773  31.780  35.872  1.00  0.00     0.074 A 
ATOM     48  C   UNL A   1      42.599  27.622  31.447  1.00  0.00     0.029 A 
ATOM     49  N   UNL A   1      41.539  29.195  32.605  1.00  0.00    -0.354 N 
ATOM     50  N   UNL A   1      41.103  30.976  34.890  1.00  0.00    -0.248 NA
ATOM     51  C   UNL A   1      41.632  31.663  37.059  1.00  0.00     0.031 C 
ATOM     52  C   UNL A   1      43.259  27.794  32.670  1.00  0.00     0.029 A 
ATOM     53  C   UNL A   1      42.606  28.784  33.386  1.00  0.00     0.049 A 
ATOM     54  H   UNL A   1      40.890  29.891  32.857  1.00  0.00     0.167 HD
ATOM     55  C   UNL A   1      42.222  30.276  35.328  1.00  0.00     0.074 A 
ATOM     56  C   UNL A   1      42.527  30.769  36.656  1.00  0.00     0.031 C 
ATOM     57  C   UNL A   1      42.925  29.307  34.691  1.00  0.00     0.034 A 
BRANCH  44  58
ATOM     58  C   UNL A   1      40.575  27.717  29.190  1.00  0.00     0.023 A 
ATOM     59  C   UNL A   1      39.717  26.598  29.135  1.00  0.00     0.012 A 
ATOM     60  C   UNL A   1      41.452  27.966  28.117  1.00  0.00     0.148 A 
ATOM     61  C   UNL A   1      39.769  25.713  28.059  1.00  0.00     0.002 A 
ATOM     62  C   UNL A   1      41.462  27.106  27.024  1.00  0.00     0.091 A 
ATOM     63  F   UNL A   1      42.278  29.019  28.192  1.00  0.00    -0.205 F 
ATOM     64  C   UNL A   1      40.634  25.971  27.001  1.00  0.00     0.022 A 
BRANCH  62  65
ATOM     65  S   UNL A   1      42.483  27.402  25.576  1.00  0.00     0.127 S 
ATOM     66  O   UNL A   1      43.822  27.431  26.160  1.00  0.00    -0.237 OA
ATOM     67  O   UNL A   1      42.202  26.225  24.752  1.00  0.00    -0.237 OA
ATOM     68  O   UNL A   1      42.014  28.659  25.011  1.00  0.00    -0.744 OA
ENDBRANCH  62  65
ENDBRANCH  44  58
BRANCH  45  69
ATOM     69  C   UNL A   1      39.447  33.638  37.138  1.00  0.00     0.023 A 
ATOM     70  C   UNL A   1      39.889  34.974  37.153  1.00  0.00     0.012 A 
ATOM     71  C   UNL A   1      38.732  33.136  38.242  1.00  0.00     0.148 A 
ATOM     72  C   UNL A   1      39.640  35.792  38.255  1.00  0.00     0.002 A 
ATOM     73  C   UNL A   1      38.437  33.972  39.312  1.00  0.00     0.091 A 
ATOM     74  F   UNL A   1      38.325  31.859  38.207  1.00  0.00    -0.205 F 
ATOM     75  C   UNL A   1      38.904  35.296  39.328  1.00  0.00     0.022 A 
BRANCH  73  76
ATOM     76  S   UNL A   1      37.377  33.467  40.671  1.00  0.00     0.127 S 
ATOM     77  O   UNL A   1      36.205  32.957  39.963  1.00  0.00    -0.237 OA
ATOM     78  O   UNL A   1      38.196  32.447  41.326  1.00  0.00    -0.237 OA
ATOM     79  O   UNL A   1      37.157  34.666  41.468  1.00  0.00    -0.744 OA
ENDBRANCH  73  76
ENDBRANCH  45  69
BRANCH  57  80
ATOM     80  C   UNL A   1      44.115  28.721  35.407  1.00  0.00     0.023 A 
ATOM     81  C   UNL A   1      45.386  29.311  35.255  1.00  0.00     0.012 A 
ATOM     82  C   UNL A   1      43.960  27.634  36.290  1.00  0.00     0.148 A 
ATOM     83  C   UNL A   1      46.488  28.810  35.947  1.00  0.00     0.002 A 
ATOM     84  C   UNL A   1      45.052  27.171  37.015  1.00  0.00     0.091 A 
ATOM     85  F   UNL A   1      42.747  27.073  36.407  1.00  0.00    -0.205 F 
ATOM     86  C   UNL A   1      46.319  27.749  36.835  1.00  0.00     0.022 A 
BRANCH  84  87
ATOM     87  S   UNL A   1      44.909  25.875  38.250  1.00  0.00     0.127 S 
ATOM     88  O   UNL A   1      43.899  26.430  39.149  1.00  0.00    -0.237 OA
ATOM     89  O   UNL A   1      44.454  24.736  37.452  1.00  0.00    -0.237 OA
ATOM     90  O   UNL A   1      46.239  25.718  38.823  1.00  0.00    -0.744 OA
ENDBRANCH  84  87
ENDBRANCH  57  80
ENDBRANCH  31  32
ENDBRANCH  23  26
ENDBRANCH  21  22
ENDBRANCH  20  21
ENDBRANCH   1  20
TORSDOF 18
ENDMDL
MODEL 3
REMARK VINA RESULT:     -10.6      1.992      3.001
REMARK SMILES CC(C)Cc1ccc([C@H](CF)C(=O)NCCCCNC(=O)c2ccc(-c3c4nc(c(-c5cccc(S(=O)(=O)[O-])c5F)c5ccc([nH]5)c(-c5cccc(S(=O)(=O)[O-])c5F)c5nc(c(-c6cccc(S(=O)(=O)[O-])c6F)c6ccc3[nH]6)C=C5)C=C4)cc2)cc1
REMARK SMILES IDX 16 1 15 2 14 3 12 4 13 5 9 7 8 8 5 9 6 10 86 11 7 12 85 13
REMARK SMILES IDX 4 14 2 15 1 16 3 17 10 18 11 19 17 20 18 21 19 22 20 23
REMARK SMILES IDX 21 25 22 26 23 27 84 28 24 29 83 30 25 31 26 32 27 33 77 34
REMARK SMILES IDX 28 35 82 36 76 37 78 38 29 39 81 40 75 41 74 42 30 44 62 45
REMARK SMILES IDX 42 46 61 47 43 48 46 49 60 50 79 51 44 52 45 53 59 55 80 56
REMARK SMILES IDX 47 57 31 58 32 59 40 60 33 61 35 62 41 63 34 64 36 65 37 66
REMARK SMILES IDX 38 67 39 68 63 69 64 70 72 71 65 72 67 73 73 74 66 75 68 76
REMARK SMILES IDX 69 77 70 78 71 79 48 80 49 81 57 82 50 83 52 84 58 85 51 86
REMARK SMILES IDX 53 87 54 88 55 89 56 90
REMARK H PARENT 14 6 19 24 78 43 46 54
REMARK Flexibility Score: inf
ROOT
ATOM      1  C   UNL A   1      33.645  28.684  24.677  1.00  0.00     0.023 C 
ENDROOT
BRANCH   1   2
ATOM      2  C   UNL A   1      32.312  29.377  24.421  1.00  0.00     0.116 C 
BRANCH   2   3
ATOM      3  N   UNL A   1      31.758  29.049  23.119  1.00  0.00    -0.355 N 
ATOM      4  C   UNL A   1      30.650  28.318  22.801  1.00  0.00     0.230 C 
ATOM      5  O   UNL A   1      30.291  28.316  21.621  1.00  0.00    -0.274 OA
ATOM      6  H   UNL A   1      32.257  29.408  22.350  1.00  0.00     0.163 HD
BRANCH   4   7
ATOM      7  C   UNL A   1      29.889  27.517  23.849  1.00  0.00     0.139 C 
BRANCH   7   8
ATOM      8  C   UNL A   1      30.447  26.133  24.173  1.00  0.00    -0.033 A 
ATOM      9  C   UNL A   1      31.401  23.558  24.872  1.00  0.00    -0.048 A 
ATOM     10  C   UNL A   1      31.294  23.938  23.532  1.00  0.00     0.004 A 
ATOM     11  C   UNL A   1      31.067  24.487  25.863  1.00  0.00     0.004 A 
ATOM     12  C   UNL A   1      30.844  25.215  23.189  1.00  0.00     0.005 A 
ATOM     13  C   UNL A   1      30.606  25.759  25.518  1.00  0.00     0.005 A 
BRANCH   9  14
ATOM     14  C   UNL A   1      31.904  22.182  25.233  1.00  0.00     0.038 C 
BRANCH  14  15
ATOM     15  C   UNL A   1      32.919  21.616  24.222  1.00  0.00    -0.013 C 
ATOM     16  C   UNL A   1      34.348  21.627  24.773  1.00  0.00     0.008 C 
ATOM     17  C   UNL A   1      32.527  20.188  23.838  1.00  0.00     0.008 C 
ENDBRANCH  14  15
ENDBRANCH   9  14
ENDBRANCH   7   8
BRANCH   7  18
ATOM     18  C   UNL A   1      28.395  27.518  23.504  1.00  0.00     0.232 C 
ATOM     19  F   UNL A   1      27.748  26.631  24.316  1.00  0.00    -0.250 F 
ENDBRANCH   7  18
ENDBRANCH   4   7
ENDBRANCH   2   3
ENDBRANCH   1   2
BRANCH   1  20
ATOM     20  C   UNL A   1      33.640  27.689  25.839  1.00  0.00     0.023 C 
BRANCH  20  21
ATOM     21  C   UNL A   1      33.917  28.287  27.214  1.00  0.00     0.116 C 
BRANCH  21  22
ATOM     22  N   UNL A   1      33.696  29.726  27.260  1.00  0.00    -0.352 N 
ATOM     23  C   UNL A   1      34.471  30.708  27.836  1.00  0.00     0.251 C 
ATOM     24  H   UNL A   1      32.876  30.041  26.816  1.00  0.00     0.163 HD
ATOM     25  O   UNL A   1      34.058  31.855  27.906  1.00  0.00    -0.269 OA
BRANCH  23  26
ATOM     26  C   UNL A   1      35.796  30.352  28.393  1.00  0.00     0.039 A 
ATOM     27  C   UNL A   1      35.861  29.772  29.663  1.00  0.00     0.014 A 
ATOM     28  C   UNL A   1      36.961  30.561  27.651  1.00  0.00     0.014 A 
ATOM     29  C   UNL A   1      37.092  29.333  30.156  1.00  0.00     0.010 A 
ATOM     30  C   UNL A   1      38.170  30.050  28.110  1.00  0.00     0.010 A 
ATOM     31  C   UNL A   1      38.251  29.432  29.367  1.00  0.00    -0.014 A 
BRANCH  31  32
ATOM     32  C   UNL A   1      39.548  28.874  29.828  1.00  0.00     0.031 A 
ATOM     33  C   UNL A   1      40.311  29.538  30.941  1.00  0.00     0.074 A 
ATOM     34  C   UNL A   1      40.093  27.830  29.173  1.00  0.00     0.049 A 
ATOM     35  N   UNL A   1      41.482  29.231  31.436  1.00  0.00    -0.248 NA
ATOM     36  C   UNL A   1      39.692  30.723  31.556  1.00  0.00     0.031 C 
ATOM     37  C   UNL A   1      39.503  27.160  28.012  1.00  0.00     0.029 A 
ATOM     38  N   UNL A   1      41.284  27.173  29.366  1.00  0.00    -0.354 N 
ATOM     39  C   UNL A   1      41.757  30.202  32.390  1.00  0.00     0.074 A 
ATOM     40  C   UNL A   1      40.649  31.132  32.375  1.00  0.00     0.031 C 
ATOM     41  C   UNL A   1      40.334  26.191  27.595  1.00  0.00     0.029 A 
ATOM     42  C   UNL A   1      41.526  26.188  28.438  1.00  0.00     0.049 A 
ATOM     43  H   UNL A   1      41.905  27.387  30.100  1.00  0.00     0.167 HD
ATOM     44  C   UNL A   1      42.819  30.298  33.226  1.00  0.00     0.034 A 
ATOM     45  C   UNL A   1      42.591  25.380  28.272  1.00  0.00     0.034 A 
ATOM     46  C   UNL A   1      43.902  29.353  33.263  1.00  0.00     0.049 A 
ATOM     47  C   UNL A   1      43.735  25.466  29.244  1.00  0.00     0.074 A 
ATOM     48  C   UNL A   1      44.969  29.299  34.141  1.00  0.00     0.029 A 
ATOM     49  N   UNL A   1      44.066  28.302  32.372  1.00  0.00    -0.354 N 
ATOM     50  N   UNL A   1      43.894  26.279  30.260  1.00  0.00    -0.248 NA
ATOM     51  C   UNL A   1      44.828  24.497  29.074  1.00  0.00     0.031 C 
ATOM     52  C   UNL A   1      45.794  28.234  33.762  1.00  0.00     0.029 A 
ATOM     53  C   UNL A   1      45.225  27.604  32.668  1.00  0.00     0.049 A 
ATOM     54  H   UNL A   1      43.448  28.085  31.637  1.00  0.00     0.167 HD
ATOM     55  C   UNL A   1      45.088  25.907  30.867  1.00  0.00     0.074 A 
ATOM     56  C   UNL A   1      45.600  24.777  30.116  1.00  0.00     0.031 C 
ATOM     57  C   UNL A   1      45.708  26.457  31.940  1.00  0.00     0.034 A 
BRANCH  44  58
ATOM     58  C   UNL A   1      42.830  31.448  34.201  1.00  0.00     0.023 A 
ATOM     59  C   UNL A   1      43.560  32.617  33.892  1.00  0.00     0.012 A 
ATOM     60  C   UNL A   1      42.109  31.387  35.409  1.00  0.00     0.148 A 
ATOM     61  C   UNL A   1      43.616  33.680  34.792  1.00  0.00     0.002 A 
ATOM     62  C   UNL A   1      42.130  32.473  36.278  1.00  0.00     0.091 A 
ATOM     63  F   UNL A   1      41.438  30.263  35.700  1.00  0.00    -0.205 F 
ATOM     64  C   UNL A   1      42.895  33.612  35.979  1.00  0.00     0.022 A 
BRANCH  62  65
ATOM     65  S   UNL A   1      41.165  32.511  37.793  1.00  0.00     0.127 S 
ATOM     66  O   UNL A   1      41.970  31.668  38.676  1.00  0.00    -0.237 OA
ATOM     67  O   UNL A   1      41.177  33.934  38.132  1.00  0.00    -0.237 OA
ATOM     68  O   UNL A   1      39.854  31.984  37.442  1.00  0.00    -0.744 OA
ENDBRANCH  62  65
ENDBRANCH  44  58
BRANCH  45  69
ATOM     69  C   UNL A   1      42.582  24.377  27.171  1.00  0.00     0.023 A 
ATOM     70  C   UNL A   1      43.366  24.599  26.023  1.00  0.00     0.012 A 
ATOM     71  C   UNL A   1      41.861  23.174  27.290  1.00  0.00     0.148 A 
ATOM     72  C   UNL A   1      43.417  23.648  25.003  1.00  0.00     0.002 A 
ATOM     73  C   UNL A   1      41.961  22.206  26.298  1.00  0.00     0.091 A 
ATOM     74  F   UNL A   1      41.117  22.987  28.390  1.00  0.00    -0.205 F 
ATOM     75  C   UNL A   1      42.726  22.448  25.146  1.00  0.00     0.022 A 
BRANCH  73  76
ATOM     76  S   UNL A   1      41.224  20.576  26.458  1.00  0.00     0.127 S 
ATOM     77  O   UNL A   1      41.476  20.270  27.864  1.00  0.00    -0.237 OA
ATOM     78  O   UNL A   1      39.825  20.848  26.126  1.00  0.00    -0.237 OA
ATOM     79  O   UNL A   1      41.918  19.732  25.496  1.00  0.00    -0.744 OA
ENDBRANCH  73  76
ENDBRANCH  45  69
BRANCH  57  80
ATOM     80  C   UNL A   1      47.004  25.837  32.393  1.00  0.00     0.023 A 
ATOM     81  C   UNL A   1      48.229  26.326  31.896  1.00  0.00     0.012 A 
ATOM     82  C   UNL A   1      47.013  24.822  33.371  1.00  0.00     0.148 A 
ATOM     83  C   UNL A   1      49.439  25.794  32.340  1.00  0.00     0.002 A 
ATOM     84  C   UNL A   1      48.223  24.331  33.847  1.00  0.00     0.091 A 
ATOM     85  F   UNL A   1      45.837  24.356  33.819  1.00  0.00    -0.205 F 
ATOM     86  C   UNL A   1      49.436  24.807  33.324  1.00  0.00     0.022 A 
BRANCH  84  87
ATOM     87  S   UNL A   1      48.318  23.130  35.179  1.00  0.00     0.127 S 
ATOM     88  O   UNL A   1      48.032  23.958  36.349  1.00  0.00    -0.237 OA
ATOM     89  O   UNL A   1      47.255  22.189  34.823  1.00  0.00    -0.237 OA
ATOM     90  O   UNL A   1      49.662  22.571  35.120  1.00  0.00    -0.744 OA
ENDBRANCH  84  87
ENDBRANCH  57  80
ENDBRANCH  31  32
ENDBRANCH  23  26
ENDBRANCH  21  22
ENDBRANCH  20  21
ENDBRANCH   1  20
TORSDOF 18
ENDMDL
