MODEL 1
REMARK VINA RESULT:     -13.2      0.000      0.000
REMARK SMILES Cc1ccc(NC(=O)[C@H]2CC(Cl)=CC[C@@H]2C(=O)NCCCCNC(=O)c2ccc(-c3c4nc(c(-c5cccc(S(=O)(=O)[O-])c5F)c5ccc([nH]5)c(-c5cccc(S(=O)(=O)[O-])c5F)c5nc(c(-c6cccc(S(=O)(=O)[O-])c6F)c6ccc3[nH]6)C=C5)C=C4)cc2)cc1[N+](=O)[O-]
REMARK SMILES IDX 20 1 19 2 18 3 16 4 17 5 15 7 9 8 10 9 11 10 14 11 12 12
REMARK SMILES IDX 13 13 7 14 6 15 8 17 5 18 1 19 2 20 3 21 90 22 4 23 89 24
REMARK SMILES IDX 91 25 92 26 93 27 21 28 22 29 23 30 24 31 25 33 26 34 27 35
REMARK SMILES IDX 88 36 28 37 87 38 29 39 30 40 31 41 81 42 32 43 86 44 80 45
REMARK SMILES IDX 82 46 33 47 85 48 79 49 78 50 34 52 66 53 46 54 65 55 47 56
REMARK SMILES IDX 50 57 64 58 83 59 48 60 49 61 63 63 84 64 51 65 35 66 36 67
REMARK SMILES IDX 44 68 37 69 39 70 45 71 38 72 40 73 41 74 42 75 43 76 67 77
REMARK SMILES IDX 68 78 76 79 69 80 71 81 77 82 70 83 72 84 73 85 74 86 75 87
REMARK SMILES IDX 52 88 53 89 61 90 54 91 56 92 62 93 55 94 57 95 58 96 59 97
REMARK SMILES IDX 60 98
REMARK H PARENT 18 6 6 16 23 32 82 51 50 62
REMARK Flexibility Score: inf
ROOT
ATOM      1  C   UNL A   1      31.512  30.769  25.786  1.00  0.00     0.023 C 
ENDROOT
BRANCH   1   2
ATOM      2  C   UNL A   1      31.405  29.541  24.871  1.00  0.00     0.116 C 
BRANCH   2   3
ATOM      3  N   UNL A   1      32.557  29.321  24.009  1.00  0.00    -0.356 N 
ATOM      4  C   UNL A   1      33.212  28.203  23.601  1.00  0.00     0.224 C 
ATOM      5  O   UNL A   1      34.053  28.339  22.708  1.00  0.00    -0.275 OA
ATOM      6  H   UNL A   1      32.941  30.153  23.646  1.00  0.00     0.163 HD
BRANCH   4   7
ATOM      7  C   UNL A   1      32.997  26.839  24.259  1.00  0.00     0.095 C 
ATOM      8  C   UNL A   1      31.704  26.209  23.688  1.00  0.00     0.097 C 
ATOM      9  C   UNL A   1      31.287  24.953  24.472  1.00  0.00     0.062 C 
ATOM     10  C   UNL A   1      31.146  25.255  25.927  1.00  0.00     0.015 C 
ATOM     11  C   UNL A   1      32.871  27.063  25.800  1.00  0.00     0.043 C 
ATOM     12  Cl  UNL A   1      29.960  24.354  26.793  1.00  0.00    -0.089 Cl
ATOM     13  C   UNL A   1      31.859  26.214  26.526  1.00  0.00    -0.010 C 
BRANCH   8  14
ATOM     14  C   UNL A   1      31.830  25.800  22.231  1.00  0.00     0.228 C 
ATOM     15  N   UNL A   1      32.592  24.756  21.793  1.00  0.00    -0.326 N 
ATOM     16  H   UNL A   1      32.618  24.677  20.812  1.00  0.00     0.169 HD
ATOM     17  O   UNL A   1      31.167  26.398  21.372  1.00  0.00    -0.274 OA
BRANCH  15  18
ATOM     18  C   UNL A   1      33.347  23.771  22.453  1.00  0.00     0.048 A 
ATOM     19  C   UNL A   1      34.901  21.092  25.471  1.00  0.00     0.052 C 
ATOM     20  C   UNL A   1      34.375  21.898  24.318  1.00  0.00     0.027 A 
ATOM     21  C   UNL A   1      35.097  23.044  23.960  1.00  0.00     0.012 A 
ATOM     22  C   UNL A   1      33.200  21.640  23.603  1.00  0.00     0.274 A 
ATOM     23  C   UNL A   1      34.599  23.954  23.022  1.00  0.00     0.027 A 
ATOM     24  C   UNL A   1      32.725  22.535  22.628  1.00  0.00     0.112 A 
BRANCH  22  25
ATOM     25  N   UNL A   1      32.342  20.496  23.898  1.00  0.00     0.063 N 
ATOM     26  O   UNL A   1      32.140  19.697  22.973  1.00  0.00    -0.258 OA
ATOM     27  O   UNL A   1      31.835  20.432  25.023  1.00  0.00    -0.258 OA
ENDBRANCH  22  25
ENDBRANCH  15  18
ENDBRANCH   8  14
ENDBRANCH   4   7
ENDBRANCH   2   3
ENDBRANCH   1   2
BRANCH   1  28
ATOM     28  C   UNL A   1      32.230  30.567  27.118  1.00  0.00     0.023 C 
BRANCH  28  29
ATOM     29  C   UNL A   1      33.747  30.435  27.064  1.00  0.00     0.116 C 
BRANCH  29  30
ATOM     30  N   UNL A   1      34.403  31.374  27.984  1.00  0.00    -0.352 N 
ATOM     31  C   UNL A   1      35.436  31.164  28.887  1.00  0.00     0.251 C 
ATOM     32  H   UNL A   1      34.056  32.295  27.954  1.00  0.00     0.163 HD
ATOM     33  O   UNL A   1      35.809  32.056  29.641  1.00  0.00    -0.269 OA
BRANCH  31  34
ATOM     34  C   UNL A   1      36.142  29.871  28.826  1.00  0.00     0.039 A 
ATOM     35  C   UNL A   1      36.610  29.381  30.048  1.00  0.00     0.014 A 
ATOM     36  C   UNL A   1      36.743  29.523  27.624  1.00  0.00     0.014 A 
ATOM     37  C   UNL A   1      37.884  28.841  30.103  1.00  0.00     0.010 A 
ATOM     38  C   UNL A   1      38.039  29.068  27.683  1.00  0.00     0.010 A 
ATOM     39  C   UNL A   1      38.630  28.822  28.930  1.00  0.00    -0.014 A 
BRANCH  39  40
ATOM     40  C   UNL A   1      40.026  28.450  28.871  1.00  0.00     0.031 A 
ATOM     41  C   UNL A   1      40.314  27.015  28.716  1.00  0.00     0.074 A 
ATOM     42  C   UNL A   1      40.986  29.400  28.818  1.00  0.00     0.049 A 
ATOM     43  N   UNL A   1      41.454  26.470  28.938  1.00  0.00    -0.248 NA
ATOM     44  C   UNL A   1      39.274  26.063  28.342  1.00  0.00     0.031 C 
ATOM     45  C   UNL A   1      42.376  29.217  28.419  1.00  0.00     0.029 A 
ATOM     46  N   UNL A   1      40.947  30.708  29.321  1.00  0.00    -0.354 N 
ATOM     47  C   UNL A   1      41.381  25.169  28.481  1.00  0.00     0.074 A 
ATOM     48  C   UNL A   1      39.984  24.941  28.222  1.00  0.00     0.031 C 
ATOM     49  C   UNL A   1      43.109  30.218  28.930  1.00  0.00     0.029 A 
ATOM     50  C   UNL A   1      42.238  30.963  29.823  1.00  0.00     0.049 A 
ATOM     51  H   UNL A   1      40.176  31.321  29.323  1.00  0.00     0.167 HD
ATOM     52  C   UNL A   1      42.545  24.504  28.242  1.00  0.00     0.034 A 
ATOM     53  C   UNL A   1      42.500  31.216  31.142  1.00  0.00     0.034 A 
ATOM     54  C   UNL A   1      43.681  25.307  28.722  1.00  0.00     0.049 A 
ATOM     55  C   UNL A   1      43.437  30.187  31.762  1.00  0.00     0.074 A 
ATOM     56  C   UNL A   1      44.538  26.199  28.095  1.00  0.00     0.029 A 
ATOM     57  N   UNL A   1      43.829  25.518  30.088  1.00  0.00    -0.354 N 
ATOM     58  N   UNL A   1      43.797  29.079  31.173  1.00  0.00    -0.248 NA
ATOM     59  C   UNL A   1      44.036  30.317  33.088  1.00  0.00     0.031 C 
ATOM     60  C   UNL A   1      45.120  27.023  29.098  1.00  0.00     0.029 A 
ATOM     61  C   UNL A   1      44.656  26.604  30.335  1.00  0.00     0.049 A 
ATOM     62  H   UNL A   1      43.403  24.971  30.787  1.00  0.00     0.167 HD
ATOM     63  C   UNL A   1      44.554  28.312  32.020  1.00  0.00     0.074 A 
ATOM     64  C   UNL A   1      44.733  29.168  33.182  1.00  0.00     0.031 C 
ATOM     65  C   UNL A   1      44.921  27.027  31.710  1.00  0.00     0.034 A 
BRANCH  52  66
ATOM     66  C   UNL A   1      42.709  23.290  27.338  1.00  0.00     0.023 A 
ATOM     67  C   UNL A   1      41.941  22.148  27.666  1.00  0.00     0.012 A 
ATOM     68  C   UNL A   1      43.596  23.132  26.244  1.00  0.00     0.148 A 
ATOM     69  C   UNL A   1      42.098  20.917  27.017  1.00  0.00     0.002 A 
ATOM     70  C   UNL A   1      43.782  21.895  25.617  1.00  0.00     0.091 A 
ATOM     71  F   UNL A   1      44.240  24.186  25.746  1.00  0.00    -0.205 F 
ATOM     72  C   UNL A   1      43.037  20.782  26.006  1.00  0.00     0.022 A 
BRANCH  70  73
ATOM     73  S   UNL A   1      45.004  21.635  24.313  1.00  0.00     0.127 S 
ATOM     74  O   UNL A   1      44.864  20.202  24.044  1.00  0.00    -0.237 OA
ATOM     75  O   UNL A   1      44.512  22.503  23.245  1.00  0.00    -0.237 OA
ATOM     76  O   UNL A   1      46.296  22.013  24.874  1.00  0.00    -0.744 OA
ENDBRANCH  70  73
ENDBRANCH  52  66
BRANCH  53  77
ATOM     77  C   UNL A   1      41.393  31.940  31.834  1.00  0.00     0.023 A 
ATOM     78  C   UNL A   1      41.037  33.201  31.292  1.00  0.00     0.012 A 
ATOM     79  C   UNL A   1      40.469  31.270  32.653  1.00  0.00     0.148 A 
ATOM     80  C   UNL A   1      39.736  33.689  31.405  1.00  0.00     0.002 A 
ATOM     81  C   UNL A   1      39.172  31.771  32.768  1.00  0.00     0.091 A 
ATOM     82  F   UNL A   1      40.840  30.123  33.235  1.00  0.00    -0.205 F 
ATOM     83  C   UNL A   1      38.791  32.948  32.101  1.00  0.00     0.022 A 
BRANCH  81  84
ATOM     84  S   UNL A   1      37.887  30.881  33.656  1.00  0.00     0.127 S 
ATOM     85  O   UNL A   1      38.006  31.453  34.992  1.00  0.00    -0.237 OA
ATOM     86  O   UNL A   1      36.682  31.275  32.928  1.00  0.00    -0.237 OA
ATOM     87  O   UNL A   1      38.241  29.477  33.517  1.00  0.00    -0.744 OA
ENDBRANCH  81  84
ENDBRANCH  53  77
BRANCH  65  88
ATOM     88  C   UNL A   1      45.550  26.022  32.664  1.00  0.00     0.023 A 
ATOM     89  C   UNL A   1      46.941  25.898  32.831  1.00  0.00     0.012 A 
ATOM     90  C   UNL A   1      44.739  25.267  33.557  1.00  0.00     0.148 A 
ATOM     91  C   UNL A   1      47.502  25.040  33.786  1.00  0.00     0.002 A 
ATOM     92  C   UNL A   1      45.300  24.523  34.592  1.00  0.00     0.091 A 
ATOM     93  F   UNL A   1      43.408  25.244  33.400  1.00  0.00    -0.205 F 
ATOM     94  C   UNL A   1      46.682  24.375  34.687  1.00  0.00     0.022 A 
BRANCH  92  95
ATOM     95  S   UNL A   1      44.282  23.891  35.934  1.00  0.00     0.127 S 
ATOM     96  O   UNL A   1      43.695  25.115  36.473  1.00  0.00    -0.237 OA
ATOM     97  O   UNL A   1      43.337  23.023  35.226  1.00  0.00    -0.237 OA
ATOM     98  O   UNL A   1      45.206  23.179  36.805  1.00  0.00    -0.744 OA
ENDBRANCH  92  95
ENDBRANCH  65  88
ENDBRANCH  39  40
ENDBRANCH  31  34
ENDBRANCH  29  30
ENDBRANCH  28  29
ENDBRANCH   1  28
TORSDOF 17
ENDMDL
MODEL 2
REMARK VINA RESULT:     -13.1      3.775      9.365
REMARK SMILES Cc1ccc(NC(=O)[C@H]2CC(Cl)=CC[C@@H]2C(=O)NCCCCNC(=O)c2ccc(-c3c4nc(c(-c5cccc(S(=O)(=O)[O-])c5F)c5ccc([nH]5)c(-c5cccc(S(=O)(=O)[O-])c5F)c5nc(c(-c6cccc(S(=O)(=O)[O-])c6F)c6ccc3[nH]6)C=C5)C=C4)cc2)cc1[N+](=O)[O-]
REMARK SMILES IDX 20 1 19 2 18 3 16 4 17 5 15 7 9 8 10 9 11 10 14 11 12 12
REMARK SMILES IDX 13 13 7 14 6 15 8 17 5 18 1 19 2 20 3 21 90 22 4 23 89 24
REMARK SMILES IDX 91 25 92 26 93 27 21 28 22 29 23 30 24 31 25 33 26 34 27 35
REMARK SMILES IDX 88 36 28 37 87 38 29 39 30 40 31 41 81 42 32 43 86 44 80 45
REMARK SMILES IDX 82 46 33 47 85 48 79 49 78 50 34 52 66 53 46 54 65 55 47 56
REMARK SMILES IDX 50 57 64 58 83 59 48 60 49 61 63 63 84 64 51 65 35 66 36 67
REMARK SMILES IDX 44 68 37 69 39 70 45 71 38 72 40 73 41 74 42 75 43 76 67 77
REMARK SMILES IDX 68 78 76 79 69 80 71 81 77 82 70 83 72 84 73 85 74 86 75 87
REMARK SMILES IDX 52 88 53 89 61 90 54 91 56 92 62 93 55 94 57 95 58 96 59 97
REMARK SMILES IDX 60 98
REMARK H PARENT 18 6 6 16 23 32 82 51 50 62
REMARK Flexibility Score: inf
ROOT
ATOM      1  C   UNL A   1      37.703  21.196  25.008  1.00  0.00     0.023 C 
ENDROOT
BRANCH   1   2
ATOM      2  C   UNL A   1      37.142  22.581  24.653  1.00  0.00     0.116 C 
BRANCH   2   3
ATOM      3  N   UNL A   1      36.071  22.570  23.666  1.00  0.00    -0.356 N 
ATOM      4  C   UNL A   1      35.009  23.386  23.440  1.00  0.00     0.224 C 
ATOM      5  O   UNL A   1      34.378  23.208  22.394  1.00  0.00    -0.275 OA
ATOM      6  H   UNL A   1      36.128  21.817  23.033  1.00  0.00     0.163 HD
BRANCH   4   7
ATOM      7  C   UNL A   1      34.543  24.429  24.456  1.00  0.00     0.095 C 
ATOM      8  C   UNL A   1      33.482  23.786  25.381  1.00  0.00     0.097 C 
ATOM      9  C   UNL A   1      32.788  24.833  26.268  1.00  0.00     0.062 C 
ATOM     10  C   UNL A   1      32.195  25.924  25.441  1.00  0.00     0.015 C 
ATOM     11  C   UNL A   1      33.933  25.631  23.666  1.00  0.00     0.043 C 
ATOM     12  Cl  UNL A   1      30.761  26.662  26.046  1.00  0.00    -0.089 Cl
ATOM     13  C   UNL A   1      32.711  26.281  24.261  1.00  0.00    -0.010 C 
BRANCH   8  14
ATOM     14  C   UNL A   1      34.057  22.730  26.308  1.00  0.00     0.228 C 
ATOM     15  N   UNL A   1      33.813  21.393  26.188  1.00  0.00    -0.326 N 
ATOM     16  H   UNL A   1      34.205  20.857  26.916  1.00  0.00     0.169 HD
ATOM     17  O   UNL A   1      34.844  23.069  27.202  1.00  0.00    -0.274 OA
BRANCH  15  18
ATOM     18  C   UNL A   1      33.118  20.621  25.240  1.00  0.00     0.048 A 
ATOM     19  C   UNL A   1      32.190  18.063  21.879  1.00  0.00     0.052 C 
ATOM     20  C   UNL A   1      32.399  18.868  23.130  1.00  0.00     0.027 A 
ATOM     21  C   UNL A   1      32.162  20.246  23.048  1.00  0.00     0.012 A 
ATOM     22  C   UNL A   1      32.864  18.376  24.356  1.00  0.00     0.274 A 
ATOM     23  C   UNL A   1      32.495  21.106  24.101  1.00  0.00     0.027 A 
ATOM     24  C   UNL A   1      33.155  19.239  25.427  1.00  0.00     0.112 A 
BRANCH  22  25
ATOM     25  N   UNL A   1      33.179  16.966  24.562  1.00  0.00     0.063 N 
ATOM     26  O   UNL A   1      34.180  16.527  23.978  1.00  0.00    -0.258 OA
ATOM     27  O   UNL A   1      32.403  16.299  25.254  1.00  0.00    -0.258 OA
ENDBRANCH  22  25
ENDBRANCH  15  18
ENDBRANCH   8  14
ENDBRANCH   4   7
ENDBRANCH   2   3
ENDBRANCH   1   2
BRANCH   1  28
ATOM     28  C   UNL A   1      39.027  21.172  25.768  1.00  0.00     0.023 C 
BRANCH  28  29
ATOM     29  C   UNL A   1      39.365  22.407  26.595  1.00  0.00     0.116 C 
BRANCH  29  30
ATOM     30  N   UNL A   1      40.775  22.788  26.444  1.00  0.00    -0.352 N 
ATOM     31  C   UNL A   1      41.355  24.045  26.347  1.00  0.00     0.251 C 
ATOM     32  H   UNL A   1      41.407  22.034  26.406  1.00  0.00     0.163 HD
ATOM     33  O   UNL A   1      42.557  24.175  26.142  1.00  0.00    -0.269 OA
BRANCH  31  34
ATOM     34  C   UNL A   1      40.495  25.214  26.614  1.00  0.00     0.039 A 
ATOM     35  C   UNL A   1      40.934  26.422  26.067  1.00  0.00     0.014 A 
ATOM     36  C   UNL A   1      39.693  25.176  27.746  1.00  0.00     0.014 A 
ATOM     37  C   UNL A   1      40.874  27.565  26.847  1.00  0.00     0.010 A 
ATOM     38  C   UNL A   1      39.708  26.284  28.560  1.00  0.00     0.010 A 
ATOM     39  C   UNL A   1      40.381  27.440  28.142  1.00  0.00    -0.014 A 
BRANCH  39  40
ATOM     40  C   UNL A   1      40.419  28.502  29.123  1.00  0.00     0.031 A 
ATOM     41  C   UNL A   1      39.493  29.625  28.905  1.00  0.00     0.074 A 
ATOM     42  C   UNL A   1      41.167  28.375  30.241  1.00  0.00     0.049 A 
ATOM     43  N   UNL A   1      39.585  30.769  29.479  1.00  0.00    -0.248 NA
ATOM     44  C   UNL A   1      38.401  29.540  27.943  1.00  0.00     0.031 C 
ATOM     45  C   UNL A   1      41.058  29.166  31.460  1.00  0.00     0.029 A 
ATOM     46  N   UNL A   1      42.337  27.624  30.427  1.00  0.00    -0.354 N 
ATOM     47  C   UNL A   1      38.431  31.467  29.185  1.00  0.00     0.074 A 
ATOM     48  C   UNL A   1      37.785  30.704  28.149  1.00  0.00     0.031 C 
ATOM     49  C   UNL A   1      42.219  29.089  32.132  1.00  0.00     0.029 A 
ATOM     50  C   UNL A   1      43.160  28.400  31.266  1.00  0.00     0.049 A 
ATOM     51  H   UNL A   1      42.539  26.737  30.049  1.00  0.00     0.167 HD
ATOM     52  C   UNL A   1      38.102  32.529  29.972  1.00  0.00     0.034 A 
ATOM     53  C   UNL A   1      44.378  28.892  30.884  1.00  0.00     0.034 A 
ATOM     54  C   UNL A   1      39.207  32.818  30.900  1.00  0.00     0.049 A 
ATOM     55  C   UNL A   1      44.435  30.413  30.921  1.00  0.00     0.074 A 
ATOM     56  C   UNL A   1      39.458  32.445  32.212  1.00  0.00     0.029 A 
ATOM     57  N   UNL A   1      40.410  33.290  30.390  1.00  0.00    -0.354 N 
ATOM     58  N   UNL A   1      43.393  31.178  31.101  1.00  0.00    -0.248 NA
ATOM     59  C   UNL A   1      45.658  31.194  30.752  1.00  0.00     0.031 C 
ATOM     60  C   UNL A   1      40.853  32.599  32.449  1.00  0.00     0.029 A 
ATOM     61  C   UNL A   1      41.440  33.106  31.301  1.00  0.00     0.049 A 
ATOM     62  H   UNL A   1      40.517  33.700  29.502  1.00  0.00     0.167 HD
ATOM     63  C   UNL A   1      43.741  32.498  30.976  1.00  0.00     0.074 A 
ATOM     64  C   UNL A   1      45.187  32.453  30.829  1.00  0.00     0.031 C 
ATOM     65  C   UNL A   1      42.805  33.501  30.954  1.00  0.00     0.034 A 
BRANCH  52  66
ATOM     66  C   UNL A   1      36.711  33.130  30.122  1.00  0.00     0.023 A 
ATOM     67  C   UNL A   1      36.129  33.680  28.957  1.00  0.00     0.012 A 
ATOM     68  C   UNL A   1      35.950  33.276  31.309  1.00  0.00     0.148 A 
ATOM     69  C   UNL A   1      34.925  34.395  28.975  1.00  0.00     0.002 A 
ATOM     70  C   UNL A   1      34.765  34.021  31.338  1.00  0.00     0.091 A 
ATOM     71  F   UNL A   1      36.322  32.653  32.425  1.00  0.00    -0.205 F 
ATOM     72  C   UNL A   1      34.253  34.587  30.171  1.00  0.00     0.022 A 
BRANCH  70  73
ATOM     73  S   UNL A   1      33.848  34.337  32.861  1.00  0.00     0.127 S 
ATOM     74  O   UNL A   1      32.757  35.193  32.390  1.00  0.00    -0.237 OA
ATOM     75  O   UNL A   1      33.435  32.994  33.264  1.00  0.00    -0.237 OA
ATOM     76  O   UNL A   1      34.774  35.000  33.773  1.00  0.00    -0.744 OA
ENDBRANCH  70  73
ENDBRANCH  52  66
BRANCH  53  77
ATOM     77  C   UNL A   1      45.101  27.998  29.931  1.00  0.00     0.023 A 
ATOM     78  C   UNL A   1      45.310  26.664  30.361  1.00  0.00     0.012 A 
ATOM     79  C   UNL A   1      45.174  28.286  28.558  1.00  0.00     0.148 A 
ATOM     80  C   UNL A   1      45.396  25.619  29.442  1.00  0.00     0.002 A 
ATOM     81  C   UNL A   1      45.271  27.235  27.646  1.00  0.00     0.091 A 
ATOM     82  F   UNL A   1      45.067  29.560  28.162  1.00  0.00    -0.205 F 
ATOM     83  C   UNL A   1      45.326  25.901  28.085  1.00  0.00     0.022 A 
BRANCH  81  84
ATOM     84  S   UNL A   1      45.196  27.509  25.870  1.00  0.00     0.127 S 
ATOM     85  O   UNL A   1      46.415  28.278  25.643  1.00  0.00    -0.237 OA
ATOM     86  O   UNL A   1      45.228  26.145  25.348  1.00  0.00    -0.237 OA
ATOM     87  O   UNL A   1      43.939  28.208  25.654  1.00  0.00    -0.744 OA
ENDBRANCH  81  84
ENDBRANCH  53  77
BRANCH  65  88
ATOM     88  C   UNL A   1      43.063  34.956  30.588  1.00  0.00     0.023 A 
ATOM     89  C   UNL A   1      43.512  35.908  31.521  1.00  0.00     0.012 A 
ATOM     90  C   UNL A   1      43.013  35.381  29.231  1.00  0.00     0.148 A 
ATOM     91  C   UNL A   1      43.842  37.218  31.148  1.00  0.00     0.002 A 
ATOM     92  C   UNL A   1      43.471  36.638  28.848  1.00  0.00     0.091 A 
ATOM     93  F   UNL A   1      42.497  34.572  28.293  1.00  0.00    -0.205 F 
ATOM     94  C   UNL A   1      43.850  37.574  29.807  1.00  0.00     0.022 A 
BRANCH  92  95
ATOM     95  S   UNL A   1      43.764  37.027  27.116  1.00  0.00     0.127 S 
ATOM     96  O   UNL A   1      42.406  37.216  26.612  1.00  0.00    -0.237 OA
ATOM     97  O   UNL A   1      44.558  38.255  27.202  1.00  0.00    -0.237 OA
ATOM     98  O   UNL A   1      44.494  35.882  26.590  1.00  0.00    -0.744 OA
ENDBRANCH  92  95
ENDBRANCH  65  88
ENDBRANCH  39  40
ENDBRANCH  31  34
ENDBRANCH  29  30
ENDBRANCH  28  29
ENDBRANCH   1  28
TORSDOF 17
ENDMDL
MODEL 3
REMARK VINA RESULT:     -12.9      1.691      2.060
REMARK SMILES Cc1ccc(NC(=O)[C@H]2CC(Cl)=CC[C@@H]2C(=O)NCCCCNC(=O)c2ccc(-c3c4nc(c(-c5cccc(S(=O)(=O)[O-])c5F)c5ccc([nH]5)c(-c5cccc(S(=O)(=O)[O-])c5F)c5nc(c(-c6cccc(S(=O)(=O)[O-])c6F)c6ccc3[nH]6)C=C5)C=C4)cc2)cc1[N+](=O)[O-]
REMARK SMILES IDX 20 1 19 2 18 3 16 4 17 5 15 7 9 8 10 9 11 10 14 11 12 12
REMARK SMILES IDX 13 13 7 14 6 15 8 17 5 18 1 19 2 20 3 21 90 22 4 23 89 24
REMARK SMILES IDX 91 25 92 26 93 27 21 28 22 29 23 30 24 31 25 33 26 34 27 35
REMARK SMILES IDX 88 36 28 37 87 38 29 39 30 40 31 41 81 42 32 43 86 44 80 45
REMARK SMILES IDX 82 46 33 47 85 48 79 49 78 50 34 52 66 53 46 54 65 55 47 56
REMARK SMILES IDX 50 57 64 58 83 59 48 60 49 61 63 63 84 64 51 65 35 66 36 67
REMARK SMILES IDX 44 68 37 69 39 70 45 71 38 72 40 73 41 74 42 75 43 76 67 77
REMARK SMILES IDX 68 78 76 79 69 80 71 81 77 82 70 83 72 84 73 85 74 86 75 87
REMARK SMILES IDX 52 88 53 89 61 90 54 91 56 92 62 93 55 94 57 95 58 96 59 97
REMARK SMILES IDX 60 98
REMARK H PARENT 18 6 6 16 23 32 82 51 50 62
REMARK Flexibility Score: inf
ROOT
ATOM      1  C   UNL A   1      31.690  30.724  25.989  1.00  0.00     0.023 C 
ENDROOT
BRANCH   1   2
ATOM      2  C   UNL A   1      31.497  29.576  24.989  1.00  0.00     0.116 C 
BRANCH   2   3
ATOM      3  N   UNL A   1      32.636  29.331  24.114  1.00  0.00    -0.356 N 
ATOM      4  C   UNL A   1      33.251  28.198  23.687  1.00  0.00     0.224 C 
ATOM      5  O   UNL A   1      34.090  28.320  22.789  1.00  0.00    -0.275 OA
ATOM      6  H   UNL A   1      33.044  30.155  23.761  1.00  0.00     0.163 HD
BRANCH   4   7
ATOM      7  C   UNL A   1      32.997  26.833  24.326  1.00  0.00     0.095 C 
ATOM      8  C   UNL A   1      31.703  26.234  23.726  1.00  0.00     0.097 C 
ATOM      9  C   UNL A   1      31.246  24.979  24.489  1.00  0.00     0.062 C 
ATOM     10  C   UNL A   1      31.083  25.271  25.944  1.00  0.00     0.015 C 
ATOM     11  C   UNL A   1      32.845  27.044  25.867  1.00  0.00     0.043 C 
ATOM     12  Cl  UNL A   1      29.864  24.385  26.778  1.00  0.00    -0.089 Cl
ATOM     13  C   UNL A   1      31.804  26.209  26.565  1.00  0.00    -0.010 C 
BRANCH   8  14
ATOM     14  C   UNL A   1      31.848  25.836  22.267  1.00  0.00     0.228 C 
ATOM     15  N   UNL A   1      32.618  24.797  21.832  1.00  0.00    -0.326 N 
ATOM     16  H   UNL A   1      32.657  24.724  20.850  1.00  0.00     0.169 HD
ATOM     17  O   UNL A   1      31.197  26.439  21.404  1.00  0.00    -0.274 OA
BRANCH  15  18
ATOM     18  C   UNL A   1      33.365  23.807  22.494  1.00  0.00     0.048 A 
ATOM     19  C   UNL A   1      34.961  21.185  25.541  1.00  0.00     0.052 C 
ATOM     20  C   UNL A   1      34.410  21.967  24.382  1.00  0.00     0.027 A 
ATOM     21  C   UNL A   1      35.158  23.067  23.944  1.00  0.00     0.012 A 
ATOM     22  C   UNL A   1      33.191  21.730  23.736  1.00  0.00     0.274 A 
ATOM     23  C   UNL A   1      34.650  23.960  22.993  1.00  0.00     0.027 A 
ATOM     24  C   UNL A   1      32.704  22.606  22.749  1.00  0.00     0.112 A 
BRANCH  22  25
ATOM     25  N   UNL A   1      32.305  20.636  24.118  1.00  0.00     0.063 N 
ATOM     26  O   UNL A   1      31.579  20.824  25.105  1.00  0.00    -0.258 OA
ATOM     27  O   UNL A   1      32.377  19.585  23.472  1.00  0.00    -0.258 OA
ENDBRANCH  22  25
ENDBRANCH  15  18
ENDBRANCH   8  14
ENDBRANCH   4   7
ENDBRANCH   2   3
ENDBRANCH   1   2
BRANCH   1  28
ATOM     28  C   UNL A   1      32.584  30.438  27.192  1.00  0.00     0.023 C 
BRANCH  28  29
ATOM     29  C   UNL A   1      34.077  30.686  27.011  1.00  0.00     0.116 C 
BRANCH  29  30
ATOM     30  N   UNL A   1      34.614  31.543  28.075  1.00  0.00    -0.352 N 
ATOM     31  C   UNL A   1      35.558  31.266  29.054  1.00  0.00     0.251 C 
ATOM     32  H   UNL A   1      34.248  32.458  28.097  1.00  0.00     0.163 HD
ATOM     33  O   UNL A   1      35.831  32.088  29.922  1.00  0.00    -0.269 OA
BRANCH  31  34
ATOM     34  C   UNL A   1      36.300  29.996  28.944  1.00  0.00     0.039 A 
ATOM     35  C   UNL A   1      36.737  29.447  30.152  1.00  0.00     0.014 A 
ATOM     36  C   UNL A   1      36.952  29.735  27.747  1.00  0.00     0.014 A 
ATOM     37  C   UNL A   1      38.023  28.936  30.223  1.00  0.00     0.010 A 
ATOM     38  C   UNL A   1      38.257  29.310  27.827  1.00  0.00     0.010 A 
ATOM     39  C   UNL A   1      38.810  29.005  29.079  1.00  0.00    -0.014 A 
BRANCH  39  40
ATOM     40  C   UNL A   1      40.217  28.672  29.050  1.00  0.00     0.031 A 
ATOM     41  C   UNL A   1      40.548  27.255  28.828  1.00  0.00     0.074 A 
ATOM     42  C   UNL A   1      41.152  29.647  29.082  1.00  0.00     0.049 A 
ATOM     43  N   UNL A   1      41.694  26.727  29.062  1.00  0.00    -0.248 NA
ATOM     44  C   UNL A   1      39.549  26.299  28.367  1.00  0.00     0.031 C 
ATOM     45  C   UNL A   1      42.559  29.521  28.723  1.00  0.00     0.029 A 
ATOM     46  N   UNL A   1      41.061  30.924  29.653  1.00  0.00    -0.354 N 
ATOM     47  C   UNL A   1      41.673  25.452  28.534  1.00  0.00     0.074 A 
ATOM     48  C   UNL A   1      40.292  25.203  28.213  1.00  0.00     0.031 C 
ATOM     49  C   UNL A   1      43.248  30.511  29.313  1.00  0.00     0.029 A 
ATOM     50  C   UNL A   1      42.327  31.184  30.213  1.00  0.00     0.049 A 
ATOM     51  H   UNL A   1      40.274  31.517  29.659  1.00  0.00     0.167 HD
ATOM     52  C   UNL A   1      42.862  24.830  28.301  1.00  0.00     0.034 A 
ATOM     53  C   UNL A   1      42.537  31.371  31.552  1.00  0.00     0.034 A 
ATOM     54  C   UNL A   1      43.959  25.635  28.863  1.00  0.00     0.049 A 
ATOM     55  C   UNL A   1      43.479  30.335  32.149  1.00  0.00     0.074 A 
ATOM     56  C   UNL A   1      44.811  26.580  28.315  1.00  0.00     0.029 A 
ATOM     57  N   UNL A   1      44.054  25.775  30.243  1.00  0.00    -0.354 N 
ATOM     58  N   UNL A   1      43.888  29.270  31.515  1.00  0.00    -0.248 NA
ATOM     59  C   UNL A   1      44.028  30.407  33.501  1.00  0.00     0.031 C 
ATOM     60  C   UNL A   1      45.337  27.363  29.382  1.00  0.00     0.029 A 
ATOM     61  C   UNL A   1      44.842  26.866  30.577  1.00  0.00     0.049 A 
ATOM     62  H   UNL A   1      43.619  25.179  30.896  1.00  0.00     0.167 HD
ATOM     63  C   UNL A   1      44.637  28.477  32.347  1.00  0.00     0.074 A 
ATOM     64  C   UNL A   1      44.752  29.272  33.558  1.00  0.00     0.031 C 
ATOM     65  C   UNL A   1      45.048  27.220  31.981  1.00  0.00     0.034 A 
BRANCH  52  66
ATOM     66  C   UNL A   1      43.089  23.671  27.340  1.00  0.00     0.023 A 
ATOM     67  C   UNL A   1      43.902  23.933  26.213  1.00  0.00     0.012 A 
ATOM     68  C   UNL A   1      42.522  22.373  27.393  1.00  0.00     0.148 A 
ATOM     69  C   UNL A   1      44.076  23.012  25.173  1.00  0.00     0.002 A 
ATOM     70  C   UNL A   1      42.664  21.463  26.339  1.00  0.00     0.091 A 
ATOM     71  F   UNL A   1      41.881  21.966  28.486  1.00  0.00    -0.205 F 
ATOM     72  C   UNL A   1      43.437  21.783  25.223  1.00  0.00     0.022 A 
BRANCH  70  73
ATOM     73  S   UNL A   1      41.842  19.856  26.319  1.00  0.00     0.127 S 
ATOM     74  O   UNL A   1      42.432  19.224  25.138  1.00  0.00    -0.237 OA
ATOM     75  O   UNL A   1      42.261  19.274  27.593  1.00  0.00    -0.237 OA
ATOM     76  O   UNL A   1      40.412  20.123  26.201  1.00  0.00    -0.744 OA
ENDBRANCH  70  73
ENDBRANCH  52  66
BRANCH  53  77
ATOM     77  C   UNL A   1      41.387  32.029  32.242  1.00  0.00     0.023 A 
ATOM     78  C   UNL A   1      41.022  33.312  31.762  1.00  0.00     0.012 A 
ATOM     79  C   UNL A   1      40.449  31.292  32.983  1.00  0.00     0.148 A 
ATOM     80  C   UNL A   1      39.706  33.764  31.852  1.00  0.00     0.002 A 
ATOM     81  C   UNL A   1      39.137  31.757  33.077  1.00  0.00     0.091 A 
ATOM     82  F   UNL A   1      40.825  30.120  33.511  1.00  0.00    -0.205 F 
ATOM     83  C   UNL A   1      38.754  32.963  32.466  1.00  0.00     0.022 A 
BRANCH  81  84
ATOM     84  S   UNL A   1      37.841  30.788  33.860  1.00  0.00     0.127 S 
ATOM     85  O   UNL A   1      36.654  31.270  33.160  1.00  0.00    -0.237 OA
ATOM     86  O   UNL A   1      38.234  29.421  33.525  1.00  0.00    -0.237 OA
ATOM     87  O   UNL A   1      37.935  31.113  35.275  1.00  0.00    -0.744 OA
ENDBRANCH  81  84
ENDBRANCH  53  77
BRANCH  65  88
ATOM     88  C   UNL A   1      45.671  26.180  32.902  1.00  0.00     0.023 A 
ATOM     89  C   UNL A   1      44.922  25.158  33.513  1.00  0.00     0.012 A 
ATOM     90  C   UNL A   1      47.084  26.102  33.054  1.00  0.00     0.148 A 
ATOM     91  C   UNL A   1      45.525  24.149  34.276  1.00  0.00     0.002 A 
ATOM     92  C   UNL A   1      47.685  25.023  33.697  1.00  0.00     0.091 A 
ATOM     93  F   UNL A   1      47.865  27.090  32.594  1.00  0.00    -0.205 F 
ATOM     94  C   UNL A   1      46.908  24.063  34.342  1.00  0.00     0.022 A 
BRANCH  92  95
ATOM     95  S   UNL A   1      49.455  24.731  33.555  1.00  0.00     0.127 S 
ATOM     96  O   UNL A   1      49.667  24.843  32.114  1.00  0.00    -0.237 OA
ATOM     97  O   UNL A   1      50.016  25.832  34.342  1.00  0.00    -0.237 OA
ATOM     98  O   UNL A   1      49.668  23.414  34.140  1.00  0.00    -0.744 OA
ENDBRANCH  92  95
ENDBRANCH  65  88
ENDBRANCH  39  40
ENDBRANCH  31  34
ENDBRANCH  29  30
ENDBRANCH  28  29
ENDBRANCH   1  28
TORSDOF 17
ENDMDL
