MODEL 1
REMARK VINA RESULT:     -11.9      0.000      0.000
REMARK SMILES Cc1ccc(C(=O)NCCCCNC(=O)c2ccc(-c3c4nc(c(-c5cccc(S(=O)(=O)[O-])c5F)c5ccc([nH]5)c(-c5cccc(S(=O)(=O)[O-])c5F)c5nc(c(-c6cccc(S(=O)(=O)[O-])c6F)c6ccc3[nH]6)C=C5)C=C4)cc2)cc1/[NH+]=C1\NCCS1
REMARK SMILES IDX 11 1 10 2 9 3 8 4 6 5 7 6 5 8 1 9 2 10 3 11 80 12 4 13 79 14
REMARK SMILES IDX 81 15 82 16 83 18 86 19 84 20 85 22 12 23 13 24 14 25 15 27
REMARK SMILES IDX 16 28 17 29 78 30 18 31 77 32 19 33 20 34 21 35 71 36 22 37
REMARK SMILES IDX 76 38 70 39 72 40 23 41 75 42 69 43 68 44 24 46 56 47 36 48
REMARK SMILES IDX 55 49 37 50 40 51 54 52 73 53 38 54 39 55 53 57 74 58 41 59
REMARK SMILES IDX 25 60 26 61 34 62 27 63 29 64 35 65 28 66 30 67 31 68 32 69
REMARK SMILES IDX 33 70 57 71 58 72 66 73 59 74 61 75 67 76 60 77 62 78 63 79
REMARK SMILES IDX 64 80 65 81 42 82 43 83 51 84 44 85 46 86 52 87 45 88 47 89
REMARK SMILES IDX 48 90 49 91 50 92
REMARK H PARENT 8 7 81 17 83 21 13 26 72 45 40 56
REMARK Flexibility Score: inf
ROOT
ATOM      1  C   UNL A   1      33.301  29.845  26.102  1.00  0.00     0.023 C 
ENDROOT
BRANCH   1   2
ATOM      2  C   UNL A   1      31.865  29.307  25.953  1.00  0.00     0.023 C 
BRANCH   2   3
ATOM      3  C   UNL A   1      31.227  29.512  24.568  1.00  0.00     0.116 C 
BRANCH   3   4
ATOM      4  N   UNL A   1      32.207  29.378  23.507  1.00  0.00    -0.352 N 
ATOM      5  C   UNL A   1      32.859  28.315  22.942  1.00  0.00     0.251 C 
ATOM      6  O   UNL A   1      33.683  28.585  22.063  1.00  0.00    -0.269 OA
ATOM      7  H   UNL A   1      32.457  30.241  23.105  1.00  0.00     0.163 HD
BRANCH   5   8
ATOM      8  C   UNL A   1      32.651  26.877  23.297  1.00  0.00     0.044 A 
ATOM      9  C   UNL A   1      31.641  22.754  24.213  1.00  0.00     0.049 C 
ATOM     10  C   UNL A   1      32.012  24.178  23.916  1.00  0.00    -0.004 A 
ATOM     11  C   UNL A   1      31.179  24.934  23.085  1.00  0.00     0.008 A 
ATOM     12  C   UNL A   1      33.188  24.766  24.404  1.00  0.00     0.129 A 
ATOM     13  C   UNL A   1      31.489  26.266  22.792  1.00  0.00     0.014 A 
ATOM     14  C   UNL A   1      33.496  26.094  24.078  1.00  0.00     0.065 A 
BRANCH  12  15
ATOM     15  N   UNL A   1      34.077  24.094  25.255  1.00  0.00    -0.235 N 
ATOM     16  C   UNL A   1      35.117  23.543  24.742  1.00  0.00     0.309 C 
ATOM     17  H   UNL A   1      33.908  24.046  26.224  1.00  0.00     0.313 HD
ATOM     18  N   UNL A   1      35.534  23.461  23.450  1.00  0.00    -0.268 N 
ATOM     19  S   UNL A   1      36.239  22.694  25.798  1.00  0.00    -0.035 SA
ATOM     20  C   UNL A   1      36.757  22.746  23.192  1.00  0.00     0.246 C 
ATOM     21  H   UNL A   1      35.021  23.877  22.718  1.00  0.00     0.305 HD
ATOM     22  C   UNL A   1      36.981  21.821  24.387  1.00  0.00     0.128 C 
ENDBRANCH  12  15
ENDBRANCH   5   8
ENDBRANCH   3   4
ENDBRANCH   2   3
ENDBRANCH   1   2
BRANCH   1  23
ATOM     23  C   UNL A   1      33.542  30.538  27.432  1.00  0.00     0.116 C 
BRANCH  23  24
ATOM     24  N   UNL A   1      34.571  31.553  27.375  1.00  0.00    -0.352 N 
ATOM     25  C   UNL A   1      35.838  31.596  27.929  1.00  0.00     0.251 C 
ATOM     26  H   UNL A   1      34.326  32.351  26.854  1.00  0.00     0.163 HD
ATOM     27  O   UNL A   1      36.327  32.701  28.086  1.00  0.00    -0.269 OA
BRANCH  25  28
ATOM     28  C   UNL A   1      36.657  30.366  28.145  1.00  0.00     0.039 A 
ATOM     29  C   UNL A   1      36.722  29.859  29.454  1.00  0.00     0.014 A 
ATOM     30  C   UNL A   1      37.572  29.908  27.208  1.00  0.00     0.014 A 
ATOM     31  C   UNL A   1      37.847  29.157  29.874  1.00  0.00     0.010 A 
ATOM     32  C   UNL A   1      38.738  29.340  27.638  1.00  0.00     0.010 A 
ATOM     33  C   UNL A   1      38.900  29.048  28.989  1.00  0.00    -0.014 A 
BRANCH  33  34
ATOM     34  C   UNL A   1      40.231  28.578  29.296  1.00  0.00     0.031 A 
ATOM     35  C   UNL A   1      40.500  27.149  29.116  1.00  0.00     0.074 A 
ATOM     36  C   UNL A   1      41.178  29.539  29.219  1.00  0.00     0.049 A 
ATOM     37  N   UNL A   1      41.659  26.618  29.249  1.00  0.00    -0.248 NA
ATOM     38  C   UNL A   1      39.459  26.187  28.750  1.00  0.00     0.031 C 
ATOM     39  C   UNL A   1      42.557  29.447  28.760  1.00  0.00     0.029 A 
ATOM     40  N   UNL A   1      41.066  30.851  29.668  1.00  0.00    -0.354 N 
ATOM     41  C   UNL A   1      41.593  25.384  28.646  1.00  0.00     0.074 A 
ATOM     42  C   UNL A   1      40.191  25.095  28.513  1.00  0.00     0.031 C 
ATOM     43  C   UNL A   1      43.229  30.539  29.175  1.00  0.00     0.029 A 
ATOM     44  C   UNL A   1      42.345  31.251  30.086  1.00  0.00     0.049 A 
ATOM     45  H   UNL A   1      40.246  31.396  29.691  1.00  0.00     0.167 HD
ATOM     46  C   UNL A   1      42.747  24.854  28.164  1.00  0.00     0.034 A 
ATOM     47  C   UNL A   1      42.570  31.390  31.433  1.00  0.00     0.034 A 
ATOM     48  C   UNL A   1      43.899  25.632  28.647  1.00  0.00     0.049 A 
ATOM     49  C   UNL A   1      43.527  30.339  31.975  1.00  0.00     0.074 A 
ATOM     50  C   UNL A   1      44.727  26.566  28.051  1.00  0.00     0.029 A 
ATOM     51  N   UNL A   1      44.099  25.752  30.023  1.00  0.00    -0.354 N 
ATOM     52  N   UNL A   1      43.849  29.243  31.342  1.00  0.00    -0.248 NA
ATOM     53  C   UNL A   1      44.242  30.468  33.241  1.00  0.00     0.031 C 
ATOM     54  C   UNL A   1      45.302  27.357  29.091  1.00  0.00     0.029 A 
ATOM     55  C   UNL A   1      44.871  26.867  30.314  1.00  0.00     0.049 A 
ATOM     56  H   UNL A   1      43.740  25.130  30.696  1.00  0.00     0.167 HD
ATOM     57  C   UNL A   1      44.716  28.497  32.087  1.00  0.00     0.074 A 
ATOM     58  C   UNL A   1      44.971  29.337  33.249  1.00  0.00     0.031 C 
ATOM     59  C   UNL A   1      45.127  27.246  31.705  1.00  0.00     0.034 A 
BRANCH  46  60
ATOM     60  C   UNL A   1      42.856  23.769  27.108  1.00  0.00     0.023 A 
ATOM     61  C   UNL A   1      43.459  24.137  25.885  1.00  0.00     0.012 A 
ATOM     62  C   UNL A   1      42.329  22.451  27.169  1.00  0.00     0.148 A 
ATOM     63  C   UNL A   1      43.539  23.263  24.793  1.00  0.00     0.002 A 
ATOM     64  C   UNL A   1      42.474  21.556  26.104  1.00  0.00     0.091 A 
ATOM     65  F   UNL A   1      41.592  22.067  28.214  1.00  0.00    -0.205 F 
ATOM     66  C   UNL A   1      43.065  21.965  24.908  1.00  0.00     0.022 A 
BRANCH  64  67
ATOM     67  S   UNL A   1      41.938  19.834  26.200  1.00  0.00     0.127 S 
ATOM     68  O   UNL A   1      40.494  19.947  25.995  1.00  0.00    -0.237 OA
ATOM     69  O   UNL A   1      42.662  19.218  25.088  1.00  0.00    -0.237 OA
ATOM     70  O   UNL A   1      42.341  19.354  27.517  1.00  0.00    -0.744 OA
ENDBRANCH  64  67
ENDBRANCH  46  60
BRANCH  47  71
ATOM     71  C   UNL A   1      41.348  31.936  32.128  1.00  0.00     0.023 A 
ATOM     72  C   UNL A   1      40.865  33.177  31.633  1.00  0.00     0.012 A 
ATOM     73  C   UNL A   1      40.450  31.092  32.808  1.00  0.00     0.148 A 
ATOM     74  C   UNL A   1      39.495  33.447  31.593  1.00  0.00     0.002 A 
ATOM     75  C   UNL A   1      39.084  31.396  32.809  1.00  0.00     0.091 A 
ATOM     76  F   UNL A   1      40.922  29.979  33.387  1.00  0.00    -0.205 F 
ATOM     77  C   UNL A   1      38.601  32.531  32.136  1.00  0.00     0.022 A 
BRANCH  75  78
ATOM     78  S   UNL A   1      37.882  30.308  33.589  1.00  0.00     0.127 S 
ATOM     79  O   UNL A   1      38.044  30.651  34.998  1.00  0.00    -0.237 OA
ATOM     80  O   UNL A   1      36.611  30.737  33.004  1.00  0.00    -0.237 OA
ATOM     81  O   UNL A   1      38.285  28.961  33.205  1.00  0.00    -0.744 OA
ENDBRANCH  75  78
ENDBRANCH  47  71
BRANCH  59  82
ATOM     82  C   UNL A   1      45.828  26.259  32.622  1.00  0.00     0.023 A 
ATOM     83  C   UNL A   1      47.230  26.225  32.748  1.00  0.00     0.012 A 
ATOM     84  C   UNL A   1      45.091  25.432  33.509  1.00  0.00     0.148 A 
ATOM     85  C   UNL A   1      47.876  25.354  33.631  1.00  0.00     0.002 A 
ATOM     86  C   UNL A   1      45.734  24.662  34.474  1.00  0.00     0.091 A 
ATOM     87  F   UNL A   1      43.755  25.370  33.416  1.00  0.00    -0.205 F 
ATOM     88  C   UNL A   1      47.127  24.586  34.510  1.00  0.00     0.022 A 
BRANCH  86  89
ATOM     89  S   UNL A   1      44.818  23.866  35.802  1.00  0.00     0.127 S 
ATOM     90  O   UNL A   1      45.895  23.326  36.628  1.00  0.00    -0.237 OA
ATOM     91  O   UNL A   1      44.096  24.991  36.400  1.00  0.00    -0.237 OA
ATOM     92  O   UNL A   1      43.959  22.886  35.150  1.00  0.00    -0.744 OA
ENDBRANCH  86  89
ENDBRANCH  59  82
ENDBRANCH  33  34
ENDBRANCH  25  28
ENDBRANCH  23  24
ENDBRANCH   1  23
TORSDOF 15
ENDMDL
MODEL 2
REMARK VINA RESULT:     -11.8      3.921      9.153
REMARK SMILES Cc1ccc(C(=O)NCCCCNC(=O)c2ccc(-c3c4nc(c(-c5cccc(S(=O)(=O)[O-])c5F)c5ccc([nH]5)c(-c5cccc(S(=O)(=O)[O-])c5F)c5nc(c(-c6cccc(S(=O)(=O)[O-])c6F)c6ccc3[nH]6)C=C5)C=C4)cc2)cc1/[NH+]=C1\NCCS1
REMARK SMILES IDX 11 1 10 2 9 3 8 4 6 5 7 6 5 8 1 9 2 10 3 11 80 12 4 13 79 14
REMARK SMILES IDX 81 15 82 16 83 18 86 19 84 20 85 22 12 23 13 24 14 25 15 27
REMARK SMILES IDX 16 28 17 29 78 30 18 31 77 32 19 33 20 34 21 35 71 36 22 37
REMARK SMILES IDX 76 38 70 39 72 40 23 41 75 42 69 43 68 44 24 46 56 47 36 48
REMARK SMILES IDX 55 49 37 50 40 51 54 52 73 53 38 54 39 55 53 57 74 58 41 59
REMARK SMILES IDX 25 60 26 61 34 62 27 63 29 64 35 65 28 66 30 67 31 68 32 69
REMARK SMILES IDX 33 70 57 71 58 72 66 73 59 74 61 75 67 76 60 77 62 78 63 79
REMARK SMILES IDX 64 80 65 81 42 82 43 83 51 84 44 85 46 86 52 87 45 88 47 89
REMARK SMILES IDX 48 90 49 91 50 92
REMARK H PARENT 8 7 81 17 83 21 13 26 72 45 40 56
REMARK Flexibility Score: inf
ROOT
ATOM      1  C   UNL A   1      36.883  21.752  25.923  1.00  0.00     0.023 C 
ENDROOT
BRANCH   1   2
ATOM      2  C   UNL A   1      36.299  20.685  24.977  1.00  0.00     0.023 C 
BRANCH   2   3
ATOM      3  C   UNL A   1      34.767  20.552  25.003  1.00  0.00     0.116 C 
BRANCH   3   4
ATOM      4  N   UNL A   1      34.229  20.864  26.313  1.00  0.00    -0.352 N 
ATOM      5  C   UNL A   1      33.409  21.849  26.796  1.00  0.00     0.251 C 
ATOM      6  O   UNL A   1      33.189  21.830  28.011  1.00  0.00    -0.269 OA
ATOM      7  H   UNL A   1      34.516  20.228  27.008  1.00  0.00     0.163 HD
BRANCH   5   8
ATOM      8  C   UNL A   1      32.765  22.925  25.979  1.00  0.00     0.044 A 
ATOM      9  C   UNL A   1      30.710  25.737  23.386  1.00  0.00     0.049 C 
ATOM     10  C   UNL A   1      31.442  24.785  24.287  1.00  0.00    -0.004 A 
ATOM     11  C   UNL A   1      30.992  23.463  24.382  1.00  0.00     0.008 A 
ATOM     12  C   UNL A   1      32.533  25.182  25.073  1.00  0.00     0.129 A 
ATOM     13  C   UNL A   1      31.653  22.547  25.207  1.00  0.00     0.014 A 
ATOM     14  C   UNL A   1      33.166  24.256  25.914  1.00  0.00     0.065 A 
BRANCH  12  15
ATOM     15  N   UNL A   1      33.065  26.479  25.036  1.00  0.00    -0.235 N 
ATOM     16  C   UNL A   1      32.668  27.329  25.912  1.00  0.00     0.309 C 
ATOM     17  H   UNL A   1      33.728  26.732  24.354  1.00  0.00     0.313 HD
ATOM     18  N   UNL A   1      31.757  27.213  26.916  1.00  0.00    -0.268 N 
ATOM     19  S   UNL A   1      33.324  28.960  25.874  1.00  0.00    -0.035 SA
ATOM     20  C   UNL A   1      31.516  28.375  27.730  1.00  0.00     0.246 C 
ATOM     21  H   UNL A   1      31.282  26.365  27.081  1.00  0.00     0.305 HD
ATOM     22  C   UNL A   1      31.969  29.583  26.911  1.00  0.00     0.128 C 
ENDBRANCH  12  15
ENDBRANCH   5   8
ENDBRANCH   3   4
ENDBRANCH   2   3
ENDBRANCH   1   2
BRANCH   1  23
ATOM     23  C   UNL A   1      38.294  22.170  25.548  1.00  0.00     0.116 C 
BRANCH  23  24
ATOM     24  N   UNL A   1      39.250  22.000  26.620  1.00  0.00    -0.352 N 
ATOM     25  C   UNL A   1      40.118  22.898  27.216  1.00  0.00     0.251 C 
ATOM     26  H   UNL A   1      39.290  21.089  26.989  1.00  0.00     0.163 HD
ATOM     27  O   UNL A   1      41.086  22.423  27.785  1.00  0.00    -0.269 OA
BRANCH  25  28
ATOM     28  C   UNL A   1      39.804  24.353  27.337  1.00  0.00     0.039 A 
ATOM     29  C   UNL A   1      40.529  25.237  26.519  1.00  0.00     0.014 A 
ATOM     30  C   UNL A   1      39.084  24.872  28.403  1.00  0.00     0.014 A 
ATOM     31  C   UNL A   1      40.763  26.542  26.940  1.00  0.00     0.010 A 
ATOM     32  C   UNL A   1      39.416  26.103  28.895  1.00  0.00     0.010 A 
ATOM     33  C   UNL A   1      40.325  26.896  28.199  1.00  0.00    -0.014 A 
BRANCH  33  34
ATOM     34  C   UNL A   1      40.666  28.102  28.917  1.00  0.00     0.031 A 
ATOM     35  C   UNL A   1      39.785  29.261  28.747  1.00  0.00     0.074 A 
ATOM     36  C   UNL A   1      41.422  27.884  30.016  1.00  0.00     0.049 A 
ATOM     37  N   UNL A   1      39.910  30.355  29.403  1.00  0.00    -0.248 NA
ATOM     38  C   UNL A   1      38.661  29.269  27.809  1.00  0.00     0.031 C 
ATOM     39  C   UNL A   1      41.403  28.565  31.303  1.00  0.00     0.029 A 
ATOM     40  N   UNL A   1      42.488  26.997  30.127  1.00  0.00    -0.354 N 
ATOM     41  C   UNL A   1      38.720  31.031  29.261  1.00  0.00     0.074 A 
ATOM     42  C   UNL A   1      38.059  30.415  28.142  1.00  0.00     0.031 C 
ATOM     43  C   UNL A   1      42.536  28.269  31.970  1.00  0.00     0.029 A 
ATOM     44  C   UNL A   1      43.397  27.561  31.035  1.00  0.00     0.049 A 
ATOM     45  H   UNL A   1      42.586  26.137  29.657  1.00  0.00     0.167 HD
ATOM     46  C   UNL A   1      38.369  31.904  30.240  1.00  0.00     0.034 A 
ATOM     47  C   UNL A   1      44.578  28.058  30.541  1.00  0.00     0.034 A 
ATOM     48  C   UNL A   1      39.510  32.137  31.140  1.00  0.00     0.049 A 
ATOM     49  C   UNL A   1      44.663  29.572  30.650  1.00  0.00     0.074 A 
ATOM     50  C   UNL A   1      39.817  31.690  32.413  1.00  0.00     0.029 A 
ATOM     51  N   UNL A   1      40.696  32.643  30.605  1.00  0.00    -0.354 N 
ATOM     52  N   UNL A   1      43.639  30.351  30.871  1.00  0.00    -0.248 NA
ATOM     53  C   UNL A   1      45.913  30.322  30.578  1.00  0.00     0.031 C 
ATOM     54  C   UNL A   1      41.233  31.786  32.572  1.00  0.00     0.029 A 
ATOM     55  C   UNL A   1      41.775  32.343  31.423  1.00  0.00     0.049 A 
ATOM     56  H   UNL A   1      40.758  33.146  29.761  1.00  0.00     0.167 HD
ATOM     57  C   UNL A   1      44.030  31.658  30.904  1.00  0.00     0.074 A 
ATOM     58  C   UNL A   1      45.477  31.581  30.765  1.00  0.00     0.031 C 
ATOM     59  C   UNL A   1      43.135  32.692  31.010  1.00  0.00     0.034 A 
BRANCH  46  60
ATOM     60  C   UNL A   1      36.965  32.407  30.524  1.00  0.00     0.023 A 
ATOM     61  C   UNL A   1      36.432  32.103  31.796  1.00  0.00     0.012 A 
ATOM     62  C   UNL A   1      36.085  33.060  29.621  1.00  0.00     0.148 A 
ATOM     63  C   UNL A   1      35.117  32.423  32.155  1.00  0.00     0.002 A 
ATOM     64  C   UNL A   1      34.796  33.445  30.006  1.00  0.00     0.091 A 
ATOM     65  F   UNL A   1      36.435  33.236  28.345  1.00  0.00    -0.205 F 
ATOM     66  C   UNL A   1      34.304  33.113  31.269  1.00  0.00     0.022 A 
BRANCH  64  67
ATOM     67  S   UNL A   1      33.702  34.397  28.930  1.00  0.00     0.127 S 
ATOM     68  O   UNL A   1      34.599  35.431  28.414  1.00  0.00    -0.237 OA
ATOM     69  O   UNL A   1      33.291  33.401  27.941  1.00  0.00    -0.237 OA
ATOM     70  O   UNL A   1      32.619  34.883  29.777  1.00  0.00    -0.744 OA
ENDBRANCH  64  67
ENDBRANCH  46  60
BRANCH  47  71
ATOM     71  C   UNL A   1      45.083  27.208  29.402  1.00  0.00     0.023 A 
ATOM     72  C   UNL A   1      45.285  25.835  29.704  1.00  0.00     0.012 A 
ATOM     73  C   UNL A   1      44.865  27.573  28.060  1.00  0.00     0.148 A 
ATOM     74  C   UNL A   1      45.025  24.847  28.751  1.00  0.00     0.002 A 
ATOM     75  C   UNL A   1      44.657  26.577  27.100  1.00  0.00     0.091 A 
ATOM     76  F   UNL A   1      44.799  28.874  27.747  1.00  0.00    -0.205 F 
ATOM     77  C   UNL A   1      44.662  25.219  27.461  1.00  0.00     0.022 A 
BRANCH  75  78
ATOM     78  S   UNL A   1      44.290  26.988  25.387  1.00  0.00     0.127 S 
ATOM     79  O   UNL A   1      43.656  25.759  24.919  1.00  0.00    -0.237 OA
ATOM     80  O   UNL A   1      43.383  28.130  25.502  1.00  0.00    -0.237 OA
ATOM     81  O   UNL A   1      45.579  27.313  24.791  1.00  0.00    -0.744 OA
ENDBRANCH  75  78
ENDBRANCH  47  71
BRANCH  59  82
ATOM     82  C   UNL A   1      43.474  34.148  30.741  1.00  0.00     0.023 A 
ATOM     83  C   UNL A   1      43.370  34.712  29.455  1.00  0.00     0.012 A 
ATOM     84  C   UNL A   1      43.761  35.042  31.805  1.00  0.00     0.148 A 
ATOM     85  C   UNL A   1      43.630  36.065  29.214  1.00  0.00     0.002 A 
ATOM     86  C   UNL A   1      43.892  36.409  31.578  1.00  0.00     0.091 A 
ATOM     87  F   UNL A   1      43.927  34.574  33.050  1.00  0.00    -0.205 F 
ATOM     88  C   UNL A   1      43.871  36.919  30.280  1.00  0.00     0.022 A 
BRANCH  86  89
ATOM     89  S   UNL A   1      43.935  37.586  32.938  1.00  0.00     0.127 S 
ATOM     90  O   UNL A   1      45.266  37.356  33.493  1.00  0.00    -0.237 OA
ATOM     91  O   UNL A   1      43.776  38.867  32.246  1.00  0.00    -0.237 OA
ATOM     92  O   UNL A   1      42.813  37.230  33.797  1.00  0.00    -0.744 OA
ENDBRANCH  86  89
ENDBRANCH  59  82
ENDBRANCH  33  34
ENDBRANCH  25  28
ENDBRANCH  23  24
ENDBRANCH   1  23
TORSDOF 15
ENDMDL
MODEL 3
REMARK VINA RESULT:     -11.4      4.056      9.401
REMARK SMILES Cc1ccc(C(=O)NCCCCNC(=O)c2ccc(-c3c4nc(c(-c5cccc(S(=O)(=O)[O-])c5F)c5ccc([nH]5)c(-c5cccc(S(=O)(=O)[O-])c5F)c5nc(c(-c6cccc(S(=O)(=O)[O-])c6F)c6ccc3[nH]6)C=C5)C=C4)cc2)cc1/[NH+]=C1\NCCS1
REMARK SMILES IDX 11 1 10 2 9 3 8 4 6 5 7 6 5 8 1 9 2 10 3 11 80 12 4 13 79 14
REMARK SMILES IDX 81 15 82 16 83 18 86 19 84 20 85 22 12 23 13 24 14 25 15 27
REMARK SMILES IDX 16 28 17 29 78 30 18 31 77 32 19 33 20 34 21 35 71 36 22 37
REMARK SMILES IDX 76 38 70 39 72 40 23 41 75 42 69 43 68 44 24 46 56 47 36 48
REMARK SMILES IDX 55 49 37 50 40 51 54 52 73 53 38 54 39 55 53 57 74 58 41 59
REMARK SMILES IDX 25 60 26 61 34 62 27 63 29 64 35 65 28 66 30 67 31 68 32 69
REMARK SMILES IDX 33 70 57 71 58 72 66 73 59 74 61 75 67 76 60 77 62 78 63 79
REMARK SMILES IDX 64 80 65 81 42 82 43 83 51 84 44 85 46 86 52 87 45 88 47 89
REMARK SMILES IDX 48 90 49 91 50 92
REMARK H PARENT 8 7 81 17 83 21 13 26 72 45 40 56
REMARK Flexibility Score: inf
ROOT
ATOM      1  C   UNL A   1      36.838  22.885  25.905  1.00  0.00     0.023 C 
ENDROOT
BRANCH   1   2
ATOM      2  C   UNL A   1      35.661  21.891  25.902  1.00  0.00     0.023 C 
BRANCH   2   3
ATOM      3  C   UNL A   1      34.470  22.281  26.794  1.00  0.00     0.116 C 
BRANCH   3   4
ATOM      4  N   UNL A   1      33.270  21.553  26.427  1.00  0.00    -0.352 N 
ATOM      5  C   UNL A   1      32.327  21.705  25.445  1.00  0.00     0.251 C 
ATOM      6  O   UNL A   1      31.390  20.901  25.459  1.00  0.00    -0.269 OA
ATOM      7  H   UNL A   1      33.095  20.781  27.012  1.00  0.00     0.163 HD
BRANCH   5   8
ATOM      8  C   UNL A   1      32.348  22.746  24.371  1.00  0.00     0.044 A 
ATOM      9  C   UNL A   1      32.744  25.567  21.093  1.00  0.00     0.049 C 
ATOM     10  C   UNL A   1      32.595  24.613  22.243  1.00  0.00    -0.004 A 
ATOM     11  C   UNL A   1      33.199  23.354  22.159  1.00  0.00     0.008 A 
ATOM     12  C   UNL A   1      31.832  24.919  23.379  1.00  0.00     0.129 A 
ATOM     13  C   UNL A   1      33.087  22.442  23.214  1.00  0.00     0.014 A 
ATOM     14  C   UNL A   1      31.708  23.981  24.415  1.00  0.00     0.065 A 
BRANCH  12  15
ATOM     15  N   UNL A   1      31.201  26.158  23.561  1.00  0.00    -0.235 N 
ATOM     16  C   UNL A   1      31.886  27.128  24.047  1.00  0.00     0.309 C 
ATOM     17  H   UNL A   1      30.253  26.281  23.322  1.00  0.00     0.313 HD
ATOM     18  N   UNL A   1      33.180  27.182  24.466  1.00  0.00    -0.268 N 
ATOM     19  S   UNL A   1      31.106  28.686  24.284  1.00  0.00    -0.035 SA
ATOM     20  C   UNL A   1      33.656  28.436  24.987  1.00  0.00     0.246 C 
ATOM     21  H   UNL A   1      33.768  26.393  24.413  1.00  0.00     0.305 HD
ATOM     22  C   UNL A   1      32.422  29.228  25.415  1.00  0.00     0.128 C 
ENDBRANCH  12  15
ENDBRANCH   5   8
ENDBRANCH   3   4
ENDBRANCH   2   3
ENDBRANCH   1   2
BRANCH   1  23
ATOM     23  C   UNL A   1      38.150  22.253  25.473  1.00  0.00     0.116 C 
BRANCH  23  24
ATOM     24  N   UNL A   1      39.095  22.088  26.556  1.00  0.00    -0.352 N 
ATOM     25  C   UNL A   1      39.973  22.984  27.141  1.00  0.00     0.251 C 
ATOM     26  H   UNL A   1      39.117  21.184  26.943  1.00  0.00     0.163 HD
ATOM     27  O   UNL A   1      40.928  22.504  27.727  1.00  0.00    -0.269 OA
BRANCH  25  28
ATOM     28  C   UNL A   1      39.682  24.445  27.231  1.00  0.00     0.039 A 
ATOM     29  C   UNL A   1      40.422  25.300  26.397  1.00  0.00     0.014 A 
ATOM     30  C   UNL A   1      38.968  24.997  28.285  1.00  0.00     0.014 A 
ATOM     31  C   UNL A   1      40.676  26.610  26.792  1.00  0.00     0.010 A 
ATOM     32  C   UNL A   1      39.318  26.233  28.752  1.00  0.00     0.010 A 
ATOM     33  C   UNL A   1      40.241  26.997  28.043  1.00  0.00    -0.014 A 
BRANCH  33  34
ATOM     34  C   UNL A   1      40.599  28.212  28.736  1.00  0.00     0.031 A 
ATOM     35  C   UNL A   1      39.696  29.358  28.600  1.00  0.00     0.074 A 
ATOM     36  C   UNL A   1      41.409  28.012  29.799  1.00  0.00     0.049 A 
ATOM     37  N   UNL A   1      39.837  30.458  29.243  1.00  0.00    -0.248 NA
ATOM     38  C   UNL A   1      38.529  29.346  27.717  1.00  0.00     0.031 C 
ATOM     39  C   UNL A   1      41.442  28.700  31.082  1.00  0.00     0.029 A 
ATOM     40  N   UNL A   1      42.491  27.139  29.865  1.00  0.00    -0.354 N 
ATOM     41  C   UNL A   1      38.633  31.118  29.153  1.00  0.00     0.074 A 
ATOM     42  C   UNL A   1      37.928  30.486  28.071  1.00  0.00     0.031 C 
ATOM     43  C   UNL A   1      42.609  28.424  31.696  1.00  0.00     0.029 A 
ATOM     44  C   UNL A   1      43.435  27.720  30.726  1.00  0.00     0.049 A 
ATOM     45  H   UNL A   1      42.578  26.277  29.396  1.00  0.00     0.167 HD
ATOM     46  C   UNL A   1      38.318  31.994  30.143  1.00  0.00     0.034 A 
ATOM     47  C   UNL A   1      44.584  28.229  30.173  1.00  0.00     0.034 A 
ATOM     48  C   UNL A   1      39.497  32.247  30.986  1.00  0.00     0.049 A 
ATOM     49  C   UNL A   1      44.655  29.745  30.269  1.00  0.00     0.074 A 
ATOM     50  C   UNL A   1      39.870  31.813  32.246  1.00  0.00     0.029 A 
ATOM     51  N   UNL A   1      40.649  32.765  30.393  1.00  0.00    -0.354 N 
ATOM     52  N   UNL A   1      43.631  30.512  30.534  1.00  0.00    -0.248 NA
ATOM     53  C   UNL A   1      45.890  30.510  30.133  1.00  0.00     0.031 C 
ATOM     54  C   UNL A   1      41.290  31.928  32.337  1.00  0.00     0.029 A 
ATOM     55  C   UNL A   1      41.769  32.483  31.160  1.00  0.00     0.049 A 
ATOM     56  H   UNL A   1      40.665  33.262  29.544  1.00  0.00     0.167 HD
ATOM     57  C   UNL A   1      44.006  31.825  30.539  1.00  0.00     0.074 A 
ATOM     58  C   UNL A   1      45.446  31.765  30.333  1.00  0.00     0.031 C 
ATOM     59  C   UNL A   1      43.104  32.848  30.682  1.00  0.00     0.034 A 
BRANCH  46  60
ATOM     60  C   UNL A   1      36.923  32.480  30.490  1.00  0.00     0.023 A 
ATOM     61  C   UNL A   1      36.423  32.110  31.758  1.00  0.00     0.012 A 
ATOM     62  C   UNL A   1      36.019  33.178  29.646  1.00  0.00     0.148 A 
ATOM     63  C   UNL A   1      35.118  32.410  32.168  1.00  0.00     0.002 A 
ATOM     64  C   UNL A   1      34.741  33.542  30.084  1.00  0.00     0.091 A 
ATOM     65  F   UNL A   1      36.336  33.421  28.372  1.00  0.00    -0.205 F 
ATOM     66  C   UNL A   1      34.282  33.145  31.341  1.00  0.00     0.022 A 
BRANCH  64  67
ATOM     67  S   UNL A   1      33.620  34.548  29.089  1.00  0.00     0.127 S 
ATOM     68  O   UNL A   1      33.153  33.591  28.086  1.00  0.00    -0.237 OA
ATOM     69  O   UNL A   1      32.606  34.947  30.065  1.00  0.00    -0.237 OA
ATOM     70  O   UNL A   1      34.416  35.653  28.567  1.00  0.00    -0.744 OA
ENDBRANCH  64  67
ENDBRANCH  46  60
BRANCH  47  71
ATOM     71  C   UNL A   1      45.046  27.378  29.016  1.00  0.00     0.023 A 
ATOM     72  C   UNL A   1      44.600  27.795  27.734  1.00  0.00     0.012 A 
ATOM     73  C   UNL A   1      46.215  26.598  29.098  1.00  0.00     0.148 A 
ATOM     74  C   UNL A   1      45.422  27.657  26.612  1.00  0.00     0.002 A 
ATOM     75  C   UNL A   1      47.006  26.421  27.959  1.00  0.00     0.091 A 
ATOM     76  F   UNL A   1      46.573  26.096  30.288  1.00  0.00    -0.205 F 
ATOM     77  C   UNL A   1      46.648  27.014  26.736  1.00  0.00     0.022 A 
BRANCH  75  78
ATOM     78  S   UNL A   1      48.554  25.505  28.025  1.00  0.00     0.127 S 
ATOM     79  O   UNL A   1      48.204  24.282  27.309  1.00  0.00    -0.237 OA
ATOM     80  O   UNL A   1      49.490  26.375  27.313  1.00  0.00    -0.237 OA
ATOM     81  O   UNL A   1      48.845  25.357  29.445  1.00  0.00    -0.744 OA
ENDBRANCH  75  78
ENDBRANCH  47  71
BRANCH  59  82
ATOM     82  C   UNL A   1      43.411  34.305  30.388  1.00  0.00     0.023 A 
ATOM     83  C   UNL A   1      43.844  35.193  31.392  1.00  0.00     0.012 A 
ATOM     84  C   UNL A   1      43.422  34.799  29.058  1.00  0.00     0.148 A 
ATOM     85  C   UNL A   1      44.179  36.522  31.115  1.00  0.00     0.002 A 
ATOM     86  C   UNL A   1      43.878  36.082  28.771  1.00  0.00     0.091 A 
ATOM     87  F   UNL A   1      42.974  34.031  28.053  1.00  0.00    -0.205 F 
ATOM     88  C   UNL A   1      44.215  36.962  29.800  1.00  0.00     0.022 A 
BRANCH  86  89
ATOM     89  S   UNL A   1      44.201  36.608  27.082  1.00  0.00     0.127 S 
ATOM     90  O   UNL A   1      42.852  36.680  26.526  1.00  0.00    -0.237 OA
ATOM     91  O   UNL A   1      44.849  37.906  27.278  1.00  0.00    -0.237 OA
ATOM     92  O   UNL A   1      45.073  35.587  26.515  1.00  0.00    -0.744 OA
ENDBRANCH  86  89
ENDBRANCH  59  82
ENDBRANCH  33  34
ENDBRANCH  25  28
ENDBRANCH  23  24
ENDBRANCH   1  23
TORSDOF 15
ENDMDL
