MODEL 1
REMARK VINA RESULT:     -13.5      0.000      0.000
REMARK SMILES O=C(NCCCCNC(=O)c1cc(-c2ccccc2)nc(Nc2nc3ccccc3s2)n1)c1ccc(-c2c3nc(c(-c4cccc(S(=O)(=O)[O-])c4F)c4ccc([nH]4)c(-c4cccc(S(=O)(=O)[O-])c4F)c4nc(c(-c5cccc(S(=O)(=O)[O-])c5F)c5ccc2[nH]5)C=C4)C=C3)cc1
REMARK SMILES IDX 5 1 4 2 3 3 1 4 2 5 33 7 34 8 95 9 35 10 94 11 36 12 37 13
REMARK SMILES IDX 38 14 88 15 39 16 93 17 87 18 89 19 40 20 92 21 86 22 85 23
REMARK SMILES IDX 41 25 73 26 53 27 72 28 54 29 57 30 71 31 90 32 55 33 56 34
REMARK SMILES IDX 70 36 91 37 58 38 42 39 43 40 51 41 44 42 46 43 52 44 45 45
REMARK SMILES IDX 47 46 48 47 49 48 50 49 74 50 75 51 83 52 76 53 78 54 84 55
REMARK SMILES IDX 77 56 79 57 80 58 81 59 82 60 59 61 60 62 68 63 61 64 63 65
REMARK SMILES IDX 69 66 62 67 64 68 65 69 66 70 67 71 6 72 7 73 8 74 9 75
REMARK SMILES IDX 10 77 11 78 12 79 32 80 13 81 21 82 20 83 14 84 15 85 19 86
REMARK SMILES IDX 16 87 18 88 17 89 22 90 23 92 24 93 31 94 25 95 30 96 26 97
REMARK SMILES IDX 29 98 27 99 28 100
REMARK H PARENT 3 6 89 24 57 35 8 76 22 91
REMARK Flexibility Score: inf
ROOT
ATOM      1  C   UNL A   1      32.123  28.172  25.684  1.00  0.00     0.023 C 
ENDROOT
BRANCH   1   2
ATOM      2  C   UNL A   1      33.110  29.323  25.551  1.00  0.00     0.116 C 
BRANCH   2   3
ATOM      3  N   UNL A   1      32.588  30.599  26.013  1.00  0.00    -0.352 N 
ATOM      4  O   UNL A   1      32.511  32.460  27.284  1.00  0.00    -0.269 OA
ATOM      5  C   UNL A   1      33.127  31.466  26.944  1.00  0.00     0.251 C 
ATOM      6  H   UNL A   1      31.737  30.884  25.607  1.00  0.00     0.163 HD
BRANCH   5   7
ATOM      7  C   UNL A   1      34.442  31.141  27.550  1.00  0.00     0.039 A 
ATOM      8  C   UNL A   1      34.759  29.825  27.887  1.00  0.00     0.014 A 
ATOM      9  C   UNL A   1      35.341  32.174  27.828  1.00  0.00     0.014 A 
ATOM     10  C   UNL A   1      35.886  29.567  28.658  1.00  0.00     0.010 A 
ATOM     11  C   UNL A   1      36.528  31.896  28.517  1.00  0.00     0.010 A 
ATOM     12  C   UNL A   1      36.789  30.597  28.978  1.00  0.00    -0.014 A 
BRANCH  12  13
ATOM     13  C   UNL A   1      38.022  30.251  29.735  1.00  0.00     0.031 A 
ATOM     14  C   UNL A   1      38.253  30.731  31.142  1.00  0.00     0.074 A 
ATOM     15  C   UNL A   1      38.921  29.439  29.143  1.00  0.00     0.049 A 
ATOM     16  N   UNL A   1      39.227  30.422  31.960  1.00  0.00    -0.248 NA
ATOM     17  C   UNL A   1      37.283  31.683  31.705  1.00  0.00     0.031 C 
ATOM     18  C   UNL A   1      38.835  28.962  27.761  1.00  0.00     0.029 A 
ATOM     19  N   UNL A   1      40.062  28.854  29.626  1.00  0.00    -0.354 N 
ATOM     20  C   UNL A   1      39.008  31.160  33.118  1.00  0.00     0.074 A 
ATOM     21  C   UNL A   1      37.812  31.944  32.893  1.00  0.00     0.031 C 
ATOM     22  C   UNL A   1      39.849  28.120  27.522  1.00  0.00     0.029 A 
ATOM     23  C   UNL A   1      40.682  28.030  28.715  1.00  0.00     0.049 A 
ATOM     24  H   UNL A   1      40.406  29.009  30.535  1.00  0.00     0.167 HD
ATOM     25  C   UNL A   1      39.723  31.165  34.269  1.00  0.00     0.034 A 
ATOM     26  C   UNL A   1      41.795  27.281  28.824  1.00  0.00     0.034 A 
ATOM     27  C   UNL A   1      40.890  30.353  34.503  1.00  0.00     0.049 A 
ATOM     28  C   UNL A   1      42.524  27.252  30.135  1.00  0.00     0.074 A 
ATOM     29  C   UNL A   1      41.661  30.264  35.650  1.00  0.00     0.029 A 
ATOM     30  N   UNL A   1      41.452  29.486  33.578  1.00  0.00    -0.354 N 
ATOM     31  N   UNL A   1      42.227  27.866  31.254  1.00  0.00    -0.248 NA
ATOM     32  C   UNL A   1      43.722  26.405  30.209  1.00  0.00     0.031 C 
ATOM     33  C   UNL A   1      42.690  29.343  35.417  1.00  0.00     0.029 A 
ATOM     34  C   UNL A   1      42.556  28.855  34.127  1.00  0.00     0.049 A 
ATOM     35  H   UNL A   1      41.115  29.341  32.665  1.00  0.00     0.167 HD
ATOM     36  C   UNL A   1      43.199  27.480  32.167  1.00  0.00     0.074 A 
ATOM     37  C   UNL A   1      44.064  26.540  31.483  1.00  0.00     0.031 C 
ATOM     38  C   UNL A   1      43.382  27.894  33.445  1.00  0.00     0.034 A 
BRANCH  25  39
ATOM     39  C   UNL A   1      39.232  32.032  35.401  1.00  0.00     0.023 A 
ATOM     40  C   UNL A   1      38.325  31.493  36.336  1.00  0.00     0.012 A 
ATOM     41  C   UNL A   1      39.729  33.337  35.596  1.00  0.00     0.148 A 
ATOM     42  C   UNL A   1      37.905  32.242  37.434  1.00  0.00     0.002 A 
ATOM     43  C   UNL A   1      39.332  34.066  36.712  1.00  0.00     0.091 A 
ATOM     44  F   UNL A   1      40.577  33.840  34.687  1.00  0.00    -0.205 F 
ATOM     45  C   UNL A   1      38.416  33.523  37.628  1.00  0.00     0.022 A 
BRANCH  43  46
ATOM     46  S   UNL A   1      39.986  35.697  37.090  1.00  0.00     0.127 S 
ATOM     47  O   UNL A   1      41.411  35.411  37.256  1.00  0.00    -0.237 OA
ATOM     48  O   UNL A   1      39.654  36.453  35.881  1.00  0.00    -0.237 OA
ATOM     49  O   UNL A   1      39.292  36.139  38.291  1.00  0.00    -0.744 OA
ENDBRANCH  43  46
ENDBRANCH  25  39
BRANCH  26  50
ATOM     50  C   UNL A   1      42.239  26.456  27.666  1.00  0.00     0.023 A 
ATOM     51  C   UNL A   1      43.171  26.982  26.752  1.00  0.00     0.012 A 
ATOM     52  C   UNL A   1      41.797  25.129  27.508  1.00  0.00     0.148 A 
ATOM     53  C   UNL A   1      43.640  26.205  25.691  1.00  0.00     0.002 A 
ATOM     54  C   UNL A   1      42.318  24.341  26.488  1.00  0.00     0.091 A 
ATOM     55  F   UNL A   1      40.890  24.648  28.371  1.00  0.00    -0.205 F 
ATOM     56  C   UNL A   1      43.227  24.881  25.568  1.00  0.00     0.022 A 
BRANCH  54  57
ATOM     57  S   UNL A   1      41.951  22.585  26.391  1.00  0.00     0.127 S 
ATOM     58  O   UNL A   1      42.736  22.175  25.230  1.00  0.00    -0.237 OA
ATOM     59  O   UNL A   1      42.445  22.088  27.676  1.00  0.00    -0.237 OA
ATOM     60  O   UNL A   1      40.502  22.515  26.248  1.00  0.00    -0.744 OA
ENDBRANCH  54  57
ENDBRANCH  26  50
BRANCH  38  61
ATOM     61  C   UNL A   1      44.573  27.338  34.178  1.00  0.00     0.023 A 
ATOM     62  C   UNL A   1      45.801  28.027  34.114  1.00  0.00     0.012 A 
ATOM     63  C   UNL A   1      44.475  26.167  34.953  1.00  0.00     0.148 A 
ATOM     64  C   UNL A   1      46.924  27.540  34.782  1.00  0.00     0.002 A 
ATOM     65  C   UNL A   1      45.589  25.709  35.649  1.00  0.00     0.091 A 
ATOM     66  F   UNL A   1      43.306  25.511  34.982  1.00  0.00    -0.205 F 
ATOM     67  C   UNL A   1      46.815  26.387  35.556  1.00  0.00     0.022 A 
BRANCH  65  68
ATOM     68  S   UNL A   1      45.508  24.275  36.728  1.00  0.00     0.127 S 
ATOM     69  O   UNL A   1      46.831  24.292  37.348  1.00  0.00    -0.237 OA
ATOM     70  O   UNL A   1      44.408  24.619  37.631  1.00  0.00    -0.237 OA
ATOM     71  O   UNL A   1      45.230  23.144  35.853  1.00  0.00    -0.744 OA
ENDBRANCH  65  68
ENDBRANCH  38  61
ENDBRANCH  12  13
ENDBRANCH   5   7
ENDBRANCH   2   3
ENDBRANCH   1   2
BRANCH   1  72
ATOM     72  C   UNL A   1      32.598  26.989  26.523  1.00  0.00     0.023 C 
BRANCH  72  73
ATOM     73  C   UNL A   1      31.865  25.676  26.274  1.00  0.00     0.116 C 
BRANCH  73  74
ATOM     74  N   UNL A   1      32.134  24.661  27.280  1.00  0.00    -0.351 N 
ATOM     75  C   UNL A   1      32.262  23.299  27.121  1.00  0.00     0.270 C 
ATOM     76  H   UNL A   1      32.241  24.994  28.200  1.00  0.00     0.163 HD
ATOM     77  O   UNL A   1      32.506  22.578  28.083  1.00  0.00    -0.268 OA
BRANCH  75  78
ATOM     78  C   UNL A   1      32.124  22.723  25.766  1.00  0.00     0.134 A 
ATOM     79  C   UNL A   1      32.412  21.404  25.556  1.00  0.00     0.063 A 
ATOM     80  N   UNL A   1      31.818  23.588  24.794  1.00  0.00    -0.207 NA
ATOM     81  C   UNL A   1      32.467  21.029  24.234  1.00  0.00     0.077 A 
ATOM     82  C   UNL A   1      31.826  23.139  23.539  1.00  0.00     0.230 A 
ATOM     83  N   UNL A   1      32.159  21.876  23.220  1.00  0.00    -0.213 NA
BRANCH  81  84
ATOM     84  C   UNL A   1      33.012  19.712  23.875  1.00  0.00     0.000 A 
ATOM     85  C   UNL A   1      34.055  19.144  24.626  1.00  0.00     0.010 A 
ATOM     86  C   UNL A   1      32.425  18.930  22.863  1.00  0.00     0.010 A 
ATOM     87  C   UNL A   1      34.471  17.830  24.398  1.00  0.00     0.001 A 
ATOM     88  C   UNL A   1      32.844  17.619  22.632  1.00  0.00     0.001 A 
ATOM     89  C   UNL A   1      33.860  17.066  23.407  1.00  0.00     0.000 A 
ENDBRANCH  81  84
BRANCH  82  90
ATOM     90  N   UNL A   1      31.408  23.977  22.507  1.00  0.00    -0.300 N 
ATOM     91  H   UNL A   1      31.335  23.603  21.599  1.00  0.00     0.172 HD
BRANCH  90  92
ATOM     92  C   UNL A   1      31.102  25.278  22.694  1.00  0.00     0.190 A 
ATOM     93  N   UNL A   1      30.003  25.724  23.258  1.00  0.00    -0.220 NA
ATOM     94  S   UNL A   1      32.175  26.525  22.171  1.00  0.00    -0.097 S 
ATOM     95  C   UNL A   1      29.866  27.080  23.073  1.00  0.00     0.084 A 
ATOM     96  C   UNL A   1      30.952  27.707  22.465  1.00  0.00     0.056 A 
ATOM     97  C   UNL A   1      28.735  27.845  23.419  1.00  0.00     0.030 A 
ATOM     98  C   UNL A   1      30.941  29.082  22.179  1.00  0.00     0.021 A 
ATOM     99  C   UNL A   1      28.705  29.210  23.124  1.00  0.00     0.002 A 
ATOM    100  C   UNL A   1      29.796  29.818  22.508  1.00  0.00     0.002 A 
ENDBRANCH  90  92
ENDBRANCH  82  90
ENDBRANCH  75  78
ENDBRANCH  73  74
ENDBRANCH  72  73
ENDBRANCH   1  72
TORSDOF 17
ENDMDL
MODEL 2
REMARK VINA RESULT:     -13.4      2.648      4.699
REMARK SMILES O=C(NCCCCNC(=O)c1cc(-c2ccccc2)nc(Nc2nc3ccccc3s2)n1)c1ccc(-c2c3nc(c(-c4cccc(S(=O)(=O)[O-])c4F)c4ccc([nH]4)c(-c4cccc(S(=O)(=O)[O-])c4F)c4nc(c(-c5cccc(S(=O)(=O)[O-])c5F)c5ccc2[nH]5)C=C4)C=C3)cc1
REMARK SMILES IDX 5 1 4 2 3 3 1 4 2 5 33 7 34 8 95 9 35 10 94 11 36 12 37 13
REMARK SMILES IDX 38 14 88 15 39 16 93 17 87 18 89 19 40 20 92 21 86 22 85 23
REMARK SMILES IDX 41 25 73 26 53 27 72 28 54 29 57 30 71 31 90 32 55 33 56 34
REMARK SMILES IDX 70 36 91 37 58 38 42 39 43 40 51 41 44 42 46 43 52 44 45 45
REMARK SMILES IDX 47 46 48 47 49 48 50 49 74 50 75 51 83 52 76 53 78 54 84 55
REMARK SMILES IDX 77 56 79 57 80 58 81 59 82 60 59 61 60 62 68 63 61 64 63 65
REMARK SMILES IDX 69 66 62 67 64 68 65 69 66 70 67 71 6 72 7 73 8 74 9 75
REMARK SMILES IDX 10 77 11 78 12 79 32 80 13 81 21 82 20 83 14 84 15 85 19 86
REMARK SMILES IDX 16 87 18 88 17 89 22 90 23 92 24 93 31 94 25 95 30 96 26 97
REMARK SMILES IDX 29 98 27 99 28 100
REMARK H PARENT 3 6 89 24 57 35 8 76 22 91
REMARK Flexibility Score: inf
ROOT
ATOM      1  C   UNL A   1      32.725  27.678  26.340  1.00  0.00     0.023 C 
ENDROOT
BRANCH   1   2
ATOM      2  C   UNL A   1      33.919  28.619  26.275  1.00  0.00     0.116 C 
BRANCH   2   3
ATOM      3  N   UNL A   1      33.679  29.915  26.891  1.00  0.00    -0.352 N 
ATOM      4  O   UNL A   1      34.091  31.658  28.260  1.00  0.00    -0.269 OA
ATOM      5  C   UNL A   1      34.486  30.618  27.764  1.00  0.00     0.251 C 
ATOM      6  H   UNL A   1      32.828  30.349  26.651  1.00  0.00     0.163 HD
BRANCH   5   7
ATOM      7  C   UNL A   1      35.814  30.062  28.119  1.00  0.00     0.039 A 
ATOM      8  C   UNL A   1      36.003  29.403  29.335  1.00  0.00     0.014 A 
ATOM      9  C   UNL A   1      36.890  30.248  27.247  1.00  0.00     0.014 A 
ATOM     10  C   UNL A   1      37.291  29.094  29.755  1.00  0.00     0.010 A 
ATOM     11  C   UNL A   1      38.174  29.843  27.631  1.00  0.00     0.010 A 
ATOM     12  C   UNL A   1      38.394  29.303  28.906  1.00  0.00    -0.014 A 
BRANCH  12  13
ATOM     13  C   UNL A   1      39.740  28.877  29.373  1.00  0.00     0.031 A 
ATOM     14  C   UNL A   1      40.442  29.566  30.512  1.00  0.00     0.074 A 
ATOM     15  C   UNL A   1      40.307  27.808  28.780  1.00  0.00     0.049 A 
ATOM     16  N   UNL A   1      41.568  29.239  31.095  1.00  0.00    -0.248 NA
ATOM     17  C   UNL A   1      39.817  30.779  31.063  1.00  0.00     0.031 C 
ATOM     18  C   UNL A   1      39.750  27.099  27.625  1.00  0.00     0.029 A 
ATOM     19  N   UNL A   1      41.454  27.118  29.072  1.00  0.00    -0.354 N 
ATOM     20  C   UNL A   1      41.803  30.215  32.057  1.00  0.00     0.074 A 
ATOM     21  C   UNL A   1      40.707  31.158  31.972  1.00  0.00     0.031 C 
ATOM     22  C   UNL A   1      40.527  26.046  27.339  1.00  0.00     0.029 A 
ATOM     23  C   UNL A   1      41.660  26.029  28.257  1.00  0.00     0.049 A 
ATOM     24  H   UNL A   1      42.071  27.375  29.794  1.00  0.00     0.167 HD
ATOM     25  C   UNL A   1      42.824  30.304  32.944  1.00  0.00     0.034 A 
ATOM     26  C   UNL A   1      42.646  25.113  28.247  1.00  0.00     0.034 A 
ATOM     27  C   UNL A   1      43.890  29.342  33.051  1.00  0.00     0.049 A 
ATOM     28  C   UNL A   1      43.724  25.198  29.288  1.00  0.00     0.074 A 
ATOM     29  C   UNL A   1      44.951  29.328  33.942  1.00  0.00     0.029 A 
ATOM     30  N   UNL A   1      44.032  28.220  32.248  1.00  0.00    -0.354 N 
ATOM     31  N   UNL A   1      43.858  26.062  30.264  1.00  0.00    -0.248 NA
ATOM     32  C   UNL A   1      44.769  24.166  29.246  1.00  0.00     0.031 C 
ATOM     33  C   UNL A   1      45.734  28.198  33.676  1.00  0.00     0.029 A 
ATOM     34  C   UNL A   1      45.157  27.506  32.623  1.00  0.00     0.049 A 
ATOM     35  H   UNL A   1      43.422  27.969  31.518  1.00  0.00     0.167 HD
ATOM     36  C   UNL A   1      45.000  25.679  30.954  1.00  0.00     0.074 A 
ATOM     37  C   UNL A   1      45.491  24.475  30.314  1.00  0.00     0.031 C 
ATOM     38  C   UNL A   1      45.609  26.289  32.001  1.00  0.00     0.034 A 
BRANCH  25  39
ATOM     39  C   UNL A   1      42.811  31.452  33.922  1.00  0.00     0.023 A 
ATOM     40  C   UNL A   1      43.401  32.677  33.551  1.00  0.00     0.012 A 
ATOM     41  C   UNL A   1      42.145  31.354  35.160  1.00  0.00     0.148 A 
ATOM     42  C   UNL A   1      43.347  33.780  34.401  1.00  0.00     0.002 A 
ATOM     43  C   UNL A   1      42.065  32.468  35.989  1.00  0.00     0.091 A 
ATOM     44  F   UNL A   1      41.606  30.176  35.505  1.00  0.00    -0.205 F 
ATOM     45  C   UNL A   1      42.670  33.679  35.614  1.00  0.00     0.022 A 
BRANCH  43  46
ATOM     46  S   UNL A   1      41.156  32.462  37.540  1.00  0.00     0.127 S 
ATOM     47  O   UNL A   1      39.891  31.848  37.136  1.00  0.00    -0.237 OA
ATOM     48  O   UNL A   1      41.998  31.618  38.390  1.00  0.00    -0.237 OA
ATOM     49  O   UNL A   1      41.072  33.853  37.961  1.00  0.00    -0.744 OA
ENDBRANCH  43  46
ENDBRANCH  25  39
BRANCH  26  50
ATOM     50  C   UNL A   1      42.612  24.010  27.247  1.00  0.00     0.023 A 
ATOM     51  C   UNL A   1      43.214  24.192  25.987  1.00  0.00     0.012 A 
ATOM     52  C   UNL A   1      42.051  22.759  27.565  1.00  0.00     0.148 A 
ATOM     53  C   UNL A   1      43.239  23.151  25.056  1.00  0.00     0.002 A 
ATOM     54  C   UNL A   1      42.139  21.709  26.658  1.00  0.00     0.091 A 
ATOM     55  F   UNL A   1      41.460  22.606  28.759  1.00  0.00    -0.205 F 
ATOM     56  C   UNL A   1      42.717  21.906  25.397  1.00  0.00     0.022 A 
BRANCH  54  57
ATOM     57  S   UNL A   1      41.639  20.044  27.114  1.00  0.00     0.127 S 
ATOM     58  O   UNL A   1      40.469  20.297  27.950  1.00  0.00    -0.237 OA
ATOM     59  O   UNL A   1      41.348  19.435  25.815  1.00  0.00    -0.237 OA
ATOM     60  O   UNL A   1      42.803  19.477  27.785  1.00  0.00    -0.744 OA
ENDBRANCH  54  57
ENDBRANCH  26  50
BRANCH  38  61
ATOM     61  C   UNL A   1      46.881  25.665  32.507  1.00  0.00     0.023 A 
ATOM     62  C   UNL A   1      48.109  26.036  31.920  1.00  0.00     0.012 A 
ATOM     63  C   UNL A   1      46.874  24.749  33.575  1.00  0.00     0.148 A 
ATOM     64  C   UNL A   1      49.306  25.478  32.367  1.00  0.00     0.002 A 
ATOM     65  C   UNL A   1      48.076  24.226  34.041  1.00  0.00     0.091 A 
ATOM     66  F   UNL A   1      45.695  24.388  34.104  1.00  0.00    -0.205 F 
ATOM     67  C   UNL A   1      49.290  24.581  33.431  1.00  0.00     0.022 A 
BRANCH  65  68
ATOM     68  S   UNL A   1      48.144  23.125  35.458  1.00  0.00     0.127 S 
ATOM     69  O   UNL A   1      47.673  21.867  34.883  1.00  0.00    -0.237 OA
ATOM     70  O   UNL A   1      49.566  23.140  35.805  1.00  0.00    -0.237 OA
ATOM     71  O   UNL A   1      47.278  23.727  36.463  1.00  0.00    -0.744 OA
ENDBRANCH  65  68
ENDBRANCH  38  61
ENDBRANCH  12  13
ENDBRANCH   5   7
ENDBRANCH   2   3
ENDBRANCH   1   2
BRANCH   1  72
ATOM     72  C   UNL A   1      31.681  27.858  25.241  1.00  0.00     0.023 C 
BRANCH  72  73
ATOM     73  C   UNL A   1      31.551  26.693  24.268  1.00  0.00     0.116 C 
BRANCH  73  74
ATOM     74  N   UNL A   1      32.255  26.904  23.012  1.00  0.00    -0.351 N 
ATOM     75  C   UNL A   1      33.117  26.058  22.352  1.00  0.00     0.270 C 
ATOM     76  H   UNL A   1      32.092  27.771  22.575  1.00  0.00     0.163 HD
ATOM     77  O   UNL A   1      33.621  26.389  21.283  1.00  0.00    -0.268 OA
BRANCH  75  78
ATOM     78  C   UNL A   1      33.407  24.733  22.940  1.00  0.00     0.134 A 
ATOM     79  C   UNL A   1      34.544  24.549  23.675  1.00  0.00     0.063 A 
ATOM     80  N   UNL A   1      32.560  23.752  22.612  1.00  0.00    -0.207 NA
ATOM     81  C   UNL A   1      34.827  23.239  23.983  1.00  0.00     0.077 A 
ATOM     82  C   UNL A   1      32.863  22.514  23.001  1.00  0.00     0.230 A 
ATOM     83  N   UNL A   1      33.989  22.217  23.672  1.00  0.00    -0.213 NA
BRANCH  81  84
ATOM     84  C   UNL A   1      36.140  22.892  24.544  1.00  0.00     0.000 A 
ATOM     85  C   UNL A   1      36.813  23.790  25.389  1.00  0.00     0.010 A 
ATOM     86  C   UNL A   1      36.696  21.612  24.363  1.00  0.00     0.010 A 
ATOM     87  C   UNL A   1      37.981  23.410  26.057  1.00  0.00     0.001 A 
ATOM     88  C   UNL A   1      37.865  21.234  25.026  1.00  0.00     0.001 A 
ATOM     89  C   UNL A   1      38.501  22.131  25.881  1.00  0.00     0.000 A 
ENDBRANCH  81  84
BRANCH  82  90
ATOM     90  N   UNL A   1      31.955  21.482  22.775  1.00  0.00    -0.300 N 
ATOM     91  H   UNL A   1      31.134  21.681  22.268  1.00  0.00     0.172 HD
BRANCH  90  92
ATOM     92  C   UNL A   1      32.147  20.222  23.219  1.00  0.00     0.190 A 
ATOM     93  N   UNL A   1      32.070  19.841  24.473  1.00  0.00    -0.220 NA
ATOM     94  S   UNL A   1      32.542  18.948  22.124  1.00  0.00    -0.097 S 
ATOM     95  C   UNL A   1      32.563  18.567  24.636  1.00  0.00     0.084 A 
ATOM     96  C   UNL A   1      32.904  17.910  23.455  1.00  0.00     0.056 A 
ATOM     97  C   UNL A   1      32.764  17.916  25.868  1.00  0.00     0.030 A 
ATOM     98  C   UNL A   1      33.454  16.617  23.465  1.00  0.00     0.021 A 
ATOM     99  C   UNL A   1      33.326  16.638  25.893  1.00  0.00     0.002 A 
ATOM    100  C   UNL A   1      33.670  15.999  24.704  1.00  0.00     0.002 A 
ENDBRANCH  90  92
ENDBRANCH  82  90
ENDBRANCH  75  78
ENDBRANCH  73  74
ENDBRANCH  72  73
ENDBRANCH   1  72
TORSDOF 17
ENDMDL
MODEL 3
REMARK VINA RESULT:     -13.3      4.622      9.508
REMARK SMILES O=C(NCCCCNC(=O)c1cc(-c2ccccc2)nc(Nc2nc3ccccc3s2)n1)c1ccc(-c2c3nc(c(-c4cccc(S(=O)(=O)[O-])c4F)c4ccc([nH]4)c(-c4cccc(S(=O)(=O)[O-])c4F)c4nc(c(-c5cccc(S(=O)(=O)[O-])c5F)c5ccc2[nH]5)C=C4)C=C3)cc1
REMARK SMILES IDX 5 1 4 2 3 3 1 4 2 5 33 7 34 8 95 9 35 10 94 11 36 12 37 13
REMARK SMILES IDX 38 14 88 15 39 16 93 17 87 18 89 19 40 20 92 21 86 22 85 23
REMARK SMILES IDX 41 25 73 26 53 27 72 28 54 29 57 30 71 31 90 32 55 33 56 34
REMARK SMILES IDX 70 36 91 37 58 38 42 39 43 40 51 41 44 42 46 43 52 44 45 45
REMARK SMILES IDX 47 46 48 47 49 48 50 49 74 50 75 51 83 52 76 53 78 54 84 55
REMARK SMILES IDX 77 56 79 57 80 58 81 59 82 60 59 61 60 62 68 63 61 64 63 65
REMARK SMILES IDX 69 66 62 67 64 68 65 69 66 70 67 71 6 72 7 73 8 74 9 75
REMARK SMILES IDX 10 77 11 78 12 79 32 80 13 81 21 82 20 83 14 84 15 85 19 86
REMARK SMILES IDX 16 87 18 88 17 89 22 90 23 92 24 93 31 94 25 95 30 96 26 97
REMARK SMILES IDX 29 98 27 99 28 100
REMARK H PARENT 3 6 89 24 57 35 8 76 22 91
REMARK Flexibility Score: inf
ROOT
ATOM      1  C   UNL A   1      33.840  31.573  28.011  1.00  0.00     0.023 C 
ENDROOT
BRANCH   1   2
ATOM      2  C   UNL A   1      34.436  32.775  28.730  1.00  0.00     0.116 C 
BRANCH   2   3
ATOM      3  N   UNL A   1      34.198  32.778  30.164  1.00  0.00    -0.352 N 
ATOM      4  O   UNL A   1      34.621  32.308  32.329  1.00  0.00    -0.269 OA
ATOM      5  C   UNL A   1      35.014  32.310  31.176  1.00  0.00     0.251 C 
ATOM      6  H   UNL A   1      33.340  33.166  30.453  1.00  0.00     0.163 HD
BRANCH   5   7
ATOM      7  C   UNL A   1      36.352  31.773  30.827  1.00  0.00     0.039 A 
ATOM      8  C   UNL A   1      37.061  32.291  29.742  1.00  0.00     0.014 A 
ATOM      9  C   UNL A   1      36.876  30.708  31.565  1.00  0.00     0.014 A 
ATOM     10  C   UNL A   1      38.197  31.632  29.289  1.00  0.00     0.010 A 
ATOM     11  C   UNL A   1      38.076  30.109  31.165  1.00  0.00     0.010 A 
ATOM     12  C   UNL A   1      38.725  30.537  29.997  1.00  0.00    -0.014 A 
BRANCH  12  13
ATOM     13  C   UNL A   1      39.989  29.922  29.514  1.00  0.00     0.031 A 
ATOM     14  C   UNL A   1      40.019  28.557  28.880  1.00  0.00     0.074 A 
ATOM     15  C   UNL A   1      41.122  30.646  29.607  1.00  0.00     0.049 A 
ATOM     16  N   UNL A   1      41.027  27.939  28.319  1.00  0.00    -0.248 NA
ATOM     17  C   UNL A   1      38.771  27.777  28.884  1.00  0.00     0.031 C 
ATOM     18  C   UNL A   1      41.228  31.954  30.258  1.00  0.00     0.029 A 
ATOM     19  N   UNL A   1      42.388  30.404  29.141  1.00  0.00    -0.354 N 
ATOM     20  C   UNL A   1      40.549  26.692  27.929  1.00  0.00     0.074 A 
ATOM     21  C   UNL A   1      39.159  26.635  28.332  1.00  0.00     0.031 C 
ATOM     22  C   UNL A   1      42.473  32.422  30.107  1.00  0.00     0.029 A 
ATOM     23  C   UNL A   1      43.268  31.432  29.389  1.00  0.00     0.049 A 
ATOM     24  H   UNL A   1      42.643  29.576  28.674  1.00  0.00     0.167 HD
ATOM     25  C   UNL A   1      41.201  25.699  27.277  1.00  0.00     0.034 A 
ATOM     26  C   UNL A   1      44.569  31.570  29.073  1.00  0.00     0.034 A 
ATOM     27  C   UNL A   1      42.572  25.777  26.844  1.00  0.00     0.049 A 
ATOM     28  C   UNL A   1      45.243  30.484  28.287  1.00  0.00     0.074 A 
ATOM     29  C   UNL A   1      43.309  24.836  26.146  1.00  0.00     0.029 A 
ATOM     30  N   UNL A   1      43.413  26.858  27.061  1.00  0.00    -0.354 N 
ATOM     31  N   UNL A   1      44.736  29.367  27.826  1.00  0.00    -0.248 NA
ATOM     32  C   UNL A   1      46.659  30.688  27.953  1.00  0.00     0.031 C 
ATOM     33  C   UNL A   1      44.596  25.348  25.941  1.00  0.00     0.029 A 
ATOM     34  C   UNL A   1      44.658  26.611  26.508  1.00  0.00     0.049 A 
ATOM     35  H   UNL A   1      43.161  27.681  27.538  1.00  0.00     0.167 HD
ATOM     36  C   UNL A   1      45.767  28.734  27.145  1.00  0.00     0.074 A 
ATOM     37  C   UNL A   1      46.914  29.618  27.212  1.00  0.00     0.031 C 
ATOM     38  C   UNL A   1      45.776  27.517  26.549  1.00  0.00     0.034 A 
BRANCH  25  39
ATOM     39  C   UNL A   1      40.424  24.455  26.929  1.00  0.00     0.023 A 
ATOM     40  C   UNL A   1      39.158  24.583  26.321  1.00  0.00     0.012 A 
ATOM     41  C   UNL A   1      40.973  23.170  27.116  1.00  0.00     0.148 A 
ATOM     42  C   UNL A   1      38.443  23.455  25.921  1.00  0.00     0.002 A 
ATOM     43  C   UNL A   1      40.268  22.050  26.684  1.00  0.00     0.091 A 
ATOM     44  F   UNL A   1      42.168  23.067  27.713  1.00  0.00    -0.205 F 
ATOM     45  C   UNL A   1      39.002  22.191  26.093  1.00  0.00     0.022 A 
BRANCH  43  46
ATOM     46  S   UNL A   1      40.931  20.384  26.796  1.00  0.00     0.127 S 
ATOM     47  O   UNL A   1      40.053  19.656  25.880  1.00  0.00    -0.237 OA
ATOM     48  O   UNL A   1      42.302  20.562  26.313  1.00  0.00    -0.237 OA
ATOM     49  O   UNL A   1      40.828  20.004  28.198  1.00  0.00    -0.744 OA
ENDBRANCH  43  46
ENDBRANCH  25  39
BRANCH  26  50
ATOM     50  C   UNL A   1      45.288  32.816  29.457  1.00  0.00     0.023 A 
ATOM     51  C   UNL A   1      45.994  32.868  30.674  1.00  0.00     0.012 A 
ATOM     52  C   UNL A   1      45.336  33.924  28.589  1.00  0.00     0.148 A 
ATOM     53  C   UNL A   1      46.719  34.008  31.026  1.00  0.00     0.002 A 
ATOM     54  C   UNL A   1      46.112  35.029  28.917  1.00  0.00     0.091 A 
ATOM     55  F   UNL A   1      44.639  33.871  27.444  1.00  0.00    -0.205 F 
ATOM     56  C   UNL A   1      46.791  35.081  30.142  1.00  0.00     0.022 A 
BRANCH  54  57
ATOM     57  S   UNL A   1      46.378  36.360  27.739  1.00  0.00     0.127 S 
ATOM     58  O   UNL A   1      47.299  37.228  28.466  1.00  0.00    -0.237 OA
ATOM     59  O   UNL A   1      46.965  35.658  26.597  1.00  0.00    -0.237 OA
ATOM     60  O   UNL A   1      45.048  36.899  27.480  1.00  0.00    -0.744 OA
ENDBRANCH  54  57
ENDBRANCH  26  50
BRANCH  38  61
ATOM     61  C   UNL A   1      47.075  27.069  25.935  1.00  0.00     0.023 A 
ATOM     62  C   UNL A   1      47.300  27.298  24.562  1.00  0.00     0.012 A 
ATOM     63  C   UNL A   1      48.080  26.461  26.709  1.00  0.00     0.148 A 
ATOM     64  C   UNL A   1      48.492  26.897  23.962  1.00  0.00     0.002 A 
ATOM     65  C   UNL A   1      49.283  26.099  26.112  1.00  0.00     0.091 A 
ATOM     66  F   UNL A   1      47.839  26.228  28.008  1.00  0.00    -0.205 F 
ATOM     67  C   UNL A   1      49.486  26.306  24.738  1.00  0.00     0.022 A 
BRANCH  65  68
ATOM     68  S   UNL A   1      50.640  25.404  27.061  1.00  0.00     0.127 S 
ATOM     69  O   UNL A   1      51.629  25.137  26.019  1.00  0.00    -0.237 OA
ATOM     70  O   UNL A   1      50.991  26.501  27.965  1.00  0.00    -0.237 OA
ATOM     71  O   UNL A   1      50.089  24.232  27.730  1.00  0.00    -0.744 OA
ENDBRANCH  65  68
ENDBRANCH  38  61
ENDBRANCH  12  13
ENDBRANCH   5   7
ENDBRANCH   2   3
ENDBRANCH   1   2
BRANCH   1  72
ATOM     72  C   UNL A   1      34.844  30.540  27.506  1.00  0.00     0.023 C 
BRANCH  72  73
ATOM     73  C   UNL A   1      34.236  29.276  26.911  1.00  0.00     0.116 C 
BRANCH  73  74
ATOM     74  N   UNL A   1      33.135  28.737  27.695  1.00  0.00    -0.351 N 
ATOM     75  C   UNL A   1      31.935  28.222  27.258  1.00  0.00     0.270 C 
ATOM     76  H   UNL A   1      33.267  28.741  28.670  1.00  0.00     0.163 HD
ATOM     77  O   UNL A   1      31.112  27.791  28.059  1.00  0.00    -0.268 OA
BRANCH  75  78
ATOM     78  C   UNL A   1      31.666  28.174  25.805  1.00  0.00     0.134 A 
ATOM     79  C   UNL A   1      31.103  29.251  25.182  1.00  0.00     0.063 A 
ATOM     80  N   UNL A   1      31.903  27.001  25.207  1.00  0.00    -0.207 NA
ATOM     81  C   UNL A   1      30.693  29.021  23.890  1.00  0.00     0.077 A 
ATOM     82  C   UNL A   1      31.540  26.870  23.932  1.00  0.00     0.230 A 
ATOM     83  N   UNL A   1      30.921  27.848  23.247  1.00  0.00    -0.213 NA
BRANCH  81  84
ATOM     84  C   UNL A   1      29.851  30.015  23.206  1.00  0.00     0.000 A 
ATOM     85  C   UNL A   1      29.562  29.881  21.838  1.00  0.00     0.010 A 
ATOM     86  C   UNL A   1      29.210  31.043  23.921  1.00  0.00     0.010 A 
ATOM     87  C   UNL A   1      28.636  30.722  21.215  1.00  0.00     0.001 A 
ATOM     88  C   UNL A   1      28.288  31.886  23.297  1.00  0.00     0.001 A 
ATOM     89  C   UNL A   1      27.995  31.719  21.946  1.00  0.00     0.000 A 
ENDBRANCH  81  84
BRANCH  82  90
ATOM     90  N   UNL A   1      31.868  25.705  23.241  1.00  0.00    -0.300 N 
ATOM     91  H   UNL A   1      31.655  25.653  22.281  1.00  0.00     0.172 HD
BRANCH  90  92
ATOM     92  C   UNL A   1      32.462  24.645  23.827  1.00  0.00     0.190 A 
ATOM     93  N   UNL A   1      32.178  24.183  25.022  1.00  0.00    -0.220 NA
ATOM     94  S   UNL A   1      33.713  23.772  23.018  1.00  0.00    -0.097 S 
ATOM     95  C   UNL A   1      33.118  23.267  25.436  1.00  0.00     0.084 A 
ATOM     96  C   UNL A   1      34.070  22.924  24.478  1.00  0.00     0.056 A 
ATOM     97  C   UNL A   1      33.196  22.693  26.720  1.00  0.00     0.030 A 
ATOM     98  C   UNL A   1      35.114  22.028  24.766  1.00  0.00     0.021 A 
ATOM     99  C   UNL A   1      34.238  21.815  27.024  1.00  0.00     0.002 A 
ATOM    100  C   UNL A   1      35.187  21.490  26.058  1.00  0.00     0.002 A 
ENDBRANCH  90  92
ENDBRANCH  82  90
ENDBRANCH  75  78
ENDBRANCH  73  74
ENDBRANCH  72  73
ENDBRANCH   1  72
TORSDOF 17
ENDMDL
