MODEL 1
REMARK VINA RESULT:     -10.7      0.000      0.000
REMARK SMILES O=C(COc1cccc(C(=O)NCCCCNC(=O)c2ccc(-c3c4nc(c(-c5cccc(S(=O)(=O)[O-])c5F)c5ccc([nH]5)c(-c5cccc(S(=O)(=O)[O-])c5F)c5nc(c(-c6cccc(S(=O)(=O)[O-])c6F)c6ccc3[nH]6)C=C5)C=C4)cc2)c1)NCCc1cccs1
REMARK SMILES IDX 13 1 12 2 10 3 11 4 9 6 5 7 6 8 83 9 7 10 8 11 4 12 3 13
REMARK SMILES IDX 2 14 1 15 84 16 85 18 86 19 87 20 88 21 91 22 89 23 90 24
REMARK SMILES IDX 14 25 15 26 16 27 17 28 18 29 19 31 20 32 21 33 82 34 22 35
REMARK SMILES IDX 81 36 23 37 24 38 25 39 75 40 26 41 80 42 74 43 76 44 27 45
REMARK SMILES IDX 79 46 73 47 72 48 28 50 60 51 40 52 59 53 41 54 44 55 58 56
REMARK SMILES IDX 77 57 42 58 43 59 57 61 78 62 45 63 29 64 30 65 38 66 31 67
REMARK SMILES IDX 33 68 39 69 32 70 34 71 35 72 36 73 37 74 61 75 62 76 70 77
REMARK SMILES IDX 63 78 65 79 71 80 64 81 66 82 67 83 68 84 69 85 46 86 47 87
REMARK SMILES IDX 55 88 48 89 50 90 56 91 49 92 51 93 52 94 53 95 54 96
REMARK H PARENT 12 5 84 17 17 30 76 49 44 60
REMARK Flexibility Score: inf
ROOT
ATOM      1  C   UNL A   1      31.396  28.869  27.498  1.00  0.00     0.116 C 
ENDROOT
BRANCH   1   2
ATOM      2  N   UNL A   1      31.398  27.421  27.548  1.00  0.00    -0.352 N 
ATOM      3  C   UNL A   1      31.442  26.448  26.585  1.00  0.00     0.251 C 
ATOM      4  O   UNL A   1      31.548  25.286  26.987  1.00  0.00    -0.269 OA
ATOM      5  H   UNL A   1      31.360  27.062  28.464  1.00  0.00     0.163 HD
BRANCH   3   6
ATOM      6  C   UNL A   1      31.370  26.681  25.104  1.00  0.00     0.043 A 
ATOM      7  C   UNL A   1      32.185  26.600  22.806  1.00  0.00     0.120 A 
ATOM      8  C   UNL A   1      31.157  27.443  22.394  1.00  0.00     0.046 A 
ATOM      9  C   UNL A   1      32.293  26.230  24.153  1.00  0.00     0.060 A 
ATOM     10  C   UNL A   1      30.219  27.893  23.319  1.00  0.00     0.005 A 
ATOM     11  C   UNL A   1      30.327  27.515  24.661  1.00  0.00     0.014 A 
BRANCH   7  12
ATOM     12  O   UNL A   1      33.135  26.286  21.866  1.00  0.00    -0.484 OA
BRANCH  12  13
ATOM     13  C   UNL A   1      32.878  25.082  21.145  1.00  0.00     0.329 C 
BRANCH  13  14
ATOM     14  C   UNL A   1      33.220  23.795  21.900  1.00  0.00     0.257 C 
ATOM     15  O   UNL A   1      34.386  23.452  22.085  1.00  0.00    -0.271 OA
ATOM     16  N   UNL A   1      32.130  23.062  22.328  1.00  0.00    -0.353 N 
ATOM     17  H   UNL A   1      31.231  23.458  22.272  1.00  0.00     0.163 HD
BRANCH  16  18
ATOM     18  C   UNL A   1      32.282  21.714  22.860  1.00  0.00     0.121 C 
BRANCH  18  19
ATOM     19  C   UNL A   1      32.207  21.582  24.375  1.00  0.00     0.068 C 
BRANCH  19  20
ATOM     20  C   UNL A   1      33.520  21.889  25.024  1.00  0.00     0.006 A 
ATOM     21  C   UNL A   1      33.913  23.061  25.634  1.00  0.00     0.015 A 
ATOM     22  S   UNL A   1      34.756  20.702  25.070  1.00  0.00    -0.149 S 
ATOM     23  C   UNL A   1      35.230  22.973  26.167  1.00  0.00     0.012 A 
ATOM     24  C   UNL A   1      35.801  21.742  25.933  1.00  0.00     0.065 A 
ENDBRANCH  19  20
ENDBRANCH  18  19
ENDBRANCH  16  18
ENDBRANCH  13  14
ENDBRANCH  12  13
ENDBRANCH   7  12
ENDBRANCH   3   6
ENDBRANCH   1   2
BRANCH   1  25
ATOM     25  C   UNL A   1      32.621  29.412  26.765  1.00  0.00     0.023 C 
BRANCH  25  26
ATOM     26  C   UNL A   1      32.644  30.907  26.484  1.00  0.00     0.023 C 
BRANCH  26  27
ATOM     27  C   UNL A   1      33.421  31.745  27.491  1.00  0.00     0.116 C 
BRANCH  27  28
ATOM     28  N   UNL A   1      32.994  33.137  27.577  1.00  0.00    -0.352 N 
ATOM     29  C   UNL A   1      33.346  34.081  28.526  1.00  0.00     0.251 C 
ATOM     30  H   UNL A   1      32.378  33.443  26.872  1.00  0.00     0.163 HD
ATOM     31  O   UNL A   1      32.752  35.141  28.614  1.00  0.00    -0.269 OA
BRANCH  29  32
ATOM     32  C   UNL A   1      34.475  33.767  29.438  1.00  0.00     0.039 A 
ATOM     33  C   UNL A   1      34.267  32.998  30.585  1.00  0.00     0.014 A 
ATOM     34  C   UNL A   1      35.759  34.201  29.105  1.00  0.00     0.014 A 
ATOM     35  C   UNL A   1      35.370  32.585  31.343  1.00  0.00     0.010 A 
ATOM     36  C   UNL A   1      36.854  33.701  29.791  1.00  0.00     0.010 A 
ATOM     37  C   UNL A   1      36.675  32.892  30.923  1.00  0.00    -0.014 A 
BRANCH  37  38
ATOM     38  C   UNL A   1      37.886  32.389  31.622  1.00  0.00     0.031 A 
ATOM     39  C   UNL A   1      38.723  31.308  30.985  1.00  0.00     0.074 A 
ATOM     40  C   UNL A   1      38.146  32.784  32.885  1.00  0.00     0.049 A 
ATOM     41  N   UNL A   1      39.713  30.622  31.492  1.00  0.00    -0.248 NA
ATOM     42  C   UNL A   1      38.364  30.913  29.611  1.00  0.00     0.031 C 
ATOM     43  C   UNL A   1      37.355  33.748  33.654  1.00  0.00     0.029 A 
ATOM     44  N   UNL A   1      39.127  32.392  33.762  1.00  0.00    -0.354 N 
ATOM     45  C   UNL A   1      40.056  29.682  30.527  1.00  0.00     0.074 A 
ATOM     46  C   UNL A   1      39.143  29.859  29.419  1.00  0.00     0.031 C 
ATOM     47  C   UNL A   1      37.882  33.872  34.883  1.00  0.00     0.029 A 
ATOM     48  C   UNL A   1      39.027  32.976  35.003  1.00  0.00     0.049 A 
ATOM     49  H   UNL A   1      39.836  31.751  33.524  1.00  0.00     0.167 HD
ATOM     50  C   UNL A   1      41.061  28.776  30.542  1.00  0.00     0.034 A 
ATOM     51  C   UNL A   1      39.769  32.804  36.115  1.00  0.00     0.034 A 
ATOM     52  C   UNL A   1      42.014  28.655  31.611  1.00  0.00     0.049 A 
ATOM     53  C   UNL A   1      40.933  31.851  36.077  1.00  0.00     0.074 A 
ATOM     54  C   UNL A   1      43.137  27.850  31.674  1.00  0.00     0.029 A 
ATOM     55  N   UNL A   1      41.958  29.363  32.800  1.00  0.00    -0.354 N 
ATOM     56  N   UNL A   1      41.343  31.090  35.091  1.00  0.00    -0.248 NA
ATOM     57  C   UNL A   1      41.761  31.761  37.289  1.00  0.00     0.031 C 
ATOM     58  C   UNL A   1      43.756  28.065  32.911  1.00  0.00     0.029 A 
ATOM     59  C   UNL A   1      43.028  29.016  33.608  1.00  0.00     0.049 A 
ATOM     60  H   UNL A   1      41.261  30.017  33.037  1.00  0.00     0.167 HD
ATOM     61  C   UNL A   1      42.497  30.462  35.549  1.00  0.00     0.074 A 
ATOM     62  C   UNL A   1      42.729  30.945  36.893  1.00  0.00     0.031 C 
ATOM     63  C   UNL A   1      43.282  29.555  34.918  1.00  0.00     0.034 A 
BRANCH  50  64
ATOM     64  C   UNL A   1      41.228  27.893  29.332  1.00  0.00     0.023 A 
ATOM     65  C   UNL A   1      40.427  26.738  29.200  1.00  0.00     0.012 A 
ATOM     66  C   UNL A   1      42.133  28.227  28.305  1.00  0.00     0.148 A 
ATOM     67  C   UNL A   1      40.552  25.910  28.086  1.00  0.00     0.002 A 
ATOM     68  C   UNL A   1      42.217  27.420  27.175  1.00  0.00     0.091 A 
ATOM     69  F   UNL A   1      42.900  29.315  28.456  1.00  0.00    -0.205 F 
ATOM     70  C   UNL A   1      41.438  26.257  27.070  1.00  0.00     0.022 A 
BRANCH  68  71
ATOM     71  S   UNL A   1      43.266  27.824  25.774  1.00  0.00     0.127 S 
ATOM     72  O   UNL A   1      43.855  29.091  26.203  1.00  0.00    -0.237 OA
ATOM     73  O   UNL A   1      44.199  26.696  25.752  1.00  0.00    -0.237 OA
ATOM     74  O   UNL A   1      42.383  27.902  24.620  1.00  0.00    -0.744 OA
ENDBRANCH  68  71
ENDBRANCH  50  64
BRANCH  51  75
ATOM     75  C   UNL A   1      39.485  33.615  37.334  1.00  0.00     0.023 A 
ATOM     76  C   UNL A   1      39.967  34.938  37.404  1.00  0.00     0.012 A 
ATOM     77  C   UNL A   1      38.720  33.107  38.401  1.00  0.00     0.148 A 
ATOM     78  C   UNL A   1      39.722  35.727  38.528  1.00  0.00     0.002 A 
ATOM     79  C   UNL A   1      38.434  33.917  39.495  1.00  0.00     0.091 A 
ATOM     80  F   UNL A   1      38.278  31.843  38.321  1.00  0.00    -0.205 F 
ATOM     81  C   UNL A   1      38.947  35.220  39.568  1.00  0.00     0.022 A 
BRANCH  79  82
ATOM     82  S   UNL A   1      37.339  33.394  40.820  1.00  0.00     0.127 S 
ATOM     83  O   UNL A   1      37.153  34.638  41.563  1.00  0.00    -0.237 OA
ATOM     84  O   UNL A   1      36.162  32.938  40.078  1.00  0.00    -0.237 OA
ATOM     85  O   UNL A   1      38.052  32.336  41.521  1.00  0.00    -0.744 OA
ENDBRANCH  79  82
ENDBRANCH  51  75
BRANCH  63  86
ATOM     86  C   UNL A   1      44.497  29.051  35.649  1.00  0.00     0.023 A 
ATOM     87  C   UNL A   1      45.741  29.684  35.459  1.00  0.00     0.012 A 
ATOM     88  C   UNL A   1      44.386  28.009  36.590  1.00  0.00     0.148 A 
ATOM     89  C   UNL A   1      46.863  29.269  36.176  1.00  0.00     0.002 A 
ATOM     90  C   UNL A   1      45.498  27.632  37.336  1.00  0.00     0.091 A 
ATOM     91  F   UNL A   1      43.198  27.406  36.742  1.00  0.00    -0.205 F 
ATOM     92  C   UNL A   1      46.739  28.254  37.122  1.00  0.00     0.022 A 
BRANCH  90  93
ATOM     93  S   UNL A   1      45.406  26.404  38.643  1.00  0.00     0.127 S 
ATOM     94  O   UNL A   1      46.811  26.277  39.031  1.00  0.00    -0.237 OA
ATOM     95  O   UNL A   1      44.557  27.065  39.634  1.00  0.00    -0.237 OA
ATOM     96  O   UNL A   1      44.814  25.218  38.037  1.00  0.00    -0.744 OA
ENDBRANCH  90  93
ENDBRANCH  63  86
ENDBRANCH  37  38
ENDBRANCH  29  32
ENDBRANCH  27  28
ENDBRANCH  26  27
ENDBRANCH  25  26
ENDBRANCH   1  25
TORSDOF 20
ENDMDL
MODEL 2
REMARK VINA RESULT:     -10.7      5.828     11.693
REMARK SMILES O=C(COc1cccc(C(=O)NCCCCNC(=O)c2ccc(-c3c4nc(c(-c5cccc(S(=O)(=O)[O-])c5F)c5ccc([nH]5)c(-c5cccc(S(=O)(=O)[O-])c5F)c5nc(c(-c6cccc(S(=O)(=O)[O-])c6F)c6ccc3[nH]6)C=C5)C=C4)cc2)c1)NCCc1cccs1
REMARK SMILES IDX 13 1 12 2 10 3 11 4 9 6 5 7 6 8 83 9 7 10 8 11 4 12 3 13
REMARK SMILES IDX 2 14 1 15 84 16 85 18 86 19 87 20 88 21 91 22 89 23 90 24
REMARK SMILES IDX 14 25 15 26 16 27 17 28 18 29 19 31 20 32 21 33 82 34 22 35
REMARK SMILES IDX 81 36 23 37 24 38 25 39 75 40 26 41 80 42 74 43 76 44 27 45
REMARK SMILES IDX 79 46 73 47 72 48 28 50 60 51 40 52 59 53 41 54 44 55 58 56
REMARK SMILES IDX 77 57 42 58 43 59 57 61 78 62 45 63 29 64 30 65 38 66 31 67
REMARK SMILES IDX 33 68 39 69 32 70 34 71 35 72 36 73 37 74 61 75 62 76 70 77
REMARK SMILES IDX 63 78 65 79 71 80 64 81 66 82 67 83 68 84 69 85 46 86 47 87
REMARK SMILES IDX 55 88 48 89 50 90 56 91 49 92 51 93 52 94 53 95 54 96
REMARK H PARENT 12 5 84 17 17 30 76 49 44 60
REMARK Flexibility Score: inf
ROOT
ATOM      1  C   UNL A   1      35.609  21.582  24.585  1.00  0.00     0.116 C 
ENDROOT
BRANCH   1   2
ATOM      2  N   UNL A   1      34.722  20.495  24.944  1.00  0.00    -0.352 N 
ATOM      3  C   UNL A   1      33.378  20.424  25.200  1.00  0.00     0.251 C 
ATOM      4  O   UNL A   1      32.913  19.293  25.369  1.00  0.00    -0.269 OA
ATOM      5  H   UNL A   1      35.180  19.626  25.021  1.00  0.00     0.163 HD
BRANCH   3   6
ATOM      6  C   UNL A   1      32.444  21.595  25.293  1.00  0.00     0.043 A 
ATOM      7  C   UNL A   1      31.004  23.355  24.411  1.00  0.00     0.120 A 
ATOM      8  C   UNL A   1      30.922  23.942  25.670  1.00  0.00     0.046 A 
ATOM      9  C   UNL A   1      31.766  22.195  24.225  1.00  0.00     0.060 A 
ATOM     10  C   UNL A   1      31.576  23.356  26.750  1.00  0.00     0.005 A 
ATOM     11  C   UNL A   1      32.330  22.195  26.560  1.00  0.00     0.014 A 
BRANCH   7  12
ATOM     12  O   UNL A   1      30.427  24.046  23.374  1.00  0.00    -0.484 OA
BRANCH  12  13
ATOM     13  C   UNL A   1      31.248  25.070  22.816  1.00  0.00     0.329 C 
BRANCH  13  14
ATOM     14  C   UNL A   1      30.824  26.498  23.166  1.00  0.00     0.257 C 
ATOM     15  O   UNL A   1      29.701  26.744  23.601  1.00  0.00    -0.271 OA
ATOM     16  N   UNL A   1      31.784  27.466  22.940  1.00  0.00    -0.353 N 
ATOM     17  H   UNL A   1      32.704  27.190  22.726  1.00  0.00     0.163 HD
BRANCH  16  18
ATOM     18  C   UNL A   1      31.464  28.886  23.012  1.00  0.00     0.121 C 
BRANCH  18  19
ATOM     19  C   UNL A   1      31.103  29.420  24.391  1.00  0.00     0.068 C 
BRANCH  19  20
ATOM     20  C   UNL A   1      32.234  29.265  25.359  1.00  0.00     0.006 A 
ATOM     21  C   UNL A   1      33.517  28.831  25.104  1.00  0.00     0.015 A 
ATOM     22  S   UNL A   1      32.009  29.649  27.014  1.00  0.00    -0.149 S 
ATOM     23  C   UNL A   1      34.329  28.841  26.273  1.00  0.00     0.012 A 
ATOM     24  C   UNL A   1      33.634  29.269  27.382  1.00  0.00     0.065 A 
ENDBRANCH  19  20
ENDBRANCH  18  19
ENDBRANCH  16  18
ENDBRANCH  13  14
ENDBRANCH  12  13
ENDBRANCH   7  12
ENDBRANCH   3   6
ENDBRANCH   1   2
BRANCH   1  25
ATOM     25  C   UNL A   1      36.834  21.637  25.495  1.00  0.00     0.023 C 
BRANCH  25  26
ATOM     26  C   UNL A   1      38.009  20.748  25.117  1.00  0.00     0.023 C 
BRANCH  26  27
ATOM     27  C   UNL A   1      39.197  20.802  26.070  1.00  0.00     0.116 C 
BRANCH  27  28
ATOM     28  N   UNL A   1      40.027  19.603  26.069  1.00  0.00    -0.352 N 
ATOM     29  C   UNL A   1      41.409  19.521  26.061  1.00  0.00     0.251 C 
ATOM     30  H   UNL A   1      39.545  18.744  26.075  1.00  0.00     0.163 HD
ATOM     31  O   UNL A   1      41.979  18.468  25.839  1.00  0.00    -0.269 OA
BRANCH  29  32
ATOM     32  C   UNL A   1      42.183  20.759  26.333  1.00  0.00     0.039 A 
ATOM     33  C   UNL A   1      42.597  21.582  25.284  1.00  0.00     0.014 A 
ATOM     34  C   UNL A   1      42.444  21.121  27.656  1.00  0.00     0.014 A 
ATOM     35  C   UNL A   1      43.187  22.819  25.574  1.00  0.00     0.010 A 
ATOM     36  C   UNL A   1      42.926  22.388  27.940  1.00  0.00     0.010 A 
ATOM     37  C   UNL A   1      43.310  23.252  26.905  1.00  0.00    -0.014 A 
BRANCH  37  38
ATOM     38  C   UNL A   1      43.824  24.598  27.269  1.00  0.00     0.031 A 
ATOM     39  C   UNL A   1      42.872  25.648  27.784  1.00  0.00     0.074 A 
ATOM     40  C   UNL A   1      45.103  24.925  26.994  1.00  0.00     0.049 A 
ATOM     41  N   UNL A   1      43.083  26.919  28.003  1.00  0.00    -0.248 NA
ATOM     42  C   UNL A   1      41.485  25.220  28.040  1.00  0.00     0.031 C 
ATOM     43  C   UNL A   1      46.101  24.032  26.400  1.00  0.00     0.029 A 
ATOM     44  N   UNL A   1      45.773  26.115  27.141  1.00  0.00    -0.354 N 
ATOM     45  C   UNL A   1      41.851  27.451  28.365  1.00  0.00     0.074 A 
ATOM     46  C   UNL A   1      40.888  26.373  28.298  1.00  0.00     0.031 C 
ATOM     47  C   UNL A   1      47.252  24.704  26.235  1.00  0.00     0.029 A 
ATOM     48  C   UNL A   1      47.069  26.081  26.680  1.00  0.00     0.049 A 
ATOM     49  H   UNL A   1      45.364  26.917  27.539  1.00  0.00     0.167 HD
ATOM     50  C   UNL A   1      41.550  28.712  28.752  1.00  0.00     0.034 A 
ATOM     51  C   UNL A   1      48.002  27.051  26.616  1.00  0.00     0.034 A 
ATOM     52  C   UNL A   1      42.522  29.761  28.891  1.00  0.00     0.049 A 
ATOM     53  C   UNL A   1      47.666  28.424  27.132  1.00  0.00     0.074 A 
ATOM     54  C   UNL A   1      42.343  31.040  29.385  1.00  0.00     0.029 A 
ATOM     55  N   UNL A   1      43.858  29.648  28.541  1.00  0.00    -0.354 N 
ATOM     56  N   UNL A   1      46.534  28.864  27.628  1.00  0.00    -0.248 NA
ATOM     57  C   UNL A   1      48.743  29.425  27.116  1.00  0.00     0.031 C 
ATOM     58  C   UNL A   1      43.572  31.706  29.323  1.00  0.00     0.029 A 
ATOM     59  C   UNL A   1      44.518  30.835  28.807  1.00  0.00     0.049 A 
ATOM     60  H   UNL A   1      44.277  28.843  28.158  1.00  0.00     0.167 HD
ATOM     61  C   UNL A   1      46.774  30.176  28.020  1.00  0.00     0.074 A 
ATOM     62  C   UNL A   1      48.162  30.455  27.719  1.00  0.00     0.031 C 
ATOM     63  C   UNL A   1      45.916  31.075  28.563  1.00  0.00     0.034 A 
BRANCH  50  64
ATOM     64  C   UNL A   1      40.120  29.009  29.125  1.00  0.00     0.023 A 
ATOM     65  C   UNL A   1      39.164  29.211  28.107  1.00  0.00     0.012 A 
ATOM     66  C   UNL A   1      39.709  29.038  30.473  1.00  0.00     0.148 A 
ATOM     67  C   UNL A   1      37.833  29.475  28.423  1.00  0.00     0.002 A 
ATOM     68  C   UNL A   1      38.370  29.255  30.778  1.00  0.00     0.091 A 
ATOM     69  F   UNL A   1      40.634  28.865  31.428  1.00  0.00    -0.205 F 
ATOM     70  C   UNL A   1      37.435  29.487  29.757  1.00  0.00     0.022 A 
BRANCH  68  71
ATOM     71  S   UNL A   1      37.741  29.207  32.460  1.00  0.00     0.127 S 
ATOM     72  O   UNL A   1      38.688  30.078  33.154  1.00  0.00    -0.237 OA
ATOM     73  O   UNL A   1      36.400  29.770  32.303  1.00  0.00    -0.237 OA
ATOM     74  O   UNL A   1      37.768  27.807  32.859  1.00  0.00    -0.744 OA
ENDBRANCH  68  71
ENDBRANCH  50  64
BRANCH  51  75
ATOM     75  C   UNL A   1      49.373  26.736  26.119  1.00  0.00     0.023 A 
ATOM     76  C   UNL A   1      50.230  25.957  26.922  1.00  0.00     0.012 A 
ATOM     77  C   UNL A   1      49.821  27.168  24.856  1.00  0.00     0.148 A 
ATOM     78  C   UNL A   1      51.520  25.643  26.491  1.00  0.00     0.002 A 
ATOM     79  C   UNL A   1      51.087  26.806  24.410  1.00  0.00     0.091 A 
ATOM     80  F   UNL A   1      48.995  27.916  24.110  1.00  0.00    -0.205 F 
ATOM     81  C   UNL A   1      51.944  26.058  25.232  1.00  0.00     0.022 A 
BRANCH  79  82
ATOM     82  S   UNL A   1      51.670  27.185  22.753  1.00  0.00     0.127 S 
ATOM     83  O   UNL A   1      50.605  26.624  21.926  1.00  0.00    -0.237 OA
ATOM     84  O   UNL A   1      51.724  28.647  22.779  1.00  0.00    -0.237 OA
ATOM     85  O   UNL A   1      52.970  26.539  22.639  1.00  0.00    -0.744 OA
ENDBRANCH  79  82
ENDBRANCH  51  75
BRANCH  63  86
ATOM     86  C   UNL A   1      46.457  32.435  28.916  1.00  0.00     0.023 A 
ATOM     87  C   UNL A   1      47.174  32.615  30.115  1.00  0.00     0.012 A 
ATOM     88  C   UNL A   1      46.331  33.511  28.015  1.00  0.00     0.148 A 
ATOM     89  C   UNL A   1      47.734  33.853  30.425  1.00  0.00     0.002 A 
ATOM     90  C   UNL A   1      46.932  34.730  28.309  1.00  0.00     0.091 A 
ATOM     91  F   UNL A   1      45.628  33.325  26.888  1.00  0.00    -0.205 F 
ATOM     92  C   UNL A   1      47.624  34.905  29.519  1.00  0.00     0.022 A 
BRANCH  90  93
ATOM     93  S   UNL A   1      46.926  36.107  27.156  1.00  0.00     0.127 S 
ATOM     94  O   UNL A   1      47.541  35.506  25.973  1.00  0.00    -0.237 OA
ATOM     95  O   UNL A   1      45.498  36.396  27.022  1.00  0.00    -0.237 OA
ATOM     96  O   UNL A   1      47.697  37.166  27.794  1.00  0.00    -0.744 OA
ENDBRANCH  90  93
ENDBRANCH  63  86
ENDBRANCH  37  38
ENDBRANCH  29  32
ENDBRANCH  27  28
ENDBRANCH  26  27
ENDBRANCH  25  26
ENDBRANCH   1  25
TORSDOF 20
ENDMDL
MODEL 3
REMARK VINA RESULT:     -10.6      4.523     11.876
REMARK SMILES O=C(COc1cccc(C(=O)NCCCCNC(=O)c2ccc(-c3c4nc(c(-c5cccc(S(=O)(=O)[O-])c5F)c5ccc([nH]5)c(-c5cccc(S(=O)(=O)[O-])c5F)c5nc(c(-c6cccc(S(=O)(=O)[O-])c6F)c6ccc3[nH]6)C=C5)C=C4)cc2)c1)NCCc1cccs1
REMARK SMILES IDX 13 1 12 2 10 3 11 4 9 6 5 7 6 8 83 9 7 10 8 11 4 12 3 13
REMARK SMILES IDX 2 14 1 15 84 16 85 18 86 19 87 20 88 21 91 22 89 23 90 24
REMARK SMILES IDX 14 25 15 26 16 27 17 28 18 29 19 31 20 32 21 33 82 34 22 35
REMARK SMILES IDX 81 36 23 37 24 38 25 39 75 40 26 41 80 42 74 43 76 44 27 45
REMARK SMILES IDX 79 46 73 47 72 48 28 50 60 51 40 52 59 53 41 54 44 55 58 56
REMARK SMILES IDX 77 57 42 58 43 59 57 61 78 62 45 63 29 64 30 65 38 66 31 67
REMARK SMILES IDX 33 68 39 69 32 70 34 71 35 72 36 73 37 74 61 75 62 76 70 77
REMARK SMILES IDX 63 78 65 79 71 80 64 81 66 82 67 83 68 84 69 85 46 86 47 87
REMARK SMILES IDX 55 88 48 89 50 90 56 91 49 92 51 93 52 94 53 95 54 96
REMARK H PARENT 12 5 84 17 17 30 76 49 44 60
REMARK Flexibility Score: inf
ROOT
ATOM      1  C   UNL A   1      34.271  32.769  32.038  1.00  0.00     0.116 C 
ENDROOT
BRANCH   1   2
ATOM      2  N   UNL A   1      34.329  34.068  32.675  1.00  0.00    -0.352 N 
ATOM      3  C   UNL A   1      35.310  34.737  33.357  1.00  0.00     0.251 C 
ATOM      4  O   UNL A   1      35.057  35.902  33.676  1.00  0.00    -0.269 OA
ATOM      5  H   UNL A   1      33.488  34.576  32.602  1.00  0.00     0.163 HD
BRANCH   3   6
ATOM      6  C   UNL A   1      36.645  34.171  33.744  1.00  0.00     0.043 A 
ATOM      7  C   UNL A   1      38.208  32.962  35.176  1.00  0.00     0.120 A 
ATOM      8  C   UNL A   1      39.281  33.417  34.416  1.00  0.00     0.046 A 
ATOM      9  C   UNL A   1      36.901  33.344  34.845  1.00  0.00     0.060 A 
ATOM     10  C   UNL A   1      39.050  34.229  33.308  1.00  0.00     0.005 A 
ATOM     11  C   UNL A   1      37.744  34.601  32.979  1.00  0.00     0.014 A 
BRANCH   7  12
ATOM     12  O   UNL A   1      38.516  32.259  36.314  1.00  0.00    -0.484 OA
BRANCH  12  13
ATOM     13  C   UNL A   1      38.593  33.053  37.497  1.00  0.00     0.329 C 
BRANCH  13  14
ATOM     14  C   UNL A   1      37.816  32.502  38.694  1.00  0.00     0.257 C 
ATOM     15  O   UNL A   1      36.660  32.101  38.577  1.00  0.00    -0.271 OA
ATOM     16  N   UNL A   1      38.504  32.511  39.892  1.00  0.00    -0.353 N 
ATOM     17  H   UNL A   1      39.467  32.712  39.893  1.00  0.00     0.163 HD
BRANCH  16  18
ATOM     18  C   UNL A   1      37.834  32.230  41.156  1.00  0.00     0.121 C 
BRANCH  18  19
ATOM     19  C   UNL A   1      37.791  30.767  41.578  1.00  0.00     0.068 C 
BRANCH  19  20
ATOM     20  C   UNL A   1      38.188  30.591  43.010  1.00  0.00     0.006 A 
ATOM     21  C   UNL A   1      37.954  29.508  43.829  1.00  0.00     0.015 A 
ATOM     22  S   UNL A   1      39.044  31.833  43.824  1.00  0.00    -0.149 S 
ATOM     23  C   UNL A   1      38.508  29.689  45.128  1.00  0.00     0.012 A 
ATOM     24  C   UNL A   1      39.132  30.909  45.258  1.00  0.00     0.065 A 
ENDBRANCH  19  20
ENDBRANCH  18  19
ENDBRANCH  16  18
ENDBRANCH  13  14
ENDBRANCH  12  13
ENDBRANCH   7  12
ENDBRANCH   3   6
ENDBRANCH   1   2
BRANCH   1  25
ATOM     25  C   UNL A   1      35.011  32.760  30.702  1.00  0.00     0.023 C 
BRANCH  25  26
ATOM     26  C   UNL A   1      34.292  33.385  29.516  1.00  0.00     0.023 C 
BRANCH  26  27
ATOM     27  C   UNL A   1      34.804  32.955  28.147  1.00  0.00     0.116 C 
BRANCH  27  28
ATOM     28  N   UNL A   1      34.116  31.800  27.581  1.00  0.00    -0.352 N 
ATOM     29  C   UNL A   1      34.597  30.510  27.429  1.00  0.00     0.251 C 
ATOM     30  H   UNL A   1      33.196  31.957  27.267  1.00  0.00     0.163 HD
ATOM     31  O   UNL A   1      34.007  29.693  26.744  1.00  0.00    -0.269 OA
BRANCH  29  32
ATOM     32  C   UNL A   1      35.854  30.147  28.130  1.00  0.00     0.039 A 
ATOM     33  C   UNL A   1      35.827  29.721  29.460  1.00  0.00     0.014 A 
ATOM     34  C   UNL A   1      37.059  30.181  27.427  1.00  0.00     0.014 A 
ATOM     35  C   UNL A   1      37.001  29.236  30.049  1.00  0.00     0.010 A 
ATOM     36  C   UNL A   1      38.192  29.601  27.974  1.00  0.00     0.010 A 
ATOM     37  C   UNL A   1      38.181  29.126  29.293  1.00  0.00    -0.014 A 
BRANCH  37  38
ATOM     38  C   UNL A   1      39.427  28.517  29.829  1.00  0.00     0.031 A 
ATOM     39  C   UNL A   1      40.110  29.140  31.021  1.00  0.00     0.074 A 
ATOM     40  C   UNL A   1      40.025  27.511  29.161  1.00  0.00     0.049 A 
ATOM     41  N   UNL A   1      41.278  28.868  31.540  1.00  0.00    -0.248 NA
ATOM     42  C   UNL A   1      39.405  30.251  31.685  1.00  0.00     0.031 C 
ATOM     43  C   UNL A   1      39.520  26.886  27.936  1.00  0.00     0.029 A 
ATOM     44  N   UNL A   1      41.212  26.862  29.395  1.00  0.00    -0.354 N 
ATOM     45  C   UNL A   1      41.472  29.804  32.549  1.00  0.00     0.074 A 
ATOM     46  C   UNL A   1      40.319  30.677  32.544  1.00  0.00     0.031 C 
ATOM     47  C   UNL A   1      40.390  25.946  27.529  1.00  0.00     0.029 A 
ATOM     48  C   UNL A   1      41.527  25.921  28.442  1.00  0.00     0.049 A 
ATOM     49  H   UNL A   1      41.785  27.053  30.173  1.00  0.00     0.167 HD
ATOM     50  C   UNL A   1      42.498  29.910  33.425  1.00  0.00     0.034 A 
ATOM     51  C   UNL A   1      42.613  25.133  28.314  1.00  0.00     0.034 A 
ATOM     52  C   UNL A   1      43.604  28.994  33.477  1.00  0.00     0.049 A 
ATOM     53  C   UNL A   1      43.700  25.212  29.351  1.00  0.00     0.074 A 
ATOM     54  C   UNL A   1      44.636  28.942  34.397  1.00  0.00     0.029 A 
ATOM     55  N   UNL A   1      43.819  27.965  32.573  1.00  0.00    -0.354 N 
ATOM     56  N   UNL A   1      43.784  25.995  30.399  1.00  0.00    -0.248 NA
ATOM     57  C   UNL A   1      44.824  24.274  29.212  1.00  0.00     0.031 C 
ATOM     58  C   UNL A   1      45.482  27.887  34.041  1.00  0.00     0.029 A 
ATOM     59  C   UNL A   1      44.967  27.271  32.912  1.00  0.00     0.049 A 
ATOM     60  H   UNL A   1      43.241  27.759  31.803  1.00  0.00     0.167 HD
ATOM     61  C   UNL A   1      44.945  25.619  31.064  1.00  0.00     0.074 A 
ATOM     62  C   UNL A   1      45.523  24.526  30.311  1.00  0.00     0.031 C 
ATOM     63  C   UNL A   1      45.493  26.143  32.189  1.00  0.00     0.034 A 
BRANCH  50  64
ATOM     64  C   UNL A   1      42.435  31.013  34.450  1.00  0.00     0.023 A 
ATOM     65  C   UNL A   1      41.994  30.720  35.758  1.00  0.00     0.012 A 
ATOM     66  C   UNL A   1      42.857  32.321  34.140  1.00  0.00     0.148 A 
ATOM     67  C   UNL A   1      41.937  31.718  36.730  1.00  0.00     0.002 A 
ATOM     68  C   UNL A   1      42.841  33.299  35.128  1.00  0.00     0.091 A 
ATOM     69  F   UNL A   1      43.253  32.587  32.888  1.00  0.00    -0.205 F 
ATOM     70  C   UNL A   1      42.370  33.003  36.417  1.00  0.00     0.022 A 
BRANCH  68  71
ATOM     71  S   UNL A   1      43.455  34.964  34.851  1.00  0.00     0.127 S 
ATOM     72  O   UNL A   1      44.829  34.704  34.424  1.00  0.00    -0.237 OA
ATOM     73  O   UNL A   1      42.570  35.447  33.791  1.00  0.00    -0.237 OA
ATOM     74  O   UNL A   1      43.315  35.661  36.122  1.00  0.00    -0.744 OA
ENDBRANCH  68  71
ENDBRANCH  50  64
BRANCH  51  75
ATOM     75  C   UNL A   1      42.685  24.138  27.205  1.00  0.00     0.023 A 
ATOM     76  C   UNL A   1      43.380  24.476  26.026  1.00  0.00     0.012 A 
ATOM     77  C   UNL A   1      42.106  22.860  27.317  1.00  0.00     0.148 A 
ATOM     78  C   UNL A   1      43.468  23.572  24.967  1.00  0.00     0.002 A 
ATOM     79  C   UNL A   1      42.244  21.944  26.280  1.00  0.00     0.091 A 
ATOM     80  F   UNL A   1      41.441  22.560  28.442  1.00  0.00    -0.205 F 
ATOM     81  C   UNL A   1      42.909  22.303  25.098  1.00  0.00     0.022 A 
BRANCH  79  82
ATOM     82  S   UNL A   1      41.670  20.247  26.411  1.00  0.00     0.127 S 
ATOM     83  O   UNL A   1      42.350  19.613  25.284  1.00  0.00    -0.237 OA
ATOM     84  O   UNL A   1      42.171  19.859  27.730  1.00  0.00    -0.237 OA
ATOM     85  O   UNL A   1      40.219  20.317  26.319  1.00  0.00    -0.744 OA
ENDBRANCH  79  82
ENDBRANCH  51  75
BRANCH  63  86
ATOM     86  C   UNL A   1      46.760  25.518  32.708  1.00  0.00     0.023 A 
ATOM     87  C   UNL A   1      48.009  26.017  32.291  1.00  0.00     0.012 A 
ATOM     88  C   UNL A   1      46.710  24.497  33.678  1.00  0.00     0.148 A 
ATOM     89  C   UNL A   1      49.191  25.490  32.811  1.00  0.00     0.002 A 
ATOM     90  C   UNL A   1      47.890  24.009  34.227  1.00  0.00     0.091 A 
ATOM     91  F   UNL A   1      45.511  24.023  34.048  1.00  0.00    -0.205 F 
ATOM     92  C   UNL A   1      49.131  24.497  33.787  1.00  0.00     0.022 A 
BRANCH  90  93
ATOM     93  S   UNL A   1      47.904  22.803  35.558  1.00  0.00     0.127 S 
ATOM     94  O   UNL A   1      49.338  22.647  35.803  1.00  0.00    -0.237 OA
ATOM     95  O   UNL A   1      47.176  23.500  36.618  1.00  0.00    -0.237 OA
ATOM     96  O   UNL A   1      47.225  21.624  35.036  1.00  0.00    -0.744 OA
ENDBRANCH  90  93
ENDBRANCH  63  86
ENDBRANCH  37  38
ENDBRANCH  29  32
ENDBRANCH  27  28
ENDBRANCH  26  27
ENDBRANCH  25  26
ENDBRANCH   1  25
TORSDOF 20
ENDMDL
