MODEL 1
REMARK VINA RESULT:     -10.0      0.000      0.000
REMARK SMILES C=CCN(CC(=O)NCCCCNC(=O)c1ccc(-c2c3nc(c(-c4cccc(S(=O)(=O)[O-])c4F)c4ccc([nH]4)c(-c4cccc(S(=O)(=O)[O-])c4F)c4nc(c(-c5cccc(S(=O)(=O)[O-])c5F)c5ccc2[nH]5)C=C4)C=C3)cc1)C(=O)N1CCC[C@@H]1C(=O)OCC
REMARK SMILES IDX 9 1 8 2 6 3 7 4 5 6 4 7 3 8 2 9 1 10 79 11 80 12 81 13 82 14
REMARK SMILES IDX 85 15 83 16 84 17 86 18 87 19 88 20 89 21 90 22 10 23 11 24
REMARK SMILES IDX 12 25 13 26 14 27 15 29 16 30 17 31 78 32 18 33 77 34 19 35
REMARK SMILES IDX 20 36 21 37 71 38 22 39 76 40 70 41 72 42 23 43 75 44 69 45
REMARK SMILES IDX 68 46 24 48 56 49 36 50 55 51 37 52 40 53 54 54 73 55 38 56
REMARK SMILES IDX 39 57 53 59 74 60 41 61 25 62 26 63 34 64 27 65 29 66 35 67
REMARK SMILES IDX 28 68 30 69 31 70 32 71 33 72 57 73 58 74 66 75 59 76 61 77
REMARK SMILES IDX 67 78 60 79 62 80 63 81 64 82 65 83 42 84 43 85 51 86 44 87
REMARK SMILES IDX 46 88 52 89 45 90 47 91 48 92 49 93 50 94
REMARK H PARENT 8 5 13 28 72 47 40 58
REMARK Flexibility Score: inf
ROOT
ATOM      1  C   UNL A   1      32.186  26.151  26.439  1.00  0.00     0.116 C 
ENDROOT
BRANCH   1   2
ATOM      2  N   UNL A   1      31.444  24.923  26.608  1.00  0.00    -0.355 N 
ATOM      3  C   UNL A   1      31.011  24.028  25.677  1.00  0.00     0.239 C 
ATOM      4  O   UNL A   1      30.785  22.879  26.076  1.00  0.00    -0.273 OA
ATOM      5  H   UNL A   1      31.218  24.697  27.539  1.00  0.00     0.163 HD
BRANCH   3   6
ATOM      6  C   UNL A   1      30.913  24.344  24.171  1.00  0.00     0.221 C 
BRANCH   6   7
ATOM      7  N   UNL A   1      32.152  24.447  23.390  1.00  0.00    -0.312 N 
BRANCH   7   8
ATOM      8  C   UNL A   1      32.778  25.763  23.297  1.00  0.00     0.149 C 
BRANCH   8   9
ATOM      9  C   UNL A   1      32.196  26.567  22.172  1.00  0.00    -0.013 C 
ATOM     10  C   UNL A   1      31.152  27.392  22.335  1.00  0.00     0.006 C 
ENDBRANCH   8   9
ENDBRANCH   7   8
BRANCH   7  11
ATOM     11  C   UNL A   1      32.871  23.365  22.899  1.00  0.00     0.321 C 
ATOM     12  O   UNL A   1      33.518  23.432  21.853  1.00  0.00    -0.248 OA
BRANCH  11  13
ATOM     13  N   UNL A   1      32.970  22.250  23.702  1.00  0.00    -0.311 N 
ATOM     14  C   UNL A   1      32.391  20.970  23.350  1.00  0.00     0.122 C 
ATOM     15  C   UNL A   1      34.258  21.979  24.347  1.00  0.00     0.197 C 
ATOM     16  C   UNL A   1      32.678  20.134  24.578  1.00  0.00     0.024 C 
ATOM     17  C   UNL A   1      34.090  20.576  24.968  1.00  0.00     0.039 C 
BRANCH  15  18
ATOM     18  C   UNL A   1      34.698  22.976  25.420  1.00  0.00     0.328 C 
ATOM     19  O   UNL A   1      34.164  23.050  26.521  1.00  0.00    -0.250 OA
BRANCH  18  20
ATOM     20  O   UNL A   1      35.616  23.869  24.949  1.00  0.00    -0.464 OA
BRANCH  20  21
ATOM     21  C   UNL A   1      36.885  23.878  25.620  1.00  0.00     0.229 C 
ATOM     22  C   UNL A   1      37.691  22.606  25.394  1.00  0.00     0.049 C 
ENDBRANCH  20  21
ENDBRANCH  18  20
ENDBRANCH  15  18
ENDBRANCH  11  13
ENDBRANCH   7  11
ENDBRANCH   6   7
ENDBRANCH   3   6
ENDBRANCH   1   2
BRANCH   1  23
ATOM     23  C   UNL A   1      31.334  27.415  26.517  1.00  0.00     0.023 C 
BRANCH  23  24
ATOM     24  C   UNL A   1      31.899  28.551  27.367  1.00  0.00     0.023 C 
BRANCH  24  25
ATOM     25  C   UNL A   1      33.290  29.042  26.987  1.00  0.00     0.116 C 
BRANCH  25  26
ATOM     26  N   UNL A   1      33.478  30.474  27.162  1.00  0.00    -0.352 N 
ATOM     27  C   UNL A   1      34.556  31.144  27.702  1.00  0.00     0.251 C 
ATOM     28  H   UNL A   1      32.736  31.041  26.854  1.00  0.00     0.163 HD
ATOM     29  O   UNL A   1      34.518  32.358  27.837  1.00  0.00    -0.269 OA
BRANCH  27  30
ATOM     30  C   UNL A   1      35.738  30.375  28.154  1.00  0.00     0.039 A 
ATOM     31  C   UNL A   1      36.882  30.370  27.351  1.00  0.00     0.014 A 
ATOM     32  C   UNL A   1      35.733  29.699  29.376  1.00  0.00     0.014 A 
ATOM     33  C   UNL A   1      38.046  29.748  27.810  1.00  0.00     0.010 A 
ATOM     34  C   UNL A   1      36.914  29.147  29.864  1.00  0.00     0.010 A 
ATOM     35  C   UNL A   1      38.083  29.167  29.088  1.00  0.00    -0.014 A 
BRANCH  35  36
ATOM     36  C   UNL A   1      39.334  28.591  29.643  1.00  0.00     0.031 A 
ATOM     37  C   UNL A   1      39.986  29.214  30.847  1.00  0.00     0.074 A 
ATOM     38  C   UNL A   1      39.939  27.569  29.005  1.00  0.00     0.049 A 
ATOM     39  N   UNL A   1      41.114  28.901  31.430  1.00  0.00    -0.248 NA
ATOM     40  C   UNL A   1      39.295  30.362  31.458  1.00  0.00     0.031 C 
ATOM     41  C   UNL A   1      39.451  26.928  27.782  1.00  0.00     0.029 A 
ATOM     42  N   UNL A   1      41.111  26.909  29.279  1.00  0.00    -0.354 N 
ATOM     43  C   UNL A   1      41.287  29.831  32.447  1.00  0.00     0.074 A 
ATOM     44  C   UNL A   1      40.167  30.744  32.380  1.00  0.00     0.031 C 
ATOM     45  C   UNL A   1      40.311  25.966  27.415  1.00  0.00     0.029 A 
ATOM     46  C   UNL A   1      41.427  25.939  28.356  1.00  0.00     0.049 A 
ATOM     47  H   UNL A   1      41.672  27.111  30.062  1.00  0.00     0.167 HD
ATOM     48  C   UNL A   1      42.272  29.902  33.375  1.00  0.00     0.034 A 
ATOM     49  C   UNL A   1      42.496  25.123  28.275  1.00  0.00     0.034 A 
ATOM     50  C   UNL A   1      43.360  28.967  33.468  1.00  0.00     0.049 A 
ATOM     51  C   UNL A   1      43.556  25.195  29.340  1.00  0.00     0.074 A 
ATOM     52  C   UNL A   1      44.356  28.897  34.426  1.00  0.00     0.029 A 
ATOM     53  N   UNL A   1      43.600  27.941  32.567  1.00  0.00    -0.354 N 
ATOM     54  N   UNL A   1      43.619  25.977  30.390  1.00  0.00    -0.248 NA
ATOM     55  C   UNL A   1      44.675  24.247  29.229  1.00  0.00     0.031 C 
ATOM     56  C   UNL A   1      45.210  27.840  34.093  1.00  0.00     0.029 A 
ATOM     57  C   UNL A   1      44.733  27.237  32.940  1.00  0.00     0.049 A 
ATOM     58  H   UNL A   1      43.046  27.742  31.777  1.00  0.00     0.167 HD
ATOM     59  C   UNL A   1      44.760  25.594  31.085  1.00  0.00     0.074 A 
ATOM     60  C   UNL A   1      45.350  24.497  30.345  1.00  0.00     0.031 C 
ATOM     61  C   UNL A   1      45.280  26.113  32.224  1.00  0.00     0.034 A 
BRANCH  48  62
ATOM     62  C   UNL A   1      42.181  31.003  34.400  1.00  0.00     0.023 A 
ATOM     63  C   UNL A   1      41.561  30.746  35.641  1.00  0.00     0.012 A 
ATOM     64  C   UNL A   1      42.739  32.273  34.158  1.00  0.00     0.148 A 
ATOM     65  C   UNL A   1      41.457  31.748  36.605  1.00  0.00     0.002 A 
ATOM     66  C   UNL A   1      42.672  33.252  35.143  1.00  0.00     0.091 A 
ATOM     67  F   UNL A   1      43.305  32.508  32.965  1.00  0.00    -0.205 F 
ATOM     68  C   UNL A   1      42.020  32.996  36.360  1.00  0.00     0.022 A 
BRANCH  66  69
ATOM     69  S   UNL A   1      43.437  34.866  34.951  1.00  0.00     0.127 S 
ATOM     70  O   UNL A   1      43.093  35.510  36.218  1.00  0.00    -0.237 OA
ATOM     71  O   UNL A   1      44.853  34.524  34.807  1.00  0.00    -0.237 OA
ATOM     72  O   UNL A   1      42.834  35.454  33.762  1.00  0.00    -0.744 OA
ENDBRANCH  66  69
ENDBRANCH  48  62
BRANCH  49  73
ATOM     73  C   UNL A   1      42.572  24.110  27.184  1.00  0.00     0.023 A 
ATOM     74  C   UNL A   1      43.276  24.424  26.004  1.00  0.00     0.012 A 
ATOM     75  C   UNL A   1      41.996  22.832  27.321  1.00  0.00     0.148 A 
ATOM     76  C   UNL A   1      43.382  23.494  24.970  1.00  0.00     0.002 A 
ATOM     77  C   UNL A   1      42.151  21.893  26.308  1.00  0.00     0.091 A 
ATOM     78  F   UNL A   1      41.323  22.558  28.447  1.00  0.00    -0.205 F 
ATOM     79  C   UNL A   1      42.829  22.226  25.126  1.00  0.00     0.022 A 
BRANCH  77  80
ATOM     80  S   UNL A   1      41.585  20.196  26.473  1.00  0.00     0.127 S 
ATOM     81  O   UNL A   1      40.143  20.342  26.287  1.00  0.00    -0.237 OA
ATOM     82  O   UNL A   1      42.285  19.536  25.369  1.00  0.00    -0.237 OA
ATOM     83  O   UNL A   1      42.011  19.764  27.797  1.00  0.00    -0.744 OA
ENDBRANCH  77  80
ENDBRANCH  49  73
BRANCH  61  84
ATOM     84  C   UNL A   1      46.535  25.483  32.771  1.00  0.00     0.023 A 
ATOM     85  C   UNL A   1      47.794  25.991  32.395  1.00  0.00     0.012 A 
ATOM     86  C   UNL A   1      46.463  24.444  33.719  1.00  0.00     0.148 A 
ATOM     87  C   UNL A   1      48.964  25.454  32.933  1.00  0.00     0.002 A 
ATOM     88  C   UNL A   1      47.631  23.947  34.287  1.00  0.00     0.091 A 
ATOM     89  F   UNL A   1      45.256  23.962  34.050  1.00  0.00    -0.205 F 
ATOM     90  C   UNL A   1      48.882  24.442  33.887  1.00  0.00     0.022 A 
BRANCH  88  91
ATOM     91  S   UNL A   1      47.616  22.712  35.592  1.00  0.00     0.127 S 
ATOM     92  O   UNL A   1      46.793  21.660  34.998  1.00  0.00    -0.237 OA
ATOM     93  O   UNL A   1      49.035  22.378  35.720  1.00  0.00    -0.237 OA
ATOM     94  O   UNL A   1      47.044  23.369  36.760  1.00  0.00    -0.744 OA
ENDBRANCH  88  91
ENDBRANCH  61  84
ENDBRANCH  35  36
ENDBRANCH  27  30
ENDBRANCH  25  26
ENDBRANCH  24  25
ENDBRANCH  23  24
ENDBRANCH   1  23
TORSDOF 22
ENDMDL
MODEL 2
REMARK VINA RESULT:      -9.8      2.576      3.134
REMARK SMILES C=CCN(CC(=O)NCCCCNC(=O)c1ccc(-c2c3nc(c(-c4cccc(S(=O)(=O)[O-])c4F)c4ccc([nH]4)c(-c4cccc(S(=O)(=O)[O-])c4F)c4nc(c(-c5cccc(S(=O)(=O)[O-])c5F)c5ccc2[nH]5)C=C4)C=C3)cc1)C(=O)N1CCC[C@@H]1C(=O)OCC
REMARK SMILES IDX 9 1 8 2 6 3 7 4 5 6 4 7 3 8 2 9 1 10 79 11 80 12 81 13 82 14
REMARK SMILES IDX 85 15 83 16 84 17 86 18 87 19 88 20 89 21 90 22 10 23 11 24
REMARK SMILES IDX 12 25 13 26 14 27 15 29 16 30 17 31 78 32 18 33 77 34 19 35
REMARK SMILES IDX 20 36 21 37 71 38 22 39 76 40 70 41 72 42 23 43 75 44 69 45
REMARK SMILES IDX 68 46 24 48 56 49 36 50 55 51 37 52 40 53 54 54 73 55 38 56
REMARK SMILES IDX 39 57 53 59 74 60 41 61 25 62 26 63 34 64 27 65 29 66 35 67
REMARK SMILES IDX 28 68 30 69 31 70 32 71 33 72 57 73 58 74 66 75 59 76 61 77
REMARK SMILES IDX 67 78 60 79 62 80 63 81 64 82 65 83 42 84 43 85 51 86 44 87
REMARK SMILES IDX 46 88 52 89 45 90 47 91 48 92 49 93 50 94
REMARK H PARENT 8 5 13 28 72 47 40 58
REMARK Flexibility Score: inf
ROOT
ATOM      1  C   UNL A   1      31.300  28.397  24.663  1.00  0.00     0.116 C 
ENDROOT
BRANCH   1   2
ATOM      2  N   UNL A   1      30.484  27.274  25.060  1.00  0.00    -0.355 N 
ATOM      3  C   UNL A   1      30.551  25.966  24.681  1.00  0.00     0.239 C 
ATOM      4  O   UNL A   1      30.048  25.140  25.452  1.00  0.00    -0.273 OA
ATOM      5  H   UNL A   1      29.769  27.484  25.704  1.00  0.00     0.163 HD
BRANCH   3   6
ATOM      6  C   UNL A   1      31.316  25.478  23.434  1.00  0.00     0.221 C 
BRANCH   6   7
ATOM      7  N   UNL A   1      32.754  25.210  23.549  1.00  0.00    -0.312 N 
BRANCH   7   8
ATOM      8  C   UNL A   1      33.614  25.696  22.473  1.00  0.00     0.149 C 
BRANCH   8   9
ATOM      9  C   UNL A   1      33.217  27.075  22.036  1.00  0.00    -0.013 C 
ATOM     10  C   UNL A   1      33.987  28.152  22.248  1.00  0.00     0.006 C 
ENDBRANCH   8   9
ENDBRANCH   7   8
BRANCH   7  11
ATOM     11  C   UNL A   1      33.379  24.706  24.683  1.00  0.00     0.321 C 
ATOM     12  O   UNL A   1      33.826  25.442  25.564  1.00  0.00    -0.248 OA
BRANCH  11  13
ATOM     13  N   UNL A   1      33.345  23.342  24.872  1.00  0.00    -0.311 N 
ATOM     14  C   UNL A   1      32.189  22.647  25.399  1.00  0.00     0.122 C 
ATOM     15  C   UNL A   1      33.925  22.489  23.830  1.00  0.00     0.197 C 
ATOM     16  C   UNL A   1      32.688  21.223  25.510  1.00  0.00     0.024 C 
ATOM     17  C   UNL A   1      33.524  21.056  24.240  1.00  0.00     0.039 C 
BRANCH  15  18
ATOM     18  C   UNL A   1      35.440  22.579  23.651  1.00  0.00     0.328 C 
ATOM     19  O   UNL A   1      35.968  23.167  22.714  1.00  0.00    -0.250 OA
BRANCH  18  20
ATOM     20  O   UNL A   1      36.112  21.794  24.542  1.00  0.00    -0.464 OA
BRANCH  20  21
ATOM     21  C   UNL A   1      36.470  22.418  25.784  1.00  0.00     0.229 C 
ATOM     22  C   UNL A   1      37.235  23.722  25.602  1.00  0.00     0.049 C 
ENDBRANCH  20  21
ENDBRANCH  18  20
ENDBRANCH  15  18
ENDBRANCH  11  13
ENDBRANCH   7  11
ENDBRANCH   6   7
ENDBRANCH   3   6
ENDBRANCH   1   2
BRANCH   1  23
ATOM     23  C   UNL A   1      32.469  28.686  25.601  1.00  0.00     0.023 C 
BRANCH  23  24
ATOM     24  C   UNL A   1      32.835  30.159  25.779  1.00  0.00     0.023 C 
BRANCH  24  25
ATOM     25  C   UNL A   1      32.449  30.787  27.112  1.00  0.00     0.116 C 
BRANCH  25  26
ATOM     26  N   UNL A   1      32.622  32.230  27.156  1.00  0.00    -0.352 N 
ATOM     27  C   UNL A   1      33.701  32.956  27.613  1.00  0.00     0.251 C 
ATOM     28  H   UNL A   1      31.867  32.760  26.814  1.00  0.00     0.163 HD
ATOM     29  O   UNL A   1      33.651  34.177  27.642  1.00  0.00    -0.269 OA
BRANCH  27  30
ATOM     30  C   UNL A   1      34.902  32.243  28.108  1.00  0.00     0.039 A 
ATOM     31  C   UNL A   1      36.114  32.935  28.171  1.00  0.00     0.014 A 
ATOM     32  C   UNL A   1      34.823  30.919  28.543  1.00  0.00     0.014 A 
ATOM     33  C   UNL A   1      37.232  32.320  28.740  1.00  0.00     0.010 A 
ATOM     34  C   UNL A   1      35.916  30.336  29.179  1.00  0.00     0.010 A 
ATOM     35  C   UNL A   1      37.131  31.030  29.285  1.00  0.00    -0.014 A 
BRANCH  35  36
ATOM     36  C   UNL A   1      38.273  30.392  29.989  1.00  0.00     0.031 A 
ATOM     37  C   UNL A   1      38.620  30.799  31.395  1.00  0.00     0.074 A 
ATOM     38  C   UNL A   1      39.060  29.519  29.328  1.00  0.00     0.049 A 
ATOM     39  N   UNL A   1      39.619  30.410  32.144  1.00  0.00    -0.248 NA
ATOM     40  C   UNL A   1      37.746  31.798  32.032  1.00  0.00     0.031 C 
ATOM     41  C   UNL A   1      38.878  29.103  27.935  1.00  0.00     0.029 A 
ATOM     42  N   UNL A   1      40.189  28.849  29.729  1.00  0.00    -0.354 N 
ATOM     43  C   UNL A   1      39.518  31.141  33.320  1.00  0.00     0.074 A 
ATOM     44  C   UNL A   1      38.382  32.024  33.173  1.00  0.00     0.031 C 
ATOM     45  C   UNL A   1      39.855  28.246  27.601  1.00  0.00     0.029 A 
ATOM     46  C   UNL A   1      40.750  28.073  28.741  1.00  0.00     0.049 A 
ATOM     47  H   UNL A   1      40.561  28.917  30.637  1.00  0.00     0.167 HD
ATOM     48  C   UNL A   1      40.282  31.064  34.437  1.00  0.00     0.034 A 
ATOM     49  C   UNL A   1      41.861  27.311  28.752  1.00  0.00     0.034 A 
ATOM     50  C   UNL A   1      41.382  30.154  34.598  1.00  0.00     0.049 A 
ATOM     51  C   UNL A   1      42.670  27.212  30.017  1.00  0.00     0.074 A 
ATOM     52  C   UNL A   1      42.160  29.933  35.722  1.00  0.00     0.029 A 
ATOM     53  N   UNL A   1      41.869  29.317  33.606  1.00  0.00    -0.354 N 
ATOM     54  N   UNL A   1      42.464  27.789  31.175  1.00  0.00    -0.248 NA
ATOM     55  C   UNL A   1      43.844  26.327  29.986  1.00  0.00     0.031 C 
ATOM     56  C   UNL A   1      43.129  28.976  35.402  1.00  0.00     0.029 A 
ATOM     57  C   UNL A   1      42.941  28.584  34.086  1.00  0.00     0.049 A 
ATOM     58  H   UNL A   1      41.505  29.254  32.693  1.00  0.00     0.167 HD
ATOM     59  C   UNL A   1      43.457  27.312  32.022  1.00  0.00     0.074 A 
ATOM     60  C   UNL A   1      44.256  26.384  31.247  1.00  0.00     0.031 C 
ATOM     61  C   UNL A   1      43.695  27.624  33.320  1.00  0.00     0.034 A 
BRANCH  48  62
ATOM     62  C   UNL A   1      39.910  31.955  35.595  1.00  0.00     0.023 A 
ATOM     63  C   UNL A   1      40.545  33.207  35.738  1.00  0.00     0.012 A 
ATOM     64  C   UNL A   1      38.913  31.579  36.514  1.00  0.00     0.148 A 
ATOM     65  C   UNL A   1      40.225  34.049  36.802  1.00  0.00     0.002 A 
ATOM     66  C   UNL A   1      38.567  32.444  37.546  1.00  0.00     0.091 A 
ATOM     67  F   UNL A   1      38.335  30.376  36.377  1.00  0.00    -0.205 F 
ATOM     68  C   UNL A   1      39.231  33.672  37.699  1.00  0.00     0.022 A 
BRANCH  66  69
ATOM     69  S   UNL A   1      37.244  32.082  38.705  1.00  0.00     0.127 S 
ATOM     70  O   UNL A   1      36.155  32.903  38.179  1.00  0.00    -0.237 OA
ATOM     71  O   UNL A   1      37.061  30.640  38.527  1.00  0.00    -0.237 OA
ATOM     72  O   UNL A   1      37.746  32.468  40.016  1.00  0.00    -0.744 OA
ENDBRANCH  66  69
ENDBRANCH  48  62
BRANCH  49  73
ATOM     73  C   UNL A   1      42.227  26.519  27.543  1.00  0.00     0.023 A 
ATOM     74  C   UNL A   1      42.931  27.147  26.497  1.00  0.00     0.012 A 
ATOM     75  C   UNL A   1      41.923  25.147  27.441  1.00  0.00     0.148 A 
ATOM     76  C   UNL A   1      43.304  26.431  25.360  1.00  0.00     0.002 A 
ATOM     77  C   UNL A   1      42.344  24.428  26.327  1.00  0.00     0.091 A 
ATOM     78  F   UNL A   1      41.244  24.571  28.442  1.00  0.00    -0.205 F 
ATOM     79  C   UNL A   1      43.020  25.071  25.280  1.00  0.00     0.022 A 
BRANCH  77  80
ATOM     80  S   UNL A   1      42.136  22.649  26.194  1.00  0.00     0.127 S 
ATOM     81  O   UNL A   1      42.859  22.174  27.371  1.00  0.00    -0.237 OA
ATOM     82  O   UNL A   1      40.680  22.510  26.267  1.00  0.00    -0.237 OA
ATOM     83  O   UNL A   1      42.710  22.280  24.908  1.00  0.00    -0.744 OA
ENDBRANCH  77  80
ENDBRANCH  49  73
BRANCH  61  84
ATOM     84  C   UNL A   1      44.845  26.935  34.007  1.00  0.00     0.023 A 
ATOM     85  C   UNL A   1      46.131  27.512  33.968  1.00  0.00     0.012 A 
ATOM     86  C   UNL A   1      44.636  25.761  34.757  1.00  0.00     0.148 A 
ATOM     87  C   UNL A   1      47.195  26.915  34.643  1.00  0.00     0.002 A 
ATOM     88  C   UNL A   1      45.691  25.199  35.466  1.00  0.00     0.091 A 
ATOM     89  F   UNL A   1      43.410  25.217  34.765  1.00  0.00    -0.205 F 
ATOM     90  C   UNL A   1      46.973  25.766  35.401  1.00  0.00     0.022 A 
BRANCH  88  91
ATOM     91  S   UNL A   1      45.477  23.777  36.544  1.00  0.00     0.127 S 
ATOM     92  O   UNL A   1      44.746  24.363  37.667  1.00  0.00    -0.237 OA
ATOM     93  O   UNL A   1      44.688  22.870  35.709  1.00  0.00    -0.237 OA
ATOM     94  O   UNL A   1      46.818  23.301  36.850  1.00  0.00    -0.744 OA
ENDBRANCH  88  91
ENDBRANCH  61  84
ENDBRANCH  35  36
ENDBRANCH  27  30
ENDBRANCH  25  26
ENDBRANCH  24  25
ENDBRANCH  23  24
ENDBRANCH   1  23
TORSDOF 22
ENDMDL
MODEL 3
REMARK VINA RESULT:      -9.0      3.786      8.784
REMARK SMILES C=CCN(CC(=O)NCCCCNC(=O)c1ccc(-c2c3nc(c(-c4cccc(S(=O)(=O)[O-])c4F)c4ccc([nH]4)c(-c4cccc(S(=O)(=O)[O-])c4F)c4nc(c(-c5cccc(S(=O)(=O)[O-])c5F)c5ccc2[nH]5)C=C4)C=C3)cc1)C(=O)N1CCC[C@@H]1C(=O)OCC
REMARK SMILES IDX 9 1 8 2 6 3 7 4 5 6 4 7 3 8 2 9 1 10 79 11 80 12 81 13 82 14
REMARK SMILES IDX 85 15 83 16 84 17 86 18 87 19 88 20 89 21 90 22 10 23 11 24
REMARK SMILES IDX 12 25 13 26 14 27 15 29 16 30 17 31 78 32 18 33 77 34 19 35
REMARK SMILES IDX 20 36 21 37 71 38 22 39 76 40 70 41 72 42 23 43 75 44 69 45
REMARK SMILES IDX 68 46 24 48 56 49 36 50 55 51 37 52 40 53 54 54 73 55 38 56
REMARK SMILES IDX 39 57 53 59 74 60 41 61 25 62 26 63 34 64 27 65 29 66 35 67
REMARK SMILES IDX 28 68 30 69 31 70 32 71 33 72 57 73 58 74 66 75 59 76 61 77
REMARK SMILES IDX 67 78 60 79 62 80 63 81 64 82 65 83 42 84 43 85 51 86 44 87
REMARK SMILES IDX 46 88 52 89 45 90 47 91 48 92 49 93 50 94
REMARK H PARENT 8 5 13 28 72 47 40 58
REMARK Flexibility Score: inf
ROOT
ATOM      1  C   UNL A   1      33.442  30.025  26.599  1.00  0.00     0.116 C 
ENDROOT
BRANCH   1   2
ATOM      2  N   UNL A   1      32.296  29.278  27.064  1.00  0.00    -0.355 N 
ATOM      3  C   UNL A   1      32.054  27.937  27.031  1.00  0.00     0.239 C 
ATOM      4  O   UNL A   1      31.231  27.503  27.847  1.00  0.00    -0.273 OA
ATOM      5  H   UNL A   1      31.580  29.820  27.467  1.00  0.00     0.163 HD
BRANCH   3   6
ATOM      6  C   UNL A   1      32.829  26.952  26.133  1.00  0.00     0.221 C 
BRANCH   6   7
ATOM      7  N   UNL A   1      32.249  26.569  24.841  1.00  0.00    -0.312 N 
BRANCH   7   8
ATOM      8  C   UNL A   1      31.938  27.643  23.901  1.00  0.00     0.149 C 
BRANCH   8   9
ATOM      9  C   UNL A   1      30.459  27.771  23.688  1.00  0.00    -0.013 C 
ATOM     10  C   UNL A   1      29.928  28.226  22.543  1.00  0.00     0.006 C 
ENDBRANCH   8   9
ENDBRANCH   7   8
BRANCH   7  11
ATOM     11  C   UNL A   1      32.152  25.265  24.371  1.00  0.00     0.321 C 
ATOM     12  O   UNL A   1      32.616  24.928  23.280  1.00  0.00    -0.248 OA
BRANCH  11  13
ATOM     13  N   UNL A   1      31.656  24.314  25.236  1.00  0.00    -0.311 N 
ATOM     14  C   UNL A   1      30.364  24.431  25.881  1.00  0.00     0.122 C 
ATOM     15  C   UNL A   1      31.836  22.903  24.882  1.00  0.00     0.197 C 
ATOM     16  C   UNL A   1      30.340  23.219  26.784  1.00  0.00     0.024 C 
ATOM     17  C   UNL A   1      30.986  22.136  25.917  1.00  0.00     0.039 C 
BRANCH  15  18
ATOM     18  C   UNL A   1      33.273  22.382  24.895  1.00  0.00     0.328 C 
ATOM     19  O   UNL A   1      33.751  21.718  23.982  1.00  0.00    -0.250 OA
BRANCH  18  20
ATOM     20  O   UNL A   1      33.887  22.592  26.096  1.00  0.00    -0.464 OA
BRANCH  20  21
ATOM     21  C   UNL A   1      35.318  22.697  26.060  1.00  0.00     0.229 C 
ATOM     22  C   UNL A   1      35.807  24.077  25.645  1.00  0.00     0.049 C 
ENDBRANCH  20  21
ENDBRANCH  18  20
ENDBRANCH  15  18
ENDBRANCH  11  13
ENDBRANCH   7  11
ENDBRANCH   6   7
ENDBRANCH   3   6
ENDBRANCH   1   2
BRANCH   1  23
ATOM     23  C   UNL A   1      33.874  31.155  27.528  1.00  0.00     0.023 C 
BRANCH  23  24
ATOM     24  C   UNL A   1      32.972  32.388  27.545  1.00  0.00     0.023 C 
BRANCH  24  25
ATOM     25  C   UNL A   1      33.676  33.730  27.701  1.00  0.00     0.116 C 
BRANCH  25  26
ATOM     26  N   UNL A   1      32.917  34.709  28.465  1.00  0.00    -0.352 N 
ATOM     27  C   UNL A   1      33.124  35.145  29.756  1.00  0.00     0.251 C 
ATOM     28  H   UNL A   1      32.152  35.113  27.996  1.00  0.00     0.163 HD
ATOM     29  O   UNL A   1      32.341  35.930  30.271  1.00  0.00    -0.269 OA
BRANCH  27  30
ATOM     30  C   UNL A   1      34.278  34.623  30.525  1.00  0.00     0.039 A 
ATOM     31  C   UNL A   1      34.056  33.610  31.462  1.00  0.00     0.014 A 
ATOM     32  C   UNL A   1      35.570  35.099  30.295  1.00  0.00     0.014 A 
ATOM     33  C   UNL A   1      35.142  33.023  32.116  1.00  0.00     0.010 A 
ATOM     34  C   UNL A   1      36.656  34.461  30.890  1.00  0.00     0.010 A 
ATOM     35  C   UNL A   1      36.453  33.417  31.805  1.00  0.00    -0.014 A 
BRANCH  35  36
ATOM     36  C   UNL A   1      37.630  32.739  32.406  1.00  0.00     0.031 A 
ATOM     37  C   UNL A   1      38.267  31.567  31.711  1.00  0.00     0.074 A 
ATOM     38  C   UNL A   1      38.064  33.115  33.626  1.00  0.00     0.049 A 
ATOM     39  N   UNL A   1      39.251  30.804  32.113  1.00  0.00    -0.248 NA
ATOM     40  C   UNL A   1      37.703  31.181  30.407  1.00  0.00     0.031 C 
ATOM     41  C   UNL A   1      37.481  34.184  34.440  1.00  0.00     0.029 A 
ATOM     42  N   UNL A   1      39.077  32.619  34.409  1.00  0.00    -0.354 N 
ATOM     43  C   UNL A   1      39.399  29.830  31.135  1.00  0.00     0.074 A 
ATOM     44  C   UNL A   1      38.380  30.073  30.138  1.00  0.00     0.031 C 
ATOM     45  C   UNL A   1      38.148  34.268  35.601  1.00  0.00     0.029 A 
ATOM     46  C   UNL A   1      39.186  33.241  35.631  1.00  0.00     0.049 A 
ATOM     47  H   UNL A   1      39.670  31.887  34.123  1.00  0.00     0.167 HD
ATOM     48  C   UNL A   1      40.319  28.838  31.056  1.00  0.00     0.034 A 
ATOM     49  C   UNL A   1      40.023  33.009  36.660  1.00  0.00     0.034 A 
ATOM     50  C   UNL A   1      41.359  28.625  32.025  1.00  0.00     0.049 A 
ATOM     51  C   UNL A   1      41.062  31.928  36.531  1.00  0.00     0.074 A 
ATOM     52  C   UNL A   1      42.395  27.708  31.989  1.00  0.00     0.029 A 
ATOM     53  N   UNL A   1      41.493  29.333  33.209  1.00  0.00    -0.354 N 
ATOM     54  N   UNL A   1      41.291  31.120  35.525  1.00  0.00    -0.248 NA
ATOM     55  C   UNL A   1      41.982  31.752  37.665  1.00  0.00     0.031 C 
ATOM     56  C   UNL A   1      43.145  27.849  33.162  1.00  0.00     0.029 A 
ATOM     57  C   UNL A   1      42.589  28.869  33.918  1.00  0.00     0.049 A 
ATOM     58  H   UNL A   1      40.896  30.059  33.504  1.00  0.00     0.167 HD
ATOM     59  C   UNL A   1      42.400  30.364  35.886  1.00  0.00     0.074 A 
ATOM     60  C   UNL A   1      42.809  30.824  37.198  1.00  0.00     0.031 C 
ATOM     61  C   UNL A   1      43.016  29.371  35.199  1.00  0.00     0.034 A 
BRANCH  48  62
ATOM     62  C   UNL A   1      40.272  27.943  29.844  1.00  0.00     0.023 A 
ATOM     63  C   UNL A   1      39.374  26.856  29.819  1.00  0.00     0.012 A 
ATOM     64  C   UNL A   1      41.081  28.195  28.719  1.00  0.00     0.148 A 
ATOM     65  C   UNL A   1      39.312  26.008  28.713  1.00  0.00     0.002 A 
ATOM     66  C   UNL A   1      40.981  27.373  27.602  1.00  0.00     0.091 A 
ATOM     67  F   UNL A   1      41.946  29.219  28.768  1.00  0.00    -0.205 F 
ATOM     68  C   UNL A   1      40.108  26.272  27.603  1.00  0.00     0.022 A 
BRANCH  66  69
ATOM     69  S   UNL A   1      41.908  27.678  26.094  1.00  0.00     0.127 S 
ATOM     70  O   UNL A   1      41.452  26.583  25.240  1.00  0.00    -0.237 OA
ATOM     71  O   UNL A   1      41.426  29.002  25.696  1.00  0.00    -0.237 OA
ATOM     72  O   UNL A   1      43.313  27.637  26.475  1.00  0.00    -0.744 OA
ENDBRANCH  66  69
ENDBRANCH  48  62
BRANCH  49  73
ATOM     73  C   UNL A   1      39.963  33.874  37.873  1.00  0.00     0.023 A 
ATOM     74  C   UNL A   1      40.687  35.083  37.891  1.00  0.00     0.012 A 
ATOM     75  C   UNL A   1      39.167  33.534  38.983  1.00  0.00     0.148 A 
ATOM     76  C   UNL A   1      40.640  35.924  39.002  1.00  0.00     0.002 A 
ATOM     77  C   UNL A   1      39.083  34.403  40.066  1.00  0.00     0.091 A 
ATOM     78  F   UNL A   1      38.494  32.375  38.950  1.00  0.00    -0.205 F 
ATOM     79  C   UNL A   1      39.831  35.590  40.084  1.00  0.00     0.022 A 
BRANCH  77  80
ATOM     80  S   UNL A   1      37.970  34.119  41.447  1.00  0.00     0.127 S 
ATOM     81  O   UNL A   1      38.759  33.222  42.287  1.00  0.00    -0.237 OA
ATOM     82  O   UNL A   1      37.800  35.472  41.979  1.00  0.00    -0.237 OA
ATOM     83  O   UNL A   1      36.763  33.545  40.869  1.00  0.00    -0.744 OA
ENDBRANCH  77  80
ENDBRANCH  49  73
BRANCH  61  84
ATOM     84  C   UNL A   1      44.224  28.728  35.830  1.00  0.00     0.023 A 
ATOM     85  C   UNL A   1      45.514  29.199  35.515  1.00  0.00     0.012 A 
ATOM     86  C   UNL A   1      44.075  27.712  36.796  1.00  0.00     0.148 A 
ATOM     87  C   UNL A   1      46.639  28.650  36.130  1.00  0.00     0.002 A 
ATOM     88  C   UNL A   1      45.197  27.204  37.440  1.00  0.00     0.091 A 
ATOM     89  F   UNL A   1      42.841  27.264  37.068  1.00  0.00    -0.205 F 
ATOM     90  C   UNL A   1      46.480  27.662  37.100  1.00  0.00     0.022 A 
BRANCH  88  91
ATOM     91  S   UNL A   1      45.081  26.000  38.769  1.00  0.00     0.127 S 
ATOM     92  O   UNL A   1      44.529  24.840  38.073  1.00  0.00    -0.237 OA
ATOM     93  O   UNL A   1      46.478  25.857  39.182  1.00  0.00    -0.237 OA
ATOM     94  O   UNL A   1      44.214  26.598  39.776  1.00  0.00    -0.744 OA
ENDBRANCH  88  91
ENDBRANCH  61  84
ENDBRANCH  35  36
ENDBRANCH  27  30
ENDBRANCH  25  26
ENDBRANCH  24  25
ENDBRANCH  23  24
ENDBRANCH   1  23
TORSDOF 22
ENDMDL
