MODEL 1
REMARK VINA RESULT:     -11.6      0.000      0.000
REMARK SMILES CC(C)(CNC(=O)NCc1cccs1)C(=O)NCCCCNC(=O)c1ccc(-c2c3nc(c(-c4cccc(S(=O)(=O)[O-])c4F)c4ccc([nH]4)c(-c4cccc(S(=O)(=O)[O-])c4F)c4nc(c(-c5cccc(S(=O)(=O)[O-])c5F)c5ccc2[nH]5)C=C4)C=C3)cc1
REMARK SMILES IDX 19 1 18 2 17 3 15 4 16 5 2 7 1 8 3 9 4 10 5 11 6 12 7 14
REMARK SMILES IDX 8 15 9 17 10 18 11 19 14 20 12 21 13 22 20 23 21 24 22 25
REMARK SMILES IDX 23 26 24 28 25 29 26 30 87 31 27 32 86 33 28 34 29 35 30 36
REMARK SMILES IDX 80 37 31 38 85 39 79 40 81 41 32 42 84 43 78 44 77 45 33 47
REMARK SMILES IDX 65 48 45 49 64 50 46 51 49 52 63 53 82 54 47 55 48 56 62 58
REMARK SMILES IDX 83 59 50 60 34 61 35 62 43 63 36 64 38 65 44 66 37 67 39 68
REMARK SMILES IDX 40 69 41 70 42 71 66 72 67 73 75 74 68 75 70 76 76 77 69 78
REMARK SMILES IDX 71 79 72 80 73 81 74 82 51 83 52 84 60 85 53 86 55 87 61 88
REMARK SMILES IDX 54 89 56 90 57 91 58 92 59 93
REMARK H PARENT 17 6 5 13 8 16 22 27 81 46 49 57
REMARK Flexibility Score: inf
ROOT
ATOM      1  C   UNL A   1      31.850  28.079  27.175  1.00  0.00     0.023 C 
ENDROOT
BRANCH   1   2
ATOM      2  C   UNL A   1      31.113  27.063  26.303  1.00  0.00     0.116 C 
BRANCH   2   3
ATOM      3  N   UNL A   1      31.105  25.736  26.886  1.00  0.00    -0.356 N 
ATOM      4  C   UNL A   1      31.701  24.568  26.534  1.00  0.00     0.227 C 
ATOM      5  O   UNL A   1      31.479  23.604  27.275  1.00  0.00    -0.274 OA
ATOM      6  H   UNL A   1      30.557  25.669  27.702  1.00  0.00     0.163 HD
BRANCH   4   7
ATOM      7  C   UNL A   1      32.631  24.415  25.312  1.00  0.00     0.061 C 
ATOM      8  C   UNL A   1      32.956  22.913  25.123  1.00  0.00     0.023 C 
ATOM      9  C   UNL A   1      33.976  25.121  25.582  1.00  0.00     0.023 C 
BRANCH   7  10
ATOM     10  C   UNL A   1      32.013  24.934  23.997  1.00  0.00     0.134 C 
BRANCH  10  11
ATOM     11  N   UNL A   1      32.925  25.638  23.109  1.00  0.00    -0.337 N 
ATOM     12  C   UNL A   1      32.830  26.732  22.331  1.00  0.00     0.315 C 
ATOM     13  H   UNL A   1      33.815  25.219  23.068  1.00  0.00     0.165 HD
ATOM     14  O   UNL A   1      33.838  27.103  21.729  1.00  0.00    -0.249 OA
ATOM     15  N   UNL A   1      31.693  27.429  22.172  1.00  0.00    -0.333 N 
ATOM     16  H   UNL A   1      31.762  28.196  21.558  1.00  0.00     0.165 HD
BRANCH  15  17
ATOM     17  C   UNL A   1      30.396  27.239  22.752  1.00  0.00     0.164 C 
BRANCH  17  18
ATOM     18  C   UNL A   1      29.486  28.421  22.702  1.00  0.00     0.024 A 
ATOM     19  C   UNL A   1      28.189  28.445  23.185  1.00  0.00     0.017 A 
ATOM     20  S   UNL A   1      29.865  29.862  21.865  1.00  0.00    -0.147 S 
ATOM     21  C   UNL A   1      27.498  29.636  22.835  1.00  0.00     0.012 A 
ATOM     22  C   UNL A   1      28.295  30.496  22.115  1.00  0.00     0.065 A 
ENDBRANCH  17  18
ENDBRANCH  15  17
ENDBRANCH  10  11
ENDBRANCH   7  10
ENDBRANCH   4   7
ENDBRANCH   2   3
ENDBRANCH   1   2
BRANCH   1  23
ATOM     23  C   UNL A   1      31.449  29.535  26.972  1.00  0.00     0.023 C 
BRANCH  23  24
ATOM     24  C   UNL A   1      32.510  30.417  26.330  1.00  0.00     0.116 C 
BRANCH  24  25
ATOM     25  N   UNL A   1      32.430  31.819  26.726  1.00  0.00    -0.352 N 
ATOM     26  C   UNL A   1      33.317  32.565  27.468  1.00  0.00     0.251 C 
ATOM     27  H   UNL A   1      31.628  32.300  26.418  1.00  0.00     0.163 HD
ATOM     28  O   UNL A   1      33.044  33.722  27.777  1.00  0.00    -0.269 OA
BRANCH  26  29
ATOM     29  C   UNL A   1      34.583  31.951  27.922  1.00  0.00     0.039 A 
ATOM     30  C   UNL A   1      35.701  32.763  28.130  1.00  0.00     0.014 A 
ATOM     31  C   UNL A   1      34.644  30.586  28.207  1.00  0.00     0.014 A 
ATOM     32  C   UNL A   1      36.848  32.223  28.715  1.00  0.00     0.010 A 
ATOM     33  C   UNL A   1      35.746  30.075  28.881  1.00  0.00     0.010 A 
ATOM     34  C   UNL A   1      36.862  30.885  29.144  1.00  0.00    -0.014 A 
BRANCH  34  35
ATOM     35  C   UNL A   1      38.018  30.303  29.875  1.00  0.00     0.031 A 
ATOM     36  C   UNL A   1      38.304  30.738  31.290  1.00  0.00     0.074 A 
ATOM     37  C   UNL A   1      38.879  29.486  29.235  1.00  0.00     0.049 A 
ATOM     38  N   UNL A   1      39.330  30.457  32.048  1.00  0.00    -0.248 NA
ATOM     39  C   UNL A   1      37.328  31.645  31.918  1.00  0.00     0.031 C 
ATOM     40  C   UNL A   1      38.769  29.064  27.836  1.00  0.00     0.029 A 
ATOM     41  N   UNL A   1      40.036  28.887  29.668  1.00  0.00    -0.354 N 
ATOM     42  C   UNL A   1      39.153  31.193  33.214  1.00  0.00     0.074 A 
ATOM     43  C   UNL A   1      37.940  31.963  33.048  1.00  0.00     0.031 C 
ATOM     44  C   UNL A   1      39.808  28.268  27.531  1.00  0.00     0.029 A 
ATOM     45  C   UNL A   1      40.673  28.145  28.700  1.00  0.00     0.049 A 
ATOM     46  H   UNL A   1      40.378  28.980  30.588  1.00  0.00     0.167 HD
ATOM     47  C   UNL A   1      39.908  31.200  34.337  1.00  0.00     0.034 A 
ATOM     48  C   UNL A   1      41.824  27.445  28.749  1.00  0.00     0.034 A 
ATOM     49  C   UNL A   1      41.063  30.369  34.533  1.00  0.00     0.049 A 
ATOM     50  C   UNL A   1      42.595  27.398  30.041  1.00  0.00     0.074 A 
ATOM     51  C   UNL A   1      41.836  30.224  35.671  1.00  0.00     0.029 A 
ATOM     52  N   UNL A   1      41.604  29.531  33.571  1.00  0.00    -0.354 N 
ATOM     53  N   UNL A   1      42.324  27.981  31.185  1.00  0.00    -0.248 NA
ATOM     54  C   UNL A   1      43.808  26.568  30.063  1.00  0.00     0.031 C 
ATOM     55  C   UNL A   1      42.845  29.294  35.396  1.00  0.00     0.029 A 
ATOM     56  C   UNL A   1      42.695  28.857  34.090  1.00  0.00     0.049 A 
ATOM     57  H   UNL A   1      41.261  29.429  32.653  1.00  0.00     0.167 HD
ATOM     58  C   UNL A   1      43.310  27.560  32.069  1.00  0.00     0.074 A 
ATOM     59  C   UNL A   1      44.172  26.657  31.336  1.00  0.00     0.031 C 
ATOM     60  C   UNL A   1      43.498  27.907  33.366  1.00  0.00     0.034 A 
BRANCH  47  61
ATOM     61  C   UNL A   1      39.456  32.076  35.476  1.00  0.00     0.023 A 
ATOM     62  C   UNL A   1      38.585  31.546  36.451  1.00  0.00     0.012 A 
ATOM     63  C   UNL A   1      39.922  33.398  35.613  1.00  0.00     0.148 A 
ATOM     64  C   UNL A   1      38.156  32.326  37.522  1.00  0.00     0.002 A 
ATOM     65  C   UNL A   1      39.525  34.157  36.709  1.00  0.00     0.091 A 
ATOM     66  F   UNL A   1      40.732  33.894  34.666  1.00  0.00    -0.205 F 
ATOM     67  C   UNL A   1      38.634  33.626  37.657  1.00  0.00     0.022 A 
BRANCH  65  68
ATOM     68  S   UNL A   1      40.141  35.817  37.015  1.00  0.00     0.127 S 
ATOM     69  O   UNL A   1      39.691  36.524  35.816  1.00  0.00    -0.237 OA
ATOM     70  O   UNL A   1      39.435  36.187  38.242  1.00  0.00    -0.237 OA
ATOM     71  O   UNL A   1      41.584  35.687  37.162  1.00  0.00    -0.744 OA
ENDBRANCH  65  68
ENDBRANCH  47  61
BRANCH  48  72
ATOM     72  C   UNL A   1      42.271  26.656  27.565  1.00  0.00     0.023 A 
ATOM     73  C   UNL A   1      43.015  27.301  26.557  1.00  0.00     0.012 A 
ATOM     74  C   UNL A   1      41.990  25.283  27.437  1.00  0.00     0.148 A 
ATOM     75  C   UNL A   1      43.441  26.602  25.427  1.00  0.00     0.002 A 
ATOM     76  C   UNL A   1      42.461  24.581  26.333  1.00  0.00     0.091 A 
ATOM     77  F   UNL A   1      41.268  24.689  28.398  1.00  0.00    -0.205 F 
ATOM     78  C   UNL A   1      43.173  25.241  25.319  1.00  0.00     0.022 A 
BRANCH  76  79
ATOM     79  S   UNL A   1      42.269  22.800  26.177  1.00  0.00     0.127 S 
ATOM     80  O   UNL A   1      42.903  22.543  24.887  1.00  0.00    -0.237 OA
ATOM     81  O   UNL A   1      43.011  22.309  27.338  1.00  0.00    -0.237 OA
ATOM     82  O   UNL A   1      40.833  22.562  26.242  1.00  0.00    -0.744 OA
ENDBRANCH  76  79
ENDBRANCH  48  72
BRANCH  60  83
ATOM     83  C   UNL A   1      44.655  27.281  34.096  1.00  0.00     0.023 A 
ATOM     84  C   UNL A   1      45.919  27.901  34.058  1.00  0.00     0.012 A 
ATOM     85  C   UNL A   1      44.469  26.133  34.891  1.00  0.00     0.148 A 
ATOM     86  C   UNL A   1      46.988  27.373  34.779  1.00  0.00     0.002 A 
ATOM     87  C   UNL A   1      45.529  25.638  35.642  1.00  0.00     0.091 A 
ATOM     88  F   UNL A   1      43.264  25.546  34.898  1.00  0.00    -0.205 F 
ATOM     89  C   UNL A   1      46.790  26.251  35.581  1.00  0.00     0.022 A 
BRANCH  87  90
ATOM     90  S   UNL A   1      45.335  24.254  36.772  1.00  0.00     0.127 S 
ATOM     91  O   UNL A   1      46.686  24.118  37.313  1.00  0.00    -0.237 OA
ATOM     92  O   UNL A   1      44.346  24.765  37.725  1.00  0.00    -0.237 OA
ATOM     93  O   UNL A   1      44.866  23.140  35.960  1.00  0.00    -0.744 OA
ENDBRANCH  87  90
ENDBRANCH  60  83
ENDBRANCH  34  35
ENDBRANCH  26  29
ENDBRANCH  24  25
ENDBRANCH  23  24
ENDBRANCH   1  23
TORSDOF 18
ENDMDL
MODEL 2
REMARK VINA RESULT:     -11.3      2.431      4.024
REMARK SMILES CC(C)(CNC(=O)NCc1cccs1)C(=O)NCCCCNC(=O)c1ccc(-c2c3nc(c(-c4cccc(S(=O)(=O)[O-])c4F)c4ccc([nH]4)c(-c4cccc(S(=O)(=O)[O-])c4F)c4nc(c(-c5cccc(S(=O)(=O)[O-])c5F)c5ccc2[nH]5)C=C4)C=C3)cc1
REMARK SMILES IDX 19 1 18 2 17 3 15 4 16 5 2 7 1 8 3 9 4 10 5 11 6 12 7 14
REMARK SMILES IDX 8 15 9 17 10 18 11 19 14 20 12 21 13 22 20 23 21 24 22 25
REMARK SMILES IDX 23 26 24 28 25 29 26 30 87 31 27 32 86 33 28 34 29 35 30 36
REMARK SMILES IDX 80 37 31 38 85 39 79 40 81 41 32 42 84 43 78 44 77 45 33 47
REMARK SMILES IDX 65 48 45 49 64 50 46 51 49 52 63 53 82 54 47 55 48 56 62 58
REMARK SMILES IDX 83 59 50 60 34 61 35 62 43 63 36 64 38 65 44 66 37 67 39 68
REMARK SMILES IDX 40 69 41 70 42 71 66 72 67 73 75 74 68 75 70 76 76 77 69 78
REMARK SMILES IDX 71 79 72 80 73 81 74 82 51 83 52 84 60 85 53 86 55 87 61 88
REMARK SMILES IDX 54 89 56 90 57 91 58 92 59 93
REMARK H PARENT 17 6 5 13 8 16 22 27 81 46 49 57
REMARK Flexibility Score: inf
ROOT
ATOM      1  C   UNL A   1      30.992  28.278  24.772  1.00  0.00     0.023 C 
ENDROOT
BRANCH   1   2
ATOM      2  C   UNL A   1      31.096  26.782  24.475  1.00  0.00     0.116 C 
BRANCH   2   3
ATOM      3  N   UNL A   1      30.998  25.972  25.673  1.00  0.00    -0.356 N 
ATOM      4  C   UNL A   1      31.723  24.924  26.143  1.00  0.00     0.227 C 
ATOM      5  O   UNL A   1      31.359  24.459  27.228  1.00  0.00    -0.274 OA
ATOM      6  H   UNL A   1      30.257  26.235  26.265  1.00  0.00     0.163 HD
BRANCH   4   7
ATOM      7  C   UNL A   1      32.952  24.338  25.415  1.00  0.00     0.061 C 
ATOM      8  C   UNL A   1      34.092  25.384  25.450  1.00  0.00     0.023 C 
ATOM      9  C   UNL A   1      32.621  24.105  23.927  1.00  0.00     0.023 C 
BRANCH   7  10
ATOM     10  C   UNL A   1      33.483  23.037  26.052  1.00  0.00     0.134 C 
BRANCH  10  11
ATOM     11  N   UNL A   1      34.928  22.869  26.026  1.00  0.00    -0.337 N 
ATOM     12  C   UNL A   1      35.756  21.856  25.712  1.00  0.00     0.315 C 
ATOM     13  H   UNL A   1      35.410  23.683  26.301  1.00  0.00     0.165 HD
ATOM     14  O   UNL A   1      36.969  22.069  25.745  1.00  0.00    -0.249 OA
ATOM     15  N   UNL A   1      35.328  20.628  25.377  1.00  0.00    -0.333 N 
ATOM     16  H   UNL A   1      36.044  19.978  25.190  1.00  0.00     0.165 HD
BRANCH  15  17
ATOM     17  C   UNL A   1      33.998  20.111  25.244  1.00  0.00     0.164 C 
BRANCH  17  18
ATOM     18  C   UNL A   1      33.898  18.647  24.972  1.00  0.00     0.024 A 
ATOM     19  C   UNL A   1      34.817  17.910  24.247  1.00  0.00     0.017 A 
ATOM     20  S   UNL A   1      32.523  17.712  25.368  1.00  0.00    -0.147 S 
ATOM     21  C   UNL A   1      34.373  16.585  23.988  1.00  0.00     0.012 A 
ATOM     22  C   UNL A   1      33.137  16.343  24.544  1.00  0.00     0.065 A 
ENDBRANCH  17  18
ENDBRANCH  15  17
ENDBRANCH  10  11
ENDBRANCH   7  10
ENDBRANCH   4   7
ENDBRANCH   2   3
ENDBRANCH   1   2
BRANCH   1  23
ATOM     23  C   UNL A   1      31.774  28.763  25.987  1.00  0.00     0.023 C 
BRANCH  23  24
ATOM     24  C   UNL A   1      32.836  29.814  25.698  1.00  0.00     0.116 C 
BRANCH  24  25
ATOM     25  N   UNL A   1      32.557  31.116  26.297  1.00  0.00    -0.352 N 
ATOM     26  C   UNL A   1      33.276  31.810  27.242  1.00  0.00     0.251 C 
ATOM     27  H   UNL A   1      31.737  31.559  25.979  1.00  0.00     0.163 HD
ATOM     28  O   UNL A   1      32.842  32.866  27.696  1.00  0.00    -0.269 OA
BRANCH  26  29
ATOM     29  C   UNL A   1      34.554  31.256  27.736  1.00  0.00     0.039 A 
ATOM     30  C   UNL A   1      35.654  32.105  27.886  1.00  0.00     0.014 A 
ATOM     31  C   UNL A   1      34.645  29.915  28.113  1.00  0.00     0.014 A 
ATOM     32  C   UNL A   1      36.813  31.631  28.506  1.00  0.00     0.010 A 
ATOM     33  C   UNL A   1      35.758  29.475  28.818  1.00  0.00     0.010 A 
ATOM     34  C   UNL A   1      36.856  30.326  29.024  1.00  0.00    -0.014 A 
BRANCH  34  35
ATOM     35  C   UNL A   1      38.025  29.821  29.792  1.00  0.00     0.031 A 
ATOM     36  C   UNL A   1      38.280  30.330  31.187  1.00  0.00     0.074 A 
ATOM     37  C   UNL A   1      38.920  29.006  29.198  1.00  0.00     0.049 A 
ATOM     38  N   UNL A   1      39.308  30.122  31.967  1.00  0.00    -0.248 NA
ATOM     39  C   UNL A   1      37.266  31.230  31.764  1.00  0.00     0.031 C 
ATOM     40  C   UNL A   1      38.841  28.517  27.819  1.00  0.00     0.029 A 
ATOM     41  N   UNL A   1      40.094  28.470  29.669  1.00  0.00    -0.354 N 
ATOM     42  C   UNL A   1      39.092  30.904  33.096  1.00  0.00     0.074 A 
ATOM     43  C   UNL A   1      37.854  31.621  32.883  1.00  0.00     0.031 C 
ATOM     44  C   UNL A   1      39.911  27.745  27.561  1.00  0.00     0.029 A 
ATOM     45  C   UNL A   1      40.768  27.708  28.741  1.00  0.00     0.049 A 
ATOM     46  H   UNL A   1      40.423  28.618  30.586  1.00  0.00     0.167 HD
ATOM     47  C   UNL A   1      39.835  30.990  34.224  1.00  0.00     0.034 A 
ATOM     48  C   UNL A   1      41.942  27.054  28.833  1.00  0.00     0.034 A 
ATOM     49  C   UNL A   1      41.016  30.212  34.468  1.00  0.00     0.049 A 
ATOM     50  C   UNL A   1      42.700  27.094  30.133  1.00  0.00     0.074 A 
ATOM     51  C   UNL A   1      41.782  30.147  35.618  1.00  0.00     0.029 A 
ATOM     52  N   UNL A   1      41.597  29.350  33.551  1.00  0.00    -0.354 N 
ATOM     53  N   UNL A   1      42.397  27.719  31.246  1.00  0.00    -0.248 NA
ATOM     54  C   UNL A   1      43.943  26.311  30.204  1.00  0.00     0.031 C 
ATOM     55  C   UNL A   1      42.826  29.242  35.396  1.00  0.00     0.029 A 
ATOM     56  C   UNL A   1      42.705  28.741  34.110  1.00  0.00     0.049 A 
ATOM     57  H   UNL A   1      41.267  29.194  32.636  1.00  0.00     0.167 HD
ATOM     58  C   UNL A   1      43.388  27.375  32.158  1.00  0.00     0.074 A 
ATOM     59  C   UNL A   1      44.289  26.471  31.475  1.00  0.00     0.031 C 
ATOM     60  C   UNL A   1      43.549  27.788  33.439  1.00  0.00     0.034 A 
BRANCH  47  61
ATOM     61  C   UNL A   1      39.340  31.901  35.317  1.00  0.00     0.023 A 
ATOM     62  C   UNL A   1      39.586  33.287  35.225  1.00  0.00     0.012 A 
ATOM     63  C   UNL A   1      38.596  31.403  36.404  1.00  0.00     0.148 A 
ATOM     64  C   UNL A   1      39.133  34.157  36.213  1.00  0.00     0.002 A 
ATOM     65  C   UNL A   1      38.109  32.284  37.364  1.00  0.00     0.091 A 
ATOM     66  F   UNL A   1      38.389  30.080  36.488  1.00  0.00    -0.205 F 
ATOM     67  C   UNL A   1      38.386  33.658  37.276  1.00  0.00     0.022 A 
BRANCH  65  68
ATOM     68  S   UNL A   1      37.074  31.752  38.733  1.00  0.00     0.127 S 
ATOM     69  O   UNL A   1      37.958  31.975  39.876  1.00  0.00    -0.237 OA
ATOM     70  O   UNL A   1      35.946  32.679  38.646  1.00  0.00    -0.237 OA
ATOM     71  O   UNL A   1      36.737  30.361  38.463  1.00  0.00    -0.744 OA
ENDBRANCH  65  68
ENDBRANCH  47  61
BRANCH  48  72
ATOM     72  C   UNL A   1      42.430  26.227  27.692  1.00  0.00     0.023 A 
ATOM     73  C   UNL A   1      43.352  26.791  26.787  1.00  0.00     0.012 A 
ATOM     74  C   UNL A   1      42.010  24.897  27.503  1.00  0.00     0.148 A 
ATOM     75  C   UNL A   1      43.823  26.056  25.699  1.00  0.00     0.002 A 
ATOM     76  C   UNL A   1      42.523  24.154  26.445  1.00  0.00     0.091 A 
ATOM     77  F   UNL A   1      41.120  24.382  28.363  1.00  0.00    -0.205 F 
ATOM     78  C   UNL A   1      43.417  24.735  25.533  1.00  0.00     0.022 A 
BRANCH  76  79
ATOM     79  S   UNL A   1      42.148  22.409  26.231  1.00  0.00     0.127 S 
ATOM     80  O   UNL A   1      42.943  22.075  25.053  1.00  0.00    -0.237 OA
ATOM     81  O   UNL A   1      42.635  21.835  27.485  1.00  0.00    -0.237 OA
ATOM     82  O   UNL A   1      40.702  22.344  26.066  1.00  0.00    -0.744 OA
ENDBRANCH  76  79
ENDBRANCH  48  72
BRANCH  60  83
ATOM     83  C   UNL A   1      44.721  27.239  34.207  1.00  0.00     0.023 A 
ATOM     84  C   UNL A   1      45.924  27.968  34.256  1.00  0.00     0.012 A 
ATOM     85  C   UNL A   1      44.600  26.049  34.952  1.00  0.00     0.148 A 
ATOM     86  C   UNL A   1      47.000  27.508  35.015  1.00  0.00     0.002 A 
ATOM     87  C   UNL A   1      45.661  25.621  35.741  1.00  0.00     0.091 A 
ATOM     88  F   UNL A   1      43.452  25.359  34.876  1.00  0.00    -0.205 F 
ATOM     89  C   UNL A   1      46.864  26.344  35.767  1.00  0.00     0.022 A 
BRANCH  87  90
ATOM     90  S   UNL A   1      45.536  24.183  36.812  1.00  0.00     0.127 S 
ATOM     91  O   UNL A   1      44.518  24.613  37.770  1.00  0.00    -0.237 OA
ATOM     92  O   UNL A   1      45.097  23.139  35.884  1.00  0.00    -0.237 OA
ATOM     93  O   UNL A   1      46.869  23.978  37.360  1.00  0.00    -0.744 OA
ENDBRANCH  87  90
ENDBRANCH  60  83
ENDBRANCH  34  35
ENDBRANCH  26  29
ENDBRANCH  24  25
ENDBRANCH  23  24
ENDBRANCH   1  23
TORSDOF 18
ENDMDL
MODEL 3
REMARK VINA RESULT:     -11.3      5.439     10.577
REMARK SMILES CC(C)(CNC(=O)NCc1cccs1)C(=O)NCCCCNC(=O)c1ccc(-c2c3nc(c(-c4cccc(S(=O)(=O)[O-])c4F)c4ccc([nH]4)c(-c4cccc(S(=O)(=O)[O-])c4F)c4nc(c(-c5cccc(S(=O)(=O)[O-])c5F)c5ccc2[nH]5)C=C4)C=C3)cc1
REMARK SMILES IDX 19 1 18 2 17 3 15 4 16 5 2 7 1 8 3 9 4 10 5 11 6 12 7 14
REMARK SMILES IDX 8 15 9 17 10 18 11 19 14 20 12 21 13 22 20 23 21 24 22 25
REMARK SMILES IDX 23 26 24 28 25 29 26 30 87 31 27 32 86 33 28 34 29 35 30 36
REMARK SMILES IDX 80 37 31 38 85 39 79 40 81 41 32 42 84 43 78 44 77 45 33 47
REMARK SMILES IDX 65 48 45 49 64 50 46 51 49 52 63 53 82 54 47 55 48 56 62 58
REMARK SMILES IDX 83 59 50 60 34 61 35 62 43 63 36 64 38 65 44 66 37 67 39 68
REMARK SMILES IDX 40 69 41 70 42 71 66 72 67 73 75 74 68 75 70 76 76 77 69 78
REMARK SMILES IDX 71 79 72 80 73 81 74 82 51 83 52 84 60 85 53 86 55 87 61 88
REMARK SMILES IDX 54 89 56 90 57 91 58 92 59 93
REMARK H PARENT 17 6 5 13 8 16 22 27 81 46 49 57
REMARK Flexibility Score: inf
ROOT
ATOM      1  C   UNL A   1      35.478  23.023  26.126  1.00  0.00     0.023 C 
ENDROOT
BRANCH   1   2
ATOM      2  C   UNL A   1      34.782  24.097  25.291  1.00  0.00     0.116 C 
BRANCH   2   3
ATOM      3  N   UNL A   1      34.662  23.722  23.897  1.00  0.00    -0.356 N 
ATOM      4  C   UNL A   1      33.677  23.887  22.976  1.00  0.00     0.227 C 
ATOM      5  O   UNL A   1      33.910  23.437  21.849  1.00  0.00    -0.274 OA
ATOM      6  H   UNL A   1      35.454  23.253  23.546  1.00  0.00     0.163 HD
BRANCH   4   7
ATOM      7  C   UNL A   1      32.346  24.613  23.266  1.00  0.00     0.061 C 
ATOM      8  C   UNL A   1      31.824  25.235  21.948  1.00  0.00     0.023 C 
ATOM      9  C   UNL A   1      32.588  25.788  24.236  1.00  0.00     0.023 C 
BRANCH   7  10
ATOM     10  C   UNL A   1      31.245  23.685  23.820  1.00  0.00     0.134 C 
BRANCH  10  11
ATOM     11  N   UNL A   1      31.154  23.614  25.270  1.00  0.00    -0.337 N 
ATOM     12  C   UNL A   1      31.515  22.706  26.196  1.00  0.00     0.315 C 
ATOM     13  H   UNL A   1      30.732  24.412  25.665  1.00  0.00     0.165 HD
ATOM     14  O   UNL A   1      31.339  22.988  27.382  1.00  0.00    -0.249 OA
ATOM     15  N   UNL A   1      32.045  21.510  25.892  1.00  0.00    -0.333 N 
ATOM     16  H   UNL A   1      32.243  20.938  26.668  1.00  0.00     0.165 HD
BRANCH  15  17
ATOM     17  C   UNL A   1      32.369  20.933  24.621  1.00  0.00     0.164 C 
BRANCH  17  18
ATOM     18  C   UNL A   1      32.531  19.450  24.606  1.00  0.00     0.024 A 
ATOM     19  C   UNL A   1      32.866  18.677  25.704  1.00  0.00     0.017 A 
ATOM     20  S   UNL A   1      32.503  18.517  23.175  1.00  0.00    -0.147 S 
ATOM     21  C   UNL A   1      33.134  17.325  25.360  1.00  0.00     0.012 A 
ATOM     22  C   UNL A   1      32.972  17.100  24.012  1.00  0.00     0.065 A 
ENDBRANCH  17  18
ENDBRANCH  15  17
ENDBRANCH  10  11
ENDBRANCH   7  10
ENDBRANCH   4   7
ENDBRANCH   2   3
ENDBRANCH   1   2
BRANCH   1  23
ATOM     23  C   UNL A   1      35.946  21.793  25.358  1.00  0.00     0.023 C 
BRANCH  23  24
ATOM     24  C   UNL A   1      37.368  21.866  24.820  1.00  0.00     0.116 C 
BRANCH  24  25
ATOM     25  N   UNL A   1      38.251  20.828  25.342  1.00  0.00    -0.352 N 
ATOM     26  C   UNL A   1      39.354  20.953  26.156  1.00  0.00     0.251 C 
ATOM     27  H   UNL A   1      38.025  19.907  25.074  1.00  0.00     0.163 HD
ATOM     28  O   UNL A   1      40.033  19.967  26.431  1.00  0.00    -0.269 OA
BRANCH  26  29
ATOM     29  C   UNL A   1      39.736  22.287  26.664  1.00  0.00     0.039 A 
ATOM     30  C   UNL A   1      40.759  22.391  27.610  1.00  0.00     0.014 A 
ATOM     31  C   UNL A   1      39.131  23.437  26.155  1.00  0.00     0.014 A 
ATOM     32  C   UNL A   1      41.241  23.652  27.972  1.00  0.00     0.010 A 
ATOM     33  C   UNL A   1      39.677  24.683  26.438  1.00  0.00     0.010 A 
ATOM     34  C   UNL A   1      40.738  24.807  27.349  1.00  0.00    -0.014 A 
BRANCH  34  35
ATOM     35  C   UNL A   1      41.302  26.156  27.619  1.00  0.00     0.031 A 
ATOM     36  C   UNL A   1      42.706  26.482  27.179  1.00  0.00     0.074 A 
ATOM     37  C   UNL A   1      40.607  27.040  28.363  1.00  0.00     0.049 A 
ATOM     38  N   UNL A   1      43.426  27.543  27.433  1.00  0.00    -0.248 NA
ATOM     39  C   UNL A   1      43.409  25.460  26.384  1.00  0.00     0.031 C 
ATOM     40  C   UNL A   1      39.276  26.813  28.932  1.00  0.00     0.029 A 
ATOM     41  N   UNL A   1      40.937  28.302  28.796  1.00  0.00    -0.354 N 
ATOM     42  C   UNL A   1      44.677  27.292  26.883  1.00  0.00     0.074 A 
ATOM     43  C   UNL A   1      44.631  25.964  26.313  1.00  0.00     0.031 C 
ATOM     44  C   UNL A   1      38.900  27.899  29.628  1.00  0.00     0.029 A 
ATOM     45  C   UNL A   1      39.971  28.889  29.581  1.00  0.00     0.049 A 
ATOM     46  H   UNL A   1      41.786  28.744  28.565  1.00  0.00     0.167 HD
ATOM     47  C   UNL A   1      45.757  28.107  26.821  1.00  0.00     0.034 A 
ATOM     48  C   UNL A   1      39.951  30.089  30.194  1.00  0.00     0.034 A 
ATOM     49  C   UNL A   1      45.772  29.457  27.311  1.00  0.00     0.049 A 
ATOM     50  C   UNL A   1      41.131  31.010  30.030  1.00  0.00     0.074 A 
ATOM     51  C   UNL A   1      46.778  30.400  27.205  1.00  0.00     0.029 A 
ATOM     52  N   UNL A   1      44.725  30.062  27.988  1.00  0.00    -0.354 N 
ATOM     53  N   UNL A   1      42.247  30.812  29.371  1.00  0.00    -0.248 NA
ATOM     54  C   UNL A   1      41.034  32.335  30.663  1.00  0.00     0.031 C 
ATOM     55  C   UNL A   1      46.337  31.578  27.817  1.00  0.00     0.029 A 
ATOM     56  C   UNL A   1      45.055  31.369  28.298  1.00  0.00     0.049 A 
ATOM     57  H   UNL A   1      43.871  29.626  28.214  1.00  0.00     0.167 HD
ATOM     58  C   UNL A   1      42.968  31.996  29.479  1.00  0.00     0.074 A 
ATOM     59  C   UNL A   1      42.153  32.913  30.248  1.00  0.00     0.031 C 
ATOM     60  C   UNL A   1      44.202  32.290  29.001  1.00  0.00     0.034 A 
BRANCH  47  61
ATOM     61  C   UNL A   1      46.986  27.585  26.124  1.00  0.00     0.023 A 
ATOM     62  C   UNL A   1      47.902  26.791  26.843  1.00  0.00     0.012 A 
ATOM     63  C   UNL A   1      47.213  27.835  24.757  1.00  0.00     0.148 A 
ATOM     64  C   UNL A   1      49.043  26.284  26.226  1.00  0.00     0.002 A 
ATOM     65  C   UNL A   1      48.332  27.289  24.136  1.00  0.00     0.091 A 
ATOM     66  F   UNL A   1      46.343  28.610  24.093  1.00  0.00    -0.205 F 
ATOM     67  C   UNL A   1      49.253  26.524  24.871  1.00  0.00     0.022 A 
BRANCH  65  68
ATOM     68  S   UNL A   1      48.654  27.477  22.378  1.00  0.00     0.127 S 
ATOM     69  O   UNL A   1      48.664  26.085  21.930  1.00  0.00    -0.237 OA
ATOM     70  O   UNL A   1      47.497  28.252  21.933  1.00  0.00    -0.237 OA
ATOM     71  O   UNL A   1      49.928  28.177  22.278  1.00  0.00    -0.744 OA
ENDBRANCH  65  68
ENDBRANCH  47  61
BRANCH  48  72
ATOM     72  C   UNL A   1      38.739  30.529  30.941  1.00  0.00     0.023 A 
ATOM     73  C   UNL A   1      38.658  30.268  32.324  1.00  0.00     0.012 A 
ATOM     74  C   UNL A   1      37.683  31.212  30.310  1.00  0.00     0.148 A 
ATOM     75  C   UNL A   1      37.535  30.651  33.058  1.00  0.00     0.002 A 
ATOM     76  C   UNL A   1      36.589  31.636  31.058  1.00  0.00     0.091 A 
ATOM     77  F   UNL A   1      37.768  31.438  28.991  1.00  0.00    -0.205 F 
ATOM     78  C   UNL A   1      36.505  31.343  32.428  1.00  0.00     0.022 A 
BRANCH  76  79
ATOM     79  S   UNL A   1      35.278  32.642  30.350  1.00  0.00     0.127 S 
ATOM     80  O   UNL A   1      34.405  32.849  31.502  1.00  0.00    -0.237 OA
ATOM     81  O   UNL A   1      36.007  33.830  29.908  1.00  0.00    -0.237 OA
ATOM     82  O   UNL A   1      34.724  31.843  29.265  1.00  0.00    -0.744 OA
ENDBRANCH  76  79
ENDBRANCH  48  72
BRANCH  60  83
ATOM     83  C   UNL A   1      44.739  33.673  29.258  1.00  0.00     0.023 A 
ATOM     84  C   UNL A   1      45.471  33.927  30.434  1.00  0.00     0.012 A 
ATOM     85  C   UNL A   1      44.597  34.691  28.296  1.00  0.00     0.148 A 
ATOM     86  C   UNL A   1      46.032  35.183  30.661  1.00  0.00     0.002 A 
ATOM     87  C   UNL A   1      45.196  35.927  28.508  1.00  0.00     0.091 A 
ATOM     88  F   UNL A   1      43.879  34.434  27.192  1.00  0.00    -0.205 F 
ATOM     89  C   UNL A   1      45.906  36.178  29.693  1.00  0.00     0.022 A 
BRANCH  87  90
ATOM     90  S   UNL A   1      45.162  37.231  27.272  1.00  0.00     0.127 S 
ATOM     91  O   UNL A   1      45.825  38.327  27.976  1.00  0.00    -0.237 OA
ATOM     92  O   UNL A   1      45.944  36.647  26.180  1.00  0.00    -0.237 OA
ATOM     93  O   UNL A   1      43.756  37.444  26.957  1.00  0.00    -0.744 OA
ENDBRANCH  87  90
ENDBRANCH  60  83
ENDBRANCH  34  35
ENDBRANCH  26  29
ENDBRANCH  24  25
ENDBRANCH  23  24
ENDBRANCH   1  23
TORSDOF 18
ENDMDL
