MODEL 1
REMARK VINA RESULT:     -13.4      0.000      0.000
REMARK SMILES C[C@H]1CCc2sc3ncn4nc(/C=C\C(=O)NCCCCNC(=O)c5ccc(-c6c7nc(c(-c8cccc(S(=O)(=O)[O-])c8F)c8ccc([nH]8)c(-c8cccc(S(=O)(=O)[O-])c8F)c8nc(c(-c9cccc(S(=O)(=O)[O-])c9F)c9ccc6[nH]9)C=C8)C=C7)cc5)nc4c3c2C1
REMARK SMILES IDX 20 1 19 2 18 3 17 4 15 5 16 6 14 8 13 9 12 10 1 11 2 12 3 13
REMARK SMILES IDX 92 14 4 15 91 16 5 17 90 18 6 19 7 20 89 21 8 22 10 23 88 24
REMARK SMILES IDX 9 25 11 26 21 27 22 28 23 29 24 31 25 32 26 33 87 34 27 35
REMARK SMILES IDX 86 36 28 37 29 38 30 39 80 40 31 41 85 42 79 43 81 44 32 45
REMARK SMILES IDX 84 46 78 47 77 48 33 50 65 51 45 52 64 53 46 54 49 55 63 56
REMARK SMILES IDX 82 57 47 58 48 59 62 61 83 62 50 63 34 64 35 65 43 66 36 67
REMARK SMILES IDX 38 68 44 69 37 70 39 71 40 72 41 73 42 74 66 75 67 76 75 77
REMARK SMILES IDX 68 78 70 79 76 80 69 81 71 82 72 83 73 84 74 85 51 86 52 87
REMARK SMILES IDX 60 88 53 89 55 90 61 91 54 92 56 93 57 94 58 95 59 96
REMARK H PARENT 17 7 22 30 81 49 49 60
REMARK Flexibility Score: inf
ROOT
ATOM      1  C   UNL A   1      34.120  29.435  26.236  1.00  0.00     0.023 C 
ENDROOT
BRANCH   1   2
ATOM      2  C   UNL A   1      33.627  28.396  25.159  1.00  0.00     0.023 C 
BRANCH   2   3
ATOM      3  C   UNL A   1      33.232  28.934  23.772  1.00  0.00     0.116 C 
BRANCH   3   4
ATOM      4  N   UNL A   1      31.855  29.425  23.646  1.00  0.00    -0.353 N 
ATOM      5  C   UNL A   1      30.673  28.816  23.325  1.00  0.00     0.244 C 
ATOM      6  O   UNL A   1      29.622  29.430  23.526  1.00  0.00    -0.270 OA
ATOM      7  H   UNL A   1      31.764  30.389  23.827  1.00  0.00     0.163 HD
BRANCH   5   8
ATOM      8  C   UNL A   1      30.585  27.543  22.564  1.00  0.00     0.075 C 
ATOM      9  C   UNL A   1      30.790  26.285  22.983  1.00  0.00     0.057 C 
BRANCH   9  10
ATOM     10  C   UNL A   1      31.227  25.903  24.272  1.00  0.00     0.175 A 
ATOM     11  C   UNL A   1      37.430  23.673  26.127  1.00  0.00     0.008 C 
ATOM     12  C   UNL A   1      36.991  23.377  24.680  1.00  0.00    -0.009 C 
ATOM     13  C   UNL A   1      37.031  21.855  24.378  1.00  0.00     0.009 C 
ATOM     14  C   UNL A   1      35.575  23.944  24.395  1.00  0.00     0.041 C 
ATOM     15  C   UNL A   1      35.958  21.032  25.103  1.00  0.00     0.047 C 
ATOM     16  C   UNL A   1      34.599  23.215  25.243  1.00  0.00    -0.020 A 
ATOM     17  C   UNL A   1      34.824  21.892  25.555  1.00  0.00     0.011 A 
ATOM     18  C   UNL A   1      33.383  23.666  25.815  1.00  0.00     0.060 A 
ATOM     19  S   UNL A   1      33.678  21.302  26.608  1.00  0.00    -0.120 S 
ATOM     20  C   UNL A   1      32.773  22.742  26.635  1.00  0.00     0.129 A 
ATOM     21  C   UNL A   1      32.505  24.806  25.491  1.00  0.00     0.168 A 
ATOM     22  N   UNL A   1      31.531  22.823  27.221  1.00  0.00    -0.225 NA
ATOM     23  N   UNL A   1      31.240  24.808  26.015  1.00  0.00    -0.201 N 
ATOM     24  N   UNL A   1      32.544  25.565  24.431  1.00  0.00    -0.207 NA
ATOM     25  C   UNL A   1      30.776  23.829  26.880  1.00  0.00     0.227 A 
ATOM     26  N   UNL A   1      30.403  25.561  25.275  1.00  0.00    -0.145 NA
ENDBRANCH   9  10
ENDBRANCH   5   8
ENDBRANCH   3   4
ENDBRANCH   2   3
ENDBRANCH   1   2
BRANCH   1  27
ATOM     27  C   UNL A   1      33.095  30.224  27.115  1.00  0.00     0.116 C 
BRANCH  27  28
ATOM     28  N   UNL A   1      33.690  31.381  27.882  1.00  0.00    -0.352 N 
ATOM     29  C   UNL A   1      34.989  31.923  27.971  1.00  0.00     0.251 C 
ATOM     30  H   UNL A   1      33.031  31.858  28.438  1.00  0.00     0.163 HD
ATOM     31  O   UNL A   1      35.123  33.108  27.651  1.00  0.00    -0.269 OA
BRANCH  29  32
ATOM     32  C   UNL A   1      36.146  31.298  28.714  1.00  0.00     0.039 A 
ATOM     33  C   UNL A   1      36.048  30.007  29.251  1.00  0.00     0.014 A 
ATOM     34  C   UNL A   1      37.332  31.972  28.994  1.00  0.00     0.014 A 
ATOM     35  C   UNL A   1      37.198  29.325  29.747  1.00  0.00     0.010 A 
ATOM     36  C   UNL A   1      38.497  31.263  29.434  1.00  0.00     0.010 A 
ATOM     37  C   UNL A   1      38.495  29.882  29.694  1.00  0.00    -0.014 A 
BRANCH  37  38
ATOM     38  C   UNL A   1      39.735  28.987  29.822  1.00  0.00     0.031 A 
ATOM     39  C   UNL A   1      40.335  28.807  31.217  1.00  0.00     0.074 A 
ATOM     40  C   UNL A   1      40.291  28.086  28.953  1.00  0.00     0.049 A 
ATOM     41  N   UNL A   1      41.494  29.181  31.668  1.00  0.00    -0.248 NA
ATOM     42  C   UNL A   1      39.546  28.091  32.224  1.00  0.00     0.031 C 
ATOM     43  C   UNL A   1      39.840  27.629  27.633  1.00  0.00     0.029 A 
ATOM     44  N   UNL A   1      41.408  27.282  29.150  1.00  0.00    -0.354 N 
ATOM     45  C   UNL A   1      41.636  28.650  32.965  1.00  0.00     0.074 A 
ATOM     46  C   UNL A   1      40.365  28.051  33.278  1.00  0.00     0.031 C 
ATOM     47  C   UNL A   1      40.542  26.539  27.240  1.00  0.00     0.029 A 
ATOM     48  C   UNL A   1      41.596  26.280  28.197  1.00  0.00     0.049 A 
ATOM     49  H   UNL A   1      42.025  27.413  29.906  1.00  0.00     0.167 HD
ATOM     50  C   UNL A   1      42.823  28.646  33.648  1.00  0.00     0.034 A 
ATOM     51  C   UNL A   1      42.553  25.316  28.141  1.00  0.00     0.034 A 
ATOM     52  C   UNL A   1      43.806  29.466  32.990  1.00  0.00     0.049 A 
ATOM     53  C   UNL A   1      43.698  25.774  28.949  1.00  0.00     0.074 A 
ATOM     54  C   UNL A   1      43.893  30.787  32.601  1.00  0.00     0.029 A 
ATOM     55  N   UNL A   1      44.843  28.830  32.353  1.00  0.00    -0.354 N 
ATOM     56  N   UNL A   1      44.485  26.751  28.599  1.00  0.00    -0.248 NA
ATOM     57  C   UNL A   1      43.838  25.310  30.316  1.00  0.00     0.031 C 
ATOM     58  C   UNL A   1      44.599  30.744  31.363  1.00  0.00     0.029 A 
ATOM     59  C   UNL A   1      44.926  29.409  31.117  1.00  0.00     0.049 A 
ATOM     60  H   UNL A   1      45.408  28.108  32.712  1.00  0.00     0.167 HD
ATOM     61  C   UNL A   1      44.876  27.318  29.799  1.00  0.00     0.074 A 
ATOM     62  C   UNL A   1      44.587  26.301  30.806  1.00  0.00     0.031 C 
ATOM     63  C   UNL A   1      45.115  28.660  29.895  1.00  0.00     0.034 A 
BRANCH  50  64
ATOM     64  C   UNL A   1      43.268  27.754  34.803  1.00  0.00     0.023 A 
ATOM     65  C   UNL A   1      43.700  28.408  35.992  1.00  0.00     0.012 A 
ATOM     66  C   UNL A   1      43.540  26.373  34.717  1.00  0.00     0.148 A 
ATOM     67  C   UNL A   1      44.437  27.757  36.987  1.00  0.00     0.002 A 
ATOM     68  C   UNL A   1      44.217  25.711  35.747  1.00  0.00     0.091 A 
ATOM     69  F   UNL A   1      43.249  25.709  33.595  1.00  0.00    -0.205 F 
ATOM     70  C   UNL A   1      44.697  26.403  36.865  1.00  0.00     0.022 A 
BRANCH  68  71
ATOM     71  S   UNL A   1      44.530  23.940  35.697  1.00  0.00     0.127 S 
ATOM     72  O   UNL A   1      45.472  23.838  34.589  1.00  0.00    -0.237 OA
ATOM     73  O   UNL A   1      45.102  23.691  37.021  1.00  0.00    -0.237 OA
ATOM     74  O   UNL A   1      43.219  23.330  35.494  1.00  0.00    -0.744 OA
ENDBRANCH  68  71
ENDBRANCH  50  64
BRANCH  51  75
ATOM     75  C   UNL A   1      42.612  24.001  27.448  1.00  0.00     0.023 A 
ATOM     76  C   UNL A   1      41.454  23.199  27.334  1.00  0.00     0.012 A 
ATOM     77  C   UNL A   1      43.732  23.655  26.662  1.00  0.00     0.148 A 
ATOM     78  C   UNL A   1      41.400  22.114  26.448  1.00  0.00     0.002 A 
ATOM     79  C   UNL A   1      43.673  22.577  25.778  1.00  0.00     0.091 A 
ATOM     80  F   UNL A   1      44.819  24.436  26.723  1.00  0.00    -0.205 F 
ATOM     81  C   UNL A   1      42.506  21.810  25.661  1.00  0.00     0.022 A 
BRANCH  79  82
ATOM     82  S   UNL A   1      45.043  22.144  24.697  1.00  0.00     0.127 S 
ATOM     83  O   UNL A   1      46.118  21.882  25.655  1.00  0.00    -0.237 OA
ATOM     84  O   UNL A   1      44.527  20.958  24.017  1.00  0.00    -0.237 OA
ATOM     85  O   UNL A   1      45.263  23.313  23.855  1.00  0.00    -0.744 OA
ENDBRANCH  79  82
ENDBRANCH  51  75
BRANCH  63  86
ATOM     86  C   UNL A   1      45.199  29.486  28.631  1.00  0.00     0.023 A 
ATOM     87  C   UNL A   1      44.047  29.832  27.894  1.00  0.00     0.012 A 
ATOM     88  C   UNL A   1      46.414  30.120  28.314  1.00  0.00     0.148 A 
ATOM     89  C   UNL A   1      44.103  30.766  26.860  1.00  0.00     0.002 A 
ATOM     90  C   UNL A   1      46.454  31.100  27.329  1.00  0.00     0.091 A 
ATOM     91  F   UNL A   1      47.508  29.788  29.017  1.00  0.00    -0.205 F 
ATOM     92  C   UNL A   1      45.303  31.417  26.590  1.00  0.00     0.022 A 
BRANCH  90  93
ATOM     93  S   UNL A   1      47.921  32.098  27.057  1.00  0.00     0.127 S 
ATOM     94  O   UNL A   1      48.873  31.112  26.551  1.00  0.00    -0.237 OA
ATOM     95  O   UNL A   1      47.463  33.072  26.063  1.00  0.00    -0.237 OA
ATOM     96  O   UNL A   1      48.248  32.684  28.351  1.00  0.00    -0.744 OA
ENDBRANCH  90  93
ENDBRANCH  63  86
ENDBRANCH  37  38
ENDBRANCH  29  32
ENDBRANCH  27  28
ENDBRANCH   1  27
TORSDOF 15
ENDMDL
MODEL 2
REMARK VINA RESULT:     -13.3      1.368      1.696
REMARK SMILES C[C@H]1CCc2sc3ncn4nc(/C=C\C(=O)NCCCCNC(=O)c5ccc(-c6c7nc(c(-c8cccc(S(=O)(=O)[O-])c8F)c8ccc([nH]8)c(-c8cccc(S(=O)(=O)[O-])c8F)c8nc(c(-c9cccc(S(=O)(=O)[O-])c9F)c9ccc6[nH]9)C=C8)C=C7)cc5)nc4c3c2C1
REMARK SMILES IDX 20 1 19 2 18 3 17 4 15 5 16 6 14 8 13 9 12 10 1 11 2 12 3 13
REMARK SMILES IDX 92 14 4 15 91 16 5 17 90 18 6 19 7 20 89 21 8 22 10 23 88 24
REMARK SMILES IDX 9 25 11 26 21 27 22 28 23 29 24 31 25 32 26 33 87 34 27 35
REMARK SMILES IDX 86 36 28 37 29 38 30 39 80 40 31 41 85 42 79 43 81 44 32 45
REMARK SMILES IDX 84 46 78 47 77 48 33 50 65 51 45 52 64 53 46 54 49 55 63 56
REMARK SMILES IDX 82 57 47 58 48 59 62 61 83 62 50 63 34 64 35 65 43 66 36 67
REMARK SMILES IDX 38 68 44 69 37 70 39 71 40 72 41 73 42 74 66 75 67 76 75 77
REMARK SMILES IDX 68 78 70 79 76 80 69 81 71 82 72 83 73 84 74 85 51 86 52 87
REMARK SMILES IDX 60 88 53 89 55 90 61 91 54 92 56 93 57 94 58 95 59 96
REMARK H PARENT 17 7 22 30 81 49 49 60
REMARK Flexibility Score: inf
ROOT
ATOM      1  C   UNL A   1      33.664  30.049  25.893  1.00  0.00     0.023 C 
ENDROOT
BRANCH   1   2
ATOM      2  C   UNL A   1      33.050  28.859  25.063  1.00  0.00     0.023 C 
BRANCH   2   3
ATOM      3  C   UNL A   1      33.072  28.970  23.528  1.00  0.00     0.116 C 
BRANCH   3   4
ATOM      4  N   UNL A   1      33.528  27.777  22.807  1.00  0.00    -0.353 N 
ATOM      5  C   UNL A   1      32.890  26.869  22.007  1.00  0.00     0.244 C 
ATOM      6  O   UNL A   1      33.575  26.092  21.337  1.00  0.00    -0.270 OA
ATOM      7  H   UNL A   1      34.489  27.591  22.923  1.00  0.00     0.163 HD
BRANCH   5   8
ATOM      8  C   UNL A   1      31.425  26.624  22.049  1.00  0.00     0.075 C 
ATOM      9  C   UNL A   1      30.661  26.207  23.070  1.00  0.00     0.057 C 
BRANCH   9  10
ATOM     10  C   UNL A   1      31.125  25.823  24.348  1.00  0.00     0.175 A 
ATOM     11  C   UNL A   1      37.406  23.725  26.095  1.00  0.00     0.008 C 
ATOM     12  C   UNL A   1      36.953  23.432  24.651  1.00  0.00    -0.009 C 
ATOM     13  C   UNL A   1      37.025  21.914  24.335  1.00  0.00     0.009 C 
ATOM     14  C   UNL A   1      35.521  23.968  24.392  1.00  0.00     0.041 C 
ATOM     15  C   UNL A   1      35.983  21.059  25.066  1.00  0.00     0.047 C 
ATOM     16  C   UNL A   1      34.574  23.208  25.246  1.00  0.00    -0.020 A 
ATOM     17  C   UNL A   1      34.836  21.887  25.542  1.00  0.00     0.011 A 
ATOM     18  C   UNL A   1      33.356  23.625  25.840  1.00  0.00     0.060 A 
ATOM     19  S   UNL A   1      33.718  21.261  26.607  1.00  0.00    -0.120 S 
ATOM     20  C   UNL A   1      32.780  22.679  26.660  1.00  0.00     0.129 A 
ATOM     21  C   UNL A   1      32.447  24.746  25.539  1.00  0.00     0.168 A 
ATOM     22  N   UNL A   1      31.545  22.725  27.264  1.00  0.00    -0.225 NA
ATOM     23  N   UNL A   1      31.190  24.713  26.081  1.00  0.00    -0.201 N 
ATOM     24  N   UNL A   1      32.453  25.516  24.486  1.00  0.00    -0.207 NA
ATOM     25  C   UNL A   1      30.762  23.715  26.943  1.00  0.00     0.227 A 
ATOM     26  N   UNL A   1      30.324  25.452  25.360  1.00  0.00    -0.145 NA
ENDBRANCH   9  10
ENDBRANCH   5   8
ENDBRANCH   3   4
ENDBRANCH   2   3
ENDBRANCH   1   2
BRANCH   1  27
ATOM     27  C   UNL A   1      32.976  30.550  27.205  1.00  0.00     0.116 C 
BRANCH  27  28
ATOM     28  N   UNL A   1      33.696  31.684  27.895  1.00  0.00    -0.352 N 
ATOM     29  C   UNL A   1      35.035  32.127  27.897  1.00  0.00     0.251 C 
ATOM     30  H   UNL A   1      33.106  32.229  28.464  1.00  0.00     0.163 HD
ATOM     31  O   UNL A   1      35.241  33.286  27.524  1.00  0.00    -0.269 OA
BRANCH  29  32
ATOM     32  C   UNL A   1      36.181  31.441  28.604  1.00  0.00     0.039 A 
ATOM     33  C   UNL A   1      36.102  30.090  28.965  1.00  0.00     0.014 A 
ATOM     34  C   UNL A   1      37.332  32.105  29.023  1.00  0.00     0.014 A 
ATOM     35  C   UNL A   1      37.251  29.379  29.420  1.00  0.00     0.010 A 
ATOM     36  C   UNL A   1      38.499  31.375  29.420  1.00  0.00     0.010 A 
ATOM     37  C   UNL A   1      38.532  29.973  29.498  1.00  0.00    -0.014 A 
BRANCH  37  38
ATOM     38  C   UNL A   1      39.793  29.102  29.565  1.00  0.00     0.031 A 
ATOM     39  C   UNL A   1      40.385  28.822  30.947  1.00  0.00     0.074 A 
ATOM     40  C   UNL A   1      40.380  28.290  28.631  1.00  0.00     0.049 A 
ATOM     41  N   UNL A   1      41.531  29.187  31.440  1.00  0.00    -0.248 NA
ATOM     42  C   UNL A   1      39.606  28.006  31.884  1.00  0.00     0.031 C 
ATOM     43  C   UNL A   1      39.953  27.933  27.273  1.00  0.00     0.029 A 
ATOM     44  N   UNL A   1      41.516  27.501  28.773  1.00  0.00    -0.354 N 
ATOM     45  C   UNL A   1      41.675  28.554  32.690  1.00  0.00     0.074 A 
ATOM     46  C   UNL A   1      40.418  27.899  32.939  1.00  0.00     0.031 C 
ATOM     47  C   UNL A   1      40.686  26.897  26.799  1.00  0.00     0.029 A 
ATOM     48  C   UNL A   1      41.738  26.586  27.743  1.00  0.00     0.049 A 
ATOM     49  H   UNL A   1      42.123  27.585  29.544  1.00  0.00     0.167 HD
ATOM     50  C   UNL A   1      42.856  28.523  33.384  1.00  0.00     0.034 A 
ATOM     51  C   UNL A   1      42.721  25.656  27.618  1.00  0.00     0.034 A 
ATOM     52  C   UNL A   1      43.822  29.420  32.807  1.00  0.00     0.049 A 
ATOM     53  C   UNL A   1      43.846  26.073  28.474  1.00  0.00     0.074 A 
ATOM     54  C   UNL A   1      43.878  30.770  32.528  1.00  0.00     0.029 A 
ATOM     55  N   UNL A   1      44.881  28.866  32.130  1.00  0.00    -0.354 N 
ATOM     56  N   UNL A   1      44.611  27.096  28.213  1.00  0.00    -0.248 NA
ATOM     57  C   UNL A   1      43.987  25.502  29.799  1.00  0.00     0.031 C 
ATOM     58  C   UNL A   1      44.596  30.848  31.299  1.00  0.00     0.029 A 
ATOM     59  C   UNL A   1      44.960  29.546  30.947  1.00  0.00     0.049 A 
ATOM     60  H   UNL A   1      45.462  28.131  32.434  1.00  0.00     0.167 HD
ATOM     61  C   UNL A   1      44.976  27.572  29.461  1.00  0.00     0.074 A 
ATOM     62  C   UNL A   1      44.705  26.467  30.377  1.00  0.00     0.031 C 
ATOM     63  C   UNL A   1      45.179  28.907  29.670  1.00  0.00     0.034 A 
BRANCH  50  64
ATOM     64  C   UNL A   1      43.314  27.550  34.466  1.00  0.00     0.023 A 
ATOM     65  C   UNL A   1      43.768  28.117  35.690  1.00  0.00     0.012 A 
ATOM     66  C   UNL A   1      43.577  26.178  34.279  1.00  0.00     0.148 A 
ATOM     67  C   UNL A   1      44.516  27.395  36.626  1.00  0.00     0.002 A 
ATOM     68  C   UNL A   1      44.266  25.442  35.249  1.00  0.00     0.091 A 
ATOM     69  F   UNL A   1      43.264  25.595  33.118  1.00  0.00    -0.205 F 
ATOM     70  C   UNL A   1      44.768  26.052  36.405  1.00  0.00     0.022 A 
BRANCH  68  71
ATOM     71  S   UNL A   1      44.569  23.678  35.070  1.00  0.00     0.127 S 
ATOM     72  O   UNL A   1      45.217  23.360  36.336  1.00  0.00    -0.237 OA
ATOM     73  O   UNL A   1      43.214  23.146  34.917  1.00  0.00    -0.237 OA
ATOM     74  O   UNL A   1      45.392  23.556  33.870  1.00  0.00    -0.744 OA
ENDBRANCH  68  71
ENDBRANCH  50  64
BRANCH  51  75
ATOM     75  C   UNL A   1      42.821  24.405  26.819  1.00  0.00     0.023 A 
ATOM     76  C   UNL A   1      43.997  24.112  26.092  1.00  0.00     0.012 A 
ATOM     77  C   UNL A   1      41.876  23.370  26.985  1.00  0.00     0.148 A 
ATOM     78  C   UNL A   1      44.240  22.830  25.578  1.00  0.00     0.002 A 
ATOM     79  C   UNL A   1      42.123  22.094  26.477  1.00  0.00     0.091 A 
ATOM     80  F   UNL A   1      40.780  23.620  27.714  1.00  0.00    -0.205 F 
ATOM     81  C   UNL A   1      43.308  21.818  25.782  1.00  0.00     0.022 A 
BRANCH  79  82
ATOM     82  S   UNL A   1      40.989  20.722  26.731  1.00  0.00     0.127 S 
ATOM     83  O   UNL A   1      39.775  21.202  26.070  1.00  0.00    -0.237 OA
ATOM     84  O   UNL A   1      41.673  19.633  26.038  1.00  0.00    -0.237 OA
ATOM     85  O   UNL A   1      40.867  20.577  28.176  1.00  0.00    -0.744 OA
ENDBRANCH  79  82
ENDBRANCH  51  75
BRANCH  63  86
ATOM     86  C   UNL A   1      45.252  29.836  28.479  1.00  0.00     0.023 A 
ATOM     87  C   UNL A   1      44.090  30.299  27.828  1.00  0.00     0.012 A 
ATOM     88  C   UNL A   1      46.484  30.438  28.163  1.00  0.00     0.148 A 
ATOM     89  C   UNL A   1      44.151  31.318  26.876  1.00  0.00     0.002 A 
ATOM     90  C   UNL A   1      46.532  31.498  27.266  1.00  0.00     0.091 A 
ATOM     91  F   UNL A   1      47.588  29.995  28.785  1.00  0.00    -0.205 F 
ATOM     92  C   UNL A   1      45.369  31.933  26.610  1.00  0.00     0.022 A 
BRANCH  90  93
ATOM     93  S   UNL A   1      48.035  32.448  27.015  1.00  0.00     0.127 S 
ATOM     94  O   UNL A   1      47.609  33.443  26.033  1.00  0.00    -0.237 OA
ATOM     95  O   UNL A   1      48.300  32.983  28.352  1.00  0.00    -0.237 OA
ATOM     96  O   UNL A   1      49.035  31.493  26.552  1.00  0.00    -0.744 OA
ENDBRANCH  90  93
ENDBRANCH  63  86
ENDBRANCH  37  38
ENDBRANCH  29  32
ENDBRANCH  27  28
ENDBRANCH   1  27
TORSDOF 15
ENDMDL
MODEL 3
REMARK VINA RESULT:     -13.1      4.027      9.587
REMARK SMILES C[C@H]1CCc2sc3ncn4nc(/C=C\C(=O)NCCCCNC(=O)c5ccc(-c6c7nc(c(-c8cccc(S(=O)(=O)[O-])c8F)c8ccc([nH]8)c(-c8cccc(S(=O)(=O)[O-])c8F)c8nc(c(-c9cccc(S(=O)(=O)[O-])c9F)c9ccc6[nH]9)C=C8)C=C7)cc5)nc4c3c2C1
REMARK SMILES IDX 20 1 19 2 18 3 17 4 15 5 16 6 14 8 13 9 12 10 1 11 2 12 3 13
REMARK SMILES IDX 92 14 4 15 91 16 5 17 90 18 6 19 7 20 89 21 8 22 10 23 88 24
REMARK SMILES IDX 9 25 11 26 21 27 22 28 23 29 24 31 25 32 26 33 87 34 27 35
REMARK SMILES IDX 86 36 28 37 29 38 30 39 80 40 31 41 85 42 79 43 81 44 32 45
REMARK SMILES IDX 84 46 78 47 77 48 33 50 65 51 45 52 64 53 46 54 49 55 63 56
REMARK SMILES IDX 82 57 47 58 48 59 62 61 83 62 50 63 34 64 35 65 43 66 36 67
REMARK SMILES IDX 38 68 44 69 37 70 39 71 40 72 41 73 42 74 66 75 67 76 75 77
REMARK SMILES IDX 68 78 70 79 76 80 69 81 71 82 72 83 73 84 74 85 51 86 52 87
REMARK SMILES IDX 60 88 53 89 55 90 61 91 54 92 56 93 57 94 58 95 59 96
REMARK H PARENT 17 7 22 30 81 49 49 60
REMARK Flexibility Score: inf
ROOT
ATOM      1  C   UNL A   1      37.954  22.298  25.779  1.00  0.00     0.023 C 
ENDROOT
BRANCH   1   2
ATOM      2  C   UNL A   1      36.848  21.571  24.925  1.00  0.00     0.023 C 
BRANCH   2   3
ATOM      3  C   UNL A   1      35.589  21.074  25.658  1.00  0.00     0.116 C 
BRANCH   3   4
ATOM      4  N   UNL A   1      34.860  19.980  25.007  1.00  0.00    -0.353 N 
ATOM      5  C   UNL A   1      33.559  19.830  24.613  1.00  0.00     0.244 C 
ATOM      6  O   UNL A   1      33.274  18.886  23.871  1.00  0.00    -0.270 OA
ATOM      7  H   UNL A   1      35.421  19.193  24.816  1.00  0.00     0.163 HD
BRANCH   5   8
ATOM      8  C   UNL A   1      32.432  20.612  25.184  1.00  0.00     0.075 C 
ATOM      9  C   UNL A   1      32.171  21.924  25.083  1.00  0.00     0.057 C 
BRANCH   9  10
ATOM     10  C   UNL A   1      32.991  22.886  24.451  1.00  0.00     0.175 A 
ATOM     11  C   UNL A   1      34.614  29.156  26.677  1.00  0.00     0.008 C 
ATOM     12  C   UNL A   1      33.252  28.592  27.125  1.00  0.00    -0.009 C 
ATOM     13  C   UNL A   1      32.088  29.531  26.711  1.00  0.00     0.009 C 
ATOM     14  C   UNL A   1      33.020  27.167  26.558  1.00  0.00     0.041 C 
ATOM     15  C   UNL A   1      31.815  29.583  25.203  1.00  0.00     0.047 C 
ATOM     16  C   UNL A   1      32.922  27.261  25.080  1.00  0.00    -0.020 A 
ATOM     17  C   UNL A   1      32.381  28.391  24.505  1.00  0.00     0.011 A 
ATOM     18  C   UNL A   1      33.297  26.322  24.086  1.00  0.00     0.060 A 
ATOM     19  S   UNL A   1      32.475  28.344  22.843  1.00  0.00    -0.120 S 
ATOM     20  C   UNL A   1      33.154  26.785  22.796  1.00  0.00     0.129 A 
ATOM     21  C   UNL A   1      33.539  24.868  24.146  1.00  0.00     0.168 A 
ATOM     22  N   UNL A   1      33.301  26.079  21.625  1.00  0.00    -0.225 NA
ATOM     23  N   UNL A   1      33.584  24.179  22.964  1.00  0.00    -0.201 N 
ATOM     24  N   UNL A   1      33.250  24.052  25.121  1.00  0.00    -0.207 NA
ATOM     25  C   UNL A   1      33.479  24.792  21.724  1.00  0.00     0.227 A 
ATOM     26  N   UNL A   1      33.290  22.876  23.142  1.00  0.00    -0.145 NA
ENDBRANCH   9  10
ENDBRANCH   5   8
ENDBRANCH   3   4
ENDBRANCH   2   3
ENDBRANCH   1   2
BRANCH   1  27
ATOM     27  C   UNL A   1      39.281  21.565  26.163  1.00  0.00     0.116 C 
BRANCH  27  28
ATOM     28  N   UNL A   1      40.529  22.395  25.981  1.00  0.00    -0.352 N 
ATOM     29  C   UNL A   1      41.422  23.017  26.878  1.00  0.00     0.251 C 
ATOM     30  H   UNL A   1      40.770  22.531  25.036  1.00  0.00     0.163 HD
ATOM     31  O   UNL A   1      42.607  22.675  26.815  1.00  0.00    -0.269 OA
BRANCH  29  32
ATOM     32  C   UNL A   1      41.132  24.271  27.670  1.00  0.00     0.039 A 
ATOM     33  C   UNL A   1      42.151  24.943  28.357  1.00  0.00     0.014 A 
ATOM     34  C   UNL A   1      39.851  24.786  27.849  1.00  0.00     0.014 A 
ATOM     35  C   UNL A   1      41.937  26.240  28.911  1.00  0.00     0.010 A 
ATOM     36  C   UNL A   1      39.654  26.115  28.350  1.00  0.00     0.010 A 
ATOM     37  C   UNL A   1      40.714  26.935  28.770  1.00  0.00    -0.014 A 
BRANCH  37  38
ATOM     38  C   UNL A   1      40.651  28.453  28.981  1.00  0.00     0.031 A 
ATOM     39  C   UNL A   1      41.785  29.296  28.395  1.00  0.00     0.074 A 
ATOM     40  C   UNL A   1      39.626  29.266  29.389  1.00  0.00     0.049 A 
ATOM     41  N   UNL A   1      42.679  30.012  29.009  1.00  0.00    -0.248 NA
ATOM     42  C   UNL A   1      41.914  29.367  26.936  1.00  0.00     0.031 C 
ATOM     43  C   UNL A   1      38.224  28.954  29.694  1.00  0.00     0.029 A 
ATOM     44  N   UNL A   1      39.633  30.649  29.531  1.00  0.00    -0.354 N 
ATOM     45  C   UNL A   1      43.403  30.717  28.027  1.00  0.00     0.074 A 
ATOM     46  C   UNL A   1      42.931  30.215  26.764  1.00  0.00     0.031 C 
ATOM     47  C   UNL A   1      37.496  30.091  29.801  1.00  0.00     0.029 A 
ATOM     48  C   UNL A   1      38.380  31.234  29.717  1.00  0.00     0.049 A 
ATOM     49  H   UNL A   1      40.463  31.177  29.506  1.00  0.00     0.167 HD
ATOM     50  C   UNL A   1      44.263  31.741  28.322  1.00  0.00     0.034 A 
ATOM     51  C   UNL A   1      38.055  32.549  29.836  1.00  0.00     0.034 A 
ATOM     52  C   UNL A   1      44.518  31.818  29.736  1.00  0.00     0.049 A 
ATOM     53  C   UNL A   1      39.266  33.273  30.264  1.00  0.00     0.074 A 
ATOM     54  C   UNL A   1      45.009  30.963  30.702  1.00  0.00     0.029 A 
ATOM     55  N   UNL A   1      43.962  32.866  30.427  1.00  0.00    -0.354 N 
ATOM     56  N   UNL A   1      39.789  33.166  31.452  1.00  0.00    -0.248 NA
ATOM     57  C   UNL A   1      40.083  33.948  29.274  1.00  0.00     0.031 C 
ATOM     58  C   UNL A   1      44.241  31.266  31.865  1.00  0.00     0.029 A 
ATOM     59  C   UNL A   1      43.376  32.310  31.530  1.00  0.00     0.049 A 
ATOM     60  H   UNL A   1      43.981  33.819  30.180  1.00  0.00     0.167 HD
ATOM     61  C   UNL A   1      41.146  33.338  31.242  1.00  0.00     0.074 A 
ATOM     62  C   UNL A   1      41.244  33.973  29.930  1.00  0.00     0.031 C 
ATOM     63  C   UNL A   1      42.064  32.681  32.012  1.00  0.00     0.034 A 
BRANCH  50  64
ATOM     64  C   UNL A   1      44.758  32.873  27.426  1.00  0.00     0.023 A 
ATOM     65  C   UNL A   1      43.870  33.322  26.407  1.00  0.00     0.012 A 
ATOM     66  C   UNL A   1      46.088  33.330  27.339  1.00  0.00     0.148 A 
ATOM     67  C   UNL A   1      44.295  34.096  25.322  1.00  0.00     0.002 A 
ATOM     68  C   UNL A   1      46.494  34.162  26.290  1.00  0.00     0.091 A 
ATOM     69  F   UNL A   1      47.002  32.880  28.205  1.00  0.00    -0.205 F 
ATOM     70  C   UNL A   1      45.612  34.517  25.262  1.00  0.00     0.022 A 
BRANCH  68  71
ATOM     71  S   UNL A   1      48.168  34.811  26.179  1.00  0.00     0.127 S 
ATOM     72  O   UNL A   1      48.831  33.782  25.388  1.00  0.00    -0.237 OA
ATOM     73  O   UNL A   1      47.960  36.084  25.489  1.00  0.00    -0.237 OA
ATOM     74  O   UNL A   1      48.610  34.952  27.564  1.00  0.00    -0.744 OA
ENDBRANCH  68  71
ENDBRANCH  50  64
BRANCH  51  75
ATOM     75  C   UNL A   1      36.783  33.290  29.626  1.00  0.00     0.023 A 
ATOM     76  C   UNL A   1      36.139  33.264  28.368  1.00  0.00     0.012 A 
ATOM     77  C   UNL A   1      36.058  33.798  30.725  1.00  0.00     0.148 A 
ATOM     78  C   UNL A   1      34.813  33.694  28.215  1.00  0.00     0.002 A 
ATOM     79  C   UNL A   1      34.738  34.221  30.571  1.00  0.00     0.091 A 
ATOM     80  F   UNL A   1      36.639  33.782  31.932  1.00  0.00    -0.205 F 
ATOM     81  C   UNL A   1      34.109  34.162  29.320  1.00  0.00     0.022 A 
BRANCH  79  82
ATOM     82  S   UNL A   1      33.746  34.799  31.954  1.00  0.00     0.127 S 
ATOM     83  O   UNL A   1      34.586  35.861  32.510  1.00  0.00    -0.237 OA
ATOM     84  O   UNL A   1      32.535  35.266  31.283  1.00  0.00    -0.237 OA
ATOM     85  O   UNL A   1      33.581  33.645  32.828  1.00  0.00    -0.744 OA
ENDBRANCH  79  82
ENDBRANCH  51  75
BRANCH  63  86
ATOM     86  C   UNL A   1      41.600  31.963  33.259  1.00  0.00     0.023 A 
ATOM     87  C   UNL A   1      41.121  30.637  33.216  1.00  0.00     0.012 A 
ATOM     88  C   UNL A   1      41.873  32.538  34.514  1.00  0.00     0.148 A 
ATOM     89  C   UNL A   1      40.900  29.909  34.385  1.00  0.00     0.002 A 
ATOM     90  C   UNL A   1      41.717  31.788  35.674  1.00  0.00     0.091 A 
ATOM     91  F   UNL A   1      42.329  33.800  34.551  1.00  0.00    -0.205 F 
ATOM     92  C   UNL A   1      41.218  30.476  35.615  1.00  0.00     0.022 A 
BRANCH  90  93
ATOM     93  S   UNL A   1      42.276  32.396  37.267  1.00  0.00     0.127 S 
ATOM     94  O   UNL A   1      41.325  33.471  37.537  1.00  0.00    -0.237 OA
ATOM     95  O   UNL A   1      42.128  31.219  38.127  1.00  0.00    -0.237 OA
ATOM     96  O   UNL A   1      43.660  32.812  37.070  1.00  0.00    -0.744 OA
ENDBRANCH  90  93
ENDBRANCH  63  86
ENDBRANCH  37  38
ENDBRANCH  29  32
ENDBRANCH  27  28
ENDBRANCH   1  27
TORSDOF 15
ENDMDL
