MODEL 1
REMARK VINA RESULT:     -12.0      0.000      0.000
REMARK SMILES O=C(C[C@H]1CC[C@@H](C(=O)NCCCCNC(=O)c2ccc(-c3c4nc(c(-c5cccc(S(=O)(=O)[O-])c5F)c5ccc([nH]5)c(-c5cccc(S(=O)(=O)[O-])c5F)c5nc(c(-c6cccc(S(=O)(=O)[O-])c6F)c6ccc3[nH]6)C=C5)C=C4)cc2)C1)c1ccc(Cl)cc1
REMARK SMILES IDX 12 1 11 2 10 3 8 4 9 5 7 7 4 8 5 9 81 10 6 11 3 12 2 13 1 14
REMARK SMILES IDX 82 15 83 16 88 17 84 18 87 19 85 20 86 21 13 22 14 23 15 24
REMARK SMILES IDX 16 25 17 27 18 28 19 29 80 30 20 31 79 32 21 33 22 34 23 35
REMARK SMILES IDX 73 36 24 37 78 38 72 39 74 40 25 41 77 42 71 43 70 44 26 46
REMARK SMILES IDX 58 47 38 48 57 49 39 50 42 51 56 52 75 53 40 54 41 55 55 57
REMARK SMILES IDX 76 58 43 59 27 60 28 61 36 62 29 63 31 64 37 65 30 66 32 67
REMARK SMILES IDX 33 68 34 69 35 70 59 71 60 72 68 73 61 74 63 75 69 76 62 77
REMARK SMILES IDX 64 78 65 79 66 80 67 81 44 82 45 83 53 84 46 85 48 86 54 87
REMARK SMILES IDX 47 88 49 89 50 90 51 91 52 92
REMARK H PARENT 10 6 15 26 74 45 42 56
REMARK Flexibility Score: inf
ROOT
ATOM      1  C   UNL A   1      37.473  20.916  24.668  1.00  0.00     0.023 C 
ENDROOT
BRANCH   1   2
ATOM      2  C   UNL A   1      36.054  20.639  25.149  1.00  0.00     0.116 C 
BRANCH   2   3
ATOM      3  N   UNL A   1      35.539  21.648  26.048  1.00  0.00    -0.356 N 
ATOM      4  C   UNL A   1      34.994  22.873  25.880  1.00  0.00     0.223 C 
ATOM      5  O   UNL A   1      34.449  23.343  26.890  1.00  0.00    -0.275 OA
ATOM      6  H   UNL A   1      35.597  21.382  26.994  1.00  0.00     0.163 HD
BRANCH   4   7
ATOM      7  C   UNL A   1      35.107  23.771  24.636  1.00  0.00     0.079 C 
ATOM      8  C   UNL A   1      33.508  23.584  22.786  1.00  0.00    -0.003 C 
ATOM      9  C   UNL A   1      33.322  24.976  23.408  1.00  0.00     0.005 C 
ATOM     10  C   UNL A   1      34.952  23.304  23.193  1.00  0.00     0.017 C 
ATOM     11  C   UNL A   1      34.079  24.929  24.739  1.00  0.00     0.014 C 
BRANCH   8  12
ATOM     12  C   UNL A   1      32.435  22.622  23.303  1.00  0.00     0.084 C 
BRANCH  12  13
ATOM     13  C   UNL A   1      32.218  21.191  22.820  1.00  0.00     0.163 C 
ATOM     14  O   UNL A   1      31.861  21.042  21.644  1.00  0.00    -0.294 OA
BRANCH  13  15
ATOM     15  C   UNL A   1      32.462  19.935  23.602  1.00  0.00     0.018 A 
ATOM     16  C   UNL A   1      32.564  19.846  24.990  1.00  0.00     0.013 A 
ATOM     17  C   UNL A   1      32.532  18.738  22.860  1.00  0.00     0.013 A 
ATOM     18  C   UNL A   1      32.698  18.599  25.620  1.00  0.00     0.021 A 
ATOM     19  C   UNL A   1      32.682  17.494  23.484  1.00  0.00     0.021 A 
ATOM     20  C   UNL A   1      32.755  17.430  24.866  1.00  0.00     0.041 A 
ATOM     21  Cl  UNL A   1      32.911  15.910  25.656  1.00  0.00    -0.084 Cl
ENDBRANCH  13  15
ENDBRANCH  12  13
ENDBRANCH   8  12
ENDBRANCH   4   7
ENDBRANCH   2   3
ENDBRANCH   1   2
BRANCH   1  22
ATOM     22  C   UNL A   1      38.433  19.732  24.782  1.00  0.00     0.023 C 
BRANCH  22  23
ATOM     23  C   UNL A   1      39.194  19.610  26.104  1.00  0.00     0.116 C 
BRANCH  23  24
ATOM     24  N   UNL A   1      40.519  19.010  25.988  1.00  0.00    -0.352 N 
ATOM     25  C   UNL A   1      41.738  19.606  26.220  1.00  0.00     0.251 C 
ATOM     26  H   UNL A   1      40.544  18.065  25.710  1.00  0.00     0.163 HD
ATOM     27  O   UNL A   1      42.784  18.990  26.037  1.00  0.00    -0.269 OA
BRANCH  25  28
ATOM     28  C   UNL A   1      41.775  21.021  26.642  1.00  0.00     0.039 A 
ATOM     29  C   UNL A   1      42.163  21.319  27.952  1.00  0.00     0.014 A 
ATOM     30  C   UNL A   1      41.519  22.043  25.725  1.00  0.00     0.014 A 
ATOM     31  C   UNL A   1      42.402  22.646  28.311  1.00  0.00     0.010 A 
ATOM     32  C   UNL A   1      41.813  23.358  26.070  1.00  0.00     0.010 A 
ATOM     33  C   UNL A   1      42.283  23.668  27.355  1.00  0.00    -0.014 A 
BRANCH  33  34
ATOM     34  C   UNL A   1      42.737  25.050  27.647  1.00  0.00     0.031 A 
ATOM     35  C   UNL A   1      41.795  26.057  28.235  1.00  0.00     0.074 A 
ATOM     36  C   UNL A   1      43.968  25.428  27.248  1.00  0.00     0.049 A 
ATOM     37  N   UNL A   1      42.001  27.323  28.490  1.00  0.00    -0.248 NA
ATOM     38  C   UNL A   1      40.435  25.592  28.551  1.00  0.00     0.031 C 
ATOM     39  C   UNL A   1      44.934  24.567  26.560  1.00  0.00     0.029 A 
ATOM     40  N   UNL A   1      44.601  26.644  27.319  1.00  0.00    -0.354 N 
ATOM     41  C   UNL A   1      40.790  27.816  28.957  1.00  0.00     0.074 A 
ATOM     42  C   UNL A   1      39.847  26.717  28.932  1.00  0.00     0.031 C 
ATOM     43  C   UNL A   1      46.028  25.284  26.260  1.00  0.00     0.029 A 
ATOM     44  C   UNL A   1      45.838  26.657  26.716  1.00  0.00     0.049 A 
ATOM     45  H   UNL A   1      44.209  27.432  27.761  1.00  0.00     0.167 HD
ATOM     46  C   UNL A   1      40.497  29.064  29.393  1.00  0.00     0.034 A 
ATOM     47  C   UNL A   1      46.719  27.663  26.542  1.00  0.00     0.034 A 
ATOM     48  C   UNL A   1      41.453  30.135  29.469  1.00  0.00     0.049 A 
ATOM     49  C   UNL A   1      46.402  29.018  27.111  1.00  0.00     0.074 A 
ATOM     50  C   UNL A   1      41.293  31.394  30.022  1.00  0.00     0.029 A 
ATOM     51  N   UNL A   1      42.744  30.079  28.967  1.00  0.00    -0.354 N 
ATOM     52  N   UNL A   1      45.326  29.408  27.749  1.00  0.00    -0.248 NA
ATOM     53  C   UNL A   1      47.432  30.058  26.976  1.00  0.00     0.031 C 
ATOM     54  C   UNL A   1      42.487  32.102  29.848  1.00  0.00     0.029 A 
ATOM     55  C   UNL A   1      43.390  31.283  29.187  1.00  0.00     0.049 A 
ATOM     56  H   UNL A   1      43.142  29.299  28.520  1.00  0.00     0.167 HD
ATOM     57  C   UNL A   1      45.556  30.729  28.115  1.00  0.00     0.074 A 
ATOM     58  C   UNL A   1      46.884  31.066  27.644  1.00  0.00     0.031 C 
ATOM     59  C   UNL A   1      44.734  31.588  28.766  1.00  0.00     0.034 A 
BRANCH  46  60
ATOM     60  C   UNL A   1      39.101  29.315  29.893  1.00  0.00     0.023 A 
ATOM     61  C   UNL A   1      38.753  28.904  31.196  1.00  0.00     0.012 A 
ATOM     62  C   UNL A   1      38.151  29.986  29.102  1.00  0.00     0.148 A 
ATOM     63  C   UNL A   1      37.472  29.131  31.694  1.00  0.00     0.002 A 
ATOM     64  C   UNL A   1      36.884  30.239  29.619  1.00  0.00     0.091 A 
ATOM     65  F   UNL A   1      38.487  30.344  27.855  1.00  0.00    -0.205 F 
ATOM     66  C   UNL A   1      36.541  29.806  30.909  1.00  0.00     0.022 A 
BRANCH  64  67
ATOM     67  S   UNL A   1      35.649  31.163  28.696  1.00  0.00     0.127 S 
ATOM     68  O   UNL A   1      35.061  30.119  27.859  1.00  0.00    -0.237 OA
ATOM     69  O   UNL A   1      34.768  31.660  29.755  1.00  0.00    -0.237 OA
ATOM     70  O   UNL A   1      36.387  32.204  27.993  1.00  0.00    -0.744 OA
ENDBRANCH  64  67
ENDBRANCH  46  60
BRANCH  47  71
ATOM     71  C   UNL A   1      48.017  27.387  25.869  1.00  0.00     0.023 A 
ATOM     72  C   UNL A   1      49.080  26.850  26.620  1.00  0.00     0.012 A 
ATOM     73  C   UNL A   1      48.182  27.578  24.483  1.00  0.00     0.148 A 
ATOM     74  C   UNL A   1      50.291  26.524  26.007  1.00  0.00     0.002 A 
ATOM     75  C   UNL A   1      49.374  27.204  23.869  1.00  0.00     0.091 A 
ATOM     76  F   UNL A   1      47.164  28.103  23.787  1.00  0.00    -0.205 F 
ATOM     77  C   UNL A   1      50.433  26.689  24.632  1.00  0.00     0.022 A 
BRANCH  75  78
ATOM     78  S   UNL A   1      49.589  27.252  22.086  1.00  0.00     0.127 S 
ATOM     79  O   UNL A   1      51.004  26.922  21.946  1.00  0.00    -0.237 OA
ATOM     80  O   UNL A   1      48.666  26.208  21.638  1.00  0.00    -0.237 OA
ATOM     81  O   UNL A   1      49.206  28.598  21.683  1.00  0.00    -0.744 OA
ENDBRANCH  75  78
ENDBRANCH  47  71
BRANCH  59  82
ATOM     82  C   UNL A   1      45.239  32.981  29.026  1.00  0.00     0.023 A 
ATOM     83  C   UNL A   1      46.077  33.215  30.134  1.00  0.00     0.012 A 
ATOM     84  C   UNL A   1      44.972  34.029  28.125  1.00  0.00     0.148 A 
ATOM     85  C   UNL A   1      46.631  34.477  30.349  1.00  0.00     0.002 A 
ATOM     86  C   UNL A   1      45.559  35.273  28.323  1.00  0.00     0.091 A 
ATOM     87  F   UNL A   1      44.154  33.791  27.089  1.00  0.00    -0.205 F 
ATOM     88  C   UNL A   1      46.383  35.500  29.438  1.00  0.00     0.022 A 
BRANCH  86  89
ATOM     89  S   UNL A   1      45.366  36.623  27.152  1.00  0.00     0.127 S 
ATOM     90  O   UNL A   1      46.242  36.200  26.062  1.00  0.00    -0.237 OA
ATOM     91  O   UNL A   1      43.936  36.567  26.842  1.00  0.00    -0.237 OA
ATOM     92  O   UNL A   1      45.779  37.826  27.862  1.00  0.00    -0.744 OA
ENDBRANCH  86  89
ENDBRANCH  59  82
ENDBRANCH  33  34
ENDBRANCH  25  28
ENDBRANCH  23  24
ENDBRANCH  22  23
ENDBRANCH   1  22
TORSDOF 17
ENDMDL
MODEL 2
REMARK VINA RESULT:     -11.7      2.716      3.894
REMARK SMILES O=C(C[C@H]1CC[C@@H](C(=O)NCCCCNC(=O)c2ccc(-c3c4nc(c(-c5cccc(S(=O)(=O)[O-])c5F)c5ccc([nH]5)c(-c5cccc(S(=O)(=O)[O-])c5F)c5nc(c(-c6cccc(S(=O)(=O)[O-])c6F)c6ccc3[nH]6)C=C5)C=C4)cc2)C1)c1ccc(Cl)cc1
REMARK SMILES IDX 12 1 11 2 10 3 8 4 9 5 7 7 4 8 5 9 81 10 6 11 3 12 2 13 1 14
REMARK SMILES IDX 82 15 83 16 88 17 84 18 87 19 85 20 86 21 13 22 14 23 15 24
REMARK SMILES IDX 16 25 17 27 18 28 19 29 80 30 20 31 79 32 21 33 22 34 23 35
REMARK SMILES IDX 73 36 24 37 78 38 72 39 74 40 25 41 77 42 71 43 70 44 26 46
REMARK SMILES IDX 58 47 38 48 57 49 39 50 42 51 56 52 75 53 40 54 41 55 55 57
REMARK SMILES IDX 76 58 43 59 27 60 28 61 36 62 29 63 31 64 37 65 30 66 32 67
REMARK SMILES IDX 33 68 34 69 35 70 59 71 60 72 68 73 61 74 63 75 69 76 62 77
REMARK SMILES IDX 64 78 65 79 66 80 67 81 44 82 45 83 53 84 46 85 48 86 54 87
REMARK SMILES IDX 47 88 49 89 50 90 51 91 52 92
REMARK H PARENT 10 6 15 26 74 45 42 56
REMARK Flexibility Score: inf
ROOT
ATOM      1  C   UNL A   1      34.715  20.663  24.765  1.00  0.00     0.023 C 
ENDROOT
BRANCH   1   2
ATOM      2  C   UNL A   1      33.832  20.985  25.964  1.00  0.00     0.116 C 
BRANCH   2   3
ATOM      3  N   UNL A   1      32.628  21.710  25.621  1.00  0.00    -0.356 N 
ATOM      4  C   UNL A   1      32.294  23.019  25.574  1.00  0.00     0.223 C 
ATOM      5  O   UNL A   1      31.224  23.263  24.997  1.00  0.00    -0.275 OA
ATOM      6  H   UNL A   1      31.886  21.117  25.363  1.00  0.00     0.163 HD
BRANCH   4   7
ATOM      7  C   UNL A   1      33.021  24.183  26.270  1.00  0.00     0.079 C 
ATOM      8  C   UNL A   1      34.044  25.996  24.974  1.00  0.00    -0.003 C 
ATOM      9  C   UNL A   1      32.900  26.612  25.793  1.00  0.00     0.005 C 
ATOM     10  C   UNL A   1      34.357  24.775  25.835  1.00  0.00     0.017 C 
ATOM     11  C   UNL A   1      32.089  25.422  26.314  1.00  0.00     0.014 C 
BRANCH   8  12
ATOM     12  C   UNL A   1      33.591  25.741  23.535  1.00  0.00     0.084 C 
BRANCH  12  13
ATOM     13  C   UNL A   1      32.965  26.775  22.604  1.00  0.00     0.163 C 
ATOM     14  O   UNL A   1      33.638  27.135  21.628  1.00  0.00    -0.294 OA
BRANCH  13  15
ATOM     15  C   UNL A   1      31.584  27.352  22.704  1.00  0.00     0.018 A 
ATOM     16  C   UNL A   1      30.467  26.703  23.231  1.00  0.00     0.013 A 
ATOM     17  C   UNL A   1      31.430  28.688  22.282  1.00  0.00     0.013 A 
ATOM     18  C   UNL A   1      29.243  27.378  23.362  1.00  0.00     0.021 A 
ATOM     19  C   UNL A   1      30.207  29.358  22.398  1.00  0.00     0.021 A 
ATOM     20  C   UNL A   1      29.118  28.701  22.947  1.00  0.00     0.041 A 
ATOM     21  Cl  UNL A   1      27.614  29.514  23.125  1.00  0.00    -0.084 Cl
ENDBRANCH  13  15
ENDBRANCH  12  13
ENDBRANCH   8  12
ENDBRANCH   4   7
ENDBRANCH   2   3
ENDBRANCH   1   2
BRANCH   1  22
ATOM     22  C   UNL A   1      35.731  21.747  24.407  1.00  0.00     0.023 C 
BRANCH  22  23
ATOM     23  C   UNL A   1      36.829  22.007  25.441  1.00  0.00     0.116 C 
BRANCH  23  24
ATOM     24  N   UNL A   1      37.890  21.008  25.464  1.00  0.00    -0.352 N 
ATOM     25  C   UNL A   1      39.159  21.136  25.984  1.00  0.00     0.251 C 
ATOM     26  H   UNL A   1      37.675  20.137  25.058  1.00  0.00     0.163 HD
ATOM     27  O   UNL A   1      39.972  20.221  25.892  1.00  0.00    -0.269 OA
BRANCH  25  28
ATOM     28  C   UNL A   1      39.550  22.416  26.610  1.00  0.00     0.039 A 
ATOM     29  C   UNL A   1      40.577  22.411  27.559  1.00  0.00     0.014 A 
ATOM     30  C   UNL A   1      38.972  23.617  26.194  1.00  0.00     0.014 A 
ATOM     31  C   UNL A   1      41.101  23.623  28.010  1.00  0.00     0.010 A 
ATOM     32  C   UNL A   1      39.534  24.822  26.602  1.00  0.00     0.010 A 
ATOM     33  C   UNL A   1      40.620  24.835  27.491  1.00  0.00    -0.014 A 
BRANCH  33  34
ATOM     34  C   UNL A   1      41.298  26.121  27.786  1.00  0.00     0.031 A 
ATOM     35  C   UNL A   1      40.592  27.202  28.549  1.00  0.00     0.074 A 
ATOM     36  C   UNL A   1      42.508  26.359  27.239  1.00  0.00     0.049 A 
ATOM     37  N   UNL A   1      41.007  28.408  28.837  1.00  0.00    -0.248 NA
ATOM     38  C   UNL A   1      39.233  26.901  29.027  1.00  0.00     0.031 C 
ATOM     39  C   UNL A   1      43.244  25.427  26.382  1.00  0.00     0.029 A 
ATOM     40  N   UNL A   1      43.310  27.472  27.283  1.00  0.00    -0.354 N 
ATOM     41  C   UNL A   1      39.949  29.025  29.493  1.00  0.00     0.074 A 
ATOM     42  C   UNL A   1      38.866  28.065  29.543  1.00  0.00     0.031 C 
ATOM     43  C   UNL A   1      44.379  26.011  25.968  1.00  0.00     0.029 A 
ATOM     44  C   UNL A   1      44.446  27.363  26.516  1.00  0.00     0.049 A 
ATOM     45  H   UNL A   1      43.094  28.272  27.814  1.00  0.00     0.167 HD
ATOM     46  C   UNL A   1      39.895  30.267  30.028  1.00  0.00     0.034 A 
ATOM     47  C   UNL A   1      45.430  28.252  26.273  1.00  0.00     0.034 A 
ATOM     48  C   UNL A   1      40.994  31.194  30.024  1.00  0.00     0.049 A 
ATOM     49  C   UNL A   1      45.385  29.594  26.948  1.00  0.00     0.074 A 
ATOM     50  C   UNL A   1      41.087  32.421  30.656  1.00  0.00     0.029 A 
ATOM     51  N   UNL A   1      42.188  31.002  29.345  1.00  0.00    -0.354 N 
ATOM     52  N   UNL A   1      44.467  30.079  27.748  1.00  0.00    -0.248 NA
ATOM     53  C   UNL A   1      46.524  30.495  26.723  1.00  0.00     0.031 C 
ATOM     54  C   UNL A   1      42.336  32.974  30.354  1.00  0.00     0.029 A 
ATOM     55  C   UNL A   1      43.021  32.091  29.534  1.00  0.00     0.049 A 
ATOM     56  H   UNL A   1      42.410  30.208  28.808  1.00  0.00     0.167 HD
ATOM     57  C   UNL A   1      44.928  31.329  28.144  1.00  0.00     0.074 A 
ATOM     58  C   UNL A   1      46.217  31.518  27.511  1.00  0.00     0.031 C 
ATOM     59  C   UNL A   1      44.327  32.243  28.946  1.00  0.00     0.034 A 
BRANCH  46  60
ATOM     60  C   UNL A   1      38.626  30.666  30.729  1.00  0.00     0.023 A 
ATOM     61  C   UNL A   1      38.470  30.360  32.096  1.00  0.00     0.012 A 
ATOM     62  C   UNL A   1      37.611  31.373  30.058  1.00  0.00     0.148 A 
ATOM     63  C   UNL A   1      37.312  30.725  32.778  1.00  0.00     0.002 A 
ATOM     64  C   UNL A   1      36.472  31.764  30.754  1.00  0.00     0.091 A 
ATOM     65  F   UNL A   1      37.760  31.631  28.750  1.00  0.00    -0.205 F 
ATOM     66  C   UNL A   1      36.317  31.434  32.110  1.00  0.00     0.022 A 
BRANCH  64  67
ATOM     67  S   UNL A   1      35.175  32.739  29.982  1.00  0.00     0.127 S 
ATOM     68  O   UNL A   1      34.677  31.818  28.963  1.00  0.00    -0.237 OA
ATOM     69  O   UNL A   1      34.250  32.974  31.094  1.00  0.00    -0.237 OA
ATOM     70  O   UNL A   1      35.833  33.941  29.488  1.00  0.00    -0.744 OA
ENDBRANCH  64  67
ENDBRANCH  46  60
BRANCH  47  71
ATOM     71  C   UNL A   1      46.577  27.853  25.412  1.00  0.00     0.023 A 
ATOM     72  C   UNL A   1      46.518  28.106  24.028  1.00  0.00     0.012 A 
ATOM     73  C   UNL A   1      47.751  27.299  25.960  1.00  0.00     0.148 A 
ATOM     74  C   UNL A   1      47.600  27.800  23.202  1.00  0.00     0.002 A 
ATOM     75  C   UNL A   1      48.844  27.043  25.139  1.00  0.00     0.091 A 
ATOM     76  F   UNL A   1      47.782  27.053  27.277  1.00  0.00    -0.205 F 
ATOM     77  C   UNL A   1      48.767  27.281  23.759  1.00  0.00     0.022 A 
BRANCH  75  78
ATOM     78  S   UNL A   1      50.429  26.507  25.794  1.00  0.00     0.127 S 
ATOM     79  O   UNL A   1      51.213  26.330  24.576  1.00  0.00    -0.237 OA
ATOM     80  O   UNL A   1      50.822  27.651  26.619  1.00  0.00    -0.237 OA
ATOM     81  O   UNL A   1      50.147  25.295  26.553  1.00  0.00    -0.744 OA
ENDBRANCH  75  78
ENDBRANCH  47  71
BRANCH  59  82
ATOM     82  C   UNL A   1      45.053  33.534  29.204  1.00  0.00     0.023 A 
ATOM     83  C   UNL A   1      45.936  33.623  30.298  1.00  0.00     0.012 A 
ATOM     84  C   UNL A   1      44.943  34.618  28.312  1.00  0.00     0.148 A 
ATOM     85  C   UNL A   1      46.689  34.778  30.509  1.00  0.00     0.002 A 
ATOM     86  C   UNL A   1      45.726  35.751  28.506  1.00  0.00     0.091 A 
ATOM     87  F   UNL A   1      44.081  34.522  27.289  1.00  0.00    -0.205 F 
ATOM     88  C   UNL A   1      46.594  35.835  29.607  1.00  0.00     0.022 A 
BRANCH  86  89
ATOM     89  S   UNL A   1      45.732  37.122  27.344  1.00  0.00     0.127 S 
ATOM     90  O   UNL A   1      44.311  37.458  27.270  1.00  0.00    -0.237 OA
ATOM     91  O   UNL A   1      46.557  38.115  28.034  1.00  0.00    -0.237 OA
ATOM     92  O   UNL A   1      46.319  36.600  26.118  1.00  0.00    -0.744 OA
ENDBRANCH  86  89
ENDBRANCH  59  82
ENDBRANCH  33  34
ENDBRANCH  25  28
ENDBRANCH  23  24
ENDBRANCH  22  23
ENDBRANCH   1  22
TORSDOF 17
ENDMDL
MODEL 3
REMARK VINA RESULT:     -11.5      5.474      8.428
REMARK SMILES O=C(C[C@H]1CC[C@@H](C(=O)NCCCCNC(=O)c2ccc(-c3c4nc(c(-c5cccc(S(=O)(=O)[O-])c5F)c5ccc([nH]5)c(-c5cccc(S(=O)(=O)[O-])c5F)c5nc(c(-c6cccc(S(=O)(=O)[O-])c6F)c6ccc3[nH]6)C=C5)C=C4)cc2)C1)c1ccc(Cl)cc1
REMARK SMILES IDX 12 1 11 2 10 3 8 4 9 5 7 7 4 8 5 9 81 10 6 11 3 12 2 13 1 14
REMARK SMILES IDX 82 15 83 16 88 17 84 18 87 19 85 20 86 21 13 22 14 23 15 24
REMARK SMILES IDX 16 25 17 27 18 28 19 29 80 30 20 31 79 32 21 33 22 34 23 35
REMARK SMILES IDX 73 36 24 37 78 38 72 39 74 40 25 41 77 42 71 43 70 44 26 46
REMARK SMILES IDX 58 47 38 48 57 49 39 50 42 51 56 52 75 53 40 54 41 55 55 57
REMARK SMILES IDX 76 58 43 59 27 60 28 61 36 62 29 63 31 64 37 65 30 66 32 67
REMARK SMILES IDX 33 68 34 69 35 70 59 71 60 72 68 73 61 74 63 75 69 76 62 77
REMARK SMILES IDX 64 78 65 79 66 80 67 81 44 82 45 83 53 84 46 85 48 86 54 87
REMARK SMILES IDX 47 88 49 89 50 90 51 91 52 92
REMARK H PARENT 10 6 15 26 74 45 42 56
REMARK Flexibility Score: inf
ROOT
ATOM      1  C   UNL A   1      31.831  28.057  27.059  1.00  0.00     0.023 C 
ENDROOT
BRANCH   1   2
ATOM      2  C   UNL A   1      31.006  26.936  26.438  1.00  0.00     0.116 C 
BRANCH   2   3
ATOM      3  N   UNL A   1      31.449  25.612  26.814  1.00  0.00    -0.356 N 
ATOM      4  C   UNL A   1      32.051  24.596  26.159  1.00  0.00     0.223 C 
ATOM      5  O   UNL A   1      32.493  23.695  26.888  1.00  0.00    -0.275 OA
ATOM      6  H   UNL A   1      31.273  25.405  27.760  1.00  0.00     0.163 HD
BRANCH   4   7
ATOM      7  C   UNL A   1      32.114  24.387  24.635  1.00  0.00     0.079 C 
ATOM      8  C   UNL A   1      33.573  22.682  23.647  1.00  0.00    -0.003 C 
ATOM      9  C   UNL A   1      32.124  22.271  23.345  1.00  0.00     0.005 C 
ATOM     10  C   UNL A   1      33.389  24.187  23.824  1.00  0.00     0.017 C 
ATOM     11  C   UNL A   1      31.256  23.154  24.246  1.00  0.00     0.014 C 
BRANCH   8  12
ATOM     12  C   UNL A   1      34.110  21.896  24.845  1.00  0.00     0.084 C 
BRANCH  12  13
ATOM     13  C   UNL A   1      34.927  20.610  24.770  1.00  0.00     0.163 C 
ATOM     14  O   UNL A   1      36.160  20.726  24.743  1.00  0.00    -0.294 OA
BRANCH  13  15
ATOM     15  C   UNL A   1      34.395  19.207  24.799  1.00  0.00     0.018 A 
ATOM     16  C   UNL A   1      35.133  18.050  24.547  1.00  0.00     0.013 A 
ATOM     17  C   UNL A   1      33.045  19.057  25.178  1.00  0.00     0.013 A 
ATOM     18  C   UNL A   1      34.551  16.782  24.697  1.00  0.00     0.021 A 
ATOM     19  C   UNL A   1      32.458  17.794  25.314  1.00  0.00     0.021 A 
ATOM     20  C   UNL A   1      33.218  16.659  25.081  1.00  0.00     0.041 A 
ATOM     21  Cl  UNL A   1      32.524  15.097  25.271  1.00  0.00    -0.084 Cl
ENDBRANCH  13  15
ENDBRANCH  12  13
ENDBRANCH   8  12
ENDBRANCH   4   7
ENDBRANCH   2   3
ENDBRANCH   1   2
BRANCH   1  22
ATOM     22  C   UNL A   1      31.786  29.383  26.301  1.00  0.00     0.023 C 
BRANCH  22  23
ATOM     23  C   UNL A   1      33.073  30.211  26.317  1.00  0.00     0.116 C 
BRANCH  23  24
ATOM     24  N   UNL A   1      32.935  31.536  26.911  1.00  0.00    -0.352 N 
ATOM     25  C   UNL A   1      33.831  32.192  27.725  1.00  0.00     0.251 C 
ATOM     26  H   UNL A   1      32.102  32.018  26.705  1.00  0.00     0.163 HD
ATOM     27  O   UNL A   1      33.563  33.294  28.195  1.00  0.00    -0.269 OA
BRANCH  25  28
ATOM     28  C   UNL A   1      35.103  31.528  28.073  1.00  0.00     0.039 A 
ATOM     29  C   UNL A   1      36.254  32.311  28.204  1.00  0.00     0.014 A 
ATOM     30  C   UNL A   1      35.138  30.160  28.356  1.00  0.00     0.014 A 
ATOM     31  C   UNL A   1      37.416  31.742  28.728  1.00  0.00     0.010 A 
ATOM     32  C   UNL A   1      36.278  29.611  28.932  1.00  0.00     0.010 A 
ATOM     33  C   UNL A   1      37.417  30.402  29.147  1.00  0.00    -0.014 A 
BRANCH  33  34
ATOM     34  C   UNL A   1      38.561  29.834  29.903  1.00  0.00     0.031 A 
ATOM     35  C   UNL A   1      38.910  30.351  31.267  1.00  0.00     0.074 A 
ATOM     36  C   UNL A   1      39.367  28.944  29.290  1.00  0.00     0.049 A 
ATOM     37  N   UNL A   1      39.913  30.019  32.038  1.00  0.00    -0.248 NA
ATOM     38  C   UNL A   1      38.038  31.396  31.826  1.00  0.00     0.031 C 
ATOM     39  C   UNL A   1      39.194  28.453  27.920  1.00  0.00     0.029 A 
ATOM     40  N   UNL A   1      40.517  28.330  29.719  1.00  0.00    -0.354 N 
ATOM     41  C   UNL A   1      39.818  30.840  33.154  1.00  0.00     0.074 A 
ATOM     42  C   UNL A   1      38.670  31.699  32.951  1.00  0.00     0.031 C 
ATOM     43  C   UNL A   1      40.209  27.627  27.617  1.00  0.00     0.029 A 
ATOM     44  C   UNL A   1      41.112  27.542  28.761  1.00  0.00     0.049 A 
ATOM     45  H   UNL A   1      40.882  28.442  30.627  1.00  0.00     0.167 HD
ATOM     46  C   UNL A   1      40.600  30.857  34.260  1.00  0.00     0.034 A 
ATOM     47  C   UNL A   1      42.259  26.835  28.794  1.00  0.00     0.034 A 
ATOM     48  C   UNL A   1      41.702  29.962  34.479  1.00  0.00     0.049 A 
ATOM     49  C   UNL A   1      43.063  26.807  30.064  1.00  0.00     0.074 A 
ATOM     50  C   UNL A   1      42.470  29.806  35.620  1.00  0.00     0.029 A 
ATOM     51  N   UNL A   1      42.204  29.078  33.535  1.00  0.00    -0.354 N 
ATOM     52  N   UNL A   1      42.833  27.429  31.194  1.00  0.00    -0.248 NA
ATOM     53  C   UNL A   1      44.257  25.950  30.081  1.00  0.00     0.031 C 
ATOM     54  C   UNL A   1      43.441  28.831  35.363  1.00  0.00     0.029 A 
ATOM     55  C   UNL A   1      43.277  28.381  34.062  1.00  0.00     0.049 A 
ATOM     56  H   UNL A   1      41.849  28.964  32.625  1.00  0.00     0.167 HD
ATOM     57  C   UNL A   1      43.836  27.021  32.066  1.00  0.00     0.074 A 
ATOM     58  C   UNL A   1      44.664  26.082  31.337  1.00  0.00     0.031 C 
ATOM     59  C   UNL A   1      44.059  27.404  33.347  1.00  0.00     0.034 A 
BRANCH  46  60
ATOM     60  C   UNL A   1      40.239  31.829  35.349  1.00  0.00     0.023 A 
ATOM     61  C   UNL A   1      40.942  33.047  35.444  1.00  0.00     0.012 A 
ATOM     62  C   UNL A   1      39.190  31.563  36.248  1.00  0.00     0.148 A 
ATOM     63  C   UNL A   1      40.626  33.974  36.434  1.00  0.00     0.002 A 
ATOM     64  C   UNL A   1      38.857  32.509  37.213  1.00  0.00     0.091 A 
ATOM     65  F   UNL A   1      38.551  30.387  36.164  1.00  0.00    -0.205 F 
ATOM     66  C   UNL A   1      39.578  33.709  37.313  1.00  0.00     0.022 A 
BRANCH  64  67
ATOM     67  S   UNL A   1      37.477  32.271  38.339  1.00  0.00     0.127 S 
ATOM     68  O   UNL A   1      37.981  32.891  39.562  1.00  0.00    -0.237 OA
ATOM     69  O   UNL A   1      36.400  33.014  37.680  1.00  0.00    -0.237 OA
ATOM     70  O   UNL A   1      37.264  30.831  38.394  1.00  0.00    -0.744 OA
ENDBRANCH  64  67
ENDBRANCH  46  60
BRANCH  47  71
ATOM     71  C   UNL A   1      42.657  26.034  27.604  1.00  0.00     0.023 A 
ATOM     72  C   UNL A   1      43.576  26.576  26.687  1.00  0.00     0.012 A 
ATOM     73  C   UNL A   1      42.194  24.717  27.417  1.00  0.00     0.148 A 
ATOM     74  C   UNL A   1      44.016  25.829  25.593  1.00  0.00     0.002 A 
ATOM     75  C   UNL A   1      42.674  23.959  26.353  1.00  0.00     0.091 A 
ATOM     76  F   UNL A   1      41.308  24.222  28.293  1.00  0.00    -0.205 F 
ATOM     77  C   UNL A   1      43.575  24.518  25.434  1.00  0.00     0.022 A 
BRANCH  75  78
ATOM     78  S   UNL A   1      42.267  22.220  26.154  1.00  0.00     0.127 S 
ATOM     79  O   UNL A   1      40.820  22.270  25.967  1.00  0.00    -0.237 OA
ATOM     80  O   UNL A   1      43.032  21.861  24.959  1.00  0.00    -0.237 OA
ATOM     81  O   UNL A   1      42.730  21.571  27.374  1.00  0.00    -0.744 OA
ENDBRANCH  75  78
ENDBRANCH  47  71
BRANCH  59  82
ATOM     82  C   UNL A   1      45.238  26.807  34.063  1.00  0.00     0.023 A 
ATOM     83  C   UNL A   1      46.487  27.454  33.994  1.00  0.00     0.012 A 
ATOM     84  C   UNL A   1      45.089  25.672  34.883  1.00  0.00     0.148 A 
ATOM     85  C   UNL A   1      47.576  26.971  34.720  1.00  0.00     0.002 A 
ATOM     86  C   UNL A   1      46.168  25.219  35.634  1.00  0.00     0.091 A 
ATOM     87  F   UNL A   1      43.898  25.057  34.917  1.00  0.00    -0.205 F 
ATOM     88  C   UNL A   1      47.413  25.863  35.548  1.00  0.00     0.022 A 
BRANCH  86  89
ATOM     89  S   UNL A   1      46.023  23.854  36.794  1.00  0.00     0.127 S 
ATOM     90  O   UNL A   1      45.050  24.377  37.751  1.00  0.00    -0.237 OA
ATOM     91  O   UNL A   1      45.523  22.772  35.946  1.00  0.00    -0.237 OA
ATOM     92  O   UNL A   1      47.365  23.635  37.318  1.00  0.00    -0.744 OA
ENDBRANCH  86  89
ENDBRANCH  59  82
ENDBRANCH  33  34
ENDBRANCH  25  28
ENDBRANCH  23  24
ENDBRANCH  22  23
ENDBRANCH   1  22
TORSDOF 17
ENDMDL
