MODEL 1
REMARK VINA RESULT:     -12.7      0.000      0.000
REMARK SMILES CC1=C(C(=O)NCCCCNC(=O)c2ccc(-c3c4nc(c(-c5cccc(S(=O)(=O)[O-])c5F)c5ccc([nH]5)c(-c5cccc(S(=O)(=O)[O-])c5F)c5nc(c(-c6cccc(S(=O)(=O)[O-])c6F)c6ccc3[nH]6)C=C5)C=C4)cc2)[C@H](c2ccc(Cl)cc2)n2ncnc2N1
REMARK SMILES IDX 9 1 8 2 7 3 6 4 4 5 5 6 3 8 1 9 2 10 90 11 77 12 89 13 85 15
REMARK SMILES IDX 88 16 86 17 87 18 78 19 79 20 84 21 80 22 83 23 81 24 82 25
REMARK SMILES IDX 10 26 11 27 12 28 13 30 14 31 15 32 76 33 16 34 75 35 17 36
REMARK SMILES IDX 18 37 19 38 69 39 20 40 74 41 68 42 70 43 21 44 73 45 67 46
REMARK SMILES IDX 66 47 22 49 54 50 34 51 53 52 35 53 38 54 52 55 71 56 36 57
REMARK SMILES IDX 37 58 51 60 72 61 39 62 23 63 24 64 32 65 25 66 27 67 33 68
REMARK SMILES IDX 26 69 28 70 29 71 30 72 31 73 55 74 56 75 64 76 57 77 59 78
REMARK SMILES IDX 65 79 58 80 60 81 61 82 62 83 63 84 40 85 41 86 49 87 42 88
REMARK SMILES IDX 44 89 50 90 43 91 45 92 46 93 47 94 48 95
REMARK H PARENT 6 7 90 14 11 29 70 48 38 59
REMARK Flexibility Score: inf
ROOT
ATOM      1  C   UNL A   1      38.108  20.126  24.654  1.00  0.00     0.023 C 
ENDROOT
BRANCH   1   2
ATOM      2  C   UNL A   1      36.673  20.492  25.043  1.00  0.00     0.023 C 
BRANCH   2   3
ATOM      3  C   UNL A   1      36.363  21.996  25.137  1.00  0.00     0.116 C 
BRANCH   3   4
ATOM      4  N   UNL A   1      35.548  22.245  26.305  1.00  0.00    -0.352 N 
ATOM      5  C   UNL A   1      34.410  22.932  26.539  1.00  0.00     0.251 C 
ATOM      6  O   UNL A   1      34.186  23.166  27.734  1.00  0.00    -0.270 OA
ATOM      7  H   UNL A   1      35.905  21.814  27.114  1.00  0.00     0.163 HD
BRANCH   5   8
ATOM      8  C   UNL A   1      33.373  23.362  25.534  1.00  0.00     0.065 C 
ATOM      9  C   UNL A   1      31.764  21.357  25.338  1.00  0.00     0.065 C 
ATOM     10  C   UNL A   1      32.290  22.722  25.000  1.00  0.00     0.026 C 
ATOM     11  N   UNL A   1      31.645  23.256  23.880  1.00  0.00    -0.328 N 
ATOM     12  C   UNL A   1      33.815  24.717  24.886  1.00  0.00     0.179 C 
ATOM     13  C   UNL A   1      32.251  24.112  23.046  1.00  0.00     0.226 A 
ATOM     14  H   UNL A   1      30.713  22.995  23.699  1.00  0.00     0.169 HD
ATOM     15  N   UNL A   1      33.374  24.751  23.481  1.00  0.00    -0.219 N 
ATOM     16  N   UNL A   1      32.005  24.441  21.804  1.00  0.00    -0.200 NA
ATOM     17  N   UNL A   1      33.949  25.462  22.485  1.00  0.00    -0.157 NA
ATOM     18  C   UNL A   1      33.068  25.253  21.500  1.00  0.00     0.248 A 
BRANCH  12  19
ATOM     19  C   UNL A   1      33.344  25.970  25.652  1.00  0.00    -0.018 A 
ATOM     20  C   UNL A   1      32.022  26.121  26.118  1.00  0.00     0.008 A 
ATOM     21  C   UNL A   1      34.223  27.055  25.847  1.00  0.00     0.008 A 
ATOM     22  C   UNL A   1      31.582  27.314  26.696  1.00  0.00     0.021 A 
ATOM     23  C   UNL A   1      33.787  28.245  26.450  1.00  0.00     0.021 A 
ATOM     24  C   UNL A   1      32.460  28.380  26.843  1.00  0.00     0.041 A 
ATOM     25  Cl  UNL A   1      31.860  29.877  27.438  1.00  0.00    -0.084 Cl
ENDBRANCH  12  19
ENDBRANCH   5   8
ENDBRANCH   3   4
ENDBRANCH   2   3
ENDBRANCH   1   2
BRANCH   1  26
ATOM     26  C   UNL A   1      39.119  20.350  25.767  1.00  0.00     0.116 C 
BRANCH  26  27
ATOM     27  N   UNL A   1      40.094  19.259  25.863  1.00  0.00    -0.352 N 
ATOM     28  C   UNL A   1      41.454  19.378  26.047  1.00  0.00     0.251 C 
ATOM     29  H   UNL A   1      39.739  18.344  25.787  1.00  0.00     0.163 HD
ATOM     30  O   UNL A   1      42.227  18.472  25.745  1.00  0.00    -0.269 OA
BRANCH  28  31
ATOM     31  C   UNL A   1      41.952  20.622  26.644  1.00  0.00     0.039 A 
ATOM     32  C   UNL A   1      42.537  21.619  25.857  1.00  0.00     0.014 A 
ATOM     33  C   UNL A   1      41.714  20.808  28.005  1.00  0.00     0.014 A 
ATOM     34  C   UNL A   1      42.806  22.853  26.438  1.00  0.00     0.010 A 
ATOM     35  C   UNL A   1      41.879  22.059  28.546  1.00  0.00     0.010 A 
ATOM     36  C   UNL A   1      42.453  23.074  27.778  1.00  0.00    -0.014 A 
BRANCH  36  37
ATOM     37  C   UNL A   1      42.490  24.424  28.340  1.00  0.00     0.031 A 
ATOM     38  C   UNL A   1      41.261  25.232  28.066  1.00  0.00     0.074 A 
ATOM     39  C   UNL A   1      43.425  24.782  29.249  1.00  0.00     0.049 A 
ATOM     40  N   UNL A   1      41.170  26.365  27.450  1.00  0.00    -0.248 NA
ATOM     41  C   UNL A   1      39.951  24.632  28.387  1.00  0.00     0.031 C 
ATOM     42  C   UNL A   1      44.483  23.928  29.808  1.00  0.00     0.029 A 
ATOM     43  N   UNL A   1      43.528  25.911  30.005  1.00  0.00    -0.354 N 
ATOM     44  C   UNL A   1      39.827  26.737  27.545  1.00  0.00     0.074 A 
ATOM     45  C   UNL A   1      39.107  25.550  27.912  1.00  0.00     0.031 C 
ATOM     46  C   UNL A   1      44.914  24.448  30.976  1.00  0.00     0.029 A 
ATOM     47  C   UNL A   1      44.291  25.743  31.163  1.00  0.00     0.049 A 
ATOM     48  H   UNL A   1      43.103  26.764  29.759  1.00  0.00     0.167 HD
ATOM     49  C   UNL A   1      39.462  28.049  27.610  1.00  0.00     0.034 A 
ATOM     50  C   UNL A   1      44.359  26.573  32.235  1.00  0.00     0.034 A 
ATOM     51  C   UNL A   1      40.531  28.903  27.159  1.00  0.00     0.049 A 
ATOM     52  C   UNL A   1      43.858  27.892  31.801  1.00  0.00     0.074 A 
ATOM     53  C   UNL A   1      41.263  29.034  25.996  1.00  0.00     0.029 A 
ATOM     54  N   UNL A   1      41.250  29.548  28.134  1.00  0.00    -0.354 N 
ATOM     55  N   UNL A   1      44.466  28.635  30.922  1.00  0.00    -0.248 NA
ATOM     56  C   UNL A   1      42.454  28.190  32.019  1.00  0.00     0.031 C 
ATOM     57  C   UNL A   1      42.588  29.332  26.430  1.00  0.00     0.029 A 
ATOM     58  C   UNL A   1      42.576  29.447  27.822  1.00  0.00     0.049 A 
ATOM     59  H   UNL A   1      40.874  30.004  28.923  1.00  0.00     0.167 HD
ATOM     60  C   UNL A   1      43.435  29.139  30.142  1.00  0.00     0.074 A 
ATOM     61  C   UNL A   1      42.225  28.939  30.938  1.00  0.00     0.031 C 
ATOM     62  C   UNL A   1      43.626  29.388  28.813  1.00  0.00     0.034 A 
BRANCH  49  63
ATOM     63  C   UNL A   1      38.337  28.600  28.475  1.00  0.00     0.023 A 
ATOM     64  C   UNL A   1      37.323  29.336  27.815  1.00  0.00     0.012 A 
ATOM     65  C   UNL A   1      38.373  28.704  29.885  1.00  0.00     0.148 A 
ATOM     66  C   UNL A   1      36.458  30.192  28.507  1.00  0.00     0.002 A 
ATOM     67  C   UNL A   1      37.463  29.497  30.578  1.00  0.00     0.091 A 
ATOM     68  F   UNL A   1      39.362  28.141  30.580  1.00  0.00    -0.205 F 
ATOM     69  C   UNL A   1      36.528  30.272  29.891  1.00  0.00     0.022 A 
BRANCH  67  70
ATOM     70  S   UNL A   1      37.483  29.605  32.372  1.00  0.00     0.127 S 
ATOM     71  O   UNL A   1      37.402  28.197  32.749  1.00  0.00    -0.237 OA
ATOM     72  O   UNL A   1      38.778  30.242  32.616  1.00  0.00    -0.237 OA
ATOM     73  O   UNL A   1      36.336  30.430  32.730  1.00  0.00    -0.744 OA
ENDBRANCH  67  70
ENDBRANCH  49  63
BRANCH  50  74
ATOM     74  C   UNL A   1      44.571  26.256  33.666  1.00  0.00     0.023 A 
ATOM     75  C   UNL A   1      45.873  26.269  34.206  1.00  0.00     0.012 A 
ATOM     76  C   UNL A   1      43.480  26.216  34.560  1.00  0.00     0.148 A 
ATOM     77  C   UNL A   1      46.081  26.273  35.592  1.00  0.00     0.002 A 
ATOM     78  C   UNL A   1      43.690  26.209  35.935  1.00  0.00     0.091 A 
ATOM     79  F   UNL A   1      42.238  26.278  34.064  1.00  0.00    -0.205 F 
ATOM     80  C   UNL A   1      44.990  26.251  36.456  1.00  0.00     0.022 A 
BRANCH  78  81
ATOM     81  S   UNL A   1      42.331  26.188  37.109  1.00  0.00     0.127 S 
ATOM     82  O   UNL A   1      41.762  24.863  36.868  1.00  0.00    -0.237 OA
ATOM     83  O   UNL A   1      43.030  26.349  38.381  1.00  0.00    -0.237 OA
ATOM     84  O   UNL A   1      41.459  27.296  36.733  1.00  0.00    -0.744 OA
ENDBRANCH  78  81
ENDBRANCH  50  74
BRANCH  62  85
ATOM     85  C   UNL A   1      45.038  29.368  28.285  1.00  0.00     0.023 A 
ATOM     86  C   UNL A   1      45.662  28.196  27.803  1.00  0.00     0.012 A 
ATOM     87  C   UNL A   1      45.689  30.599  28.115  1.00  0.00     0.148 A 
ATOM     88  C   UNL A   1      46.913  28.254  27.183  1.00  0.00     0.002 A 
ATOM     89  C   UNL A   1      46.908  30.660  27.455  1.00  0.00     0.091 A 
ATOM     90  F   UNL A   1      45.081  31.703  28.577  1.00  0.00    -0.205 F 
ATOM     91  C   UNL A   1      47.530  29.488  26.996  1.00  0.00     0.022 A 
BRANCH  89  92
ATOM     92  S   UNL A   1      47.684  32.230  27.073  1.00  0.00     0.127 S 
ATOM     93  O   UNL A   1      47.786  32.848  28.392  1.00  0.00    -0.237 OA
ATOM     94  O   UNL A   1      48.962  31.814  26.490  1.00  0.00    -0.237 OA
ATOM     95  O   UNL A   1      46.794  32.900  26.133  1.00  0.00    -0.744 OA
ENDBRANCH  89  92
ENDBRANCH  62  85
ENDBRANCH  36  37
ENDBRANCH  28  31
ENDBRANCH  26  27
ENDBRANCH   1  26
TORSDOF 15
ENDMDL
MODEL 2
REMARK VINA RESULT:     -12.7      2.418      3.527
REMARK SMILES CC1=C(C(=O)NCCCCNC(=O)c2ccc(-c3c4nc(c(-c5cccc(S(=O)(=O)[O-])c5F)c5ccc([nH]5)c(-c5cccc(S(=O)(=O)[O-])c5F)c5nc(c(-c6cccc(S(=O)(=O)[O-])c6F)c6ccc3[nH]6)C=C5)C=C4)cc2)[C@H](c2ccc(Cl)cc2)n2ncnc2N1
REMARK SMILES IDX 9 1 8 2 7 3 6 4 4 5 5 6 3 8 1 9 2 10 90 11 77 12 89 13 85 15
REMARK SMILES IDX 88 16 86 17 87 18 78 19 79 20 84 21 80 22 83 23 81 24 82 25
REMARK SMILES IDX 10 26 11 27 12 28 13 30 14 31 15 32 76 33 16 34 75 35 17 36
REMARK SMILES IDX 18 37 19 38 69 39 20 40 74 41 68 42 70 43 21 44 73 45 67 46
REMARK SMILES IDX 66 47 22 49 54 50 34 51 53 52 35 53 38 54 52 55 71 56 36 57
REMARK SMILES IDX 37 58 51 60 72 61 39 62 23 63 24 64 32 65 25 66 27 67 33 68
REMARK SMILES IDX 26 69 28 70 29 71 30 72 31 73 55 74 56 75 64 76 57 77 59 78
REMARK SMILES IDX 65 79 58 80 60 81 61 82 62 83 63 84 40 85 41 86 49 87 42 88
REMARK SMILES IDX 44 89 50 90 43 91 45 92 46 93 47 94 48 95
REMARK H PARENT 6 7 90 14 11 29 70 48 38 59
REMARK Flexibility Score: inf
ROOT
ATOM      1  C   UNL A   1      39.121  21.103  25.431  1.00  0.00     0.023 C 
ENDROOT
BRANCH   1   2
ATOM      2  C   UNL A   1      39.124  22.556  25.912  1.00  0.00     0.023 C 
BRANCH   2   3
ATOM      3  C   UNL A   1      37.786  23.306  25.801  1.00  0.00     0.116 C 
BRANCH   3   4
ATOM      4  N   UNL A   1      37.392  23.379  24.412  1.00  0.00    -0.352 N 
ATOM      5  C   UNL A   1      36.252  23.124  23.733  1.00  0.00     0.251 C 
ATOM      6  O   UNL A   1      36.395  23.012  22.510  1.00  0.00    -0.270 OA
ATOM      7  H   UNL A   1      38.122  23.684  23.827  1.00  0.00     0.163 HD
BRANCH   5   8
ATOM      8  C   UNL A   1      34.853  23.046  24.286  1.00  0.00     0.065 C 
ATOM      9  C   UNL A   1      33.627  25.082  23.287  1.00  0.00     0.065 C 
ATOM     10  C   UNL A   1      33.761  23.855  24.141  1.00  0.00     0.026 C 
ATOM     11  N   UNL A   1      32.656  23.694  24.984  1.00  0.00    -0.328 N 
ATOM     12  C   UNL A   1      34.791  21.922  25.375  1.00  0.00     0.179 C 
ATOM     13  C   UNL A   1      32.748  23.095  26.179  1.00  0.00     0.226 A 
ATOM     14  H   UNL A   1      31.780  24.033  24.688  1.00  0.00     0.169 HD
ATOM     15  N   UNL A   1      33.839  22.314  26.426  1.00  0.00    -0.219 N 
ATOM     16  N   UNL A   1      31.991  23.151  27.244  1.00  0.00    -0.200 NA
ATOM     17  N   UNL A   1      33.862  21.902  27.714  1.00  0.00    -0.157 NA
ATOM     18  C   UNL A   1      32.711  22.422  28.155  1.00  0.00     0.248 A 
BRANCH  12  19
ATOM     19  C   UNL A   1      34.468  20.519  24.820  1.00  0.00    -0.018 A 
ATOM     20  C   UNL A   1      33.199  20.181  24.307  1.00  0.00     0.008 A 
ATOM     21  C   UNL A   1      35.432  19.492  24.881  1.00  0.00     0.008 A 
ATOM     22  C   UNL A   1      32.888  18.873  23.927  1.00  0.00     0.021 A 
ATOM     23  C   UNL A   1      35.126  18.183  24.478  1.00  0.00     0.021 A 
ATOM     24  C   UNL A   1      33.846  17.874  24.032  1.00  0.00     0.041 A 
ATOM     25  Cl  UNL A   1      33.398  16.252  23.681  1.00  0.00    -0.084 Cl
ENDBRANCH  12  19
ENDBRANCH   5   8
ENDBRANCH   3   4
ENDBRANCH   2   3
ENDBRANCH   1   2
BRANCH   1  26
ATOM     26  C   UNL A   1      39.495  20.101  26.512  1.00  0.00     0.116 C 
BRANCH  26  27
ATOM     27  N   UNL A   1      40.612  19.240  26.114  1.00  0.00    -0.352 N 
ATOM     28  C   UNL A   1      41.918  19.623  25.899  1.00  0.00     0.251 C 
ATOM     29  H   UNL A   1      40.407  18.285  25.984  1.00  0.00     0.163 HD
ATOM     30  O   UNL A   1      42.686  18.945  25.222  1.00  0.00    -0.269 OA
BRANCH  28  31
ATOM     31  C   UNL A   1      42.373  20.866  26.532  1.00  0.00     0.039 A 
ATOM     32  C   UNL A   1      42.934  21.900  25.776  1.00  0.00     0.014 A 
ATOM     33  C   UNL A   1      42.118  21.009  27.896  1.00  0.00     0.014 A 
ATOM     34  C   UNL A   1      43.161  23.126  26.391  1.00  0.00     0.010 A 
ATOM     35  C   UNL A   1      42.241  22.250  28.470  1.00  0.00     0.010 A 
ATOM     36  C   UNL A   1      42.790  23.301  27.733  1.00  0.00    -0.014 A 
BRANCH  36  37
ATOM     37  C   UNL A   1      42.782  24.637  28.330  1.00  0.00     0.031 A 
ATOM     38  C   UNL A   1      41.519  25.403  28.091  1.00  0.00     0.074 A 
ATOM     39  C   UNL A   1      43.713  25.008  29.237  1.00  0.00     0.049 A 
ATOM     40  N   UNL A   1      41.377  26.548  27.506  1.00  0.00    -0.248 NA
ATOM     41  C   UNL A   1      40.237  24.745  28.410  1.00  0.00     0.031 C 
ATOM     42  C   UNL A   1      44.811  24.181  29.761  1.00  0.00     0.029 A 
ATOM     43  N   UNL A   1      43.781  26.120  30.021  1.00  0.00    -0.354 N 
ATOM     44  C   UNL A   1      40.021  26.864  27.625  1.00  0.00     0.074 A 
ATOM     45  C   UNL A   1      39.353  25.641  27.969  1.00  0.00     0.031 C 
ATOM     46  C   UNL A   1      45.235  24.687  30.938  1.00  0.00     0.029 A 
ATOM     47  C   UNL A   1      44.565  25.952  31.166  1.00  0.00     0.049 A 
ATOM     48  H   UNL A   1      43.321  26.962  29.803  1.00  0.00     0.167 HD
ATOM     49  C   UNL A   1      39.607  28.159  27.729  1.00  0.00     0.034 A 
ATOM     50  C   UNL A   1      44.613  26.756  32.258  1.00  0.00     0.034 A 
ATOM     51  C   UNL A   1      40.637  29.066  27.288  1.00  0.00     0.049 A 
ATOM     52  C   UNL A   1      44.057  28.065  31.865  1.00  0.00     0.074 A 
ATOM     53  C   UNL A   1      41.349  29.254  26.122  1.00  0.00     0.029 A 
ATOM     54  N   UNL A   1      41.342  29.712  28.273  1.00  0.00    -0.354 N 
ATOM     55  N   UNL A   1      44.624  28.854  30.999  1.00  0.00    -0.248 NA
ATOM     56  C   UNL A   1      42.645  28.303  32.106  1.00  0.00     0.031 C 
ATOM     57  C   UNL A   1      42.666  29.592  26.548  1.00  0.00     0.029 A 
ATOM     58  C   UNL A   1      42.667  29.671  27.943  1.00  0.00     0.049 A 
ATOM     59  H   UNL A   1      40.958  30.133  29.077  1.00  0.00     0.167 HD
ATOM     60  C   UNL A   1      43.565  29.338  30.244  1.00  0.00     0.074 A 
ATOM     61  C   UNL A   1      42.374  29.070  31.048  1.00  0.00     0.031 C 
ATOM     62  C   UNL A   1      43.731  29.627  28.920  1.00  0.00     0.034 A 
BRANCH  49  63
ATOM     63  C   UNL A   1      38.472  28.643  28.620  1.00  0.00     0.023 A 
ATOM     64  C   UNL A   1      37.401  29.317  27.985  1.00  0.00     0.012 A 
ATOM     65  C   UNL A   1      38.535  28.749  30.030  1.00  0.00     0.148 A 
ATOM     66  C   UNL A   1      36.504  30.121  28.699  1.00  0.00     0.002 A 
ATOM     67  C   UNL A   1      37.596  29.488  30.744  1.00  0.00     0.091 A 
ATOM     68  F   UNL A   1      39.572  28.246  30.700  1.00  0.00    -0.205 F 
ATOM     69  C   UNL A   1      36.602  30.206  30.081  1.00  0.00     0.022 A 
BRANCH  67  70
ATOM     70  S   UNL A   1      37.653  29.598  32.538  1.00  0.00     0.127 S 
ATOM     71  O   UNL A   1      37.413  28.210  32.922  1.00  0.00    -0.237 OA
ATOM     72  O   UNL A   1      39.016  30.080  32.763  1.00  0.00    -0.237 OA
ATOM     73  O   UNL A   1      36.614  30.552  32.907  1.00  0.00    -0.744 OA
ENDBRANCH  67  70
ENDBRANCH  49  63
BRANCH  50  74
ATOM     74  C   UNL A   1      44.855  26.411  33.678  1.00  0.00     0.023 A 
ATOM     75  C   UNL A   1      46.166  26.433  34.196  1.00  0.00     0.012 A 
ATOM     76  C   UNL A   1      43.781  26.334  34.590  1.00  0.00     0.148 A 
ATOM     77  C   UNL A   1      46.398  26.409  35.578  1.00  0.00     0.002 A 
ATOM     78  C   UNL A   1      44.014  26.300  35.960  1.00  0.00     0.091 A 
ATOM     79  F   UNL A   1      42.529  26.387  34.116  1.00  0.00    -0.205 F 
ATOM     80  C   UNL A   1      45.322  26.351  36.460  1.00  0.00     0.022 A 
BRANCH  78  81
ATOM     81  S   UNL A   1      42.676  26.232  37.156  1.00  0.00     0.127 S 
ATOM     82  O   UNL A   1      41.894  27.409  36.782  1.00  0.00    -0.237 OA
ATOM     83  O   UNL A   1      42.060  24.945  36.844  1.00  0.00    -0.237 OA
ATOM     84  O   UNL A   1      43.307  26.318  38.468  1.00  0.00    -0.744 OA
ENDBRANCH  78  81
ENDBRANCH  50  74
BRANCH  62  85
ATOM     85  C   UNL A   1      45.136  29.676  28.376  1.00  0.00     0.023 A 
ATOM     86  C   UNL A   1      45.989  30.787  28.549  1.00  0.00     0.012 A 
ATOM     87  C   UNL A   1      45.662  28.499  27.822  1.00  0.00     0.148 A 
ATOM     88  C   UNL A   1      47.331  30.728  28.161  1.00  0.00     0.002 A 
ATOM     89  C   UNL A   1      47.006  28.426  27.483  1.00  0.00     0.091 A 
ATOM     90  F   UNL A   1      44.837  27.451  27.667  1.00  0.00    -0.205 F 
ATOM     91  C   UNL A   1      47.842  29.543  27.641  1.00  0.00     0.022 A 
BRANCH  89  92
ATOM     92  S   UNL A   1      47.747  26.890  26.932  1.00  0.00     0.127 S 
ATOM     93  O   UNL A   1      46.979  26.597  25.724  1.00  0.00    -0.237 OA
ATOM     94  O   UNL A   1      49.138  27.280  26.695  1.00  0.00    -0.237 OA
ATOM     95  O   UNL A   1      47.574  25.945  28.029  1.00  0.00    -0.744 OA
ENDBRANCH  89  92
ENDBRANCH  62  85
ENDBRANCH  36  37
ENDBRANCH  28  31
ENDBRANCH  26  27
ENDBRANCH   1  26
TORSDOF 15
ENDMDL
MODEL 3
REMARK VINA RESULT:     -12.7      2.081      3.218
REMARK SMILES CC1=C(C(=O)NCCCCNC(=O)c2ccc(-c3c4nc(c(-c5cccc(S(=O)(=O)[O-])c5F)c5ccc([nH]5)c(-c5cccc(S(=O)(=O)[O-])c5F)c5nc(c(-c6cccc(S(=O)(=O)[O-])c6F)c6ccc3[nH]6)C=C5)C=C4)cc2)[C@H](c2ccc(Cl)cc2)n2ncnc2N1
REMARK SMILES IDX 9 1 8 2 7 3 6 4 4 5 5 6 3 8 1 9 2 10 90 11 77 12 89 13 85 15
REMARK SMILES IDX 88 16 86 17 87 18 78 19 79 20 84 21 80 22 83 23 81 24 82 25
REMARK SMILES IDX 10 26 11 27 12 28 13 30 14 31 15 32 76 33 16 34 75 35 17 36
REMARK SMILES IDX 18 37 19 38 69 39 20 40 74 41 68 42 70 43 21 44 73 45 67 46
REMARK SMILES IDX 66 47 22 49 54 50 34 51 53 52 35 53 38 54 52 55 71 56 36 57
REMARK SMILES IDX 37 58 51 60 72 61 39 62 23 63 24 64 32 65 25 66 27 67 33 68
REMARK SMILES IDX 26 69 28 70 29 71 30 72 31 73 55 74 56 75 64 76 57 77 59 78
REMARK SMILES IDX 65 79 58 80 60 81 61 82 62 83 63 84 40 85 41 86 49 87 42 88
REMARK SMILES IDX 44 89 50 90 43 91 45 92 46 93 47 94 48 95
REMARK H PARENT 6 7 90 14 11 29 70 48 38 59
REMARK Flexibility Score: inf
ROOT
ATOM      1  C   UNL A   1      39.249  21.215  25.381  1.00  0.00     0.023 C 
ENDROOT
BRANCH   1   2
ATOM      2  C   UNL A   1      39.144  22.645  25.920  1.00  0.00     0.023 C 
BRANCH   2   3
ATOM      3  C   UNL A   1      37.755  23.298  25.830  1.00  0.00     0.116 C 
BRANCH   3   4
ATOM      4  N   UNL A   1      37.366  23.407  24.441  1.00  0.00    -0.352 N 
ATOM      5  C   UNL A   1      36.235  23.155  23.749  1.00  0.00     0.251 C 
ATOM      6  O   UNL A   1      36.386  23.083  22.523  1.00  0.00    -0.270 OA
ATOM      7  H   UNL A   1      38.094  23.743  23.870  1.00  0.00     0.163 HD
BRANCH   5   8
ATOM      8  C   UNL A   1      34.834  23.035  24.292  1.00  0.00     0.065 C 
ATOM      9  C   UNL A   1      33.548  25.016  23.258  1.00  0.00     0.065 C 
ATOM     10  C   UNL A   1      33.717  23.805  24.128  1.00  0.00     0.026 C 
ATOM     11  N   UNL A   1      32.611  23.617  24.964  1.00  0.00    -0.328 N 
ATOM     12  C   UNL A   1      34.802  21.923  25.394  1.00  0.00     0.179 C 
ATOM     13  C   UNL A   1      32.713  23.036  26.167  1.00  0.00     0.226 A 
ATOM     14  H   UNL A   1      31.726  23.922  24.657  1.00  0.00     0.169 HD
ATOM     15  N   UNL A   1      33.828  22.295  26.433  1.00  0.00    -0.219 N 
ATOM     16  N   UNL A   1      31.946  23.079  27.225  1.00  0.00    -0.200 NA
ATOM     17  N   UNL A   1      33.855  21.900  27.726  1.00  0.00    -0.157 NA
ATOM     18  C   UNL A   1      32.683  22.386  28.151  1.00  0.00     0.248 A 
BRANCH  12  19
ATOM     19  C   UNL A   1      34.530  20.504  24.854  1.00  0.00    -0.018 A 
ATOM     20  C   UNL A   1      33.260  20.096  24.397  1.00  0.00     0.008 A 
ATOM     21  C   UNL A   1      35.550  19.531  24.872  1.00  0.00     0.008 A 
ATOM     22  C   UNL A   1      33.004  18.773  24.031  1.00  0.00     0.021 A 
ATOM     23  C   UNL A   1      35.299  18.206  24.483  1.00  0.00     0.021 A 
ATOM     24  C   UNL A   1      34.019  17.827  24.094  1.00  0.00     0.041 A 
ATOM     25  Cl  UNL A   1      33.644  16.182  23.764  1.00  0.00    -0.084 Cl
ENDBRANCH  12  19
ENDBRANCH   5   8
ENDBRANCH   3   4
ENDBRANCH   2   3
ENDBRANCH   1   2
BRANCH   1  26
ATOM     26  C   UNL A   1      39.407  20.163  26.467  1.00  0.00     0.116 C 
BRANCH  26  27
ATOM     27  N   UNL A   1      40.503  19.230  26.186  1.00  0.00    -0.352 N 
ATOM     28  C   UNL A   1      41.838  19.539  26.046  1.00  0.00     0.251 C 
ATOM     29  H   UNL A   1      40.258  18.282  26.086  1.00  0.00     0.163 HD
ATOM     30  O   UNL A   1      42.614  18.792  25.456  1.00  0.00    -0.269 OA
BRANCH  28  31
ATOM     31  C   UNL A   1      42.313  20.787  26.653  1.00  0.00     0.039 A 
ATOM     32  C   UNL A   1      42.902  21.791  25.878  1.00  0.00     0.014 A 
ATOM     33  C   UNL A   1      42.048  20.970  28.010  1.00  0.00     0.014 A 
ATOM     34  C   UNL A   1      43.150  23.026  26.465  1.00  0.00     0.010 A 
ATOM     35  C   UNL A   1      42.191  22.222  28.555  1.00  0.00     0.010 A 
ATOM     36  C   UNL A   1      42.769  23.243  27.798  1.00  0.00    -0.014 A 
BRANCH  36  37
ATOM     37  C   UNL A   1      42.783  24.593  28.362  1.00  0.00     0.031 A 
ATOM     38  C   UNL A   1      41.546  25.384  28.077  1.00  0.00     0.074 A 
ATOM     39  C   UNL A   1      43.705  24.963  29.279  1.00  0.00     0.049 A 
ATOM     40  N   UNL A   1      41.446  26.517  27.462  1.00  0.00    -0.248 NA
ATOM     41  C   UNL A   1      40.241  24.767  28.386  1.00  0.00     0.031 C 
ATOM     42  C   UNL A   1      44.770  24.122  29.847  1.00  0.00     0.029 A 
ATOM     43  N   UNL A   1      43.786  26.092  30.037  1.00  0.00    -0.354 N 
ATOM     44  C   UNL A   1      40.096  26.871  27.544  1.00  0.00     0.074 A 
ATOM     45  C   UNL A   1      39.390  25.674  27.904  1.00  0.00     0.031 C 
ATOM     46  C   UNL A   1      45.183  24.647  31.019  1.00  0.00     0.029 A 
ATOM     47  C   UNL A   1      44.541  25.933  31.202  1.00  0.00     0.049 A 
ATOM     48  H   UNL A   1      43.352  26.940  29.788  1.00  0.00     0.167 HD
ATOM     49  C   UNL A   1      39.714  28.178  27.607  1.00  0.00     0.034 A 
ATOM     50  C   UNL A   1      44.588  26.763  32.275  1.00  0.00     0.034 A 
ATOM     51  C   UNL A   1      40.775  29.047  27.167  1.00  0.00     0.049 A 
ATOM     52  C   UNL A   1      44.074  28.076  31.838  1.00  0.00     0.074 A 
ATOM     53  C   UNL A   1      41.515  29.188  26.011  1.00  0.00     0.029 A 
ATOM     54  N   UNL A   1      41.476  29.700  28.149  1.00  0.00    -0.354 N 
ATOM     55  N   UNL A   1      44.679  28.827  30.964  1.00  0.00    -0.248 NA
ATOM     56  C   UNL A   1      42.664  28.355  32.043  1.00  0.00     0.031 C 
ATOM     57  C   UNL A   1      42.832  29.504  26.457  1.00  0.00     0.029 A 
ATOM     58  C   UNL A   1      42.806  29.618  27.849  1.00  0.00     0.049 A 
ATOM     59  H   UNL A   1      41.087  30.150  28.934  1.00  0.00     0.167 HD
ATOM     60  C   UNL A   1      43.648  29.319  30.176  1.00  0.00     0.074 A 
ATOM     61  C   UNL A   1      42.434  29.102  30.961  1.00  0.00     0.031 C 
ATOM     62  C   UNL A   1      43.848  29.571  28.849  1.00  0.00     0.034 A 
BRANCH  49  63
ATOM     63  C   UNL A   1      38.573  28.713  28.463  1.00  0.00     0.023 A 
ATOM     64  C   UNL A   1      37.612  29.525  27.813  1.00  0.00     0.012 A 
ATOM     65  C   UNL A   1      38.556  28.725  29.877  1.00  0.00     0.148 A 
ATOM     66  C   UNL A   1      36.749  30.366  28.527  1.00  0.00     0.002 A 
ATOM     67  C   UNL A   1      37.645  29.504  30.584  1.00  0.00     0.091 A 
ATOM     68  F   UNL A   1      39.496  28.083  30.571  1.00  0.00    -0.205 F 
ATOM     69  C   UNL A   1      36.765  30.355  29.915  1.00  0.00     0.022 A 
BRANCH  67  70
ATOM     70  S   UNL A   1      37.596  29.497  32.382  1.00  0.00     0.127 S 
ATOM     71  O   UNL A   1      36.412  30.310  32.643  1.00  0.00    -0.237 OA
ATOM     72  O   UNL A   1      37.447  28.070  32.669  1.00  0.00    -0.237 OA
ATOM     73  O   UNL A   1      38.868  30.062  32.813  1.00  0.00    -0.744 OA
ENDBRANCH  67  70
ENDBRANCH  49  63
BRANCH  50  74
ATOM     74  C   UNL A   1      44.792  26.448  33.707  1.00  0.00     0.023 A 
ATOM     75  C   UNL A   1      46.077  26.554  34.277  1.00  0.00     0.012 A 
ATOM     76  C   UNL A   1      43.687  26.316  34.576  1.00  0.00     0.148 A 
ATOM     77  C   UNL A   1      46.252  26.558  35.668  1.00  0.00     0.002 A 
ATOM     78  C   UNL A   1      43.866  26.310  35.955  1.00  0.00     0.091 A 
ATOM     79  F   UNL A   1      42.455  26.288  34.052  1.00  0.00    -0.205 F 
ATOM     80  C   UNL A   1      45.147  26.444  36.507  1.00  0.00     0.022 A 
BRANCH  78  81
ATOM     81  S   UNL A   1      42.487  26.173  37.097  1.00  0.00     0.127 S 
ATOM     82  O   UNL A   1      42.015  24.817  36.818  1.00  0.00    -0.237 OA
ATOM     83  O   UNL A   1      43.146  26.354  38.387  1.00  0.00    -0.237 OA
ATOM     84  O   UNL A   1      41.550  27.227  36.722  1.00  0.00    -0.744 OA
ENDBRANCH  78  81
ENDBRANCH  50  74
BRANCH  62  85
ATOM     85  C   UNL A   1      45.265  29.571  28.333  1.00  0.00     0.023 A 
ATOM     86  C   UNL A   1      45.933  28.396  27.925  1.00  0.00     0.012 A 
ATOM     87  C   UNL A   1      45.874  30.813  28.097  1.00  0.00     0.148 A 
ATOM     88  C   UNL A   1      47.188  28.462  27.312  1.00  0.00     0.002 A 
ATOM     89  C   UNL A   1      47.096  30.878  27.444  1.00  0.00     0.091 A 
ATOM     90  F   UNL A   1      45.223  31.919  28.490  1.00  0.00    -0.205 F 
ATOM     91  C   UNL A   1      47.763  29.704  27.059  1.00  0.00     0.022 A 
BRANCH  89  92
ATOM     92  S   UNL A   1      47.821  32.450  26.977  1.00  0.00     0.127 S 
ATOM     93  O   UNL A   1      47.894  33.144  28.260  1.00  0.00    -0.237 OA
ATOM     94  O   UNL A   1      49.115  32.046  26.424  1.00  0.00    -0.237 OA
ATOM     95  O   UNL A   1      46.914  33.035  25.999  1.00  0.00    -0.744 OA
ENDBRANCH  89  92
ENDBRANCH  62  85
ENDBRANCH  36  37
ENDBRANCH  28  31
ENDBRANCH  26  27
ENDBRANCH   1  26
TORSDOF 15
ENDMDL
