MODEL 1
REMARK VINA RESULT:     -12.2      0.000      0.000
REMARK SMILES O=C(NCCCCNC(=O)c1csc(S(=O)(=O)Nc2cccc(S(=O)(=O)N3CCCC3)c2)c1)c1ccc(-c2c3nc(c(-c4cccc(S(=O)(=O)[O-])c4F)c4ccc([nH]4)c(-c4cccc(S(=O)(=O)[O-])c4F)c4nc(c(-c5cccc(S(=O)(=O)[O-])c5F)c5ccc2[nH]5)C=C4)C=C3)cc1
REMARK SMILES IDX 6 1 5 2 4 3 3 4 1 5 2 6 34 8 35 9 96 10 36 11 95 12 37 13
REMARK SMILES IDX 38 14 39 15 89 16 40 17 94 18 88 19 90 20 41 21 93 22 87 23
REMARK SMILES IDX 86 24 42 26 74 27 54 28 73 29 55 30 58 31 72 32 91 33 56 34
REMARK SMILES IDX 57 35 71 37 92 38 59 39 43 40 44 41 52 42 45 43 47 44 53 45
REMARK SMILES IDX 46 46 48 47 49 48 50 49 51 50 75 51 76 52 84 53 77 54 79 55
REMARK SMILES IDX 85 56 78 57 80 58 81 59 82 60 83 61 60 62 61 63 69 64 62 65
REMARK SMILES IDX 64 66 70 67 63 68 65 69 66 70 67 71 68 72 7 73 8 74 9 75
REMARK SMILES IDX 10 77 11 78 12 79 33 80 13 81 14 82 15 83 16 84 17 85 18 86
REMARK SMILES IDX 19 88 20 89 32 90 21 91 23 92 22 93 24 94 25 95 26 96 27 97
REMARK SMILES IDX 28 98 31 99 29 100 30 101
REMARK H PARENT 3 7 90 25 58 36 8 76 18 87
REMARK Flexibility Score: inf
ROOT
ATOM      1  C   UNL A   1      37.087  20.006  24.980  1.00  0.00     0.023 C 
ENDROOT
BRANCH   1   2
ATOM      2  C   UNL A   1      38.152  21.080  24.950  1.00  0.00     0.023 C 
BRANCH   2   3
ATOM      3  C   UNL A   1      39.172  20.993  26.058  1.00  0.00     0.116 C 
BRANCH   3   4
ATOM      4  N   UNL A   1      40.042  19.824  25.975  1.00  0.00    -0.352 N 
ATOM      5  O   UNL A   1      42.011  18.711  25.865  1.00  0.00    -0.269 OA
ATOM      6  C   UNL A   1      41.421  19.770  26.051  1.00  0.00     0.251 C 
ATOM      7  H   UNL A   1      39.586  18.961  25.848  1.00  0.00     0.163 HD
BRANCH   6   8
ATOM      8  C   UNL A   1      42.165  21.022  26.314  1.00  0.00     0.039 A 
ATOM      9  C   UNL A   1      42.420  21.396  27.630  1.00  0.00     0.014 A 
ATOM     10  C   UNL A   1      42.505  21.877  25.263  1.00  0.00     0.014 A 
ATOM     11  C   UNL A   1      42.749  22.710  27.907  1.00  0.00     0.010 A 
ATOM     12  C   UNL A   1      43.018  23.149  25.546  1.00  0.00     0.010 A 
ATOM     13  C   UNL A   1      43.100  23.595  26.874  1.00  0.00    -0.014 A 
BRANCH  13  14
ATOM     14  C   UNL A   1      43.648  24.923  27.260  1.00  0.00     0.031 A 
ATOM     15  C   UNL A   1      45.091  25.296  27.056  1.00  0.00     0.074 A 
ATOM     16  C   UNL A   1      42.778  25.830  27.755  1.00  0.00     0.049 A 
ATOM     17  N   UNL A   1      45.677  26.444  27.288  1.00  0.00    -0.248 NA
ATOM     18  C   UNL A   1      46.000  24.260  26.540  1.00  0.00     0.031 C 
ATOM     19  C   UNL A   1      41.363  25.563  28.044  1.00  0.00     0.029 A 
ATOM     20  N   UNL A   1      42.932  27.152  28.074  1.00  0.00    -0.354 N 
ATOM     21  C   UNL A   1      47.021  26.263  26.983  1.00  0.00     0.074 A 
ATOM     22  C   UNL A   1      47.170  24.888  26.557  1.00  0.00     0.031 C 
ATOM     23  C   UNL A   1      40.767  26.695  28.430  1.00  0.00     0.029 A 
ATOM     24  C   UNL A   1      41.772  27.744  28.517  1.00  0.00     0.049 A 
ATOM     25  H   UNL A   1      43.788  27.633  27.995  1.00  0.00     0.167 HD
ATOM     26  C   UNL A   1      48.031  27.166  27.042  1.00  0.00     0.034 A 
ATOM     27  C   UNL A   1      41.539  28.984  28.984  1.00  0.00     0.034 A 
ATOM     28  C   UNL A   1      47.866  28.540  27.448  1.00  0.00     0.049 A 
ATOM     29  C   UNL A   1      42.675  29.957  29.020  1.00  0.00     0.074 A 
ATOM     30  C   UNL A   1      48.821  29.541  27.507  1.00  0.00     0.029 A 
ATOM     31  N   UNL A   1      46.673  29.109  27.868  1.00  0.00    -0.354 N 
ATOM     32  N   UNL A   1      43.916  29.789  28.633  1.00  0.00    -0.248 NA
ATOM     33  C   UNL A   1      42.376  31.298  29.534  1.00  0.00     0.031 C 
ATOM     34  C   UNL A   1      48.213  30.704  27.990  1.00  0.00     0.029 A 
ATOM     35  C   UNL A   1      46.868  30.442  28.194  1.00  0.00     0.049 A 
ATOM     36  H   UNL A   1      45.812  28.635  27.926  1.00  0.00     0.167 HD
ATOM     37  C   UNL A   1      44.544  31.009  28.842  1.00  0.00     0.074 A 
ATOM     38  C   UNL A   1      43.532  31.917  29.344  1.00  0.00     0.031 C 
ATOM     39  C   UNL A   1      45.845  31.342  28.660  1.00  0.00     0.034 A 
BRANCH  26  40
ATOM     40  C   UNL A   1      49.412  26.719  26.626  1.00  0.00     0.023 A 
ATOM     41  C   UNL A   1      50.114  25.793  27.424  1.00  0.00     0.012 A 
ATOM     42  C   UNL A   1      49.973  27.137  25.402  1.00  0.00     0.148 A 
ATOM     43  C   UNL A   1      51.359  25.308  27.024  1.00  0.00     0.002 A 
ATOM     44  C   UNL A   1      51.195  26.617  24.989  1.00  0.00     0.091 A 
ATOM     45  F   UNL A   1      49.298  28.027  24.660  1.00  0.00    -0.205 F 
ATOM     46  C   UNL A   1      51.894  25.710  25.803  1.00  0.00     0.022 A 
BRANCH  44  47
ATOM     47  S   UNL A   1      51.935  27.007  23.398  1.00  0.00     0.127 S 
ATOM     48  O   UNL A   1      50.798  26.834  22.493  1.00  0.00    -0.237 OA
ATOM     49  O   UNL A   1      52.357  28.394  23.589  1.00  0.00    -0.237 OA
ATOM     50  O   UNL A   1      53.022  26.056  23.213  1.00  0.00    -0.744 OA
ENDBRANCH  44  47
ENDBRANCH  26  40
BRANCH  27  51
ATOM     51  C   UNL A   1      40.178  29.354  29.460  1.00  0.00     0.023 A 
ATOM     52  C   UNL A   1      39.229  29.867  28.556  1.00  0.00     0.012 A 
ATOM     53  C   UNL A   1      39.814  29.173  30.810  1.00  0.00     0.148 A 
ATOM     54  C   UNL A   1      37.956  30.231  28.996  1.00  0.00     0.002 A 
ATOM     55  C   UNL A   1      38.524  29.469  31.226  1.00  0.00     0.091 A 
ATOM     56  F   UNL A   1      40.736  28.696  31.659  1.00  0.00    -0.205 F 
ATOM     57  C   UNL A   1      37.599  30.021  30.327  1.00  0.00     0.022 A 
BRANCH  55  58
ATOM     58  S   UNL A   1      37.945  29.078  32.880  1.00  0.00     0.127 S 
ATOM     59  O   UNL A   1      36.614  29.677  32.879  1.00  0.00    -0.237 OA
ATOM     60  O   UNL A   1      37.964  27.615  32.869  1.00  0.00    -0.237 OA
ATOM     61  O   UNL A   1      38.915  29.679  33.785  1.00  0.00    -0.744 OA
ENDBRANCH  55  58
ENDBRANCH  27  51
BRANCH  39  62
ATOM     62  C   UNL A   1      46.233  32.760  28.983  1.00  0.00     0.023 A 
ATOM     63  C   UNL A   1      46.805  33.064  30.236  1.00  0.00     0.012 A 
ATOM     64  C   UNL A   1      46.044  33.789  28.041  1.00  0.00     0.148 A 
ATOM     65  C   UNL A   1      47.131  34.379  30.566  1.00  0.00     0.002 A 
ATOM     66  C   UNL A   1      46.424  35.088  28.356  1.00  0.00     0.091 A 
ATOM     67  F   UNL A   1      45.481  33.484  26.863  1.00  0.00    -0.205 F 
ATOM     68  C   UNL A   1      46.950  35.388  29.624  1.00  0.00     0.022 A 
BRANCH  66  69
ATOM     69  S   UNL A   1      46.314  36.434  27.173  1.00  0.00     0.127 S 
ATOM     70  O   UNL A   1      46.970  37.522  27.898  1.00  0.00    -0.237 OA
ATOM     71  O   UNL A   1      47.077  35.911  26.039  1.00  0.00    -0.237 OA
ATOM     72  O   UNL A   1      44.895  36.624  26.911  1.00  0.00    -0.744 OA
ENDBRANCH  66  69
ENDBRANCH  39  62
ENDBRANCH  13  14
ENDBRANCH   6   8
ENDBRANCH   3   4
ENDBRANCH   2   3
ENDBRANCH   1   2
BRANCH   1  73
ATOM     73  C   UNL A   1      35.626  20.459  25.019  1.00  0.00     0.116 C 
BRANCH  73  74
ATOM     74  N   UNL A   1      34.677  19.385  24.785  1.00  0.00    -0.352 N 
ATOM     75  C   UNL A   1      33.331  19.395  24.511  1.00  0.00     0.252 C 
ATOM     76  H   UNL A   1      35.071  18.484  24.833  1.00  0.00     0.163 HD
ATOM     77  O   UNL A   1      32.740  18.321  24.422  1.00  0.00    -0.269 OA
BRANCH  75  78
ATOM     78  C   UNL A   1      32.592  20.654  24.426  1.00  0.00     0.051 A 
ATOM     79  C   UNL A   1      32.484  21.492  23.333  1.00  0.00     0.080 A 
ATOM     80  C   UNL A   1      31.805  21.173  25.515  1.00  0.00     0.048 A 
ATOM     81  S   UNL A   1      31.697  22.969  23.710  1.00  0.00    -0.130 S 
ATOM     82  C   UNL A   1      31.449  22.495  25.337  1.00  0.00     0.141 A 
BRANCH  82  83
ATOM     83  S   UNL A   1      30.886  23.772  26.446  1.00  0.00     0.271 S 
ATOM     84  O   UNL A   1      30.211  23.077  27.523  1.00  0.00    -0.200 OA
ATOM     85  O   UNL A   1      32.033  24.613  26.709  1.00  0.00    -0.200 OA
BRANCH  83  86
ATOM     86  N   UNL A   1      29.724  24.747  25.706  1.00  0.00    -0.279 N 
ATOM     87  H   UNL A   1      28.774  24.566  25.889  1.00  0.00     0.180 HD
BRANCH  86  88
ATOM     88  C   UNL A   1      30.055  25.826  24.826  1.00  0.00     0.050 A 
ATOM     89  C   UNL A   1      28.996  26.376  24.101  1.00  0.00     0.027 A 
ATOM     90  C   UNL A   1      31.341  26.333  24.647  1.00  0.00     0.048 A 
ATOM     91  C   UNL A   1      29.198  27.490  23.287  1.00  0.00     0.004 A 
ATOM     92  C   UNL A   1      31.544  27.468  23.861  1.00  0.00     0.084 A 
ATOM     93  C   UNL A   1      30.470  28.052  23.181  1.00  0.00     0.022 A 
BRANCH  92  94
ATOM     94  S   UNL A   1      33.133  28.271  23.742  1.00  0.00     0.243 S 
ATOM     95  O   UNL A   1      34.102  27.209  23.555  1.00  0.00    -0.207 OA
ATOM     96  O   UNL A   1      32.967  29.329  22.772  1.00  0.00    -0.207 OA
BRANCH  94  97
ATOM     97  N   UNL A   1      33.455  28.977  25.225  1.00  0.00    -0.198 NA
ATOM     98  C   UNL A   1      34.016  28.232  26.347  1.00  0.00     0.102 C 
ATOM     99  C   UNL A   1      32.735  30.148  25.719  1.00  0.00     0.102 C 
ATOM    100  C   UNL A   1      33.077  28.544  27.502  1.00  0.00     0.018 C 
ATOM    101  C   UNL A   1      32.512  29.922  27.202  1.00  0.00     0.018 C 
ENDBRANCH  94  97
ENDBRANCH  92  94
ENDBRANCH  86  88
ENDBRANCH  83  86
ENDBRANCH  82  83
ENDBRANCH  75  78
ENDBRANCH  73  74
ENDBRANCH   1  73
TORSDOF 19
ENDMDL
MODEL 2
REMARK VINA RESULT:     -12.1      1.657      7.537
REMARK SMILES O=C(NCCCCNC(=O)c1csc(S(=O)(=O)Nc2cccc(S(=O)(=O)N3CCCC3)c2)c1)c1ccc(-c2c3nc(c(-c4cccc(S(=O)(=O)[O-])c4F)c4ccc([nH]4)c(-c4cccc(S(=O)(=O)[O-])c4F)c4nc(c(-c5cccc(S(=O)(=O)[O-])c5F)c5ccc2[nH]5)C=C4)C=C3)cc1
REMARK SMILES IDX 6 1 5 2 4 3 3 4 1 5 2 6 34 8 35 9 96 10 36 11 95 12 37 13
REMARK SMILES IDX 38 14 39 15 89 16 40 17 94 18 88 19 90 20 41 21 93 22 87 23
REMARK SMILES IDX 86 24 42 26 74 27 54 28 73 29 55 30 58 31 72 32 91 33 56 34
REMARK SMILES IDX 57 35 71 37 92 38 59 39 43 40 44 41 52 42 45 43 47 44 53 45
REMARK SMILES IDX 46 46 48 47 49 48 50 49 51 50 75 51 76 52 84 53 77 54 79 55
REMARK SMILES IDX 85 56 78 57 80 58 81 59 82 60 83 61 60 62 61 63 69 64 62 65
REMARK SMILES IDX 64 66 70 67 63 68 65 69 66 70 67 71 68 72 7 73 8 74 9 75
REMARK SMILES IDX 10 77 11 78 12 79 33 80 13 81 14 82 15 83 16 84 17 85 18 86
REMARK SMILES IDX 19 88 20 89 32 90 21 91 23 92 22 93 24 94 25 95 26 96 27 97
REMARK SMILES IDX 28 98 31 99 29 100 30 101
REMARK H PARENT 3 7 90 25 58 36 8 76 18 87
REMARK Flexibility Score: inf
ROOT
ATOM      1  C   UNL A   1      37.190  19.585  24.981  1.00  0.00     0.023 C 
ENDROOT
BRANCH   1   2
ATOM      2  C   UNL A   1      38.616  20.061  24.809  1.00  0.00     0.023 C 
BRANCH   2   3
ATOM      3  C   UNL A   1      39.402  20.181  26.092  1.00  0.00     0.116 C 
BRANCH   3   4
ATOM      4  N   UNL A   1      40.443  19.171  26.248  1.00  0.00    -0.352 N 
ATOM      5  O   UNL A   1      42.561  18.392  26.440  1.00  0.00    -0.269 OA
ATOM      6  C   UNL A   1      41.803  19.355  26.421  1.00  0.00     0.251 C 
ATOM      7  H   UNL A   1      40.138  18.235  26.227  1.00  0.00     0.163 HD
BRANCH   6   8
ATOM      8  C   UNL A   1      42.321  20.736  26.534  1.00  0.00     0.039 A 
ATOM      9  C   UNL A   1      42.646  21.239  27.790  1.00  0.00     0.014 A 
ATOM     10  C   UNL A   1      42.373  21.567  25.411  1.00  0.00     0.014 A 
ATOM     11  C   UNL A   1      42.750  22.606  27.965  1.00  0.00     0.010 A 
ATOM     12  C   UNL A   1      42.665  22.927  25.572  1.00  0.00     0.010 A 
ATOM     13  C   UNL A   1      42.809  23.469  26.858  1.00  0.00    -0.014 A 
BRANCH  13  14
ATOM     14  C   UNL A   1      43.136  24.897  27.114  1.00  0.00     0.031 A 
ATOM     15  C   UNL A   1      42.208  25.822  27.853  1.00  0.00     0.074 A 
ATOM     16  C   UNL A   1      44.348  25.336  26.710  1.00  0.00     0.049 A 
ATOM     17  N   UNL A   1      42.406  27.069  28.200  1.00  0.00    -0.248 NA
ATOM     18  C   UNL A   1      40.889  25.299  28.245  1.00  0.00     0.031 C 
ATOM     19  C   UNL A   1      45.312  24.541  25.939  1.00  0.00     0.029 A 
ATOM     20  N   UNL A   1      44.992  26.527  26.907  1.00  0.00    -0.354 N 
ATOM     21  C   UNL A   1      41.234  27.492  28.816  1.00  0.00     0.074 A 
ATOM     22  C   UNL A   1      40.320  26.370  28.789  1.00  0.00     0.031 C 
ATOM     23  C   UNL A   1      46.443  25.237  25.789  1.00  0.00     0.029 A 
ATOM     24  C   UNL A   1      46.253  26.563  26.358  1.00  0.00     0.049 A 
ATOM     25  H   UNL A   1      44.593  27.285  27.394  1.00  0.00     0.167 HD
ATOM     26  C   UNL A   1      40.954  28.700  29.365  1.00  0.00     0.034 A 
ATOM     27  C   UNL A   1      47.151  27.560  26.280  1.00  0.00     0.034 A 
ATOM     28  C   UNL A   1      41.881  29.804  29.406  1.00  0.00     0.049 A 
ATOM     29  C   UNL A   1      46.813  28.876  26.910  1.00  0.00     0.074 A 
ATOM     30  C   UNL A   1      41.703  31.057  29.970  1.00  0.00     0.029 A 
ATOM     31  N   UNL A   1      43.156  29.796  28.860  1.00  0.00    -0.354 N 
ATOM     32  N   UNL A   1      45.736  29.218  27.573  1.00  0.00    -0.248 NA
ATOM     33  C   UNL A   1      47.823  29.934  26.803  1.00  0.00     0.031 C 
ATOM     34  C   UNL A   1      42.857  31.813  29.740  1.00  0.00     0.029 A 
ATOM     35  C   UNL A   1      43.772  31.020  29.067  1.00  0.00     0.049 A 
ATOM     36  H   UNL A   1      43.564  29.031  28.393  1.00  0.00     0.167 HD
ATOM     37  C   UNL A   1      45.944  30.529  27.977  1.00  0.00     0.074 A 
ATOM     38  C   UNL A   1      47.270  30.899  27.524  1.00  0.00     0.031 C 
ATOM     39  C   UNL A   1      45.104  31.361  28.640  1.00  0.00     0.034 A 
BRANCH  26  40
ATOM     40  C   UNL A   1      39.600  28.897  30.004  1.00  0.00     0.023 A 
ATOM     41  C   UNL A   1      39.305  28.253  31.222  1.00  0.00     0.012 A 
ATOM     42  C   UNL A   1      38.660  29.792  29.453  1.00  0.00     0.148 A 
ATOM     43  C   UNL A   1      38.090  28.476  31.870  1.00  0.00     0.002 A 
ATOM     44  C   UNL A   1      37.470  30.043  30.126  1.00  0.00     0.091 A 
ATOM     45  F   UNL A   1      38.952  30.388  28.288  1.00  0.00    -0.205 F 
ATOM     46  C   UNL A   1      37.178  29.379  31.329  1.00  0.00     0.022 A 
BRANCH  44  47
ATOM     47  S   UNL A   1      36.262  31.248  29.558  1.00  0.00     0.127 S 
ATOM     48  O   UNL A   1      35.444  31.433  30.757  1.00  0.00    -0.237 OA
ATOM     49  O   UNL A   1      37.108  32.390  29.214  1.00  0.00    -0.237 OA
ATOM     50  O   UNL A   1      35.577  30.632  28.431  1.00  0.00    -0.744 OA
ENDBRANCH  44  47
ENDBRANCH  26  40
BRANCH  27  51
ATOM     51  C   UNL A   1      48.441  27.344  25.568  1.00  0.00     0.023 A 
ATOM     52  C   UNL A   1      49.576  26.914  26.279  1.00  0.00     0.012 A 
ATOM     53  C   UNL A   1      48.535  27.542  24.176  1.00  0.00     0.148 A 
ATOM     54  C   UNL A   1      50.793  26.724  25.623  1.00  0.00     0.002 A 
ATOM     55  C   UNL A   1      49.729  27.280  23.518  1.00  0.00     0.091 A 
ATOM     56  F   UNL A   1      47.446  27.964  23.518  1.00  0.00    -0.205 F 
ATOM     57  C   UNL A   1      50.866  26.894  24.241  1.00  0.00     0.022 A 
BRANCH  55  58
ATOM     58  S   UNL A   1      49.856  27.323  21.727  1.00  0.00     0.127 S 
ATOM     59  O   UNL A   1      48.787  26.411  21.330  1.00  0.00    -0.237 OA
ATOM     60  O   UNL A   1      49.604  28.735  21.439  1.00  0.00    -0.237 OA
ATOM     61  O   UNL A   1      51.212  26.887  21.423  1.00  0.00    -0.744 OA
ENDBRANCH  55  58
ENDBRANCH  27  51
BRANCH  39  62
ATOM     62  C   UNL A   1      45.617  32.746  28.935  1.00  0.00     0.023 A 
ATOM     63  C   UNL A   1      46.223  33.020  30.179  1.00  0.00     0.012 A 
ATOM     64  C   UNL A   1      45.510  33.771  27.977  1.00  0.00     0.148 A 
ATOM     65  C   UNL A   1      46.664  34.307  30.484  1.00  0.00     0.002 A 
ATOM     66  C   UNL A   1      46.004  35.037  28.267  1.00  0.00     0.091 A 
ATOM     67  F   UNL A   1      44.913  33.497  26.808  1.00  0.00    -0.205 F 
ATOM     68  C   UNL A   1      46.564  35.312  29.526  1.00  0.00     0.022 A 
BRANCH  66  69
ATOM     69  S   UNL A   1      46.003  36.368  27.062  1.00  0.00     0.127 S 
ATOM     70  O   UNL A   1      44.676  36.949  27.260  1.00  0.00    -0.237 OA
ATOM     71  O   UNL A   1      47.110  37.205  27.525  1.00  0.00    -0.237 OA
ATOM     72  O   UNL A   1      46.223  35.738  25.767  1.00  0.00    -0.744 OA
ENDBRANCH  66  69
ENDBRANCH  39  62
ENDBRANCH  13  14
ENDBRANCH   6   8
ENDBRANCH   3   4
ENDBRANCH   2   3
ENDBRANCH   1   2
BRANCH   1  73
ATOM     73  C   UNL A   1      36.091  20.649  25.030  1.00  0.00     0.116 C 
BRANCH  73  74
ATOM     74  N   UNL A   1      36.594  21.995  25.243  1.00  0.00    -0.352 N 
ATOM     75  C   UNL A   1      36.033  23.098  25.839  1.00  0.00     0.252 C 
ATOM     76  H   UNL A   1      37.502  22.144  24.896  1.00  0.00     0.163 HD
ATOM     77  O   UNL A   1      36.659  24.156  25.827  1.00  0.00    -0.269 OA
BRANCH  75  78
ATOM     78  C   UNL A   1      34.679  23.047  26.389  1.00  0.00     0.051 A 
ATOM     79  C   UNL A   1      34.286  22.533  27.609  1.00  0.00     0.080 A 
ATOM     80  C   UNL A   1      33.538  23.604  25.707  1.00  0.00     0.048 A 
ATOM     81  S   UNL A   1      32.581  22.480  27.785  1.00  0.00    -0.130 S 
ATOM     82  C   UNL A   1      32.336  23.185  26.244  1.00  0.00     0.141 A 
BRANCH  82  83
ATOM     83  S   UNL A   1      30.663  23.160  25.628  1.00  0.00     0.271 S 
ATOM     84  O   UNL A   1      30.783  22.997  24.194  1.00  0.00    -0.200 OA
ATOM     85  O   UNL A   1      29.952  22.189  26.430  1.00  0.00    -0.200 OA
BRANCH  83  86
ATOM     86  N   UNL A   1      29.905  24.647  25.878  1.00  0.00    -0.279 N 
ATOM     87  H   UNL A   1      29.391  24.779  26.707  1.00  0.00     0.180 HD
BRANCH  86  88
ATOM     88  C   UNL A   1      29.975  25.727  24.941  1.00  0.00     0.050 A 
ATOM     89  C   UNL A   1      28.773  26.091  24.330  1.00  0.00     0.027 A 
ATOM     90  C   UNL A   1      31.145  26.405  24.603  1.00  0.00     0.048 A 
ATOM     91  C   UNL A   1      28.719  27.190  23.473  1.00  0.00     0.004 A 
ATOM     92  C   UNL A   1      31.092  27.525  23.774  1.00  0.00     0.084 A 
ATOM     93  C   UNL A   1      29.875  27.923  23.209  1.00  0.00     0.022 A 
BRANCH  92  94
ATOM     94  S   UNL A   1      32.523  28.542  23.455  1.00  0.00     0.243 S 
ATOM     95  O   UNL A   1      33.589  27.626  23.097  1.00  0.00    -0.207 OA
ATOM     96  O   UNL A   1      32.076  29.579  22.553  1.00  0.00    -0.207 OA
BRANCH  94  97
ATOM     97  N   UNL A   1      32.960  29.267  24.898  1.00  0.00    -0.198 NA
ATOM     98  C   UNL A   1      33.956  28.695  25.798  1.00  0.00     0.102 C 
ATOM     99  C   UNL A   1      32.066  30.149  25.645  1.00  0.00     0.102 C 
ATOM    100  C   UNL A   1      33.260  28.671  27.149  1.00  0.00     0.018 C 
ATOM    101  C   UNL A   1      32.267  29.820  27.113  1.00  0.00     0.018 C 
ENDBRANCH  94  97
ENDBRANCH  92  94
ENDBRANCH  86  88
ENDBRANCH  83  86
ENDBRANCH  82  83
ENDBRANCH  75  78
ENDBRANCH  73  74
ENDBRANCH   1  73
TORSDOF 19
ENDMDL
MODEL 3
REMARK VINA RESULT:     -11.9      2.388      7.857
REMARK SMILES O=C(NCCCCNC(=O)c1csc(S(=O)(=O)Nc2cccc(S(=O)(=O)N3CCCC3)c2)c1)c1ccc(-c2c3nc(c(-c4cccc(S(=O)(=O)[O-])c4F)c4ccc([nH]4)c(-c4cccc(S(=O)(=O)[O-])c4F)c4nc(c(-c5cccc(S(=O)(=O)[O-])c5F)c5ccc2[nH]5)C=C4)C=C3)cc1
REMARK SMILES IDX 6 1 5 2 4 3 3 4 1 5 2 6 34 8 35 9 96 10 36 11 95 12 37 13
REMARK SMILES IDX 38 14 39 15 89 16 40 17 94 18 88 19 90 20 41 21 93 22 87 23
REMARK SMILES IDX 86 24 42 26 74 27 54 28 73 29 55 30 58 31 72 32 91 33 56 34
REMARK SMILES IDX 57 35 71 37 92 38 59 39 43 40 44 41 52 42 45 43 47 44 53 45
REMARK SMILES IDX 46 46 48 47 49 48 50 49 51 50 75 51 76 52 84 53 77 54 79 55
REMARK SMILES IDX 85 56 78 57 80 58 81 59 82 60 83 61 60 62 61 63 69 64 62 65
REMARK SMILES IDX 64 66 70 67 63 68 65 69 66 70 67 71 68 72 7 73 8 74 9 75
REMARK SMILES IDX 10 77 11 78 12 79 33 80 13 81 14 82 15 83 16 84 17 85 18 86
REMARK SMILES IDX 19 88 20 89 32 90 21 91 23 92 22 93 24 94 25 95 26 96 27 97
REMARK SMILES IDX 28 98 31 99 29 100 30 101
REMARK H PARENT 3 7 90 25 58 36 8 76 18 87
REMARK Flexibility Score: inf
ROOT
ATOM      1  C   UNL A   1      37.340  19.894  24.392  1.00  0.00     0.023 C 
ENDROOT
BRANCH   1   2
ATOM      2  C   UNL A   1      38.170  19.051  25.335  1.00  0.00     0.023 C 
BRANCH   2   3
ATOM      3  C   UNL A   1      39.254  19.803  26.069  1.00  0.00     0.116 C 
BRANCH   3   4
ATOM      4  N   UNL A   1      40.525  19.092  26.142  1.00  0.00    -0.352 N 
ATOM      5  O   UNL A   1      42.770  18.878  26.356  1.00  0.00    -0.269 OA
ATOM      6  C   UNL A   1      41.780  19.598  26.430  1.00  0.00     0.251 C 
ATOM      7  H   UNL A   1      40.485  18.124  25.964  1.00  0.00     0.163 HD
BRANCH   6   8
ATOM      8  C   UNL A   1      41.902  21.031  26.779  1.00  0.00     0.039 A 
ATOM      9  C   UNL A   1      41.732  21.988  25.784  1.00  0.00     0.014 A 
ATOM     10  C   UNL A   1      42.296  21.415  28.063  1.00  0.00     0.014 A 
ATOM     11  C   UNL A   1      42.217  23.267  25.988  1.00  0.00     0.010 A 
ATOM     12  C   UNL A   1      42.609  22.756  28.316  1.00  0.00     0.010 A 
ATOM     13  C   UNL A   1      42.618  23.688  27.267  1.00  0.00    -0.014 A 
BRANCH  13  14
ATOM     14  C   UNL A   1      42.922  25.131  27.454  1.00  0.00     0.031 A 
ATOM     15  C   UNL A   1      41.960  26.085  28.110  1.00  0.00     0.074 A 
ATOM     16  C   UNL A   1      44.142  25.561  27.066  1.00  0.00     0.049 A 
ATOM     17  N   UNL A   1      42.134  27.351  28.393  1.00  0.00    -0.248 NA
ATOM     18  C   UNL A   1      40.635  25.569  28.487  1.00  0.00     0.031 C 
ATOM     19  C   UNL A   1      45.140  24.736  26.373  1.00  0.00     0.029 A 
ATOM     20  N   UNL A   1      44.767  26.769  27.218  1.00  0.00    -0.354 N 
ATOM     21  C   UNL A   1      40.938  27.793  28.946  1.00  0.00     0.074 A 
ATOM     22  C   UNL A   1      40.037  26.660  28.951  1.00  0.00     0.031 C 
ATOM     23  C   UNL A   1      46.268  25.437  26.221  1.00  0.00     0.029 A 
ATOM     24  C   UNL A   1      46.045  26.789  26.709  1.00  0.00     0.049 A 
ATOM     25  H   UNL A   1      44.344  27.548  27.648  1.00  0.00     0.167 HD
ATOM     26  C   UNL A   1      40.628  29.027  29.417  1.00  0.00     0.034 A 
ATOM     27  C   UNL A   1      46.936  27.792  26.605  1.00  0.00     0.034 A 
ATOM     28  C   UNL A   1      41.541  30.142  29.427  1.00  0.00     0.049 A 
ATOM     29  C   UNL A   1      46.564  29.136  27.149  1.00  0.00     0.074 A 
ATOM     30  C   UNL A   1      41.332  31.422  29.913  1.00  0.00     0.029 A 
ATOM     31  N   UNL A   1      42.834  30.119  28.924  1.00  0.00    -0.354 N 
ATOM     32  N   UNL A   1      45.462  29.501  27.757  1.00  0.00    -0.248 NA
ATOM     33  C   UNL A   1      47.565  30.199  27.016  1.00  0.00     0.031 C 
ATOM     34  C   UNL A   1      42.486  32.178  29.679  1.00  0.00     0.029 A 
ATOM     35  C   UNL A   1      43.431  31.360  29.082  1.00  0.00     0.049 A 
ATOM     36  H   UNL A   1      43.265  29.334  28.514  1.00  0.00     0.167 HD
ATOM     37  C   UNL A   1      45.642  30.835  28.094  1.00  0.00     0.074 A 
ATOM     38  C   UNL A   1      46.979  31.195  27.664  1.00  0.00     0.031 C 
ATOM     39  C   UNL A   1      44.773  31.693  28.681  1.00  0.00     0.034 A 
BRANCH  26  40
ATOM     40  C   UNL A   1      39.251  29.242  29.999  1.00  0.00     0.023 A 
ATOM     41  C   UNL A   1      38.972  28.803  31.309  1.00  0.00     0.012 A 
ATOM     42  C   UNL A   1      38.268  29.963  29.291  1.00  0.00     0.148 A 
ATOM     43  C   UNL A   1      37.733  29.056  31.896  1.00  0.00     0.002 A 
ATOM     44  C   UNL A   1      37.050  30.250  29.899  1.00  0.00     0.091 A 
ATOM     45  F   UNL A   1      38.545  30.365  28.042  1.00  0.00    -0.205 F 
ATOM     46  C   UNL A   1      36.777  29.788  31.197  1.00  0.00     0.022 A 
BRANCH  44  47
ATOM     47  S   UNL A   1      35.781  31.254  29.118  1.00  0.00     0.127 S 
ATOM     48  O   UNL A   1      36.586  32.179  28.320  1.00  0.00    -0.237 OA
ATOM     49  O   UNL A   1      35.042  30.261  28.338  1.00  0.00    -0.237 OA
ATOM     50  O   UNL A   1      35.025  31.867  30.201  1.00  0.00    -0.744 OA
ENDBRANCH  44  47
ENDBRANCH  26  40
BRANCH  27  51
ATOM     51  C   UNL A   1      48.250  27.552  25.948  1.00  0.00     0.023 A 
ATOM     52  C   UNL A   1      49.370  27.194  26.722  1.00  0.00     0.012 A 
ATOM     53  C   UNL A   1      48.385  27.654  24.549  1.00  0.00     0.148 A 
ATOM     54  C   UNL A   1      50.610  26.982  26.117  1.00  0.00     0.002 A 
ATOM     55  C   UNL A   1      49.603  27.371  23.948  1.00  0.00     0.091 A 
ATOM     56  F   UNL A   1      47.310  28.009  23.831  1.00  0.00    -0.205 F 
ATOM     57  C   UNL A   1      50.724  27.058  24.730  1.00  0.00     0.022 A 
BRANCH  55  58
ATOM     58  S   UNL A   1      49.786  27.293  22.163  1.00  0.00     0.127 S 
ATOM     59  O   UNL A   1      51.175  26.867  22.024  1.00  0.00    -0.237 OA
ATOM     60  O   UNL A   1      48.791  26.283  21.800  1.00  0.00    -0.237 OA
ATOM     61  O   UNL A   1      49.478  28.632  21.681  1.00  0.00    -0.744 OA
ENDBRANCH  55  58
ENDBRANCH  27  51
BRANCH  39  62
ATOM     62  C   UNL A   1      45.261  33.098  28.915  1.00  0.00     0.023 A 
ATOM     63  C   UNL A   1      45.049  34.089  27.934  1.00  0.00     0.012 A 
ATOM     64  C   UNL A   1      45.917  33.439  30.113  1.00  0.00     0.148 A 
ATOM     65  C   UNL A   1      45.532  35.383  28.119  1.00  0.00     0.002 A 
ATOM     66  C   UNL A   1      46.346  34.746  30.313  1.00  0.00     0.091 A 
ATOM     67  F   UNL A   1      46.127  32.480  31.025  1.00  0.00    -0.205 F 
ATOM     68  C   UNL A   1      46.171  35.714  29.311  1.00  0.00     0.022 A 
BRANCH  66  69
ATOM     69  S   UNL A   1      47.094  35.286  31.854  1.00  0.00     0.127 S 
ATOM     70  O   UNL A   1      48.215  34.356  31.982  1.00  0.00    -0.237 OA
ATOM     71  O   UNL A   1      47.477  36.664  31.544  1.00  0.00    -0.237 OA
ATOM     72  O   UNL A   1      46.058  35.161  32.869  1.00  0.00    -0.744 OA
ENDBRANCH  66  69
ENDBRANCH  39  62
ENDBRANCH  13  14
ENDBRANCH   6   8
ENDBRANCH   3   4
ENDBRANCH   2   3
ENDBRANCH   1   2
BRANCH   1  73
ATOM     73  C   UNL A   1      36.270  20.798  25.009  1.00  0.00     0.116 C 
BRANCH  73  74
ATOM     74  N   UNL A   1      36.700  22.175  25.178  1.00  0.00    -0.352 N 
ATOM     75  C   UNL A   1      36.118  23.244  25.816  1.00  0.00     0.252 C 
ATOM     76  H   UNL A   1      37.566  22.380  24.758  1.00  0.00     0.163 HD
ATOM     77  O   UNL A   1      36.671  24.340  25.751  1.00  0.00    -0.269 OA
BRANCH  75  78
ATOM     78  C   UNL A   1      34.819  23.110  26.473  1.00  0.00     0.051 A 
ATOM     79  C   UNL A   1      34.525  22.389  27.614  1.00  0.00     0.080 A 
ATOM     80  C   UNL A   1      33.637  23.791  26.012  1.00  0.00     0.048 A 
ATOM     81  S   UNL A   1      32.842  22.323  27.938  1.00  0.00    -0.130 S 
ATOM     82  C   UNL A   1      32.478  23.296  26.577  1.00  0.00     0.141 A 
BRANCH  82  83
ATOM     83  S   UNL A   1      30.755  23.400  26.128  1.00  0.00     0.271 S 
ATOM     84  O   UNL A   1      30.195  22.104  26.451  1.00  0.00    -0.200 OA
ATOM     85  O   UNL A   1      30.248  24.604  26.747  1.00  0.00    -0.200 OA
BRANCH  83  86
ATOM     86  N   UNL A   1      30.576  23.594  24.461  1.00  0.00    -0.279 N 
ATOM     87  H   UNL A   1      30.016  22.949  23.971  1.00  0.00     0.180 HD
BRANCH  86  88
ATOM     88  C   UNL A   1      31.199  24.652  23.726  1.00  0.00     0.050 A 
ATOM     89  C   UNL A   1      32.079  24.263  22.713  1.00  0.00     0.027 A 
ATOM     90  C   UNL A   1      30.993  26.009  23.968  1.00  0.00     0.048 A 
ATOM     91  C   UNL A   1      32.665  25.216  21.880  1.00  0.00     0.004 A 
ATOM     92  C   UNL A   1      31.549  26.965  23.117  1.00  0.00     0.084 A 
ATOM     93  C   UNL A   1      32.385  26.568  22.067  1.00  0.00     0.022 A 
BRANCH  92  94
ATOM     94  S   UNL A   1      31.173  28.703  23.263  1.00  0.00     0.243 S 
ATOM     95  O   UNL A   1      31.061  28.966  24.684  1.00  0.00    -0.207 OA
ATOM     96  O   UNL A   1      32.141  29.386  22.437  1.00  0.00    -0.207 OA
BRANCH  94  97
ATOM     97  N   UNL A   1      29.658  28.951  22.595  1.00  0.00    -0.198 NA
ATOM     98  C   UNL A   1      29.229  30.244  22.074  1.00  0.00     0.102 C 
ATOM     99  C   UNL A   1      28.491  28.151  22.957  1.00  0.00     0.102 C 
ATOM    100  C   UNL A   1      27.893  30.489  22.756  1.00  0.00     0.018 C 
ATOM    101  C   UNL A   1      27.318  29.110  23.027  1.00  0.00     0.018 C 
ENDBRANCH  94  97
ENDBRANCH  92  94
ENDBRANCH  86  88
ENDBRANCH  83  86
ENDBRANCH  82  83
ENDBRANCH  75  78
ENDBRANCH  73  74
ENDBRANCH   1  73
TORSDOF 19
ENDMDL
