MODEL 1
REMARK VINA RESULT:     -11.6      0.000      0.000
REMARK SMILES O=C(C[C@@H]1CSCC[NH2+]1)NC[C@H]1CC[C@@H](C(=O)NCCCCNC(=O)c2ccc(-c3c4nc(c(-c5cccc(S(=O)(=O)[O-])c5F)c5ccc([nH]5)c(-c5cccc(S(=O)(=O)[O-])c5F)c5nc(c(-c6cccc(S(=O)(=O)[O-])c6F)c6ccc3[nH]6)C=C5)C=C4)cc2)O1
REMARK SMILES IDX 20 1 19 2 18 3 16 4 17 5 15 7 12 8 13 9 89 10 14 11 11 12
REMARK SMILES IDX 10 13 1 14 2 15 3 17 4 18 5 19 9 20 6 21 8 22 7 25 21 26
REMARK SMILES IDX 22 27 23 28 24 29 25 31 26 32 27 33 88 34 28 35 87 36 29 37
REMARK SMILES IDX 30 38 31 39 81 40 32 41 86 42 80 43 82 44 33 45 85 46 79 47
REMARK SMILES IDX 78 48 34 50 66 51 46 52 65 53 47 54 50 55 64 56 83 57 48 58
REMARK SMILES IDX 49 59 63 61 84 62 51 63 35 64 36 65 44 66 37 67 39 68 45 69
REMARK SMILES IDX 38 70 40 71 41 72 42 73 43 74 67 75 68 76 76 77 69 78 71 79
REMARK SMILES IDX 77 80 70 81 72 82 73 83 74 84 75 85 52 86 53 87 61 88 54 89
REMARK SMILES IDX 56 90 62 91 55 92 57 93 58 94 59 95 60 96
REMARK H PARENT 18 6 10 16 9 23 9 24 23 30 82 49 50 60
REMARK Flexibility Score: inf
ROOT
ATOM      1  C   UNL A   1      36.934  20.872  24.992  1.00  0.00     0.023 C 
ENDROOT
BRANCH   1   2
ATOM      2  C   UNL A   1      37.259  22.359  25.143  1.00  0.00     0.116 C 
BRANCH   2   3
ATOM      3  N   UNL A   1      36.322  23.170  24.395  1.00  0.00    -0.354 N 
ATOM      4  C   UNL A   1      35.104  23.675  24.743  1.00  0.00     0.249 C 
ATOM      5  O   UNL A   1      34.460  24.227  23.845  1.00  0.00    -0.272 OA
ATOM      6  H   UNL A   1      36.613  23.394  23.482  1.00  0.00     0.163 HD
BRANCH   4   7
ATOM      7  C   UNL A   1      34.607  23.655  26.207  1.00  0.00     0.207 C 
ATOM      8  C   UNL A   1      32.408  23.416  27.059  1.00  0.00     0.138 C 
ATOM      9  C   UNL A   1      33.327  22.499  27.838  1.00  0.00     0.037 C 
ATOM     10  O   UNL A   1      33.295  24.256  26.294  1.00  0.00    -0.363 OA
ATOM     11  C   UNL A   1      34.488  22.304  26.891  1.00  0.00     0.045 C 
BRANCH   8  12
ATOM     12  C   UNL A   1      31.381  22.736  26.125  1.00  0.00     0.147 C 
BRANCH  12  13
ATOM     13  N   UNL A   1      31.719  21.376  25.730  1.00  0.00    -0.353 N 
ATOM     14  O   UNL A   1      32.299  21.849  23.575  1.00  0.00    -0.275 OA
ATOM     15  C   UNL A   1      32.174  21.034  24.486  1.00  0.00     0.226 C 
ATOM     16  H   UNL A   1      31.612  20.661  26.398  1.00  0.00     0.163 HD
BRANCH  15  17
ATOM     17  C   UNL A   1      32.414  19.552  24.240  1.00  0.00     0.165 C 
BRANCH  17  18
ATOM     18  C   UNL A   1      33.390  18.741  25.120  1.00  0.00     0.201 C 
ATOM     19  C   UNL A   1      34.535  18.045  24.359  1.00  0.00     0.135 C 
ATOM     20  N   UNL A   1      32.786  17.921  26.179  1.00  0.00    -0.342 N 
ATOM     21  S   UNL A   1      34.100  16.456  23.602  1.00  0.00    -0.150 SA
ATOM     22  C   UNL A   1      32.263  16.624  25.739  1.00  0.00     0.271 C 
ATOM     23  H   UNL A   1      32.015  18.449  26.588  1.00  0.00     0.346 HD
ATOM     24  H   UNL A   1      33.535  17.714  26.840  1.00  0.00     0.346 HD
ATOM     25  C   UNL A   1      33.256  15.699  25.024  1.00  0.00     0.131 C 
ENDBRANCH  17  18
ENDBRANCH  15  17
ENDBRANCH  12  13
ENDBRANCH   8  12
ENDBRANCH   4   7
ENDBRANCH   2   3
ENDBRANCH   1   2
BRANCH   1  26
ATOM     26  C   UNL A   1      38.167  19.969  24.876  1.00  0.00     0.023 C 
BRANCH  26  27
ATOM     27  C   UNL A   1      39.309  20.331  25.820  1.00  0.00     0.116 C 
BRANCH  27  28
ATOM     28  N   UNL A   1      40.284  19.259  25.955  1.00  0.00    -0.352 N 
ATOM     29  C   UNL A   1      41.641  19.344  26.158  1.00  0.00     0.251 C 
ATOM     30  H   UNL A   1      39.920  18.346  25.892  1.00  0.00     0.163 HD
ATOM     31  O   UNL A   1      42.332  18.338  26.099  1.00  0.00    -0.269 OA
BRANCH  29  32
ATOM     32  C   UNL A   1      42.253  20.664  26.420  1.00  0.00     0.039 A 
ATOM     33  C   UNL A   1      42.411  21.555  25.357  1.00  0.00     0.014 A 
ATOM     34  C   UNL A   1      42.653  21.024  27.709  1.00  0.00     0.014 A 
ATOM     35  C   UNL A   1      42.921  22.832  25.598  1.00  0.00     0.010 A 
ATOM     36  C   UNL A   1      43.086  22.320  27.960  1.00  0.00     0.010 A 
ATOM     37  C   UNL A   1      43.233  23.235  26.908  1.00  0.00    -0.014 A 
BRANCH  37  38
ATOM     38  C   UNL A   1      43.712  24.611  27.196  1.00  0.00     0.031 A 
ATOM     39  C   UNL A   1      42.750  25.662  27.677  1.00  0.00     0.074 A 
ATOM     40  C   UNL A   1      44.995  24.934  26.940  1.00  0.00     0.049 A 
ATOM     41  N   UNL A   1      42.969  26.927  27.926  1.00  0.00    -0.248 NA
ATOM     42  C   UNL A   1      41.353  25.245  27.877  1.00  0.00     0.031 C 
ATOM     43  C   UNL A   1      46.002  24.026  26.386  1.00  0.00     0.029 A 
ATOM     44  N   UNL A   1      45.664  26.123  27.083  1.00  0.00    -0.354 N 
ATOM     45  C   UNL A   1      41.737  27.463  28.281  1.00  0.00     0.074 A 
ATOM     46  C   UNL A   1      40.765  26.396  28.170  1.00  0.00     0.031 C 
ATOM     47  C   UNL A   1      47.157  24.690  26.235  1.00  0.00     0.029 A 
ATOM     48  C   UNL A   1      46.969  26.075  26.653  1.00  0.00     0.049 A 
ATOM     49  H   UNL A   1      45.249  26.933  27.458  1.00  0.00     0.167 HD
ATOM     50  C   UNL A   1      41.444  28.718  28.695  1.00  0.00     0.034 A 
ATOM     51  C   UNL A   1      47.906  27.043  26.590  1.00  0.00     0.034 A 
ATOM     52  C   UNL A   1      42.418  29.766  28.833  1.00  0.00     0.049 A 
ATOM     53  C   UNL A   1      47.569  28.419  27.094  1.00  0.00     0.074 A 
ATOM     54  C   UNL A   1      42.239  31.049  29.317  1.00  0.00     0.029 A 
ATOM     55  N   UNL A   1      43.754  29.655  28.478  1.00  0.00    -0.354 N 
ATOM     56  N   UNL A   1      46.433  28.866  27.574  1.00  0.00    -0.248 NA
ATOM     57  C   UNL A   1      48.650  29.414  27.085  1.00  0.00     0.031 C 
ATOM     58  C   UNL A   1      43.463  31.723  29.231  1.00  0.00     0.029 A 
ATOM     59  C   UNL A   1      44.412  30.848  28.726  1.00  0.00     0.049 A 
ATOM     60  H   UNL A   1      44.173  28.847  28.105  1.00  0.00     0.167 HD
ATOM     61  C   UNL A   1      46.672  30.181  27.955  1.00  0.00     0.074 A 
ATOM     62  C   UNL A   1      48.067  30.450  27.671  1.00  0.00     0.031 C 
ATOM     63  C   UNL A   1      45.811  31.088  28.482  1.00  0.00     0.034 A 
BRANCH  50  64
ATOM     64  C   UNL A   1      40.014  29.007  29.081  1.00  0.00     0.023 A 
ATOM     65  C   UNL A   1      39.049  29.207  28.071  1.00  0.00     0.012 A 
ATOM     66  C   UNL A   1      39.616  29.045  30.430  1.00  0.00     0.148 A 
ATOM     67  C   UNL A   1      37.724  29.485  28.397  1.00  0.00     0.002 A 
ATOM     68  C   UNL A   1      38.282  29.272  30.747  1.00  0.00     0.091 A 
ATOM     69  F   UNL A   1      40.548  28.872  31.379  1.00  0.00    -0.205 F 
ATOM     70  C   UNL A   1      37.337  29.507  29.734  1.00  0.00     0.022 A 
BRANCH  68  71
ATOM     71  S   UNL A   1      37.666  29.241  32.435  1.00  0.00     0.127 S 
ATOM     72  O   UNL A   1      38.571  30.180  33.096  1.00  0.00    -0.237 OA
ATOM     73  O   UNL A   1      36.296  29.727  32.272  1.00  0.00    -0.237 OA
ATOM     74  O   UNL A   1      37.772  27.857  32.875  1.00  0.00    -0.744 OA
ENDBRANCH  68  71
ENDBRANCH  50  64
BRANCH  51  75
ATOM     75  C   UNL A   1      49.268  26.719  26.081  1.00  0.00     0.023 A 
ATOM     76  C   UNL A   1      50.133  25.926  26.860  1.00  0.00     0.012 A 
ATOM     77  C   UNL A   1      49.695  27.159  24.812  1.00  0.00     0.148 A 
ATOM     78  C   UNL A   1      51.409  25.602  26.398  1.00  0.00     0.002 A 
ATOM     79  C   UNL A   1      50.945  26.786  24.335  1.00  0.00     0.091 A 
ATOM     80  F   UNL A   1      48.859  27.919  24.092  1.00  0.00    -0.205 F 
ATOM     81  C   UNL A   1      51.811  26.022  25.133  1.00  0.00     0.022 A 
BRANCH  79  82
ATOM     82  S   UNL A   1      51.492  27.164  22.666  1.00  0.00     0.127 S 
ATOM     83  O   UNL A   1      51.769  28.594  22.760  1.00  0.00    -0.237 OA
ATOM     84  O   UNL A   1      52.675  26.312  22.538  1.00  0.00    -0.237 OA
ATOM     85  O   UNL A   1      50.386  26.789  21.795  1.00  0.00    -0.744 OA
ENDBRANCH  79  82
ENDBRANCH  51  75
BRANCH  63  86
ATOM     86  C   UNL A   1      46.355  32.450  28.823  1.00  0.00     0.023 A 
ATOM     87  C   UNL A   1      46.920  32.686  30.092  1.00  0.00     0.012 A 
ATOM     88  C   UNL A   1      46.371  33.477  27.857  1.00  0.00     0.148 A 
ATOM     89  C   UNL A   1      47.460  33.932  30.407  1.00  0.00     0.002 A 
ATOM     90  C   UNL A   1      46.958  34.699  28.160  1.00  0.00     0.091 A 
ATOM     91  F   UNL A   1      45.813  33.239  26.663  1.00  0.00    -0.205 F 
ATOM     92  C   UNL A   1      47.491  34.933  29.438  1.00  0.00     0.022 A 
BRANCH  90  93
ATOM     93  S   UNL A   1      47.131  36.012  26.946  1.00  0.00     0.127 S 
ATOM     94  O   UNL A   1      46.802  37.195  27.739  1.00  0.00    -0.237 OA
ATOM     95  O   UNL A   1      48.540  35.902  26.570  1.00  0.00    -0.237 OA
ATOM     96  O   UNL A   1      46.194  35.696  25.877  1.00  0.00    -0.744 OA
ENDBRANCH  90  93
ENDBRANCH  63  86
ENDBRANCH  37  38
ENDBRANCH  29  32
ENDBRANCH  27  28
ENDBRANCH  26  27
ENDBRANCH   1  26
TORSDOF 18
ENDMDL
MODEL 2
REMARK VINA RESULT:     -11.5      1.941      2.426
REMARK SMILES O=C(C[C@@H]1CSCC[NH2+]1)NC[C@H]1CC[C@@H](C(=O)NCCCCNC(=O)c2ccc(-c3c4nc(c(-c5cccc(S(=O)(=O)[O-])c5F)c5ccc([nH]5)c(-c5cccc(S(=O)(=O)[O-])c5F)c5nc(c(-c6cccc(S(=O)(=O)[O-])c6F)c6ccc3[nH]6)C=C5)C=C4)cc2)O1
REMARK SMILES IDX 20 1 19 2 18 3 16 4 17 5 15 7 12 8 13 9 89 10 14 11 11 12
REMARK SMILES IDX 10 13 1 14 2 15 3 17 4 18 5 19 9 20 6 21 8 22 7 25 21 26
REMARK SMILES IDX 22 27 23 28 24 29 25 31 26 32 27 33 88 34 28 35 87 36 29 37
REMARK SMILES IDX 30 38 31 39 81 40 32 41 86 42 80 43 82 44 33 45 85 46 79 47
REMARK SMILES IDX 78 48 34 50 66 51 46 52 65 53 47 54 50 55 64 56 83 57 48 58
REMARK SMILES IDX 49 59 63 61 84 62 51 63 35 64 36 65 44 66 37 67 39 68 45 69
REMARK SMILES IDX 38 70 40 71 41 72 42 73 43 74 67 75 68 76 76 77 69 78 71 79
REMARK SMILES IDX 77 80 70 81 72 82 73 83 74 84 75 85 52 86 53 87 61 88 54 89
REMARK SMILES IDX 56 90 62 91 55 92 57 93 58 94 59 95 60 96
REMARK H PARENT 18 6 10 16 9 23 9 24 23 30 82 49 50 60
REMARK Flexibility Score: inf
ROOT
ATOM      1  C   UNL A   1      37.080  20.527  24.838  1.00  0.00     0.023 C 
ENDROOT
BRANCH   1   2
ATOM      2  C   UNL A   1      37.212  21.773  25.714  1.00  0.00     0.116 C 
BRANCH   2   3
ATOM      3  N   UNL A   1      36.002  22.000  26.474  1.00  0.00    -0.354 N 
ATOM      4  C   UNL A   1      35.101  23.023  26.432  1.00  0.00     0.249 C 
ATOM      5  O   UNL A   1      34.223  23.019  27.300  1.00  0.00    -0.272 OA
ATOM      6  H   UNL A   1      35.794  21.299  27.132  1.00  0.00     0.163 HD
BRANCH   4   7
ATOM      7  C   UNL A   1      35.114  24.067  25.291  1.00  0.00     0.207 C 
ATOM      8  C   UNL A   1      33.777  24.196  23.338  1.00  0.00     0.138 C 
ATOM      9  C   UNL A   1      33.827  25.568  23.978  1.00  0.00     0.037 C 
ATOM     10  O   UNL A   1      34.782  23.433  24.035  1.00  0.00    -0.363 OA
ATOM     11  C   UNL A   1      34.177  25.256  25.414  1.00  0.00     0.045 C 
BRANCH   8  12
ATOM     12  C   UNL A   1      32.418  23.460  23.388  1.00  0.00     0.147 C 
BRANCH  12  13
ATOM     13  N   UNL A   1      32.508  22.007  23.374  1.00  0.00    -0.353 N 
ATOM     14  O   UNL A   1      31.584  21.653  25.430  1.00  0.00    -0.275 OA
ATOM     15  C   UNL A   1      32.064  21.205  24.390  1.00  0.00     0.226 C 
ATOM     16  H   UNL A   1      32.913  21.577  22.588  1.00  0.00     0.163 HD
BRANCH  15  17
ATOM     17  C   UNL A   1      32.302  19.713  24.225  1.00  0.00     0.165 C 
BRANCH  17  18
ATOM     18  C   UNL A   1      33.344  18.967  25.086  1.00  0.00     0.201 C 
ATOM     19  C   UNL A   1      34.476  18.280  24.297  1.00  0.00     0.135 C 
ATOM     20  N   UNL A   1      32.817  18.167  26.200  1.00  0.00    -0.342 N 
ATOM     21  S   UNL A   1      34.061  16.651  23.618  1.00  0.00    -0.150 SA
ATOM     22  C   UNL A   1      32.319  16.839  25.832  1.00  0.00     0.271 C 
ATOM     23  H   UNL A   1      32.049  18.685  26.626  1.00  0.00     0.346 HD
ATOM     24  H   UNL A   1      33.602  18.009  26.832  1.00  0.00     0.346 HD
ATOM     25  C   UNL A   1      33.309  15.920  25.105  1.00  0.00     0.131 C 
ENDBRANCH  17  18
ENDBRANCH  15  17
ENDBRANCH  12  13
ENDBRANCH   8  12
ENDBRANCH   4   7
ENDBRANCH   2   3
ENDBRANCH   1   2
BRANCH   1  26
ATOM     26  C   UNL A   1      38.277  19.572  24.920  1.00  0.00     0.023 C 
BRANCH  26  27
ATOM     27  C   UNL A   1      39.205  19.819  26.104  1.00  0.00     0.116 C 
BRANCH  27  28
ATOM     28  N   UNL A   1      40.427  19.032  26.030  1.00  0.00    -0.352 N 
ATOM     29  C   UNL A   1      41.733  19.453  26.102  1.00  0.00     0.251 C 
ATOM     30  H   UNL A   1      40.299  18.063  25.912  1.00  0.00     0.163 HD
ATOM     31  O   UNL A   1      42.642  18.669  25.872  1.00  0.00    -0.269 OA
BRANCH  29  32
ATOM     32  C   UNL A   1      42.023  20.865  26.433  1.00  0.00     0.039 A 
ATOM     33  C   UNL A   1      42.400  21.185  27.739  1.00  0.00     0.014 A 
ATOM     34  C   UNL A   1      41.938  21.861  25.457  1.00  0.00     0.014 A 
ATOM     35  C   UNL A   1      42.747  22.500  28.053  1.00  0.00     0.010 A 
ATOM     36  C   UNL A   1      42.359  23.152  25.752  1.00  0.00     0.010 A 
ATOM     37  C   UNL A   1      42.759  23.489  27.053  1.00  0.00    -0.014 A 
BRANCH  37  38
ATOM     38  C   UNL A   1      43.190  24.878  27.350  1.00  0.00     0.031 A 
ATOM     39  C   UNL A   1      42.233  25.847  27.989  1.00  0.00     0.074 A 
ATOM     40  C   UNL A   1      44.414  25.290  26.966  1.00  0.00     0.049 A 
ATOM     41  N   UNL A   1      42.408  27.112  28.272  1.00  0.00    -0.248 NA
ATOM     42  C   UNL A   1      40.894  25.337  28.326  1.00  0.00     0.031 C 
ATOM     43  C   UNL A   1      45.399  24.470  26.258  1.00  0.00     0.029 A 
ATOM     44  N   UNL A   1      45.027  26.511  27.090  1.00  0.00    -0.354 N 
ATOM     45  C   UNL A   1      41.197  27.556  28.790  1.00  0.00     0.074 A 
ATOM     46  C   UNL A   1      40.281  26.437  28.739  1.00  0.00     0.031 C 
ATOM     47  C   UNL A   1      46.490  25.209  26.009  1.00  0.00     0.029 A 
ATOM     48  C   UNL A   1      46.274  26.562  26.512  1.00  0.00     0.049 A 
ATOM     49  H   UNL A   1      44.614  27.278  27.549  1.00  0.00     0.167 HD
ATOM     50  C   UNL A   1      40.884  28.772  29.295  1.00  0.00     0.034 A 
ATOM     51  C   UNL A   1      47.141  27.587  26.390  1.00  0.00     0.034 A 
ATOM     52  C   UNL A   1      41.806  29.872  29.372  1.00  0.00     0.049 A 
ATOM     53  C   UNL A   1      46.788  28.918  26.994  1.00  0.00     0.074 A 
ATOM     54  C   UNL A   1      41.614  31.120  29.935  1.00  0.00     0.029 A 
ATOM     55  N   UNL A   1      43.096  29.858  28.862  1.00  0.00    -0.354 N 
ATOM     56  N   UNL A   1      45.692  29.273  27.622  1.00  0.00    -0.248 NA
ATOM     57  C   UNL A   1      47.803  29.976  26.911  1.00  0.00     0.031 C 
ATOM     58  C   UNL A   1      42.779  31.870  29.742  1.00  0.00     0.029 A 
ATOM     59  C   UNL A   1      43.710  31.077  29.091  1.00  0.00     0.049 A 
ATOM     60  H   UNL A   1      43.514  29.093  28.405  1.00  0.00     0.167 HD
ATOM     61  C   UNL A   1      45.899  30.584  28.037  1.00  0.00     0.074 A 
ATOM     62  C   UNL A   1      47.234  30.950  27.608  1.00  0.00     0.031 C 
ATOM     63  C   UNL A   1      45.056  31.413  28.701  1.00  0.00     0.034 A 
BRANCH  50  64
ATOM     64  C   UNL A   1      39.495  28.956  29.854  1.00  0.00     0.023 A 
ATOM     65  C   UNL A   1      39.199  28.480  31.149  1.00  0.00     0.012 A 
ATOM     66  C   UNL A   1      38.497  29.629  29.123  1.00  0.00     0.148 A 
ATOM     67  C   UNL A   1      37.923  28.629  31.688  1.00  0.00     0.002 A 
ATOM     68  C   UNL A   1      37.241  29.817  29.688  1.00  0.00     0.091 A 
ATOM     69  F   UNL A   1      38.788  30.059  27.887  1.00  0.00    -0.205 F 
ATOM     70  C   UNL A   1      36.947  29.306  30.963  1.00  0.00     0.022 A 
BRANCH  68  71
ATOM     71  S   UNL A   1      35.939  30.747  28.869  1.00  0.00     0.127 S 
ATOM     72  O   UNL A   1      36.713  31.662  28.031  1.00  0.00    -0.237 OA
ATOM     73  O   UNL A   1      35.230  29.699  28.133  1.00  0.00    -0.237 OA
ATOM     74  O   UNL A   1      35.165  31.374  29.931  1.00  0.00    -0.744 OA
ENDBRANCH  68  71
ENDBRANCH  50  64
BRANCH  51  75
ATOM     75  C   UNL A   1      48.451  27.369  25.714  1.00  0.00     0.023 A 
ATOM     76  C   UNL A   1      49.561  26.940  26.467  1.00  0.00     0.012 A 
ATOM     77  C   UNL A   1      48.590  27.545  24.323  1.00  0.00     0.148 A 
ATOM     78  C   UNL A   1      50.794  26.721  25.853  1.00  0.00     0.002 A 
ATOM     79  C   UNL A   1      49.806  27.269  23.710  1.00  0.00     0.091 A 
ATOM     80  F   UNL A   1      47.523  27.960  23.627  1.00  0.00    -0.205 F 
ATOM     81  C   UNL A   1      50.914  26.874  24.475  1.00  0.00     0.022 A 
BRANCH  79  82
ATOM     82  S   UNL A   1      50.016  27.307  21.926  1.00  0.00     0.127 S 
ATOM     83  O   UNL A   1      51.387  26.828  21.777  1.00  0.00    -0.237 OA
ATOM     84  O   UNL A   1      48.983  26.369  21.483  1.00  0.00    -0.237 OA
ATOM     85  O   UNL A   1      49.781  28.688  21.530  1.00  0.00    -0.744 OA
ENDBRANCH  79  82
ENDBRANCH  51  75
BRANCH  63  86
ATOM     86  C   UNL A   1      45.558  32.791  29.043  1.00  0.00     0.023 A 
ATOM     87  C   UNL A   1      45.332  33.864  28.159  1.00  0.00     0.012 A 
ATOM     88  C   UNL A   1      46.192  33.035  30.279  1.00  0.00     0.148 A 
ATOM     89  C   UNL A   1      45.759  35.151  28.483  1.00  0.00     0.002 A 
ATOM     90  C   UNL A   1      46.568  34.328  30.617  1.00  0.00     0.091 A 
ATOM     91  F   UNL A   1      46.414  31.998  31.099  1.00  0.00    -0.205 F 
ATOM     92  C   UNL A   1      46.365  35.386  29.715  1.00  0.00     0.022 A 
BRANCH  90  93
ATOM     93  S   UNL A   1      47.264  34.741  32.221  1.00  0.00     0.127 S 
ATOM     94  O   UNL A   1      46.217  34.275  33.129  1.00  0.00    -0.237 OA
ATOM     95  O   UNL A   1      48.489  33.942  32.242  1.00  0.00    -0.237 OA
ATOM     96  O   UNL A   1      47.482  36.181  32.205  1.00  0.00    -0.744 OA
ENDBRANCH  90  93
ENDBRANCH  63  86
ENDBRANCH  37  38
ENDBRANCH  29  32
ENDBRANCH  27  28
ENDBRANCH  26  27
ENDBRANCH   1  26
TORSDOF 18
ENDMDL
MODEL 3
REMARK VINA RESULT:     -11.3      2.273      3.722
REMARK SMILES O=C(C[C@@H]1CSCC[NH2+]1)NC[C@H]1CC[C@@H](C(=O)NCCCCNC(=O)c2ccc(-c3c4nc(c(-c5cccc(S(=O)(=O)[O-])c5F)c5ccc([nH]5)c(-c5cccc(S(=O)(=O)[O-])c5F)c5nc(c(-c6cccc(S(=O)(=O)[O-])c6F)c6ccc3[nH]6)C=C5)C=C4)cc2)O1
REMARK SMILES IDX 20 1 19 2 18 3 16 4 17 5 15 7 12 8 13 9 89 10 14 11 11 12
REMARK SMILES IDX 10 13 1 14 2 15 3 17 4 18 5 19 9 20 6 21 8 22 7 25 21 26
REMARK SMILES IDX 22 27 23 28 24 29 25 31 26 32 27 33 88 34 28 35 87 36 29 37
REMARK SMILES IDX 30 38 31 39 81 40 32 41 86 42 80 43 82 44 33 45 85 46 79 47
REMARK SMILES IDX 78 48 34 50 66 51 46 52 65 53 47 54 50 55 64 56 83 57 48 58
REMARK SMILES IDX 49 59 63 61 84 62 51 63 35 64 36 65 44 66 37 67 39 68 45 69
REMARK SMILES IDX 38 70 40 71 41 72 42 73 43 74 67 75 68 76 76 77 69 78 71 79
REMARK SMILES IDX 77 80 70 81 72 82 73 83 74 84 75 85 52 86 53 87 61 88 54 89
REMARK SMILES IDX 56 90 62 91 55 92 57 93 58 94 59 95 60 96
REMARK H PARENT 18 6 10 16 9 23 9 24 23 30 82 49 50 60
REMARK Flexibility Score: inf
ROOT
ATOM      1  C   UNL A   1      36.769  21.071  24.586  1.00  0.00     0.023 C 
ENDROOT
BRANCH   1   2
ATOM      2  C   UNL A   1      35.377  20.927  25.200  1.00  0.00     0.116 C 
BRANCH   2   3
ATOM      3  N   UNL A   1      34.853  19.595  24.985  1.00  0.00    -0.354 N 
ATOM      4  C   UNL A   1      33.591  19.169  24.692  1.00  0.00     0.249 C 
ATOM      5  O   UNL A   1      33.407  17.948  24.695  1.00  0.00    -0.272 OA
ATOM      6  H   UNL A   1      35.520  18.876  25.064  1.00  0.00     0.163 HD
BRANCH   4   7
ATOM      7  C   UNL A   1      32.480  20.159  24.270  1.00  0.00     0.207 C 
ATOM      8  C   UNL A   1      31.650  22.074  25.392  1.00  0.00     0.138 C 
ATOM      9  C   UNL A   1      31.889  22.434  23.940  1.00  0.00     0.037 C 
ATOM     10  O   UNL A   1      31.774  20.639  25.437  1.00  0.00    -0.363 OA
ATOM     11  C   UNL A   1      32.899  21.400  23.501  1.00  0.00     0.045 C 
BRANCH   8  12
ATOM     12  C   UNL A   1      32.594  22.724  26.430  1.00  0.00     0.147 C 
BRANCH  12  13
ATOM     13  N   UNL A   1      32.875  24.134  26.205  1.00  0.00    -0.353 N 
ATOM     14  O   UNL A   1      30.804  24.920  26.750  1.00  0.00    -0.275 OA
ATOM     15  C   UNL A   1      31.963  25.135  26.402  1.00  0.00     0.226 C 
ATOM     16  H   UNL A   1      33.775  24.381  25.893  1.00  0.00     0.163 HD
BRANCH  15  17
ATOM     17  C   UNL A   1      32.421  26.542  26.052  1.00  0.00     0.165 C 
BRANCH  17  18
ATOM     18  C   UNL A   1      32.476  27.026  24.587  1.00  0.00     0.201 C 
ATOM     19  C   UNL A   1      32.576  28.553  24.403  1.00  0.00     0.135 C 
ATOM     20  N   UNL A   1      31.559  26.367  23.647  1.00  0.00    -0.342 N 
ATOM     21  S   UNL A   1      31.000  29.443  24.503  1.00  0.00    -0.150 SA
ATOM     22  C   UNL A   1      30.185  26.876  23.658  1.00  0.00     0.271 C 
ATOM     23  H   UNL A   1      31.530  25.373  23.878  1.00  0.00     0.346 HD
ATOM     24  H   UNL A   1      31.924  26.557  22.714  1.00  0.00     0.346 HD
ATOM     25  C   UNL A   1      30.016  28.379  23.404  1.00  0.00     0.131 C 
ENDBRANCH  17  18
ENDBRANCH  15  17
ENDBRANCH  12  13
ENDBRANCH   8  12
ENDBRANCH   4   7
ENDBRANCH   2   3
ENDBRANCH   1   2
BRANCH   1  26
ATOM     26  C   UNL A   1      37.742  19.947  24.964  1.00  0.00     0.023 C 
BRANCH  26  27
ATOM     27  C   UNL A   1      38.956  20.404  25.766  1.00  0.00     0.116 C 
BRANCH  27  28
ATOM     28  N   UNL A   1      39.954  19.355  25.913  1.00  0.00    -0.352 N 
ATOM     29  C   UNL A   1      41.304  19.472  26.147  1.00  0.00     0.251 C 
ATOM     30  H   UNL A   1      39.615  18.434  25.835  1.00  0.00     0.163 HD
ATOM     31  O   UNL A   1      42.021  18.484  26.095  1.00  0.00    -0.269 OA
BRANCH  29  32
ATOM     32  C   UNL A   1      41.877  20.804  26.434  1.00  0.00     0.039 A 
ATOM     33  C   UNL A   1      42.130  21.671  25.369  1.00  0.00     0.014 A 
ATOM     34  C   UNL A   1      42.145  21.199  27.747  1.00  0.00     0.014 A 
ATOM     35  C   UNL A   1      42.604  22.958  25.627  1.00  0.00     0.010 A 
ATOM     36  C   UNL A   1      42.541  22.506  28.006  1.00  0.00     0.010 A 
ATOM     37  C   UNL A   1      42.783  23.397  26.951  1.00  0.00    -0.014 A 
BRANCH  37  38
ATOM     38  C   UNL A   1      43.220  24.784  27.249  1.00  0.00     0.031 A 
ATOM     39  C   UNL A   1      42.265  25.759  27.880  1.00  0.00     0.074 A 
ATOM     40  C   UNL A   1      44.449  25.188  26.872  1.00  0.00     0.049 A 
ATOM     41  N   UNL A   1      42.445  27.024  28.162  1.00  0.00    -0.248 NA
ATOM     42  C   UNL A   1      40.921  25.258  28.209  1.00  0.00     0.031 C 
ATOM     43  C   UNL A   1      45.433  24.361  26.171  1.00  0.00     0.029 A 
ATOM     44  N   UNL A   1      45.069  26.406  26.997  1.00  0.00    -0.354 N 
ATOM     45  C   UNL A   1      41.234  27.476  28.672  1.00  0.00     0.074 A 
ATOM     46  C   UNL A   1      40.312  26.362  28.617  1.00  0.00     0.031 C 
ATOM     47  C   UNL A   1      46.530  25.094  25.928  1.00  0.00     0.029 A 
ATOM     48  C   UNL A   1      46.319  26.448  26.427  1.00  0.00     0.049 A 
ATOM     49  H   UNL A   1      44.657  27.176  27.452  1.00  0.00     0.167 HD
ATOM     50  C   UNL A   1      40.925  28.694  29.174  1.00  0.00     0.034 A 
ATOM     51  C   UNL A   1      47.193  27.468  26.309  1.00  0.00     0.034 A 
ATOM     52  C   UNL A   1      41.854  29.789  29.255  1.00  0.00     0.049 A 
ATOM     53  C   UNL A   1      46.844  28.802  26.910  1.00  0.00     0.074 A 
ATOM     54  C   UNL A   1      41.665  31.039  29.815  1.00  0.00     0.029 A 
ATOM     55  N   UNL A   1      43.147  29.767  28.753  1.00  0.00    -0.354 N 
ATOM     56  N   UNL A   1      45.747  29.165  27.530  1.00  0.00    -0.248 NA
ATOM     57  C   UNL A   1      47.866  29.854  26.831  1.00  0.00     0.031 C 
ATOM     58  C   UNL A   1      42.836  31.782  29.629  1.00  0.00     0.029 A 
ATOM     59  C   UNL A   1      43.766  30.983  28.984  1.00  0.00     0.049 A 
ATOM     60  H   UNL A   1      43.563  28.998  28.299  1.00  0.00     0.167 HD
ATOM     61  C   UNL A   1      45.959  30.475  27.944  1.00  0.00     0.074 A 
ATOM     62  C   UNL A   1      47.299  30.833  27.523  1.00  0.00     0.031 C 
ATOM     63  C   UNL A   1      45.117  31.310  28.602  1.00  0.00     0.034 A 
BRANCH  50  64
ATOM     64  C   UNL A   1      39.534  28.888  29.724  1.00  0.00     0.023 A 
ATOM     65  C   UNL A   1      39.233  28.435  31.026  1.00  0.00     0.012 A 
ATOM     66  C   UNL A   1      38.538  29.546  28.977  1.00  0.00     0.148 A 
ATOM     67  C   UNL A   1      37.955  28.592  31.557  1.00  0.00     0.002 A 
ATOM     68  C   UNL A   1      37.280  29.744  29.533  1.00  0.00     0.091 A 
ATOM     69  F   UNL A   1      38.834  29.953  27.734  1.00  0.00    -0.205 F 
ATOM     70  C   UNL A   1      36.982  29.255  30.816  1.00  0.00     0.022 A 
BRANCH  68  71
ATOM     71  S   UNL A   1      35.980  30.657  28.692  1.00  0.00     0.127 S 
ATOM     72  O   UNL A   1      35.091  30.994  29.803  1.00  0.00    -0.237 OA
ATOM     73  O   UNL A   1      36.715  31.793  28.134  1.00  0.00    -0.237 OA
ATOM     74  O   UNL A   1      35.426  29.745  27.702  1.00  0.00    -0.744 OA
ENDBRANCH  68  71
ENDBRANCH  50  64
BRANCH  51  75
ATOM     75  C   UNL A   1      48.506  27.242  25.642  1.00  0.00     0.023 A 
ATOM     76  C   UNL A   1      49.602  26.782  26.397  1.00  0.00     0.012 A 
ATOM     77  C   UNL A   1      48.661  27.440  24.256  1.00  0.00     0.148 A 
ATOM     78  C   UNL A   1      50.837  26.554  25.791  1.00  0.00     0.002 A 
ATOM     79  C   UNL A   1      49.879  27.156  23.649  1.00  0.00     0.091 A 
ATOM     80  F   UNL A   1      47.608  27.885  23.557  1.00  0.00    -0.205 F 
ATOM     81  C   UNL A   1      50.973  26.730  24.417  1.00  0.00     0.022 A 
BRANCH  79  82
ATOM     82  S   UNL A   1      50.106  27.222  21.868  1.00  0.00     0.127 S 
ATOM     83  O   UNL A   1      49.031  26.352  21.398  1.00  0.00    -0.237 OA
ATOM     84  O   UNL A   1      49.911  28.646  21.593  1.00  0.00    -0.237 OA
ATOM     85  O   UNL A   1      51.460  26.743  21.626  1.00  0.00    -0.744 OA
ENDBRANCH  79  82
ENDBRANCH  51  75
BRANCH  63  86
ATOM     86  C   UNL A   1      45.625  32.685  28.946  1.00  0.00     0.023 A 
ATOM     87  C   UNL A   1      46.338  32.895  30.142  1.00  0.00     0.012 A 
ATOM     88  C   UNL A   1      45.457  33.756  28.045  1.00  0.00     0.148 A 
ATOM     89  C   UNL A   1      46.846  34.155  30.454  1.00  0.00     0.002 A 
ATOM     90  C   UNL A   1      46.010  34.996  28.337  1.00  0.00     0.091 A 
ATOM     91  F   UNL A   1      44.759  33.542  26.920  1.00  0.00    -0.205 F 
ATOM     92  C   UNL A   1      46.693  35.202  29.547  1.00  0.00     0.022 A 
BRANCH  90  93
ATOM     93  S   UNL A   1      45.948  36.375  27.186  1.00  0.00     0.127 S 
ATOM     94  O   UNL A   1      46.603  35.808  26.008  1.00  0.00    -0.237 OA
ATOM     95  O   UNL A   1      44.509  36.591  27.039  1.00  0.00    -0.237 OA
ATOM     96  O   UNL A   1      46.661  37.469  27.832  1.00  0.00    -0.744 OA
ENDBRANCH  90  93
ENDBRANCH  63  86
ENDBRANCH  37  38
ENDBRANCH  29  32
ENDBRANCH  27  28
ENDBRANCH  26  27
ENDBRANCH   1  26
TORSDOF 18
ENDMDL
