MODEL 1
REMARK VINA RESULT:     -12.0      0.000      0.000
REMARK SMILES O=C(/C=C/C(=O)Nc1ccc2[nH]ncc2c1)NCCCCNC(=O)c1ccc(-c2c3nc(c(-c4cccc(S(=O)(=O)[O-])c4F)c4ccc([nH]4)c(-c4cccc(S(=O)(=O)[O-])c4F)c4nc(c(-c5cccc(S(=O)(=O)[O-])c5F)c5ccc2[nH]5)C=C4)C=C3)cc1
REMARK SMILES IDX 20 1 19 2 18 3 17 4 1 5 2 6 3 8 4 9 5 10 6 11 7 12 8 14 9 15
REMARK SMILES IDX 16 16 10 17 15 18 11 19 14 20 12 21 13 22 21 24 22 25 23 26
REMARK SMILES IDX 24 28 25 29 26 30 87 31 27 32 86 33 28 34 29 35 30 36 80 37
REMARK SMILES IDX 31 38 85 39 79 40 81 41 32 42 84 43 78 44 77 45 33 47 65 48
REMARK SMILES IDX 45 49 64 50 46 51 49 52 63 53 82 54 47 55 48 56 62 58 83 59
REMARK SMILES IDX 50 60 34 61 35 62 43 63 36 64 38 65 44 66 37 67 39 68 40 69
REMARK SMILES IDX 41 70 42 71 66 72 67 73 75 74 68 75 70 76 76 77 69 78 71 79
REMARK SMILES IDX 72 80 73 81 74 82 51 83 52 84 60 85 53 86 55 87 61 88 54 89
REMARK SMILES IDX 56 90 57 91 58 92 59 93
REMARK H PARENT 17 7 7 13 12 23 22 27 81 46 49 57
REMARK Flexibility Score: inf
ROOT
ATOM      1  C   UNL A   1      37.722  19.892  24.979  1.00  0.00     0.023 C 
ENDROOT
BRANCH   1   2
ATOM      2  C   UNL A   1      36.677  20.973  24.688  1.00  0.00     0.023 C 
BRANCH   2   3
ATOM      3  C   UNL A   1      36.594  22.068  25.752  1.00  0.00     0.116 C 
BRANCH   3   4
ATOM      4  N   UNL A   1      35.220  22.314  26.137  1.00  0.00    -0.353 N 
ATOM      5  O   UNL A   1      35.177  24.480  25.383  1.00  0.00    -0.270 OA
ATOM      6  C   UNL A   1      34.645  23.539  25.962  1.00  0.00     0.244 C 
ATOM      7  H   UNL A   1      34.690  21.583  26.532  1.00  0.00     0.163 HD
BRANCH   6   8
ATOM      8  C   UNL A   1      33.312  23.721  26.570  1.00  0.00     0.077 C 
ATOM      9  C   UNL A   1      32.148  23.699  25.903  1.00  0.00     0.077 C 
BRANCH   9  10
ATOM     10  C   UNL A   1      30.881  24.084  26.578  1.00  0.00     0.248 C 
ATOM     11  O   UNL A   1      30.287  23.249  27.254  1.00  0.00    -0.270 OA
ATOM     12  N   UNL A   1      30.411  25.371  26.484  1.00  0.00    -0.322 N 
ATOM     13  H   UNL A   1      29.680  25.601  27.102  1.00  0.00     0.170 HD
BRANCH  12  14
ATOM     14  C   UNL A   1      30.829  26.405  25.629  1.00  0.00     0.042 A 
ATOM     15  C   UNL A   1      31.735  27.390  26.042  1.00  0.00     0.028 A 
ATOM     16  C   UNL A   1      30.227  26.480  24.365  1.00  0.00     0.038 A 
ATOM     17  C   UNL A   1      31.938  28.554  25.298  1.00  0.00     0.030 A 
ATOM     18  C   UNL A   1      30.394  27.663  23.621  1.00  0.00     0.022 A 
ATOM     19  C   UNL A   1      31.213  28.671  24.112  1.00  0.00     0.065 A 
ATOM     20  C   UNL A   1      29.878  28.188  22.416  1.00  0.00     0.143 A 
ATOM     21  N   UNL A   1      31.092  29.703  23.221  1.00  0.00    -0.278 N 
ATOM     22  N   UNL A   1      30.312  29.425  22.160  1.00  0.00    -0.183 NA
ATOM     23  H   UNL A   1      31.537  30.573  23.345  1.00  0.00     0.190 HD
ENDBRANCH  12  14
ENDBRANCH   9  10
ENDBRANCH   6   8
ENDBRANCH   3   4
ENDBRANCH   2   3
ENDBRANCH   1   2
BRANCH   1  24
ATOM     24  C   UNL A   1      38.946  20.372  25.751  1.00  0.00     0.116 C 
BRANCH  24  25
ATOM     25  N   UNL A   1      39.945  19.329  25.918  1.00  0.00    -0.352 N 
ATOM     26  C   UNL A   1      41.292  19.456  26.156  1.00  0.00     0.251 C 
ATOM     27  H   UNL A   1      39.610  18.406  25.853  1.00  0.00     0.163 HD
ATOM     28  O   UNL A   1      42.019  18.465  26.107  1.00  0.00    -0.269 OA
BRANCH  26  29
ATOM     29  C   UNL A   1      41.868  20.788  26.442  1.00  0.00     0.039 A 
ATOM     30  C   UNL A   1      42.182  21.631  25.375  1.00  0.00     0.014 A 
ATOM     31  C   UNL A   1      42.083  21.209  27.757  1.00  0.00     0.014 A 
ATOM     32  C   UNL A   1      42.656  22.921  25.628  1.00  0.00     0.010 A 
ATOM     33  C   UNL A   1      42.479  22.521  28.008  1.00  0.00     0.010 A 
ATOM     34  C   UNL A   1      42.774  23.391  26.947  1.00  0.00    -0.014 A 
BRANCH  34  35
ATOM     35  C   UNL A   1      43.188  24.789  27.232  1.00  0.00     0.031 A 
ATOM     36  C   UNL A   1      42.225  25.757  27.868  1.00  0.00     0.074 A 
ATOM     37  C   UNL A   1      44.408  25.214  26.846  1.00  0.00     0.049 A 
ATOM     38  N   UNL A   1      42.390  27.025  28.142  1.00  0.00    -0.248 NA
ATOM     39  C   UNL A   1      40.892  25.238  28.218  1.00  0.00     0.031 C 
ATOM     40  C   UNL A   1      45.407  24.399  26.151  1.00  0.00     0.029 A 
ATOM     41  N   UNL A   1      45.006  26.445  26.957  1.00  0.00    -0.354 N 
ATOM     42  C   UNL A   1      41.179  27.462  28.664  1.00  0.00     0.074 A 
ATOM     43  C   UNL A   1      40.274  26.334  28.634  1.00  0.00     0.031 C 
ATOM     44  C   UNL A   1      46.492  25.149  25.901  1.00  0.00     0.029 A 
ATOM     45  C   UNL A   1      46.255  26.506  26.384  1.00  0.00     0.049 A 
ATOM     46  H   UNL A   1      44.581  27.212  27.406  1.00  0.00     0.167 HD
ATOM     47  C   UNL A   1      40.856  28.684  29.154  1.00  0.00     0.034 A 
ATOM     48  C   UNL A   1      47.109  27.539  26.248  1.00  0.00     0.034 A 
ATOM     49  C   UNL A   1      41.766  29.796  29.211  1.00  0.00     0.049 A 
ATOM     50  C   UNL A   1      46.736  28.880  26.820  1.00  0.00     0.074 A 
ATOM     51  C   UNL A   1      41.558  31.050  29.759  1.00  0.00     0.029 A 
ATOM     52  N   UNL A   1      43.050  29.798  28.690  1.00  0.00    -0.354 N 
ATOM     53  N   UNL A   1      45.641  29.232  27.449  1.00  0.00    -0.248 NA
ATOM     54  C   UNL A   1      47.729  29.957  26.696  1.00  0.00     0.031 C 
ATOM     55  C   UNL A   1      42.705  31.820  29.540  1.00  0.00     0.029 A 
ATOM     56  C   UNL A   1      43.643  31.033  28.892  1.00  0.00     0.049 A 
ATOM     57  H   UNL A   1      43.478  29.032  28.242  1.00  0.00     0.167 HD
ATOM     58  C   UNL A   1      45.828  30.557  27.828  1.00  0.00     0.074 A 
ATOM     59  C   UNL A   1      47.151  30.937  27.375  1.00  0.00     0.031 C 
ATOM     60  C   UNL A   1      44.978  31.387  28.481  1.00  0.00     0.034 A 
BRANCH  47  61
ATOM     61  C   UNL A   1      39.467  28.870  29.709  1.00  0.00     0.023 A 
ATOM     62  C   UNL A   1      39.201  28.531  31.052  1.00  0.00     0.012 A 
ATOM     63  C   UNL A   1      38.440  29.430  28.923  1.00  0.00     0.148 A 
ATOM     64  C   UNL A   1      37.928  28.708  31.593  1.00  0.00     0.002 A 
ATOM     65  C   UNL A   1      37.186  29.649  29.484  1.00  0.00     0.091 A 
ATOM     66  F   UNL A   1      38.704  29.729  27.644  1.00  0.00    -0.205 F 
ATOM     67  C   UNL A   1      36.925  29.276  30.813  1.00  0.00     0.022 A 
BRANCH  65  68
ATOM     68  S   UNL A   1      35.850  30.450  28.590  1.00  0.00     0.127 S 
ATOM     69  O   UNL A   1      35.185  31.195  29.659  1.00  0.00    -0.237 OA
ATOM     70  O   UNL A   1      36.578  31.281  27.630  1.00  0.00    -0.237 OA
ATOM     71  O   UNL A   1      35.065  29.379  27.994  1.00  0.00    -0.744 OA
ENDBRANCH  65  68
ENDBRANCH  47  61
BRANCH  48  72
ATOM     72  C   UNL A   1      48.426  27.334  25.580  1.00  0.00     0.023 A 
ATOM     73  C   UNL A   1      49.547  26.962  26.348  1.00  0.00     0.012 A 
ATOM     74  C   UNL A   1      48.568  27.482  24.186  1.00  0.00     0.148 A 
ATOM     75  C   UNL A   1      50.792  26.778  25.747  1.00  0.00     0.002 A 
ATOM     76  C   UNL A   1      49.797  27.239  23.585  1.00  0.00     0.091 A 
ATOM     77  F   UNL A   1      47.492  27.844  23.475  1.00  0.00    -0.205 F 
ATOM     78  C   UNL A   1      50.916  26.906  24.365  1.00  0.00     0.022 A 
BRANCH  76  79
ATOM     79  S   UNL A   1      50.018  27.251  21.803  1.00  0.00     0.127 S 
ATOM     80  O   UNL A   1      49.772  28.654  21.481  1.00  0.00    -0.237 OA
ATOM     81  O   UNL A   1      51.412  26.821  21.671  1.00  0.00    -0.237 OA
ATOM     82  O   UNL A   1      49.046  26.301  21.279  1.00  0.00    -0.744 OA
ENDBRANCH  76  79
ENDBRANCH  48  72
BRANCH  60  83
ATOM     83  C   UNL A   1      45.459  32.781  28.792  1.00  0.00     0.023 A 
ATOM     84  C   UNL A   1      46.182  33.032  29.976  1.00  0.00     0.012 A 
ATOM     85  C   UNL A   1      45.255  33.829  27.872  1.00  0.00     0.148 A 
ATOM     86  C   UNL A   1      46.662  34.311  30.254  1.00  0.00     0.002 A 
ATOM     87  C   UNL A   1      45.781  35.088  28.132  1.00  0.00     0.091 A 
ATOM     88  F   UNL A   1      44.550  33.574  26.760  1.00  0.00    -0.205 F 
ATOM     89  C   UNL A   1      46.473  35.335  29.328  1.00  0.00     0.022 A 
BRANCH  87  90
ATOM     90  S   UNL A   1      45.673  36.440  26.954  1.00  0.00     0.127 S 
ATOM     91  O   UNL A   1      46.290  35.850  25.767  1.00  0.00    -0.237 OA
ATOM     92  O   UNL A   1      44.228  36.646  26.852  1.00  0.00    -0.237 OA
ATOM     93  O   UNL A   1      46.403  37.552  27.549  1.00  0.00    -0.744 OA
ENDBRANCH  87  90
ENDBRANCH  60  83
ENDBRANCH  34  35
ENDBRANCH  26  29
ENDBRANCH  24  25
ENDBRANCH   1  24
TORSDOF 16
ENDMDL
MODEL 2
REMARK VINA RESULT:     -11.9      6.553     11.971
REMARK SMILES O=C(/C=C/C(=O)Nc1ccc2[nH]ncc2c1)NCCCCNC(=O)c1ccc(-c2c3nc(c(-c4cccc(S(=O)(=O)[O-])c4F)c4ccc([nH]4)c(-c4cccc(S(=O)(=O)[O-])c4F)c4nc(c(-c5cccc(S(=O)(=O)[O-])c5F)c5ccc2[nH]5)C=C4)C=C3)cc1
REMARK SMILES IDX 20 1 19 2 18 3 17 4 1 5 2 6 3 8 4 9 5 10 6 11 7 12 8 14 9 15
REMARK SMILES IDX 16 16 10 17 15 18 11 19 14 20 12 21 13 22 21 24 22 25 23 26
REMARK SMILES IDX 24 28 25 29 26 30 87 31 27 32 86 33 28 34 29 35 30 36 80 37
REMARK SMILES IDX 31 38 85 39 79 40 81 41 32 42 84 43 78 44 77 45 33 47 65 48
REMARK SMILES IDX 45 49 64 50 46 51 49 52 63 53 82 54 47 55 48 56 62 58 83 59
REMARK SMILES IDX 50 60 34 61 35 62 43 63 36 64 38 65 44 66 37 67 39 68 40 69
REMARK SMILES IDX 41 70 42 71 66 72 67 73 75 74 68 75 70 76 76 77 69 78 71 79
REMARK SMILES IDX 72 80 73 81 74 82 51 83 52 84 60 85 53 86 55 87 61 88 54 89
REMARK SMILES IDX 56 90 57 91 58 92 59 93
REMARK H PARENT 17 7 7 13 12 23 22 27 81 46 49 57
REMARK Flexibility Score: inf
ROOT
ATOM      1  C   UNL A   1      31.754  32.020  26.719  1.00  0.00     0.023 C 
ENDROOT
BRANCH   1   2
ATOM      2  C   UNL A   1      31.896  30.498  26.819  1.00  0.00     0.023 C 
BRANCH   2   3
ATOM      3  C   UNL A   1      33.268  29.967  26.403  1.00  0.00     0.116 C 
BRANCH   3   4
ATOM      4  N   UNL A   1      33.168  29.146  25.214  1.00  0.00    -0.353 N 
ATOM      5  O   UNL A   1      33.902  27.223  26.227  1.00  0.00    -0.270 OA
ATOM      6  C   UNL A   1      33.553  27.837  25.225  1.00  0.00     0.244 C 
ATOM      7  H   UNL A   1      32.815  29.540  24.383  1.00  0.00     0.163 HD
BRANCH   6   8
ATOM      8  C   UNL A   1      33.590  27.164  23.912  1.00  0.00     0.077 C 
ATOM      9  C   UNL A   1      33.273  25.878  23.693  1.00  0.00     0.077 C 
BRANCH   9  10
ATOM     10  C   UNL A   1      33.529  25.249  22.370  1.00  0.00     0.248 C 
ATOM     11  O   UNL A   1      33.388  25.922  21.353  1.00  0.00    -0.270 OA
ATOM     12  N   UNL A   1      33.964  23.949  22.295  1.00  0.00    -0.322 N 
ATOM     13  H   UNL A   1      34.291  23.662  21.412  1.00  0.00     0.170 HD
BRANCH  12  14
ATOM     14  C   UNL A   1      34.008  22.972  23.304  1.00  0.00     0.042 A 
ATOM     15  C   UNL A   1      35.111  22.833  24.156  1.00  0.00     0.028 A 
ATOM     16  C   UNL A   1      32.944  22.062  23.367  1.00  0.00     0.038 A 
ATOM     17  C   UNL A   1      35.272  21.707  24.966  1.00  0.00     0.030 A 
ATOM     18  C   UNL A   1      33.107  20.904  24.151  1.00  0.00     0.022 A 
ATOM     19  C   UNL A   1      34.266  20.742  24.900  1.00  0.00     0.065 A 
ATOM     20  C   UNL A   1      32.374  19.719  24.381  1.00  0.00     0.143 A 
ATOM     21  N   UNL A   1      34.163  19.498  25.463  1.00  0.00    -0.278 N 
ATOM     22  N   UNL A   1      33.006  18.866  25.191  1.00  0.00    -0.183 NA
ATOM     23  H   UNL A   1      34.873  19.102  26.018  1.00  0.00     0.190 HD
ENDBRANCH  12  14
ENDBRANCH   9  10
ENDBRANCH   6   8
ENDBRANCH   3   4
ENDBRANCH   2   3
ENDBRANCH   1   2
BRANCH   1  24
ATOM     24  C   UNL A   1      32.947  32.812  27.243  1.00  0.00     0.116 C 
BRANCH  24  25
ATOM     25  N   UNL A   1      32.586  34.160  27.650  1.00  0.00    -0.352 N 
ATOM     26  C   UNL A   1      33.082  34.909  28.690  1.00  0.00     0.251 C 
ATOM     27  H   UNL A   1      31.893  34.598  27.105  1.00  0.00     0.163 HD
ATOM     28  O   UNL A   1      32.544  35.973  28.990  1.00  0.00    -0.269 OA
BRANCH  26  29
ATOM     29  C   UNL A   1      34.243  34.418  29.463  1.00  0.00     0.039 A 
ATOM     30  C   UNL A   1      34.017  33.729  30.657  1.00  0.00     0.014 A 
ATOM     31  C   UNL A   1      35.547  34.622  29.006  1.00  0.00     0.014 A 
ATOM     32  C   UNL A   1      35.097  33.193  31.362  1.00  0.00     0.010 A 
ATOM     33  C   UNL A   1      36.615  34.019  29.668  1.00  0.00     0.010 A 
ATOM     34  C   UNL A   1      36.403  33.301  30.855  1.00  0.00    -0.014 A 
BRANCH  34  35
ATOM     35  C   UNL A   1      37.553  32.658  31.543  1.00  0.00     0.031 A 
ATOM     36  C   UNL A   1      38.272  31.498  30.908  1.00  0.00     0.074 A 
ATOM     37  C   UNL A   1      37.900  33.066  32.781  1.00  0.00     0.049 A 
ATOM     38  N   UNL A   1      39.258  30.780  31.380  1.00  0.00    -0.248 NA
ATOM     39  C   UNL A   1      37.807  31.072  29.578  1.00  0.00     0.031 C 
ATOM     40  C   UNL A   1      37.235  34.127  33.540  1.00  0.00     0.029 A 
ATOM     41  N   UNL A   1      38.883  32.619  33.630  1.00  0.00    -0.354 N 
ATOM     42  C   UNL A   1      39.509  29.802  30.426  1.00  0.00     0.074 A 
ATOM     43  C   UNL A   1      38.547  29.994  29.363  1.00  0.00     0.031 C 
ATOM     44  C   UNL A   1      37.828  34.251  34.737  1.00  0.00     0.029 A 
ATOM     45  C   UNL A   1      38.891  33.257  34.849  1.00  0.00     0.049 A 
ATOM     46  H   UNL A   1      39.521  31.909  33.388  1.00  0.00     0.167 HD
ATOM     47  C   UNL A   1      40.471  28.848  30.418  1.00  0.00     0.034 A 
ATOM     48  C   UNL A   1      39.657  33.056  35.939  1.00  0.00     0.034 A 
ATOM     49  C   UNL A   1      41.446  28.677  31.462  1.00  0.00     0.049 A 
ATOM     50  C   UNL A   1      40.733  32.006  35.896  1.00  0.00     0.074 A 
ATOM     51  C   UNL A   1      42.508  27.792  31.509  1.00  0.00     0.029 A 
ATOM     52  N   UNL A   1      41.471  29.393  32.648  1.00  0.00    -0.354 N 
ATOM     53  N   UNL A   1      41.053  31.192  34.920  1.00  0.00    -0.248 NA
ATOM     54  C   UNL A   1      41.578  31.869  37.092  1.00  0.00     0.031 C 
ATOM     55  C   UNL A   1      43.156  27.950  32.738  1.00  0.00     0.029 A 
ATOM     56  C   UNL A   1      42.522  28.963  33.440  1.00  0.00     0.049 A 
ATOM     57  H   UNL A   1      40.834  30.105  32.891  1.00  0.00     0.167 HD
ATOM     58  C   UNL A   1      42.158  30.474  35.367  1.00  0.00     0.074 A 
ATOM     59  C   UNL A   1      42.463  30.966  36.696  1.00  0.00     0.031 C 
ATOM     60  C   UNL A   1      42.848  29.491  34.740  1.00  0.00     0.034 A 
BRANCH  47  61
ATOM     61  C   UNL A   1      40.545  27.939  29.217  1.00  0.00     0.023 A 
ATOM     62  C   UNL A   1      39.667  26.841  29.118  1.00  0.00     0.012 A 
ATOM     63  C   UNL A   1      41.442  28.202  28.163  1.00  0.00     0.148 A 
ATOM     64  C   UNL A   1      39.705  25.995  28.009  1.00  0.00     0.002 A 
ATOM     65  C   UNL A   1      41.441  27.383  27.039  1.00  0.00     0.091 A 
ATOM     66  F   UNL A   1      42.282  29.239  28.280  1.00  0.00    -0.205 F 
ATOM     67  C   UNL A   1      40.584  26.272  26.967  1.00  0.00     0.022 A 
BRANCH  65  68
ATOM     68  S   UNL A   1      42.476  27.702  25.605  1.00  0.00     0.127 S 
ATOM     69  O   UNL A   1      43.805  27.774  26.213  1.00  0.00    -0.237 OA
ATOM     70  O   UNL A   1      42.244  26.510  24.788  1.00  0.00    -0.237 OA
ATOM     71  O   UNL A   1      41.988  28.943  25.023  1.00  0.00    -0.744 OA
ENDBRANCH  65  68
ENDBRANCH  47  61
BRANCH  48  72
ATOM     72  C   UNL A   1      39.463  33.903  37.151  1.00  0.00     0.023 A 
ATOM     73  C   UNL A   1      39.904  35.241  37.143  1.00  0.00     0.012 A 
ATOM     74  C   UNL A   1      38.825  33.397  38.300  1.00  0.00     0.148 A 
ATOM     75  C   UNL A   1      39.746  36.048  38.270  1.00  0.00     0.002 A 
ATOM     76  C   UNL A   1      38.618  34.223  39.398  1.00  0.00     0.091 A 
ATOM     77  F   UNL A   1      38.422  32.119  38.290  1.00  0.00    -0.205 F 
ATOM     78  C   UNL A   1      39.094  35.544  39.393  1.00  0.00     0.022 A 
BRANCH  76  79
ATOM     79  S   UNL A   1      37.674  33.700  40.833  1.00  0.00     0.127 S 
ATOM     80  O   UNL A   1      36.509  33.075  40.213  1.00  0.00    -0.237 OA
ATOM     81  O   UNL A   1      38.602  32.771  41.480  1.00  0.00    -0.237 OA
ATOM     82  O   UNL A   1      37.410  34.913  41.595  1.00  0.00    -0.744 OA
ENDBRANCH  76  79
ENDBRANCH  48  72
BRANCH  60  83
ATOM     83  C   UNL A   1      44.036  28.901  35.457  1.00  0.00     0.023 A 
ATOM     84  C   UNL A   1      45.313  29.478  35.302  1.00  0.00     0.012 A 
ATOM     85  C   UNL A   1      43.871  27.817  36.341  1.00  0.00     0.148 A 
ATOM     86  C   UNL A   1      46.411  28.962  35.990  1.00  0.00     0.002 A 
ATOM     87  C   UNL A   1      44.959  27.342  37.062  1.00  0.00     0.091 A 
ATOM     88  F   UNL A   1      42.652  27.271  36.461  1.00  0.00    -0.205 F 
ATOM     89  C   UNL A   1      46.232  27.903  36.877  1.00  0.00     0.022 A 
BRANCH  87  90
ATOM     90  S   UNL A   1      44.806  26.049  38.300  1.00  0.00     0.127 S 
ATOM     91  O   UNL A   1      46.203  25.681  38.519  1.00  0.00    -0.237 OA
ATOM     92  O   UNL A   1      44.180  26.762  39.414  1.00  0.00    -0.237 OA
ATOM     93  O   UNL A   1      43.975  25.013  37.701  1.00  0.00    -0.744 OA
ENDBRANCH  87  90
ENDBRANCH  60  83
ENDBRANCH  34  35
ENDBRANCH  26  29
ENDBRANCH  24  25
ENDBRANCH   1  24
TORSDOF 16
ENDMDL
MODEL 3
REMARK VINA RESULT:     -11.9      1.845      7.922
REMARK SMILES O=C(/C=C/C(=O)Nc1ccc2[nH]ncc2c1)NCCCCNC(=O)c1ccc(-c2c3nc(c(-c4cccc(S(=O)(=O)[O-])c4F)c4ccc([nH]4)c(-c4cccc(S(=O)(=O)[O-])c4F)c4nc(c(-c5cccc(S(=O)(=O)[O-])c5F)c5ccc2[nH]5)C=C4)C=C3)cc1
REMARK SMILES IDX 20 1 19 2 18 3 17 4 1 5 2 6 3 8 4 9 5 10 6 11 7 12 8 14 9 15
REMARK SMILES IDX 16 16 10 17 15 18 11 19 14 20 12 21 13 22 21 24 22 25 23 26
REMARK SMILES IDX 24 28 25 29 26 30 87 31 27 32 86 33 28 34 29 35 30 36 80 37
REMARK SMILES IDX 31 38 85 39 79 40 81 41 32 42 84 43 78 44 77 45 33 47 65 48
REMARK SMILES IDX 45 49 64 50 46 51 49 52 63 53 82 54 47 55 48 56 62 58 83 59
REMARK SMILES IDX 50 60 34 61 35 62 43 63 36 64 38 65 44 66 37 67 39 68 40 69
REMARK SMILES IDX 41 70 42 71 66 72 67 73 75 74 68 75 70 76 76 77 69 78 71 79
REMARK SMILES IDX 72 80 73 81 74 82 51 83 52 84 60 85 53 86 55 87 61 88 54 89
REMARK SMILES IDX 56 90 57 91 58 92 59 93
REMARK H PARENT 17 7 7 13 12 23 22 27 81 46 49 57
REMARK Flexibility Score: inf
ROOT
ATOM      1  C   UNL A   1      35.986  21.612  24.743  1.00  0.00     0.023 C 
ENDROOT
BRANCH   1   2
ATOM      2  C   UNL A   1      35.801  20.114  25.000  1.00  0.00     0.023 C 
BRANCH   2   3
ATOM      3  C   UNL A   1      34.398  19.592  24.688  1.00  0.00     0.116 C 
BRANCH   3   4
ATOM      4  N   UNL A   1      33.394  20.322  25.435  1.00  0.00    -0.353 N 
ATOM      5  O   UNL A   1      32.184  20.956  23.592  1.00  0.00    -0.270 OA
ATOM      6  C   UNL A   1      32.391  20.994  24.800  1.00  0.00     0.244 C 
ATOM      7  H   UNL A   1      33.436  20.331  26.418  1.00  0.00     0.163 HD
BRANCH   6   8
ATOM      8  C   UNL A   1      31.550  21.856  25.653  1.00  0.00     0.077 C 
ATOM      9  C   UNL A   1      31.195  23.118  25.367  1.00  0.00     0.077 C 
BRANCH   9  10
ATOM     10  C   UNL A   1      30.511  23.962  26.381  1.00  0.00     0.248 C 
ATOM     11  O   UNL A   1      29.982  23.420  27.348  1.00  0.00    -0.270 OA
ATOM     12  N   UNL A   1      30.513  25.329  26.259  1.00  0.00    -0.322 N 
ATOM     13  H   UNL A   1      30.211  25.826  27.053  1.00  0.00     0.170 HD
BRANCH  12  14
ATOM     14  C   UNL A   1      30.890  26.118  25.158  1.00  0.00     0.042 A 
ATOM     15  C   UNL A   1      32.228  26.436  24.896  1.00  0.00     0.028 A 
ATOM     16  C   UNL A   1      29.863  26.669  24.379  1.00  0.00     0.038 A 
ATOM     17  C   UNL A   1      32.576  27.429  23.977  1.00  0.00     0.030 A 
ATOM     18  C   UNL A   1      30.195  27.696  23.476  1.00  0.00     0.022 A 
ATOM     19  C   UNL A   1      31.524  28.067  23.319  1.00  0.00     0.065 A 
ATOM     20  C   UNL A   1      29.484  28.577  22.631  1.00  0.00     0.143 A 
ATOM     21  N   UNL A   1      31.504  29.133  22.461  1.00  0.00    -0.278 N 
ATOM     22  N   UNL A   1      30.279  29.445  21.999  1.00  0.00    -0.183 NA
ATOM     23  H   UNL A   1      32.316  29.628  22.203  1.00  0.00     0.190 HD
ENDBRANCH  12  14
ENDBRANCH   9  10
ENDBRANCH   6   8
ENDBRANCH   3   4
ENDBRANCH   2   3
ENDBRANCH   1   2
BRANCH   1  24
ATOM     24  C   UNL A   1      37.203  22.235  25.417  1.00  0.00     0.116 C 
BRANCH  24  25
ATOM     25  N   UNL A   1      38.202  21.247  25.789  1.00  0.00    -0.352 N 
ATOM     26  C   UNL A   1      39.446  21.443  26.338  1.00  0.00     0.251 C 
ATOM     27  H   UNL A   1      37.953  20.308  25.627  1.00  0.00     0.163 HD
ATOM     28  O   UNL A   1      40.228  20.499  26.438  1.00  0.00    -0.269 OA
BRANCH  26  29
ATOM     29  C   UNL A   1      39.851  22.795  26.782  1.00  0.00     0.039 A 
ATOM     30  C   UNL A   1      40.770  22.916  27.826  1.00  0.00     0.014 A 
ATOM     31  C   UNL A   1      39.339  23.937  26.161  1.00  0.00     0.014 A 
ATOM     32  C   UNL A   1      41.222  24.181  28.208  1.00  0.00     0.010 A 
ATOM     33  C   UNL A   1      39.850  25.191  26.489  1.00  0.00     0.010 A 
ATOM     34  C   UNL A   1      40.794  25.328  27.518  1.00  0.00    -0.014 A 
BRANCH  34  35
ATOM     35  C   UNL A   1      41.333  26.673  27.850  1.00  0.00     0.031 A 
ATOM     36  C   UNL A   1      42.756  27.030  27.511  1.00  0.00     0.074 A 
ATOM     37  C   UNL A   1      40.566  27.548  28.531  1.00  0.00     0.049 A 
ATOM     38  N   UNL A   1      43.414  28.131  27.769  1.00  0.00    -0.248 NA
ATOM     39  C   UNL A   1      43.552  26.008  26.813  1.00  0.00     0.031 C 
ATOM     40  C   UNL A   1      39.197  27.297  28.987  1.00  0.00     0.029 A 
ATOM     41  N   UNL A   1      40.836  28.817  28.982  1.00  0.00    -0.354 N 
ATOM     42  C   UNL A   1      44.704  27.923  27.297  1.00  0.00     0.074 A 
ATOM     43  C   UNL A   1      44.748  26.577  26.770  1.00  0.00     0.031 C 
ATOM     44  C   UNL A   1      38.748  28.375  29.649  1.00  0.00     0.029 A 
ATOM     45  C   UNL A   1      39.805  29.381  29.697  1.00  0.00     0.049 A 
ATOM     46  H   UNL A   1      41.689  29.279  28.809  1.00  0.00     0.167 HD
ATOM     47  C   UNL A   1      45.751  28.784  27.276  1.00  0.00     0.034 A 
ATOM     48  C   UNL A   1      39.723  30.565  30.333  1.00  0.00     0.034 A 
ATOM     49  C   UNL A   1      45.696  30.132  27.773  1.00  0.00     0.049 A 
ATOM     50  C   UNL A   1      40.891  31.512  30.275  1.00  0.00     0.074 A 
ATOM     51  C   UNL A   1      46.678  31.106  27.725  1.00  0.00     0.029 A 
ATOM     52  N   UNL A   1      44.609  30.695  28.423  1.00  0.00    -0.354 N 
ATOM     53  N   UNL A   1      42.052  31.354  29.688  1.00  0.00    -0.248 NA
ATOM     54  C   UNL A   1      40.725  32.815  30.936  1.00  0.00     0.031 C 
ATOM     55  C   UNL A   1      46.196  32.247  28.375  1.00  0.00     0.029 A 
ATOM     56  C   UNL A   1      44.898  31.997  28.792  1.00  0.00     0.049 A 
ATOM     57  H   UNL A   1      43.755  30.235  28.595  1.00  0.00     0.167 HD
ATOM     58  C   UNL A   1      42.740  32.548  29.876  1.00  0.00     0.074 A 
ATOM     59  C   UNL A   1      41.856  33.427  30.614  1.00  0.00     0.031 C 
ATOM     60  C   UNL A   1      43.995  32.881  29.483  1.00  0.00     0.034 A 
BRANCH  47  61
ATOM     61  C   UNL A   1      47.037  28.305  26.652  1.00  0.00     0.023 A 
ATOM     62  C   UNL A   1      48.109  27.910  27.479  1.00  0.00     0.012 A 
ATOM     63  C   UNL A   1      47.167  28.191  25.254  1.00  0.00     0.148 A 
ATOM     64  C   UNL A   1      49.304  27.448  26.926  1.00  0.00     0.002 A 
ATOM     65  C   UNL A   1      48.343  27.684  24.711  1.00  0.00     0.091 A 
ATOM     66  F   UNL A   1      46.146  28.587  24.482  1.00  0.00    -0.205 F 
ATOM     67  C   UNL A   1      49.415  27.326  25.544  1.00  0.00     0.022 A 
BRANCH  65  68
ATOM     68  S   UNL A   1      48.558  27.409  22.949  1.00  0.00     0.127 S 
ATOM     69  O   UNL A   1      49.932  27.869  22.746  1.00  0.00    -0.237 OA
ATOM     70  O   UNL A   1      48.378  25.961  22.840  1.00  0.00    -0.237 OA
ATOM     71  O   UNL A   1      47.531  28.201  22.289  1.00  0.00    -0.744 OA
ENDBRANCH  65  68
ENDBRANCH  47  61
BRANCH  48  72
ATOM     72  C   UNL A   1      38.467  30.944  31.042  1.00  0.00     0.023 A 
ATOM     73  C   UNL A   1      38.345  30.693  32.423  1.00  0.00     0.012 A 
ATOM     74  C   UNL A   1      37.406  31.570  30.362  1.00  0.00     0.148 A 
ATOM     75  C   UNL A   1      37.174  31.026  33.106  1.00  0.00     0.002 A 
ATOM     76  C   UNL A   1      36.266  31.953  31.059  1.00  0.00     0.091 A 
ATOM     77  F   UNL A   1      37.539  31.792  29.047  1.00  0.00    -0.205 F 
ATOM     78  C   UNL A   1      36.139  31.665  32.427  1.00  0.00     0.022 A 
BRANCH  76  79
ATOM     79  S   UNL A   1      34.942  32.897  30.297  1.00  0.00     0.127 S 
ATOM     80  O   UNL A   1      34.027  33.089  31.419  1.00  0.00    -0.237 OA
ATOM     81  O   UNL A   1      35.647  34.105  29.862  1.00  0.00    -0.237 OA
ATOM     82  O   UNL A   1      34.442  32.069  29.208  1.00  0.00    -0.744 OA
ENDBRANCH  76  79
ENDBRANCH  48  72
BRANCH  60  83
ATOM     83  C   UNL A   1      44.481  34.273  29.799  1.00  0.00     0.023 A 
ATOM     84  C   UNL A   1      45.191  34.519  30.991  1.00  0.00     0.012 A 
ATOM     85  C   UNL A   1      44.295  35.321  28.876  1.00  0.00     0.148 A 
ATOM     86  C   UNL A   1      45.676  35.796  31.275  1.00  0.00     0.002 A 
ATOM     87  C   UNL A   1      44.826  36.577  29.142  1.00  0.00     0.091 A 
ATOM     88  F   UNL A   1      43.602  35.070  27.756  1.00  0.00    -0.205 F 
ATOM     89  C   UNL A   1      45.505  36.820  30.346  1.00  0.00     0.022 A 
BRANCH  87  90
ATOM     90  S   UNL A   1      44.742  37.929  27.962  1.00  0.00     0.127 S 
ATOM     91  O   UNL A   1      43.298  38.119  27.831  1.00  0.00    -0.237 OA
ATOM     92  O   UNL A   1      45.436  39.002  28.674  1.00  0.00    -0.237 OA
ATOM     93  O   UNL A   1      45.421  37.460  26.761  1.00  0.00    -0.744 OA
ENDBRANCH  87  90
ENDBRANCH  60  83
ENDBRANCH  34  35
ENDBRANCH  26  29
ENDBRANCH  24  25
ENDBRANCH   1  24
TORSDOF 16
ENDMDL
