MODEL 1
REMARK VINA RESULT:     -12.6      0.000      0.000
REMARK SMILES O=C(CCCN1C(=O)c2ccc3c4c(ccc(c24)C1=O)C(=O)NC3=O)NCCCCNC(=O)c1ccc(-c2c3nc(c(-c4cccc(S(=O)(=O)[O-])c4F)c4ccc([nH]4)c(-c4cccc(S(=O)(=O)[O-])c4F)c4nc(c(-c5cccc(S(=O)(=O)[O-])c5F)c5ccc2[nH]5)C=C4)C=C3)cc1
REMARK SMILES IDX 28 1 27 2 26 3 1 4 2 5 3 7 4 8 5 9 6 10 19 11 7 12 20 13
REMARK SMILES IDX 17 14 9 15 8 16 16 17 18 18 10 19 15 20 13 21 11 22 14 23
REMARK SMILES IDX 12 24 21 25 24 26 23 27 22 28 25 29 29 31 30 32 31 33 32 34
REMARK SMILES IDX 33 36 34 37 35 38 96 39 36 40 95 41 37 42 38 43 39 44 89 45
REMARK SMILES IDX 40 46 94 47 88 48 90 49 41 50 93 51 87 52 86 53 42 55 74 56
REMARK SMILES IDX 54 57 73 58 55 59 58 60 72 61 91 62 56 63 57 64 71 66 92 67
REMARK SMILES IDX 59 68 43 69 44 70 52 71 45 72 47 73 53 74 46 75 48 76 49 77
REMARK SMILES IDX 50 78 51 79 75 80 76 81 84 82 77 83 79 84 85 85 78 86 80 87
REMARK SMILES IDX 81 88 82 89 83 90 60 91 61 92 69 93 62 94 64 95 70 96 63 97
REMARK SMILES IDX 65 98 66 99 67 100 68 101
REMARK H PARENT 26 6 23 30 31 35 90 54 58 65
REMARK Flexibility Score: inf
ROOT
ATOM      1  C   UNL A   1      34.026  28.606  23.082  1.00  0.00     0.023 C 
ENDROOT
BRANCH   1   2
ATOM      2  C   UNL A   1      33.659  27.373  22.248  1.00  0.00     0.116 C 
BRANCH   2   3
ATOM      3  N   UNL A   1      32.720  26.500  22.923  1.00  0.00    -0.356 N 
ATOM      4  O   UNL A   1      30.850  27.092  21.738  1.00  0.00    -0.275 OA
ATOM      5  C   UNL A   1      31.382  26.434  22.628  1.00  0.00     0.220 C 
ATOM      6  H   UNL A   1      33.063  25.918  23.639  1.00  0.00     0.163 HD
BRANCH   5   7
ATOM      7  C   UNL A   1      30.568  25.515  23.532  1.00  0.00     0.102 C 
BRANCH   7   8
ATOM      8  C   UNL A   1      30.146  26.110  24.878  1.00  0.00     0.032 C 
BRANCH   8   9
ATOM      9  C   UNL A   1      30.871  25.602  26.135  1.00  0.00     0.130 C 
BRANCH   9  10
ATOM     10  N   UNL A   1      31.850  24.534  25.891  1.00  0.00    -0.274 N 
ATOM     11  C   UNL A   1      33.205  24.856  25.818  1.00  0.00     0.261 C 
ATOM     12  C   UNL A   1      31.365  23.238  25.827  1.00  0.00     0.261 C 
ATOM     13  O   UNL A   1      33.633  26.005  25.879  1.00  0.00    -0.269 OA
ATOM     14  C   UNL A   1      34.158  23.722  25.641  1.00  0.00     0.049 A 
ATOM     15  C   UNL A   1      32.306  22.144  25.542  1.00  0.00     0.049 A 
ATOM     16  O   UNL A   1      30.177  22.971  25.988  1.00  0.00    -0.269 OA
ATOM     17  C   UNL A   1      35.536  23.967  25.601  1.00  0.00     0.015 A 
ATOM     18  C   UNL A   1      33.673  22.417  25.487  1.00  0.00     0.009 A 
ATOM     19  C   UNL A   1      31.818  20.845  25.343  1.00  0.00     0.015 A 
ATOM     20  C   UNL A   1      36.428  22.910  25.400  1.00  0.00     0.015 A 
ATOM     21  C   UNL A   1      34.574  21.346  25.261  1.00  0.00     0.009 A 
ATOM     22  C   UNL A   1      32.698  19.799  25.092  1.00  0.00     0.015 A 
ATOM     23  C   UNL A   1      35.949  21.605  25.229  1.00  0.00     0.048 A 
ATOM     24  C   UNL A   1      34.071  20.052  25.053  1.00  0.00     0.048 A 
ATOM     25  C   UNL A   1      36.896  20.484  25.004  1.00  0.00     0.258 C 
ATOM     26  C   UNL A   1      35.001  18.948  24.738  1.00  0.00     0.258 C 
ATOM     27  N   UNL A   1      36.337  19.232  24.885  1.00  0.00    -0.288 N 
ATOM     28  O   UNL A   1      38.092  20.704  24.854  1.00  0.00    -0.269 OA
ATOM     29  O   UNL A   1      34.577  17.907  24.249  1.00  0.00    -0.269 OA
ATOM     30  H   UNL A   1      36.954  18.466  24.908  1.00  0.00     0.173 HD
ENDBRANCH   9  10
ENDBRANCH   8   9
ENDBRANCH   7   8
ENDBRANCH   5   7
ENDBRANCH   2   3
ENDBRANCH   1   2
BRANCH   1  31
ATOM     31  C   UNL A   1      32.892  29.329  23.822  1.00  0.00     0.023 C 
BRANCH  31  32
ATOM     32  C   UNL A   1      33.020  29.448  25.337  1.00  0.00     0.116 C 
BRANCH  32  33
ATOM     33  N   UNL A   1      32.702  30.796  25.782  1.00  0.00    -0.352 N 
ATOM     34  C   UNL A   1      33.166  31.483  26.877  1.00  0.00     0.251 C 
ATOM     35  H   UNL A   1      32.063  31.287  25.216  1.00  0.00     0.163 HD
ATOM     36  O   UNL A   1      32.571  32.492  27.249  1.00  0.00    -0.269 OA
BRANCH  34  37
ATOM     37  C   UNL A   1      34.369  31.024  27.618  1.00  0.00     0.039 A 
ATOM     38  C   UNL A   1      35.412  31.929  27.836  1.00  0.00     0.014 A 
ATOM     39  C   UNL A   1      34.506  29.699  28.043  1.00  0.00     0.014 A 
ATOM     40  C   UNL A   1      36.567  31.520  28.511  1.00  0.00     0.010 A 
ATOM     41  C   UNL A   1      35.631  29.310  28.774  1.00  0.00     0.010 A 
ATOM     42  C   UNL A   1      36.681  30.212  29.010  1.00  0.00    -0.014 A 
BRANCH  42  43
ATOM     43  C   UNL A   1      37.881  29.783  29.782  1.00  0.00     0.031 A 
ATOM     44  C   UNL A   1      38.147  30.330  31.161  1.00  0.00     0.074 A 
ATOM     45  C   UNL A   1      38.777  28.949  29.217  1.00  0.00     0.049 A 
ATOM     46  N   UNL A   1      39.162  30.105  31.957  1.00  0.00    -0.248 NA
ATOM     47  C   UNL A   1      37.156  31.268  31.710  1.00  0.00     0.031 C 
ATOM     48  C   UNL A   1      38.680  28.396  27.865  1.00  0.00     0.029 A 
ATOM     49  N   UNL A   1      39.959  28.439  29.698  1.00  0.00    -0.354 N 
ATOM     50  C   UNL A   1      38.949  30.893  33.083  1.00  0.00     0.074 A 
ATOM     51  C   UNL A   1      37.726  31.630  32.851  1.00  0.00     0.031 C 
ATOM     52  C   UNL A   1      39.755  27.630  27.623  1.00  0.00     0.029 A 
ATOM     53  C   UNL A   1      40.636  27.661  28.787  1.00  0.00     0.049 A 
ATOM     54  H   UNL A   1      40.291  28.615  30.608  1.00  0.00     0.167 HD
ATOM     55  C   UNL A   1      39.687  30.979  34.217  1.00  0.00     0.034 A 
ATOM     56  C   UNL A   1      41.836  27.055  28.867  1.00  0.00     0.034 A 
ATOM     57  C   UNL A   1      40.890  30.228  34.460  1.00  0.00     0.049 A 
ATOM     58  C   UNL A   1      42.628  27.147  30.144  1.00  0.00     0.074 A 
ATOM     59  C   UNL A   1      41.664  30.193  35.608  1.00  0.00     0.029 A 
ATOM     60  N   UNL A   1      41.504  29.393  33.542  1.00  0.00    -0.354 N 
ATOM     61  N   UNL A   1      42.334  27.784  31.251  1.00  0.00    -0.248 NA
ATOM     62  C   UNL A   1      43.897  26.407  30.196  1.00  0.00     0.031 C 
ATOM     63  C   UNL A   1      42.766  29.365  35.370  1.00  0.00     0.029 A 
ATOM     64  C   UNL A   1      42.655  28.849  34.089  1.00  0.00     0.049 A 
ATOM     65  H   UNL A   1      41.171  29.212  32.632  1.00  0.00     0.167 HD
ATOM     66  C   UNL A   1      43.362  27.494  32.142  1.00  0.00     0.074 A 
ATOM     67  C   UNL A   1      44.275  26.607  31.452  1.00  0.00     0.031 C 
ATOM     68  C   UNL A   1      43.537  27.932  33.413  1.00  0.00     0.034 A 
BRANCH  55  69
ATOM     69  C   UNL A   1      39.191  31.897  35.307  1.00  0.00     0.023 A 
ATOM     70  C   UNL A   1      38.233  31.431  36.231  1.00  0.00     0.012 A 
ATOM     71  C   UNL A   1      39.714  33.197  35.455  1.00  0.00     0.148 A 
ATOM     72  C   UNL A   1      37.773  32.255  37.258  1.00  0.00     0.002 A 
ATOM     73  C   UNL A   1      39.288  33.995  36.510  1.00  0.00     0.091 A 
ATOM     74  F   UNL A   1      40.613  33.630  34.560  1.00  0.00    -0.205 F 
ATOM     75  C   UNL A   1      38.308  33.532  37.403  1.00  0.00     0.022 A 
BRANCH  73  76
ATOM     76  S   UNL A   1      39.974  35.624  36.833  1.00  0.00     0.127 S 
ATOM     77  O   UNL A   1      39.284  35.995  38.069  1.00  0.00    -0.237 OA
ATOM     78  O   UNL A   1      41.398  35.330  36.996  1.00  0.00    -0.237 OA
ATOM     79  O   UNL A   1      39.649  36.435  35.670  1.00  0.00    -0.744 OA
ENDBRANCH  73  76
ENDBRANCH  55  69
BRANCH  56  80
ATOM     80  C   UNL A   1      42.348  26.270  27.708  1.00  0.00     0.023 A 
ATOM     81  C   UNL A   1      43.252  26.864  26.807  1.00  0.00     0.012 A 
ATOM     82  C   UNL A   1      41.959  24.930  27.510  1.00  0.00     0.148 A 
ATOM     83  C   UNL A   1      43.735  26.149  25.710  1.00  0.00     0.002 A 
ATOM     84  C   UNL A   1      42.487  24.205  26.450  1.00  0.00     0.091 A 
ATOM     85  F   UNL A   1      41.091  24.385  28.374  1.00  0.00    -0.205 F 
ATOM     86  C   UNL A   1      43.361  24.817  25.537  1.00  0.00     0.022 A 
BRANCH  84  87
ATOM     87  S   UNL A   1      42.167  22.451  26.234  1.00  0.00     0.127 S 
ATOM     88  O   UNL A   1      42.897  22.158  25.004  1.00  0.00    -0.237 OA
ATOM     89  O   UNL A   1      42.755  21.888  27.448  1.00  0.00    -0.237 OA
ATOM     90  O   UNL A   1      40.717  22.311  26.148  1.00  0.00    -0.744 OA
ENDBRANCH  84  87
ENDBRANCH  56  80
BRANCH  68  91
ATOM     91  C   UNL A   1      44.743  27.432  34.169  1.00  0.00     0.023 A 
ATOM     92  C   UNL A   1      45.942  28.173  34.160  1.00  0.00     0.012 A 
ATOM     93  C   UNL A   1      44.663  26.259  34.944  1.00  0.00     0.148 A 
ATOM     94  C   UNL A   1      47.051  27.735  34.882  1.00  0.00     0.002 A 
ATOM     95  C   UNL A   1      45.754  25.857  35.704  1.00  0.00     0.091 A 
ATOM     96  F   UNL A   1      43.520  25.557  34.927  1.00  0.00    -0.205 F 
ATOM     97  C   UNL A   1      46.955  26.585  35.663  1.00  0.00     0.022 A 
BRANCH  95  98
ATOM     98  S   UNL A   1      45.693  24.446  36.814  1.00  0.00     0.127 S 
ATOM     99  O   UNL A   1      45.290  23.372  35.908  1.00  0.00    -0.237 OA
ATOM    100  O   UNL A   1      47.075  24.363  37.283  1.00  0.00    -0.237 OA
ATOM    101  O   UNL A   1      44.723  24.787  37.846  1.00  0.00    -0.744 OA
ENDBRANCH  95  98
ENDBRANCH  68  91
ENDBRANCH  42  43
ENDBRANCH  34  37
ENDBRANCH  32  33
ENDBRANCH  31  32
ENDBRANCH   1  31
TORSDOF 17
ENDMDL
MODEL 2
REMARK VINA RESULT:     -12.4      2.033      3.100
REMARK SMILES O=C(CCCN1C(=O)c2ccc3c4c(ccc(c24)C1=O)C(=O)NC3=O)NCCCCNC(=O)c1ccc(-c2c3nc(c(-c4cccc(S(=O)(=O)[O-])c4F)c4ccc([nH]4)c(-c4cccc(S(=O)(=O)[O-])c4F)c4nc(c(-c5cccc(S(=O)(=O)[O-])c5F)c5ccc2[nH]5)C=C4)C=C3)cc1
REMARK SMILES IDX 28 1 27 2 26 3 1 4 2 5 3 7 4 8 5 9 6 10 19 11 7 12 20 13
REMARK SMILES IDX 17 14 9 15 8 16 16 17 18 18 10 19 15 20 13 21 11 22 14 23
REMARK SMILES IDX 12 24 21 25 24 26 23 27 22 28 25 29 29 31 30 32 31 33 32 34
REMARK SMILES IDX 33 36 34 37 35 38 96 39 36 40 95 41 37 42 38 43 39 44 89 45
REMARK SMILES IDX 40 46 94 47 88 48 90 49 41 50 93 51 87 52 86 53 42 55 74 56
REMARK SMILES IDX 54 57 73 58 55 59 58 60 72 61 91 62 56 63 57 64 71 66 92 67
REMARK SMILES IDX 59 68 43 69 44 70 52 71 45 72 47 73 53 74 46 75 48 76 49 77
REMARK SMILES IDX 50 78 51 79 75 80 76 81 84 82 77 83 79 84 85 85 78 86 80 87
REMARK SMILES IDX 81 88 82 89 83 90 60 91 61 92 69 93 62 94 64 95 70 96 63 97
REMARK SMILES IDX 65 98 66 99 67 100 68 101
REMARK H PARENT 26 6 23 30 31 35 90 54 58 65
REMARK Flexibility Score: inf
ROOT
ATOM      1  C   UNL A   1      33.730  27.563  23.475  1.00  0.00     0.023 C 
ENDROOT
BRANCH   1   2
ATOM      2  C   UNL A   1      32.531  27.355  22.541  1.00  0.00     0.116 C 
BRANCH   2   3
ATOM      3  N   UNL A   1      31.398  26.749  23.211  1.00  0.00    -0.356 N 
ATOM      4  O   UNL A   1      30.417  28.682  23.954  1.00  0.00    -0.275 OA
ATOM      5  C   UNL A   1      30.432  27.456  23.880  1.00  0.00     0.220 C 
ATOM      6  H   UNL A   1      31.317  25.769  23.185  1.00  0.00     0.163 HD
BRANCH   5   7
ATOM      7  C   UNL A   1      29.387  26.604  24.591  1.00  0.00     0.102 C 
BRANCH   7   8
ATOM      8  C   UNL A   1      29.709  25.111  24.703  1.00  0.00     0.032 C 
BRANCH   8   9
ATOM      9  C   UNL A   1      30.333  24.619  26.019  1.00  0.00     0.130 C 
BRANCH   9  10
ATOM     10  N   UNL A   1      31.607  23.904  25.866  1.00  0.00    -0.274 N 
ATOM     11  C   UNL A   1      31.593  22.526  25.651  1.00  0.00     0.261 C 
ATOM     12  C   UNL A   1      32.763  24.669  25.864  1.00  0.00     0.261 C 
ATOM     13  O   UNL A   1      30.568  21.851  25.648  1.00  0.00    -0.269 OA
ATOM     14  C   UNL A   1      32.912  21.865  25.431  1.00  0.00     0.049 A 
ATOM     15  C   UNL A   1      34.061  23.987  25.756  1.00  0.00     0.049 A 
ATOM     16  O   UNL A   1      32.741  25.893  25.961  1.00  0.00    -0.269 OA
ATOM     17  C   UNL A   1      32.970  20.491  25.169  1.00  0.00     0.015 A 
ATOM     18  C   UNL A   1      34.093  22.614  25.515  1.00  0.00     0.009 A 
ATOM     19  C   UNL A   1      35.245  24.728  25.885  1.00  0.00     0.015 A 
ATOM     20  C   UNL A   1      34.208  19.864  24.998  1.00  0.00     0.015 A 
ATOM     21  C   UNL A   1      35.351  21.977  25.363  1.00  0.00     0.009 A 
ATOM     22  C   UNL A   1      36.479  24.100  25.766  1.00  0.00     0.015 A 
ATOM     23  C   UNL A   1      35.393  20.604  25.096  1.00  0.00     0.048 A 
ATOM     24  C   UNL A   1      36.528  22.729  25.505  1.00  0.00     0.048 A 
ATOM     25  C   UNL A   1      36.709  19.936  24.925  1.00  0.00     0.258 C 
ATOM     26  C   UNL A   1      37.840  22.054  25.428  1.00  0.00     0.258 C 
ATOM     27  N   UNL A   1      37.816  20.749  25.001  1.00  0.00    -0.288 N 
ATOM     28  O   UNL A   1      36.774  18.718  24.809  1.00  0.00    -0.269 OA
ATOM     29  O   UNL A   1      38.844  22.611  25.855  1.00  0.00    -0.269 OA
ATOM     30  H   UNL A   1      38.675  20.357  24.722  1.00  0.00     0.173 HD
ENDBRANCH   9  10
ENDBRANCH   8   9
ENDBRANCH   7   8
ENDBRANCH   5   7
ENDBRANCH   2   3
ENDBRANCH   1   2
BRANCH   1  31
ATOM     31  C   UNL A   1      33.815  28.893  24.236  1.00  0.00     0.023 C 
BRANCH  31  32
ATOM     32  C   UNL A   1      34.208  28.823  25.709  1.00  0.00     0.116 C 
BRANCH  32  33
ATOM     33  N   UNL A   1      33.887  30.066  26.393  1.00  0.00    -0.352 N 
ATOM     34  C   UNL A   1      34.463  30.617  27.512  1.00  0.00     0.251 C 
ATOM     35  H   UNL A   1      33.151  30.587  25.997  1.00  0.00     0.163 HD
ATOM     36  O   UNL A   1      33.875  31.517  28.108  1.00  0.00    -0.269 OA
BRANCH  34  37
ATOM     37  C   UNL A   1      35.778  30.142  28.011  1.00  0.00     0.039 A 
ATOM     38  C   UNL A   1      35.837  29.508  29.257  1.00  0.00     0.014 A 
ATOM     39  C   UNL A   1      36.959  30.370  27.298  1.00  0.00     0.014 A 
ATOM     40  C   UNL A   1      37.064  29.068  29.764  1.00  0.00     0.010 A 
ATOM     41  C   UNL A   1      38.174  29.872  27.776  1.00  0.00     0.010 A 
ATOM     42  C   UNL A   1      38.245  29.223  29.019  1.00  0.00    -0.014 A 
BRANCH  42  43
ATOM     43  C   UNL A   1      39.548  28.706  29.523  1.00  0.00     0.031 A 
ATOM     44  C   UNL A   1      40.290  29.422  30.622  1.00  0.00     0.074 A 
ATOM     45  C   UNL A   1      40.106  27.623  28.944  1.00  0.00     0.049 A 
ATOM     46  N   UNL A   1      41.455  29.141  31.151  1.00  0.00    -0.248 NA
ATOM     47  C   UNL A   1      39.652  30.621  31.187  1.00  0.00     0.031 C 
ATOM     48  C   UNL A   1      39.530  26.872  27.827  1.00  0.00     0.029 A 
ATOM     49  N   UNL A   1      41.293  26.980  29.198  1.00  0.00    -0.354 N 
ATOM     50  C   UNL A   1      41.703  30.142  32.085  1.00  0.00     0.074 A 
ATOM     51  C   UNL A   1      40.583  31.056  32.025  1.00  0.00     0.031 C 
ATOM     52  C   UNL A   1      40.364  25.876  27.490  1.00  0.00     0.029 A 
ATOM     53  C   UNL A   1      41.549  25.934  28.341  1.00  0.00     0.049 A 
ATOM     54  H   UNL A   1      41.904  27.243  29.924  1.00  0.00     0.167 HD
ATOM     55  C   UNL A   1      42.751  30.277  32.934  1.00  0.00     0.034 A 
ATOM     56  C   UNL A   1      42.620  25.123  28.236  1.00  0.00     0.034 A 
ATOM     57  C   UNL A   1      43.853  29.354  33.014  1.00  0.00     0.049 A 
ATOM     58  C   UNL A   1      43.762  25.278  29.203  1.00  0.00     0.074 A 
ATOM     59  C   UNL A   1      44.922  29.367  33.893  1.00  0.00     0.029 A 
ATOM     60  N   UNL A   1      44.039  28.265  32.179  1.00  0.00    -0.354 N 
ATOM     61  N   UNL A   1      43.907  26.145  30.175  1.00  0.00    -0.248 NA
ATOM     62  C   UNL A   1      44.871  24.320  29.083  1.00  0.00     0.031 C 
ATOM     63  C   UNL A   1      45.773  28.307  33.565  1.00  0.00     0.029 A 
ATOM     64  C   UNL A   1      45.212  27.606  32.510  1.00  0.00     0.049 A 
ATOM     65  H   UNL A   1      43.426  27.997  31.455  1.00  0.00     0.167 HD
ATOM     66  C   UNL A   1      45.103  25.817  30.804  1.00  0.00     0.074 A 
ATOM     67  C   UNL A   1      45.632  24.657  30.116  1.00  0.00     0.031 C 
ATOM     68  C   UNL A   1      45.712  26.427  31.850  1.00  0.00     0.034 A 
BRANCH  55  69
ATOM     69  C   UNL A   1      42.740  31.452  33.880  1.00  0.00     0.023 A 
ATOM     70  C   UNL A   1      43.274  32.689  33.463  1.00  0.00     0.012 A 
ATOM     71  C   UNL A   1      42.150  31.352  35.155  1.00  0.00     0.148 A 
ATOM     72  C   UNL A   1      43.260  33.794  34.314  1.00  0.00     0.002 A 
ATOM     73  C   UNL A   1      42.094  32.470  35.979  1.00  0.00     0.091 A 
ATOM     74  F   UNL A   1      41.660  30.166  35.542  1.00  0.00    -0.205 F 
ATOM     75  C   UNL A   1      42.661  33.687  35.566  1.00  0.00     0.022 A 
BRANCH  73  76
ATOM     76  S   UNL A   1      41.274  32.459  37.576  1.00  0.00     0.127 S 
ATOM     77  O   UNL A   1      41.326  33.873  37.945  1.00  0.00    -0.237 OA
ATOM     78  O   UNL A   1      39.938  31.969  37.231  1.00  0.00    -0.237 OA
ATOM     79  O   UNL A   1      42.050  31.564  38.422  1.00  0.00    -0.744 OA
ENDBRANCH  73  76
ENDBRANCH  55  69
BRANCH  56  80
ATOM     80  C   UNL A   1      42.643  24.061  27.191  1.00  0.00     0.023 A 
ATOM     81  C   UNL A   1      43.236  24.324  25.941  1.00  0.00     0.012 A 
ATOM     82  C   UNL A   1      42.102  22.784  27.441  1.00  0.00     0.148 A 
ATOM     83  C   UNL A   1      43.260  23.345  24.947  1.00  0.00     0.002 A 
ATOM     84  C   UNL A   1      42.180  21.796  26.469  1.00  0.00     0.091 A 
ATOM     85  F   UNL A   1      41.537  22.556  28.635  1.00  0.00    -0.205 F 
ATOM     86  C   UNL A   1      42.741  22.079  25.214  1.00  0.00     0.022 A 
BRANCH  84  87
ATOM     87  S   UNL A   1      41.664  20.103  26.778  1.00  0.00     0.127 S 
ATOM     88  O   UNL A   1      42.548  19.711  27.871  1.00  0.00    -0.237 OA
ATOM     89  O   UNL A   1      40.263  20.281  27.152  1.00  0.00    -0.237 OA
ATOM     90  O   UNL A   1      41.865  19.384  25.524  1.00  0.00    -0.744 OA
ENDBRANCH  84  87
ENDBRANCH  56  80
BRANCH  68  91
ATOM     91  C   UNL A   1      47.005  25.836  32.353  1.00  0.00     0.023 A 
ATOM     92  C   UNL A   1      48.235  26.260  31.811  1.00  0.00     0.012 A 
ATOM     93  C   UNL A   1      47.002  24.910  33.415  1.00  0.00     0.148 A 
ATOM     94  C   UNL A   1      49.438  25.742  32.292  1.00  0.00     0.002 A 
ATOM     95  C   UNL A   1      48.205  24.440  33.926  1.00  0.00     0.091 A 
ATOM     96  F   UNL A   1      45.821  24.505  33.907  1.00  0.00    -0.205 F 
ATOM     97  C   UNL A   1      49.424  24.843  33.356  1.00  0.00     0.022 A 
BRANCH  95  98
ATOM     98  S   UNL A   1      48.291  23.355  35.355  1.00  0.00     0.127 S 
ATOM     99  O   UNL A   1      47.627  22.152  34.857  1.00  0.00    -0.237 OA
ATOM    100  O   UNL A   1      49.733  23.220  35.553  1.00  0.00    -0.237 OA
ATOM    101  O   UNL A   1      47.595  24.050  36.430  1.00  0.00    -0.744 OA
ENDBRANCH  95  98
ENDBRANCH  68  91
ENDBRANCH  42  43
ENDBRANCH  34  37
ENDBRANCH  32  33
ENDBRANCH  31  32
ENDBRANCH   1  31
TORSDOF 17
ENDMDL
MODEL 3
REMARK VINA RESULT:     -12.4      0.538      7.501
REMARK SMILES O=C(CCCN1C(=O)c2ccc3c4c(ccc(c24)C1=O)C(=O)NC3=O)NCCCCNC(=O)c1ccc(-c2c3nc(c(-c4cccc(S(=O)(=O)[O-])c4F)c4ccc([nH]4)c(-c4cccc(S(=O)(=O)[O-])c4F)c4nc(c(-c5cccc(S(=O)(=O)[O-])c5F)c5ccc2[nH]5)C=C4)C=C3)cc1
REMARK SMILES IDX 28 1 27 2 26 3 1 4 2 5 3 7 4 8 5 9 6 10 19 11 7 12 20 13
REMARK SMILES IDX 17 14 9 15 8 16 16 17 18 18 10 19 15 20 13 21 11 22 14 23
REMARK SMILES IDX 12 24 21 25 24 26 23 27 22 28 25 29 29 31 30 32 31 33 32 34
REMARK SMILES IDX 33 36 34 37 35 38 96 39 36 40 95 41 37 42 38 43 39 44 89 45
REMARK SMILES IDX 40 46 94 47 88 48 90 49 41 50 93 51 87 52 86 53 42 55 74 56
REMARK SMILES IDX 54 57 73 58 55 59 58 60 72 61 91 62 56 63 57 64 71 66 92 67
REMARK SMILES IDX 59 68 43 69 44 70 52 71 45 72 47 73 53 74 46 75 48 76 49 77
REMARK SMILES IDX 50 78 51 79 75 80 76 81 84 82 77 83 79 84 85 85 78 86 80 87
REMARK SMILES IDX 81 88 82 89 83 90 60 91 61 92 69 93 62 94 64 95 70 96 63 97
REMARK SMILES IDX 65 98 66 99 67 100 68 101
REMARK H PARENT 26 6 23 30 31 35 90 54 58 65
REMARK Flexibility Score: inf
ROOT
ATOM      1  C   UNL A   1      33.936  28.543  22.755  1.00  0.00     0.023 C 
ENDROOT
BRANCH   1   2
ATOM      2  C   UNL A   1      33.784  27.141  22.152  1.00  0.00     0.116 C 
BRANCH   2   3
ATOM      3  N   UNL A   1      32.833  26.320  22.874  1.00  0.00    -0.356 N 
ATOM      4  O   UNL A   1      31.028  26.672  21.507  1.00  0.00    -0.275 OA
ATOM      5  C   UNL A   1      31.522  26.157  22.507  1.00  0.00     0.220 C 
ATOM      6  H   UNL A   1      33.149  25.850  23.679  1.00  0.00     0.163 HD
BRANCH   5   7
ATOM      7  C   UNL A   1      30.682  25.325  23.471  1.00  0.00     0.102 C 
BRANCH   7   8
ATOM      8  C   UNL A   1      30.334  25.998  24.801  1.00  0.00     0.032 C 
BRANCH   8   9
ATOM      9  C   UNL A   1      31.059  25.493  26.060  1.00  0.00     0.130 C 
BRANCH   9  10
ATOM     10  N   UNL A   1      32.006  24.395  25.826  1.00  0.00    -0.274 N 
ATOM     11  C   UNL A   1      33.372  24.672  25.779  1.00  0.00     0.261 C 
ATOM     12  C   UNL A   1      31.479  23.116  25.745  1.00  0.00     0.261 C 
ATOM     13  O   UNL A   1      33.836  25.805  25.856  1.00  0.00    -0.269 OA
ATOM     14  C   UNL A   1      34.290  23.508  25.611  1.00  0.00     0.049 A 
ATOM     15  C   UNL A   1      32.388  21.993  25.470  1.00  0.00     0.049 A 
ATOM     16  O   UNL A   1      30.280  22.888  25.883  1.00  0.00    -0.269 OA
ATOM     17  C   UNL A   1      35.675  23.707  25.597  1.00  0.00     0.015 A 
ATOM     18  C   UNL A   1      33.764  22.220  25.441  1.00  0.00     0.009 A 
ATOM     19  C   UNL A   1      31.861  20.712  25.253  1.00  0.00     0.015 A 
ATOM     20  C   UNL A   1      36.536  22.621  25.405  1.00  0.00     0.015 A 
ATOM     21  C   UNL A   1      34.633  21.121  25.223  1.00  0.00     0.009 A 
ATOM     22  C   UNL A   1      32.710  19.638  25.011  1.00  0.00     0.015 A 
ATOM     23  C   UNL A   1      36.016  21.335  25.217  1.00  0.00     0.048 A 
ATOM     24  C   UNL A   1      34.090  19.846  24.998  1.00  0.00     0.048 A 
ATOM     25  C   UNL A   1      36.929  20.183  25.001  1.00  0.00     0.258 C 
ATOM     26  C   UNL A   1      34.989  18.714  24.691  1.00  0.00     0.258 C 
ATOM     27  N   UNL A   1      36.331  18.951  24.864  1.00  0.00    -0.288 N 
ATOM     28  O   UNL A   1      38.134  20.364  24.874  1.00  0.00    -0.269 OA
ATOM     29  O   UNL A   1      34.540  17.691  24.189  1.00  0.00    -0.269 OA
ATOM     30  H   UNL A   1      36.921  18.165  24.893  1.00  0.00     0.173 HD
ENDBRANCH   9  10
ENDBRANCH   8   9
ENDBRANCH   7   8
ENDBRANCH   5   7
ENDBRANCH   2   3
ENDBRANCH   1   2
BRANCH   1  31
ATOM     31  C   UNL A   1      32.871  29.004  23.760  1.00  0.00     0.023 C 
BRANCH  31  32
ATOM     32  C   UNL A   1      33.339  29.282  25.185  1.00  0.00     0.116 C 
BRANCH  32  33
ATOM     33  N   UNL A   1      32.756  30.513  25.694  1.00  0.00    -0.352 N 
ATOM     34  C   UNL A   1      33.055  31.209  26.840  1.00  0.00     0.251 C 
ATOM     35  H   UNL A   1      32.044  30.904  25.136  1.00  0.00     0.163 HD
ATOM     36  O   UNL A   1      32.268  32.059  27.248  1.00  0.00    -0.269 OA
BRANCH  34  37
ATOM     37  C   UNL A   1      34.309  30.947  27.591  1.00  0.00     0.039 A 
ATOM     38  C   UNL A   1      34.491  29.692  28.182  1.00  0.00     0.014 A 
ATOM     39  C   UNL A   1      35.276  31.940  27.774  1.00  0.00     0.014 A 
ATOM     40  C   UNL A   1      35.652  29.422  28.914  1.00  0.00     0.010 A 
ATOM     41  C   UNL A   1      36.463  31.648  28.449  1.00  0.00     0.010 A 
ATOM     42  C   UNL A   1      36.663  30.389  29.037  1.00  0.00    -0.014 A 
BRANCH  42  43
ATOM     43  C   UNL A   1      37.929  30.092  29.764  1.00  0.00     0.031 A 
ATOM     44  C   UNL A   1      38.942  29.133  29.191  1.00  0.00     0.074 A 
ATOM     45  C   UNL A   1      38.144  30.631  30.981  1.00  0.00     0.049 A 
ATOM     46  N   UNL A   1      40.073  28.723  29.706  1.00  0.00    -0.248 NA
ATOM     47  C   UNL A   1      38.635  28.544  27.879  1.00  0.00     0.031 C 
ATOM     48  C   UNL A   1      37.219  31.521  31.685  1.00  0.00     0.029 A 
ATOM     49  N   UNL A   1      39.196  30.491  31.854  1.00  0.00    -0.354 N 
ATOM     50  C   UNL A   1      40.597  27.807  28.800  1.00  0.00     0.074 A 
ATOM     51  C   UNL A   1      39.641  27.695  27.719  1.00  0.00     0.031 C 
ATOM     52  C   UNL A   1      37.740  31.844  32.879  1.00  0.00     0.029 A 
ATOM     53  C   UNL A   1      39.019  31.160  33.043  1.00  0.00     0.049 A 
ATOM     54  H   UNL A   1      39.999  29.961  31.648  1.00  0.00     0.167 HD
ATOM     55  C   UNL A   1      41.775  27.137  28.846  1.00  0.00     0.034 A 
ATOM     56  C   UNL A   1      39.786  31.206  34.151  1.00  0.00     0.034 A 
ATOM     57  C   UNL A   1      42.739  27.265  29.907  1.00  0.00     0.049 A 
ATOM     58  C   UNL A   1      41.099  30.472  34.171  1.00  0.00     0.074 A 
ATOM     59  C   UNL A   1      43.993  26.686  30.005  1.00  0.00     0.029 A 
ATOM     60  N   UNL A   1      42.556  28.011  31.060  1.00  0.00    -0.354 N 
ATOM     61  N   UNL A   1      41.641  29.726  33.239  1.00  0.00    -0.248 NA
ATOM     62  C   UNL A   1      41.925  30.616  35.379  1.00  0.00     0.031 C 
ATOM     63  C   UNL A   1      44.552  27.051  31.233  1.00  0.00     0.029 A 
ATOM     64  C   UNL A   1      43.665  27.895  31.882  1.00  0.00     0.049 A 
ATOM     65  H   UNL A   1      41.755  28.546  31.266  1.00  0.00     0.167 HD
ATOM     66  C   UNL A   1      42.883  29.341  33.733  1.00  0.00     0.074 A 
ATOM     67  C   UNL A   1      43.022  29.954  35.037  1.00  0.00     0.031 C 
ATOM     68  C   UNL A   1      43.818  28.543  33.160  1.00  0.00     0.034 A 
BRANCH  55  69
ATOM     69  C   UNL A   1      42.109  26.226  27.691  1.00  0.00     0.023 A 
ATOM     70  C   UNL A   1      42.863  26.721  26.606  1.00  0.00     0.012 A 
ATOM     71  C   UNL A   1      41.731  24.869  27.703  1.00  0.00     0.148 A 
ATOM     72  C   UNL A   1      43.199  25.894  25.536  1.00  0.00     0.002 A 
ATOM     73  C   UNL A   1      42.112  24.038  26.657  1.00  0.00     0.091 A 
ATOM     74  F   UNL A   1      41.002  24.418  28.734  1.00  0.00    -0.205 F 
ATOM     75  C   UNL A   1      42.833  24.551  25.566  1.00  0.00     0.022 A 
BRANCH  73  76
ATOM     76  S   UNL A   1      41.761  22.276  26.639  1.00  0.00     0.127 S 
ATOM     77  O   UNL A   1      42.374  21.866  25.376  1.00  0.00    -0.237 OA
ATOM     78  O   UNL A   1      42.464  21.812  27.836  1.00  0.00    -0.237 OA
ATOM     79  O   UNL A   1      40.312  22.154  26.698  1.00  0.00    -0.744 OA
ENDBRANCH  73  76
ENDBRANCH  55  69
BRANCH  56  80
ATOM     80  C   UNL A   1      39.345  32.012  35.323  1.00  0.00     0.023 A 
ATOM     81  C   UNL A   1      38.487  31.438  36.282  1.00  0.00     0.012 A 
ATOM     82  C   UNL A   1      39.791  33.336  35.504  1.00  0.00     0.148 A 
ATOM     83  C   UNL A   1      38.055  32.180  37.382  1.00  0.00     0.002 A 
ATOM     84  C   UNL A   1      39.404  34.050  36.630  1.00  0.00     0.091 A 
ATOM     85  F   UNL A   1      40.601  33.867  34.577  1.00  0.00    -0.205 F 
ATOM     86  C   UNL A   1      38.521  33.481  37.562  1.00  0.00     0.022 A 
BRANCH  84  87
ATOM     87  S   UNL A   1      40.066  35.677  37.009  1.00  0.00     0.127 S 
ATOM     88  O   UNL A   1      39.653  36.452  35.844  1.00  0.00    -0.237 OA
ATOM     89  O   UNL A   1      39.363  36.004  38.248  1.00  0.00    -0.237 OA
ATOM     90  O   UNL A   1      41.506  35.502  37.164  1.00  0.00    -0.744 OA
ENDBRANCH  84  87
ENDBRANCH  56  80
BRANCH  68  91
ATOM     91  C   UNL A   1      45.102  28.311  33.916  1.00  0.00     0.023 A 
ATOM     92  C   UNL A   1      46.183  29.203  33.765  1.00  0.00     0.012 A 
ATOM     93  C   UNL A   1      45.210  27.244  34.830  1.00  0.00     0.148 A 
ATOM     94  C   UNL A   1      47.363  29.014  34.485  1.00  0.00     0.002 A 
ATOM     95  C   UNL A   1      46.367  27.094  35.584  1.00  0.00     0.091 A 
ATOM     96  F   UNL A   1      44.178  26.396  34.948  1.00  0.00    -0.205 F 
ATOM     97  C   UNL A   1      47.451  27.970  35.402  1.00  0.00     0.022 A 
BRANCH  95  98
ATOM     98  S   UNL A   1      46.537  25.838  36.856  1.00  0.00     0.127 S 
ATOM     99  O   UNL A   1      45.436  26.175  37.756  1.00  0.00    -0.237 OA
ATOM    100  O   UNL A   1      46.348  24.603  36.097  1.00  0.00    -0.237 OA
ATOM    101  O   UNL A   1      47.871  26.008  37.415  1.00  0.00    -0.744 OA
ENDBRANCH  95  98
ENDBRANCH  68  91
ENDBRANCH  42  43
ENDBRANCH  34  37
ENDBRANCH  32  33
ENDBRANCH  31  32
ENDBRANCH   1  31
TORSDOF 17
ENDMDL
