MODEL 1
REMARK VINA RESULT:     -13.7      0.000      0.000
REMARK SMILES Cc1ccc(C)c(N2C(=O)S[C@H](CC(=O)Nc3ccc(C(=O)NCCCCNC(=O)c4ccc(-c5c6nc(c(-c7cccc(S(=O)(=O)[O-])c7F)c7ccc([nH]7)c(-c7cccc(S(=O)(=O)[O-])c7F)c7nc(c(-c8cccc(S(=O)(=O)[O-])c8F)c8ccc5[nH]8)C=C7)C=C6)cc4)c(O)c3)C2=O)c1
REMARK SMILES IDX 25 1 24 2 23 3 21 4 22 5 20 7 17 8 18 9 96 10 19 11 94 12
REMARK SMILES IDX 16 13 14 14 15 15 13 17 12 18 8 19 9 20 97 21 10 22 11 23
REMARK SMILES IDX 98 24 7 25 1 26 2 27 3 28 99 29 4 30 5 31 6 32 95 33 26 35
REMARK SMILES IDX 27 36 28 37 29 38 30 40 31 41 32 42 93 43 33 44 92 45 34 46
REMARK SMILES IDX 35 47 36 48 86 49 37 50 91 51 85 52 87 53 38 54 90 55 84 56
REMARK SMILES IDX 83 57 39 59 71 60 51 61 70 62 52 63 55 64 69 65 88 66 53 67
REMARK SMILES IDX 54 68 68 70 89 71 56 72 40 73 41 74 49 75 42 76 44 77 50 78
REMARK SMILES IDX 43 79 45 80 46 81 47 82 48 83 72 84 73 85 81 86 74 87 76 88
REMARK SMILES IDX 82 89 75 90 77 91 78 92 79 93 80 94 57 95 58 96 66 97 59 98
REMARK SMILES IDX 61 99 67 100 60 101 62 102 63 103 64 104 65 105
REMARK H PARENT 23 6 16 16 95 34 28 39 87 58 55 69
REMARK Flexibility Score: inf
ROOT
ATOM      1  C   UNL A   1      35.171  22.284  25.872  1.00  0.00     0.023 C 
ENDROOT
BRANCH   1   2
ATOM      2  C   UNL A   1      34.907  21.441  24.625  1.00  0.00     0.116 C 
BRANCH   2   3
ATOM      3  N   UNL A   1      33.871  20.435  24.688  1.00  0.00    -0.352 N 
ATOM      4  C   UNL A   1      32.496  20.567  24.722  1.00  0.00     0.255 C 
ATOM      5  O   UNL A   1      31.841  19.530  24.640  1.00  0.00    -0.269 OA
ATOM      6  H   UNL A   1      34.198  19.506  24.710  1.00  0.00     0.163 HD
BRANCH   4   7
ATOM      7  C   UNL A   1      31.769  21.854  24.964  1.00  0.00     0.081 A 
ATOM      8  C   UNL A   1      30.982  24.409  25.861  1.00  0.00     0.044 A 
ATOM      9  C   UNL A   1      30.833  23.292  26.665  1.00  0.00     0.027 A 
ATOM     10  C   UNL A   1      31.215  24.197  24.512  1.00  0.00     0.073 A 
ATOM     11  C   UNL A   1      31.287  22.040  26.261  1.00  0.00     0.020 A 
ATOM     12  C   UNL A   1      31.531  22.900  24.067  1.00  0.00     0.130 A 
BRANCH   8  13
ATOM     13  N   UNL A   1      30.808  25.694  26.402  1.00  0.00    -0.326 N 
ATOM     14  C   UNL A   1      31.791  26.646  26.610  1.00  0.00     0.226 C 
ATOM     15  O   UNL A   1      31.606  27.562  27.413  1.00  0.00    -0.275 OA
ATOM     16  H   UNL A   1      29.892  25.942  26.661  1.00  0.00     0.169 HD
BRANCH  14  17
ATOM     17  C   UNL A   1      32.984  26.681  25.654  1.00  0.00     0.125 C 
BRANCH  17  18
ATOM     18  C   UNL A   1      33.127  27.913  24.760  1.00  0.00     0.156 C 
ATOM     19  N   UNL A   1      31.076  28.155  23.539  1.00  0.00    -0.240 N 
ATOM     20  C   UNL A   1      31.798  27.440  22.628  1.00  0.00     0.293 C 
ATOM     21  C   UNL A   1      31.767  28.601  24.656  1.00  0.00     0.248 C 
ATOM     22  O   UNL A   1      31.399  26.810  21.654  1.00  0.00    -0.261 OA
ATOM     23  S   UNL A   1      33.506  27.552  23.026  1.00  0.00    -0.050 SA
ATOM     24  O   UNL A   1      31.378  29.416  25.485  1.00  0.00    -0.273 OA
BRANCH  19  25
ATOM     25  C   UNL A   1      29.843  28.724  23.138  1.00  0.00     0.056 A 
ATOM     26  C   UNL A   1      28.466  32.089  21.943  1.00  0.00     0.044 C 
ATOM     27  C   UNL A   1      28.564  30.657  22.385  1.00  0.00    -0.049 A 
ATOM     28  C   UNL A   1      27.385  29.922  22.550  1.00  0.00     0.004 A 
ATOM     29  C   UNL A   1      29.797  30.049  22.670  1.00  0.00     0.030 A 
ATOM     30  C   UNL A   1      27.429  28.611  23.021  1.00  0.00     0.006 A 
ATOM     31  C   UNL A   1      28.650  28.002  23.339  1.00  0.00    -0.027 A 
ATOM     32  C   UNL A   1      28.601  26.618  23.925  1.00  0.00     0.046 C 
ENDBRANCH  19  25
ENDBRANCH  17  18
ENDBRANCH  14  17
ENDBRANCH   8  13
BRANCH  12  33
ATOM     33  O   UNL A   1      31.479  22.717  22.712  1.00  0.00    -0.507 OA
ATOM     34  H   UNL A   1      31.474  23.458  22.139  1.00  0.00     0.293 HD
ENDBRANCH  12  33
ENDBRANCH   4   7
ENDBRANCH   2   3
ENDBRANCH   1   2
BRANCH   1  35
ATOM     35  C   UNL A   1      36.016  23.558  25.802  1.00  0.00     0.023 C 
BRANCH  35  36
ATOM     36  C   UNL A   1      37.480  23.424  25.420  1.00  0.00     0.116 C 
BRANCH  36  37
ATOM     37  N   UNL A   1      38.177  22.250  25.971  1.00  0.00    -0.352 N 
ATOM     38  C   UNL A   1      39.425  22.161  26.591  1.00  0.00     0.251 C 
ATOM     39  H   UNL A   1      37.690  21.399  25.890  1.00  0.00     0.163 HD
ATOM     40  O   UNL A   1      40.021  21.087  26.610  1.00  0.00    -0.269 OA
BRANCH  38  41
ATOM     41  C   UNL A   1      40.026  23.353  27.238  1.00  0.00     0.039 A 
ATOM     42  C   UNL A   1      41.326  23.435  27.738  1.00  0.00     0.014 A 
ATOM     43  C   UNL A   1      39.218  24.458  27.374  1.00  0.00     0.014 A 
ATOM     44  C   UNL A   1      41.718  24.634  28.348  1.00  0.00     0.010 A 
ATOM     45  C   UNL A   1      39.787  25.684  27.419  1.00  0.00     0.010 A 
ATOM     46  C   UNL A   1      40.901  25.767  28.200  1.00  0.00    -0.014 A 
BRANCH  46  47
ATOM     47  C   UNL A   1      41.227  27.101  28.671  1.00  0.00     0.031 A 
ATOM     48  C   UNL A   1      42.465  27.582  28.050  1.00  0.00     0.074 A 
ATOM     49  C   UNL A   1      40.402  27.908  29.384  1.00  0.00     0.049 A 
ATOM     50  N   UNL A   1      43.650  27.464  28.544  1.00  0.00    -0.248 NA
ATOM     51  C   UNL A   1      42.435  27.958  26.628  1.00  0.00     0.031 C 
ATOM     52  C   UNL A   1      38.993  27.690  29.752  1.00  0.00     0.029 A 
ATOM     53  N   UNL A   1      40.632  29.169  29.852  1.00  0.00    -0.354 N 
ATOM     54  C   UNL A   1      44.468  28.082  27.614  1.00  0.00     0.074 A 
ATOM     55  C   UNL A   1      43.742  28.059  26.373  1.00  0.00     0.031 C 
ATOM     56  C   UNL A   1      38.450  28.849  30.199  1.00  0.00     0.029 A 
ATOM     57  C   UNL A   1      39.498  29.845  30.303  1.00  0.00     0.049 A 
ATOM     58  H   UNL A   1      41.530  29.572  29.870  1.00  0.00     0.167 HD
ATOM     59  C   UNL A   1      45.473  28.893  28.039  1.00  0.00     0.034 A 
ATOM     60  C   UNL A   1      39.440  31.139  30.713  1.00  0.00     0.034 A 
ATOM     61  C   UNL A   1      45.663  28.758  29.469  1.00  0.00     0.049 A 
ATOM     62  C   UNL A   1      40.814  31.514  31.112  1.00  0.00     0.074 A 
ATOM     63  C   UNL A   1      45.994  27.739  30.337  1.00  0.00     0.029 A 
ATOM     64  N   UNL A   1      45.047  29.735  30.214  1.00  0.00    -0.354 N 
ATOM     65  N   UNL A   1      41.423  31.006  32.146  1.00  0.00    -0.248 NA
ATOM     66  C   UNL A   1      41.669  32.194  30.153  1.00  0.00     0.031 C 
ATOM     67  C   UNL A   1      45.274  28.009  31.539  1.00  0.00     0.029 A 
ATOM     68  C   UNL A   1      44.582  29.213  31.389  1.00  0.00     0.049 A 
ATOM     69  H   UNL A   1      44.952  30.675  29.940  1.00  0.00     0.167 HD
ATOM     70  C   UNL A   1      42.735  30.865  31.721  1.00  0.00     0.074 A 
ATOM     71  C   UNL A   1      42.860  31.771  30.584  1.00  0.00     0.031 C 
ATOM     72  C   UNL A   1      43.482  29.799  32.132  1.00  0.00     0.034 A 
BRANCH  59  73
ATOM     73  C   UNL A   1      45.949  30.138  27.320  1.00  0.00     0.023 A 
ATOM     74  C   UNL A   1      47.339  30.387  27.356  1.00  0.00     0.012 A 
ATOM     75  C   UNL A   1      45.125  31.196  26.871  1.00  0.00     0.148 A 
ATOM     76  C   UNL A   1      47.873  31.635  27.019  1.00  0.00     0.002 A 
ATOM     77  C   UNL A   1      45.665  32.408  26.460  1.00  0.00     0.091 A 
ATOM     78  F   UNL A   1      43.798  31.109  26.962  1.00  0.00    -0.205 F 
ATOM     79  C   UNL A   1      47.035  32.646  26.564  1.00  0.00     0.022 A 
BRANCH  77  80
ATOM     80  S   UNL A   1      44.630  33.734  25.824  1.00  0.00     0.127 S 
ATOM     81  O   UNL A   1      43.875  33.041  24.785  1.00  0.00    -0.237 OA
ATOM     82  O   UNL A   1      43.860  34.102  27.013  1.00  0.00    -0.237 OA
ATOM     83  O   UNL A   1      45.550  34.768  25.367  1.00  0.00    -0.744 OA
ENDBRANCH  77  80
ENDBRANCH  59  73
BRANCH  60  84
ATOM     84  C   UNL A   1      38.367  32.162  30.646  1.00  0.00     0.023 A 
ATOM     85  C   UNL A   1      37.808  32.503  29.394  1.00  0.00     0.012 A 
ATOM     86  C   UNL A   1      37.664  32.535  31.811  1.00  0.00     0.148 A 
ATOM     87  C   UNL A   1      36.562  33.133  29.303  1.00  0.00     0.002 A 
ATOM     88  C   UNL A   1      36.420  33.153  31.715  1.00  0.00     0.091 A 
ATOM     89  F   UNL A   1      38.171  32.190  33.002  1.00  0.00    -0.205 F 
ATOM     90  C   UNL A   1      35.859  33.442  30.463  1.00  0.00     0.022 A 
BRANCH  88  91
ATOM     91  S   UNL A   1      35.405  33.517  33.156  1.00  0.00     0.127 S 
ATOM     92  O   UNL A   1      35.593  34.961  33.300  1.00  0.00    -0.237 OA
ATOM     93  O   UNL A   1      34.076  33.120  32.693  1.00  0.00    -0.237 OA
ATOM     94  O   UNL A   1      35.951  32.718  34.243  1.00  0.00    -0.744 OA
ENDBRANCH  88  91
ENDBRANCH  60  84
BRANCH  72  95
ATOM     95  C   UNL A   1      43.009  29.054  33.356  1.00  0.00     0.023 A 
ATOM     96  C   UNL A   1      41.983  28.087  33.327  1.00  0.00     0.012 A 
ATOM     97  C   UNL A   1      43.705  29.269  34.558  1.00  0.00     0.148 A 
ATOM     98  C   UNL A   1      41.641  27.372  34.479  1.00  0.00     0.002 A 
ATOM     99  C   UNL A   1      43.397  28.522  35.687  1.00  0.00     0.091 A 
ATOM    100  F   UNL A   1      44.674  30.197  34.571  1.00  0.00    -0.205 F 
ATOM    101  C   UNL A   1      42.357  27.580  35.656  1.00  0.00     0.022 A 
BRANCH  99 102
ATOM    102  S   UNL A   1      44.361  28.663  37.192  1.00  0.00     0.127 S 
ATOM    103  O   UNL A   1      43.921  29.953  37.718  1.00  0.00    -0.237 OA
ATOM    104  O   UNL A   1      43.912  27.502  37.962  1.00  0.00    -0.237 OA
ATOM    105  O   UNL A   1      45.758  28.596  36.780  1.00  0.00    -0.744 OA
ENDBRANCH  99 102
ENDBRANCH  72  95
ENDBRANCH  46  47
ENDBRANCH  38  41
ENDBRANCH  36  37
ENDBRANCH  35  36
ENDBRANCH   1  35
TORSDOF 19
ENDMDL
MODEL 2
REMARK VINA RESULT:     -13.5      1.376      2.269
REMARK SMILES Cc1ccc(C)c(N2C(=O)S[C@H](CC(=O)Nc3ccc(C(=O)NCCCCNC(=O)c4ccc(-c5c6nc(c(-c7cccc(S(=O)(=O)[O-])c7F)c7ccc([nH]7)c(-c7cccc(S(=O)(=O)[O-])c7F)c7nc(c(-c8cccc(S(=O)(=O)[O-])c8F)c8ccc5[nH]8)C=C7)C=C6)cc4)c(O)c3)C2=O)c1
REMARK SMILES IDX 25 1 24 2 23 3 21 4 22 5 20 7 17 8 18 9 96 10 19 11 94 12
REMARK SMILES IDX 16 13 14 14 15 15 13 17 12 18 8 19 9 20 97 21 10 22 11 23
REMARK SMILES IDX 98 24 7 25 1 26 2 27 3 28 99 29 4 30 5 31 6 32 95 33 26 35
REMARK SMILES IDX 27 36 28 37 29 38 30 40 31 41 32 42 93 43 33 44 92 45 34 46
REMARK SMILES IDX 35 47 36 48 86 49 37 50 91 51 85 52 87 53 38 54 90 55 84 56
REMARK SMILES IDX 83 57 39 59 71 60 51 61 70 62 52 63 55 64 69 65 88 66 53 67
REMARK SMILES IDX 54 68 68 70 89 71 56 72 40 73 41 74 49 75 42 76 44 77 50 78
REMARK SMILES IDX 43 79 45 80 46 81 47 82 48 83 72 84 73 85 81 86 74 87 76 88
REMARK SMILES IDX 82 89 75 90 77 91 78 92 79 93 80 94 57 95 58 96 66 97 59 98
REMARK SMILES IDX 61 99 67 100 60 101 62 102 63 103 64 104 65 105
REMARK H PARENT 23 6 16 16 95 34 28 39 87 58 55 69
REMARK Flexibility Score: inf
ROOT
ATOM      1  C   UNL A   1      35.882  21.397  25.744  1.00  0.00     0.023 C 
ENDROOT
BRANCH   1   2
ATOM      2  C   UNL A   1      35.417  20.143  25.006  1.00  0.00     0.116 C 
BRANCH   2   3
ATOM      3  N   UNL A   1      34.053  19.704  25.197  1.00  0.00    -0.352 N 
ATOM      4  C   UNL A   1      32.864  20.271  24.781  1.00  0.00     0.255 C 
ATOM      5  O   UNL A   1      31.844  19.611  24.969  1.00  0.00    -0.269 OA
ATOM      6  H   UNL A   1      33.957  18.865  25.704  1.00  0.00     0.163 HD
BRANCH   4   7
ATOM      7  C   UNL A   1      32.726  21.659  24.235  1.00  0.00     0.081 A 
ATOM      8  C   UNL A   1      33.158  24.338  23.468  1.00  0.00     0.044 A 
ATOM      9  C   UNL A   1      32.866  24.008  24.781  1.00  0.00     0.027 A 
ATOM     10  C   UNL A   1      32.912  23.378  22.500  1.00  0.00     0.073 A 
ATOM     11  C   UNL A   1      32.726  22.683  25.183  1.00  0.00     0.020 A 
ATOM     12  C   UNL A   1      32.621  22.061  22.899  1.00  0.00     0.130 A 
BRANCH   8  13
ATOM     13  N   UNL A   1      33.599  25.633  23.149  1.00  0.00    -0.326 N 
ATOM     14  C   UNL A   1      33.101  26.458  22.155  1.00  0.00     0.226 C 
ATOM     15  O   UNL A   1      33.784  27.387  21.722  1.00  0.00    -0.275 OA
ATOM     16  H   UNL A   1      34.341  25.991  23.688  1.00  0.00     0.169 HD
BRANCH  14  17
ATOM     17  C   UNL A   1      31.618  26.349  21.796  1.00  0.00     0.125 C 
BRANCH  17  18
ATOM     18  C   UNL A   1      30.684  27.423  22.354  1.00  0.00     0.156 C 
ATOM     19  N   UNL A   1      31.529  28.060  24.508  1.00  0.00    -0.240 N 
ATOM     20  C   UNL A   1      30.627  27.109  24.890  1.00  0.00     0.293 C 
ATOM     21  C   UNL A   1      31.512  28.416  23.167  1.00  0.00     0.248 C 
ATOM     22  O   UNL A   1      30.543  26.515  25.961  1.00  0.00    -0.261 OA
ATOM     23  S   UNL A   1      29.491  26.827  23.581  1.00  0.00    -0.050 SA
ATOM     24  O   UNL A   1      32.082  29.373  22.653  1.00  0.00    -0.273 OA
BRANCH  19  25
ATOM     25  C   UNL A   1      32.118  28.880  25.499  1.00  0.00     0.056 A 
ATOM     26  C   UNL A   1      31.708  32.392  26.964  1.00  0.00     0.044 C 
ATOM     27  C   UNL A   1      32.223  31.011  26.679  1.00  0.00    -0.049 A 
ATOM     28  C   UNL A   1      33.404  30.591  27.300  1.00  0.00     0.004 A 
ATOM     29  C   UNL A   1      31.573  30.144  25.784  1.00  0.00     0.030 A 
ATOM     30  C   UNL A   1      33.950  29.342  27.012  1.00  0.00     0.006 A 
ATOM     31  C   UNL A   1      33.329  28.479  26.098  1.00  0.00    -0.027 A 
ATOM     32  C   UNL A   1      34.031  27.188  25.778  1.00  0.00     0.046 C 
ENDBRANCH  19  25
ENDBRANCH  17  18
ENDBRANCH  14  17
ENDBRANCH   8  13
BRANCH  12  33
ATOM     33  O   UNL A   1      32.127  21.246  21.917  1.00  0.00    -0.507 OA
ATOM     34  H   UNL A   1      32.715  20.766  21.368  1.00  0.00     0.293 HD
ENDBRANCH  12  33
ENDBRANCH   4   7
ENDBRANCH   2   3
ENDBRANCH   1   2
BRANCH   1  35
ATOM     35  C   UNL A   1      36.632  22.514  25.015  1.00  0.00     0.023 C 
BRANCH  35  36
ATOM     36  C   UNL A   1      38.064  22.804  25.435  1.00  0.00     0.116 C 
BRANCH  36  37
ATOM     37  N   UNL A   1      38.760  21.706  26.126  1.00  0.00    -0.352 N 
ATOM     38  C   UNL A   1      39.965  21.716  26.831  1.00  0.00     0.251 C 
ATOM     39  H   UNL A   1      38.308  20.833  26.084  1.00  0.00     0.163 HD
ATOM     40  O   UNL A   1      40.593  20.671  26.979  1.00  0.00    -0.269 OA
BRANCH  38  41
ATOM     41  C   UNL A   1      40.480  22.979  27.415  1.00  0.00     0.039 A 
ATOM     42  C   UNL A   1      41.785  23.192  27.860  1.00  0.00     0.014 A 
ATOM     43  C   UNL A   1      39.583  24.013  27.546  1.00  0.00     0.014 A 
ATOM     44  C   UNL A   1      42.091  24.442  28.415  1.00  0.00     0.010 A 
ATOM     45  C   UNL A   1      40.042  25.285  27.529  1.00  0.00     0.010 A 
ATOM     46  C   UNL A   1      41.172  25.493  28.262  1.00  0.00    -0.014 A 
BRANCH  46  47
ATOM     47  C   UNL A   1      41.394  26.867  28.676  1.00  0.00     0.031 A 
ATOM     48  C   UNL A   1      42.624  27.396  28.077  1.00  0.00     0.074 A 
ATOM     49  C   UNL A   1      40.492  27.653  29.314  1.00  0.00     0.049 A 
ATOM     50  N   UNL A   1      43.793  27.378  28.620  1.00  0.00    -0.248 NA
ATOM     51  C   UNL A   1      42.629  27.698  26.638  1.00  0.00     0.031 C 
ATOM     52  C   UNL A   1      39.086  27.364  29.640  1.00  0.00     0.029 A 
ATOM     53  N   UNL A   1      40.624  28.948  29.726  1.00  0.00    -0.354 N 
ATOM     54  C   UNL A   1      44.609  28.001  27.691  1.00  0.00     0.074 A 
ATOM     55  C   UNL A   1      43.936  27.871  26.427  1.00  0.00     0.031 C 
ATOM     56  C   UNL A   1      38.454  28.506  30.006  1.00  0.00     0.029 A 
ATOM     57  C   UNL A   1      39.433  29.571  30.098  1.00  0.00     0.049 A 
ATOM     58  H   UNL A   1      41.494  29.408  29.757  1.00  0.00     0.167 HD
ATOM     59  C   UNL A   1      45.543  28.894  28.112  1.00  0.00     0.034 A 
ATOM     60  C   UNL A   1      39.278  30.877  30.438  1.00  0.00     0.034 A 
ATOM     61  C   UNL A   1      45.682  28.842  29.553  1.00  0.00     0.049 A 
ATOM     62  C   UNL A   1      40.609  31.359  30.869  1.00  0.00     0.074 A 
ATOM     63  C   UNL A   1      46.041  27.890  30.484  1.00  0.00     0.029 A 
ATOM     64  N   UNL A   1      44.977  29.813  30.223  1.00  0.00    -0.354 N 
ATOM     65  N   UNL A   1      41.206  30.942  31.950  1.00  0.00    -0.248 NA
ATOM     66  C   UNL A   1      41.458  32.044  29.909  1.00  0.00     0.031 C 
ATOM     67  C   UNL A   1      45.257  28.172  31.642  1.00  0.00     0.029 A 
ATOM     68  C   UNL A   1      44.498  29.321  31.405  1.00  0.00     0.049 A 
ATOM     69  H   UNL A   1      44.835  30.731  29.898  1.00  0.00     0.167 HD
ATOM     70  C   UNL A   1      42.540  30.864  31.582  1.00  0.00     0.074 A 
ATOM     71  C   UNL A   1      42.655  31.720  30.406  1.00  0.00     0.031 C 
ATOM     72  C   UNL A   1      43.335  29.870  32.075  1.00  0.00     0.034 A 
BRANCH  59  73
ATOM     73  C   UNL A   1      45.969  30.131  27.348  1.00  0.00     0.023 A 
ATOM     74  C   UNL A   1      47.356  30.397  27.313  1.00  0.00     0.012 A 
ATOM     75  C   UNL A   1      45.112  31.171  26.918  1.00  0.00     0.148 A 
ATOM     76  C   UNL A   1      47.858  31.644  26.929  1.00  0.00     0.002 A 
ATOM     77  C   UNL A   1      45.617  32.381  26.460  1.00  0.00     0.091 A 
ATOM     78  F   UNL A   1      43.792  31.071  27.073  1.00  0.00    -0.205 F 
ATOM     79  C   UNL A   1      46.988  32.636  26.495  1.00  0.00     0.022 A 
BRANCH  77  80
ATOM     80  S   UNL A   1      44.537  33.682  25.849  1.00  0.00     0.127 S 
ATOM     81  O   UNL A   1      43.861  33.006  24.747  1.00  0.00    -0.237 OA
ATOM     82  O   UNL A   1      43.704  33.948  27.022  1.00  0.00    -0.237 OA
ATOM     83  O   UNL A   1      45.417  34.785  25.481  1.00  0.00    -0.744 OA
ENDBRANCH  77  80
ENDBRANCH  59  73
BRANCH  60  84
ATOM     84  C   UNL A   1      38.147  31.824  30.279  1.00  0.00     0.023 A 
ATOM     85  C   UNL A   1      37.452  31.877  29.050  1.00  0.00     0.012 A 
ATOM     86  C   UNL A   1      37.540  32.407  31.412  1.00  0.00     0.148 A 
ATOM     87  C   UNL A   1      36.168  32.429  28.966  1.00  0.00     0.002 A 
ATOM     88  C   UNL A   1      36.259  32.946  31.324  1.00  0.00     0.091 A 
ATOM     89  F   UNL A   1      38.178  32.336  32.587  1.00  0.00    -0.205 F 
ATOM     90  C   UNL A   1      35.564  32.948  30.106  1.00  0.00     0.022 A 
BRANCH  88  91
ATOM     91  S   UNL A   1      35.368  33.566  32.760  1.00  0.00     0.127 S 
ATOM     92  O   UNL A   1      35.519  32.462  33.708  1.00  0.00    -0.237 OA
ATOM     93  O   UNL A   1      36.136  34.764  33.094  1.00  0.00    -0.237 OA
ATOM     94  O   UNL A   1      34.004  33.805  32.312  1.00  0.00    -0.744 OA
ENDBRANCH  88  91
ENDBRANCH  60  84
BRANCH  72  95
ATOM     95  C   UNL A   1      42.859  29.158  33.318  1.00  0.00     0.023 A 
ATOM     96  C   UNL A   1      41.839  28.184  33.310  1.00  0.00     0.012 A 
ATOM     97  C   UNL A   1      43.548  29.410  34.516  1.00  0.00     0.148 A 
ATOM     98  C   UNL A   1      41.495  27.500  34.481  1.00  0.00     0.002 A 
ATOM     99  C   UNL A   1      43.238  28.693  35.664  1.00  0.00     0.091 A 
ATOM    100  F   UNL A   1      44.511  30.343  34.508  1.00  0.00    -0.205 F 
ATOM    101  C   UNL A   1      42.204  27.745  35.654  1.00  0.00     0.022 A 
BRANCH  99 102
ATOM    102  S   UNL A   1      44.194  28.882  37.169  1.00  0.00     0.127 S 
ATOM    103  O   UNL A   1      43.680  30.142  37.702  1.00  0.00    -0.237 OA
ATOM    104  O   UNL A   1      43.813  27.693  37.934  1.00  0.00    -0.237 OA
ATOM    105  O   UNL A   1      45.592  28.898  36.756  1.00  0.00    -0.744 OA
ENDBRANCH  99 102
ENDBRANCH  72  95
ENDBRANCH  46  47
ENDBRANCH  38  41
ENDBRANCH  36  37
ENDBRANCH  35  36
ENDBRANCH   1  35
TORSDOF 19
ENDMDL
MODEL 3
REMARK VINA RESULT:     -13.4      2.081      3.311
REMARK SMILES Cc1ccc(C)c(N2C(=O)S[C@H](CC(=O)Nc3ccc(C(=O)NCCCCNC(=O)c4ccc(-c5c6nc(c(-c7cccc(S(=O)(=O)[O-])c7F)c7ccc([nH]7)c(-c7cccc(S(=O)(=O)[O-])c7F)c7nc(c(-c8cccc(S(=O)(=O)[O-])c8F)c8ccc5[nH]8)C=C7)C=C6)cc4)c(O)c3)C2=O)c1
REMARK SMILES IDX 25 1 24 2 23 3 21 4 22 5 20 7 17 8 18 9 96 10 19 11 94 12
REMARK SMILES IDX 16 13 14 14 15 15 13 17 12 18 8 19 9 20 97 21 10 22 11 23
REMARK SMILES IDX 98 24 7 25 1 26 2 27 3 28 99 29 4 30 5 31 6 32 95 33 26 35
REMARK SMILES IDX 27 36 28 37 29 38 30 40 31 41 32 42 93 43 33 44 92 45 34 46
REMARK SMILES IDX 35 47 36 48 86 49 37 50 91 51 85 52 87 53 38 54 90 55 84 56
REMARK SMILES IDX 83 57 39 59 71 60 51 61 70 62 52 63 55 64 69 65 88 66 53 67
REMARK SMILES IDX 54 68 68 70 89 71 56 72 40 73 41 74 49 75 42 76 44 77 50 78
REMARK SMILES IDX 43 79 45 80 46 81 47 82 48 83 72 84 73 85 81 86 74 87 76 88
REMARK SMILES IDX 82 89 75 90 77 91 78 92 79 93 80 94 57 95 58 96 66 97 59 98
REMARK SMILES IDX 61 99 67 100 60 101 62 102 63 103 64 104 65 105
REMARK H PARENT 23 6 16 16 95 34 28 39 87 58 55 69
REMARK Flexibility Score: inf
ROOT
ATOM      1  C   UNL A   1      35.742  21.524  25.947  1.00  0.00     0.023 C 
ENDROOT
BRANCH   1   2
ATOM      2  C   UNL A   1      34.501  21.435  26.834  1.00  0.00     0.116 C 
BRANCH   2   3
ATOM      3  N   UNL A   1      33.562  20.364  26.588  1.00  0.00    -0.352 N 
ATOM      4  C   UNL A   1      32.752  20.116  25.497  1.00  0.00     0.255 C 
ATOM      5  O   UNL A   1      32.141  19.050  25.495  1.00  0.00    -0.269 OA
ATOM      6  H   UNL A   1      33.488  19.704  27.316  1.00  0.00     0.163 HD
BRANCH   4   7
ATOM      7  C   UNL A   1      32.485  21.095  24.395  1.00  0.00     0.081 A 
ATOM      8  C   UNL A   1      32.662  23.173  22.496  1.00  0.00     0.044 A 
ATOM      9  C   UNL A   1      32.397  23.442  23.828  1.00  0.00     0.027 A 
ATOM     10  C   UNL A   1      32.513  21.863  22.068  1.00  0.00     0.073 A 
ATOM     11  C   UNL A   1      32.382  22.431  24.785  1.00  0.00     0.020 A 
ATOM     12  C   UNL A   1      32.348  20.845  23.025  1.00  0.00     0.130 A 
BRANCH   8  13
ATOM     13  N   UNL A   1      32.979  24.220  21.616  1.00  0.00    -0.326 N 
ATOM     14  C   UNL A   1      32.786  25.574  21.833  1.00  0.00     0.226 C 
ATOM     15  O   UNL A   1      32.744  26.354  20.880  1.00  0.00    -0.275 OA
ATOM     16  H   UNL A   1      33.379  23.965  20.753  1.00  0.00     0.169 HD
BRANCH  14  17
ATOM     17  C   UNL A   1      32.880  26.101  23.266  1.00  0.00     0.125 C 
BRANCH  17  18
ATOM     18  C   UNL A   1      32.071  27.353  23.603  1.00  0.00     0.156 C 
ATOM     19  N   UNL A   1      33.021  28.307  25.589  1.00  0.00    -0.240 N 
ATOM     20  C   UNL A   1      32.036  27.548  26.152  1.00  0.00     0.293 C 
ATOM     21  C   UNL A   1      33.012  28.395  24.205  1.00  0.00     0.248 C 
ATOM     22  O   UNL A   1      31.915  27.186  27.318  1.00  0.00    -0.261 OA
ATOM     23  S   UNL A   1      30.850  27.135  24.923  1.00  0.00    -0.050 SA
ATOM     24  O   UNL A   1      33.665  29.169  23.513  1.00  0.00    -0.273 OA
BRANCH  19  25
ATOM     25  C   UNL A   1      33.711  29.240  26.400  1.00  0.00     0.056 A 
ATOM     26  C   UNL A   1      36.928  29.450  28.463  1.00  0.00     0.044 C 
ATOM     27  C   UNL A   1      35.609  29.786  27.829  1.00  0.00    -0.049 A 
ATOM     28  C   UNL A   1      34.982  30.987  28.176  1.00  0.00     0.004 A 
ATOM     29  C   UNL A   1      34.973  28.916  26.928  1.00  0.00     0.030 A 
ATOM     30  C   UNL A   1      33.727  31.305  27.660  1.00  0.00     0.006 A 
ATOM     31  C   UNL A   1      33.068  30.433  26.784  1.00  0.00    -0.027 A 
ATOM     32  C   UNL A   1      31.680  30.811  26.345  1.00  0.00     0.046 C 
ENDBRANCH  19  25
ENDBRANCH  17  18
ENDBRANCH  14  17
ENDBRANCH   8  13
BRANCH  12  33
ATOM     33  O   UNL A   1      31.938  19.636  22.529  1.00  0.00    -0.507 OA
ATOM     34  H   UNL A   1      31.027  19.419  22.521  1.00  0.00     0.293 HD
ENDBRANCH  12  33
ENDBRANCH   4   7
ENDBRANCH   2   3
ENDBRANCH   1   2
BRANCH   1  35
ATOM     35  C   UNL A   1      36.164  22.849  25.307  1.00  0.00     0.023 C 
BRANCH  35  36
ATOM     36  C   UNL A   1      37.642  23.068  25.030  1.00  0.00     0.116 C 
BRANCH  36  37
ATOM     37  N   UNL A   1      38.567  22.209  25.788  1.00  0.00    -0.352 N 
ATOM     38  C   UNL A   1      39.654  22.557  26.591  1.00  0.00     0.251 C 
ATOM     39  H   UNL A   1      38.393  21.243  25.717  1.00  0.00     0.163 HD
ATOM     40  O   UNL A   1      40.544  21.737  26.801  1.00  0.00    -0.269 OA
BRANCH  38  41
ATOM     41  C   UNL A   1      39.732  23.907  27.203  1.00  0.00     0.039 A 
ATOM     42  C   UNL A   1      38.668  24.801  27.330  1.00  0.00     0.014 A 
ATOM     43  C   UNL A   1      40.965  24.312  27.658  1.00  0.00     0.014 A 
ATOM     44  C   UNL A   1      38.929  26.051  27.908  1.00  0.00     0.010 A 
ATOM     45  C   UNL A   1      41.029  25.208  28.669  1.00  0.00     0.010 A 
ATOM     46  C   UNL A   1      40.156  26.250  28.562  1.00  0.00    -0.014 A 
BRANCH  46  47
ATOM     47  C   UNL A   1      40.525  27.442  29.305  1.00  0.00     0.031 A 
ATOM     48  C   UNL A   1      41.511  28.232  28.560  1.00  0.00     0.074 A 
ATOM     49  C   UNL A   1      39.889  27.912  30.406  1.00  0.00     0.049 A 
ATOM     50  N   UNL A   1      42.792  28.146  28.682  1.00  0.00    -0.248 NA
ATOM     51  C   UNL A   1      41.064  28.965  27.366  1.00  0.00     0.031 C 
ATOM     52  C   UNL A   1      38.654  27.418  31.037  1.00  0.00     0.029 A 
ATOM     53  N   UNL A   1      40.169  29.022  31.149  1.00  0.00    -0.354 N 
ATOM     54  C   UNL A   1      43.281  29.093  27.799  1.00  0.00     0.074 A 
ATOM     55  C   UNL A   1      42.239  29.304  26.830  1.00  0.00     0.031 C 
ATOM     56  C   UNL A   1      38.193  28.333  31.925  1.00  0.00     0.029 A 
ATOM     57  C   UNL A   1      39.170  29.396  32.048  1.00  0.00     0.049 A 
ATOM     58  H   UNL A   1      41.013  29.522  31.057  1.00  0.00     0.167 HD
ATOM     59  C   UNL A   1      44.318  29.887  28.175  1.00  0.00     0.034 A 
ATOM     60  C   UNL A   1      39.158  30.515  32.819  1.00  0.00     0.034 A 
ATOM     61  C   UNL A   1      44.907  29.404  29.407  1.00  0.00     0.049 A 
ATOM     62  C   UNL A   1      40.565  30.950  32.951  1.00  0.00     0.074 A 
ATOM     63  C   UNL A   1      45.524  28.244  29.826  1.00  0.00     0.029 A 
ATOM     64  N   UNL A   1      44.470  30.056  30.535  1.00  0.00    -0.354 N 
ATOM     65  N   UNL A   1      41.466  30.271  33.602  1.00  0.00    -0.248 NA
ATOM     66  C   UNL A   1      41.078  31.969  32.049  1.00  0.00     0.031 C 
ATOM     67  C   UNL A   1      45.155  28.086  31.195  1.00  0.00     0.029 A 
ATOM     68  C   UNL A   1      44.383  29.183  31.584  1.00  0.00     0.049 A 
ATOM     69  H   UNL A   1      44.250  31.014  30.581  1.00  0.00     0.167 HD
ATOM     70  C   UNL A   1      42.613  30.424  32.839  1.00  0.00     0.074 A 
ATOM     71  C   UNL A   1      42.364  31.608  32.023  1.00  0.00     0.031 C 
ATOM     72  C   UNL A   1      43.503  29.397  32.717  1.00  0.00     0.034 A 
BRANCH  59  73
ATOM     73  C   UNL A   1      44.503  31.331  27.756  1.00  0.00     0.023 A 
ATOM     74  C   UNL A   1      45.660  31.618  26.998  1.00  0.00     0.012 A 
ATOM     75  C   UNL A   1      43.795  32.438  28.278  1.00  0.00     0.148 A 
ATOM     76  C   UNL A   1      46.117  32.927  26.818  1.00  0.00     0.002 A 
ATOM     77  C   UNL A   1      44.206  33.742  28.030  1.00  0.00     0.091 A 
ATOM     78  F   UNL A   1      42.793  32.259  29.140  1.00  0.00    -0.205 F 
ATOM     79  C   UNL A   1      45.386  33.992  27.330  1.00  0.00     0.022 A 
BRANCH  77  80
ATOM     80  S   UNL A   1      43.274  35.156  28.634  1.00  0.00     0.127 S 
ATOM     81  O   UNL A   1      44.101  36.267  28.175  1.00  0.00    -0.237 OA
ATOM     82  O   UNL A   1      42.002  34.992  27.930  1.00  0.00    -0.237 OA
ATOM     83  O   UNL A   1      43.181  34.979  30.079  1.00  0.00    -0.744 OA
ENDBRANCH  77  80
ENDBRANCH  59  73
BRANCH  60  84
ATOM     84  C   UNL A   1      38.053  31.365  33.327  1.00  0.00     0.023 A 
ATOM     85  C   UNL A   1      38.136  31.910  34.629  1.00  0.00     0.012 A 
ATOM     86  C   UNL A   1      37.110  31.919  32.435  1.00  0.00     0.148 A 
ATOM     87  C   UNL A   1      37.357  33.009  35.007  1.00  0.00     0.002 A 
ATOM     88  C   UNL A   1      36.344  33.018  32.813  1.00  0.00     0.091 A 
ATOM     89  F   UNL A   1      37.044  31.429  31.190  1.00  0.00    -0.205 F 
ATOM     90  C   UNL A   1      36.474  33.575  34.093  1.00  0.00     0.022 A 
BRANCH  88  91
ATOM     91  S   UNL A   1      35.235  33.865  31.675  1.00  0.00     0.127 S 
ATOM     92  O   UNL A   1      34.105  32.938  31.610  1.00  0.00    -0.237 OA
ATOM     93  O   UNL A   1      34.963  35.108  32.393  1.00  0.00    -0.237 OA
ATOM     94  O   UNL A   1      35.976  34.013  30.430  1.00  0.00    -0.744 OA
ENDBRANCH  88  91
ENDBRANCH  60  84
BRANCH  72  95
ATOM     95  C   UNL A   1      43.434  28.297  33.748  1.00  0.00     0.023 A 
ATOM     96  C   UNL A   1      42.725  27.094  33.552  1.00  0.00     0.012 A 
ATOM     97  C   UNL A   1      44.205  28.448  34.914  1.00  0.00     0.148 A 
ATOM     98  C   UNL A   1      42.762  26.077  34.511  1.00  0.00     0.002 A 
ATOM     99  C   UNL A   1      44.280  27.417  35.840  1.00  0.00     0.091 A 
ATOM    100  F   UNL A   1      44.868  29.601  35.089  1.00  0.00    -0.205 F 
ATOM    101  C   UNL A   1      43.550  26.233  35.649  1.00  0.00     0.022 A 
BRANCH  99 102
ATOM    102  S   UNL A   1      45.369  27.516  37.261  1.00  0.00     0.127 S 
ATOM    103  O   UNL A   1      44.664  28.463  38.122  1.00  0.00    -0.237 OA
ATOM    104  O   UNL A   1      45.376  26.135  37.747  1.00  0.00    -0.237 OA
ATOM    105  O   UNL A   1      46.655  27.970  36.748  1.00  0.00    -0.744 OA
ENDBRANCH  99 102
ENDBRANCH  72  95
ENDBRANCH  46  47
ENDBRANCH  38  41
ENDBRANCH  36  37
ENDBRANCH  35  36
ENDBRANCH   1  35
TORSDOF 19
ENDMDL
