MODEL 1
REMARK VINA RESULT:     -11.3      0.000      0.000
REMARK SMILES CCCC1C[NH+]([C@H](CC(=O)NCCCCNC(=O)c2ccc(-c3c4nc(c(-c5cccc(S(=O)(=O)[O-])c5F)c5ccc([nH]5)c(-c5cccc(S(=O)(=O)[O-])c5F)c5nc(c(-c6cccc(S(=O)(=O)[O-])c6F)c6ccc3[nH]6)C=C5)C=C4)cc2)c2ccccc2)C1
REMARK SMILES IDX 13 1 12 2 11 3 9 4 10 5 8 7 7 8 6 9 4 10 5 11 88 12 3 14
REMARK SMILES IDX 2 15 1 16 82 17 83 18 87 19 84 20 86 21 85 22 14 23 15 24
REMARK SMILES IDX 16 25 17 26 18 28 19 29 20 30 81 31 21 32 80 33 22 34 23 35
REMARK SMILES IDX 24 36 74 37 25 38 79 39 73 40 75 41 26 42 78 43 72 44 71 45
REMARK SMILES IDX 27 47 59 48 39 49 58 50 40 51 43 52 57 53 76 54 41 55 42 56
REMARK SMILES IDX 56 58 77 59 44 60 28 61 29 62 37 63 30 64 32 65 38 66 31 67
REMARK SMILES IDX 33 68 34 69 35 70 36 71 60 72 61 73 69 74 62 75 64 76 70 77
REMARK SMILES IDX 63 78 65 79 66 80 67 81 68 82 45 83 46 84 54 85 47 86 49 87
REMARK SMILES IDX 55 88 48 89 50 90 51 91 52 92 53 93
REMARK H PARENT 11 6 6 13 16 27 75 46 43 57
REMARK Flexibility Score: inf
ROOT
ATOM      1  C   UNL A   1      31.675  27.216  26.387  1.00  0.00     0.023 C 
ENDROOT
BRANCH   1   2
ATOM      2  C   UNL A   1      31.072  26.041  25.633  1.00  0.00     0.116 C 
BRANCH   2   3
ATOM      3  N   UNL A   1      30.826  24.922  26.518  1.00  0.00    -0.356 N 
ATOM      4  C   UNL A   1      31.484  23.735  26.627  1.00  0.00     0.226 C 
ATOM      5  O   UNL A   1      31.104  22.954  27.504  1.00  0.00    -0.275 OA
ATOM      6  H   UNL A   1      30.067  25.036  27.134  1.00  0.00     0.163 HD
BRANCH   4   7
ATOM      7  C   UNL A   1      32.692  23.409  25.765  1.00  0.00     0.170 C 
BRANCH   7   8
ATOM      8  C   UNL A   1      33.474  22.082  26.025  1.00  0.00     0.224 C 
BRANCH   8   9
ATOM      9  N   UNL A   1      32.633  20.911  25.702  1.00  0.00    -0.327 N 
ATOM     10  C   UNL A   1      32.654  19.041  24.711  1.00  0.00     0.099 C 
ATOM     11  C   UNL A   1      33.113  19.587  26.099  1.00  0.00     0.272 C 
ATOM     12  C   UNL A   1      32.539  20.527  24.298  1.00  0.00     0.272 C 
ATOM     13  H   UNL A   1      31.807  21.282  26.172  1.00  0.00     0.348 HD
BRANCH  10  14
ATOM     14  C   UNL A   1      33.650  18.242  23.870  1.00  0.00     0.015 C 
BRANCH  14  15
ATOM     15  C   UNL A   1      33.513  16.736  24.079  1.00  0.00    -0.003 C 
ATOM     16  C   UNL A   1      32.393  16.383  25.050  1.00  0.00     0.004 C 
ENDBRANCH  14  15
ENDBRANCH  10  14
ENDBRANCH   8   9
BRANCH   8  17
ATOM     17  C   UNL A   1      34.981  22.173  25.702  1.00  0.00     0.010 A 
ATOM     18  C   UNL A   1      35.859  21.086  25.580  1.00  0.00     0.010 A 
ATOM     19  C   UNL A   1      35.556  23.453  25.527  1.00  0.00     0.010 A 
ATOM     20  C   UNL A   1      37.211  21.252  25.247  1.00  0.00     0.001 A 
ATOM     21  C   UNL A   1      36.900  23.626  25.172  1.00  0.00     0.001 A 
ATOM     22  C   UNL A   1      37.728  22.522  25.025  1.00  0.00     0.000 A 
ENDBRANCH   8  17
ENDBRANCH   7   8
ENDBRANCH   4   7
ENDBRANCH   2   3
ENDBRANCH   1   2
BRANCH   1  23
ATOM     23  C   UNL A   1      31.531  28.578  25.734  1.00  0.00     0.023 C 
BRANCH  23  24
ATOM     24  C   UNL A   1      32.760  29.456  25.881  1.00  0.00     0.116 C 
BRANCH  24  25
ATOM     25  N   UNL A   1      32.464  30.805  26.358  1.00  0.00    -0.352 N 
ATOM     26  C   UNL A   1      33.214  31.603  27.192  1.00  0.00     0.251 C 
ATOM     27  H   UNL A   1      31.616  31.194  26.042  1.00  0.00     0.163 HD
ATOM     28  O   UNL A   1      32.793  32.683  27.574  1.00  0.00    -0.269 OA
BRANCH  26  29
ATOM     29  C   UNL A   1      34.524  31.095  27.647  1.00  0.00     0.039 A 
ATOM     30  C   UNL A   1      35.564  31.997  27.874  1.00  0.00     0.014 A 
ATOM     31  C   UNL A   1      34.672  29.741  27.956  1.00  0.00     0.014 A 
ATOM     32  C   UNL A   1      36.730  31.550  28.497  1.00  0.00     0.010 A 
ATOM     33  C   UNL A   1      35.779  29.327  28.677  1.00  0.00     0.010 A 
ATOM     34  C   UNL A   1      36.825  30.222  28.945  1.00  0.00    -0.014 A 
BRANCH  34  35
ATOM     35  C   UNL A   1      38.011  29.724  29.685  1.00  0.00     0.031 A 
ATOM     36  C   UNL A   1      38.249  30.190  31.096  1.00  0.00     0.074 A 
ATOM     37  C   UNL A   1      38.926  28.959  29.054  1.00  0.00     0.049 A 
ATOM     38  N   UNL A   1      39.280  29.981  31.872  1.00  0.00    -0.248 NA
ATOM     39  C   UNL A   1      37.212  31.048  31.698  1.00  0.00     0.031 C 
ATOM     40  C   UNL A   1      38.857  28.528  27.656  1.00  0.00     0.029 A 
ATOM     41  N   UNL A   1      40.111  28.433  29.503  1.00  0.00    -0.354 N 
ATOM     42  C   UNL A   1      39.042  30.723  33.021  1.00  0.00     0.074 A 
ATOM     43  C   UNL A   1      37.795  31.427  32.826  1.00  0.00     0.031 C 
ATOM     44  C   UNL A   1      39.943  27.791  27.368  1.00  0.00     0.029 A 
ATOM     45  C   UNL A   1      40.796  27.719  28.548  1.00  0.00     0.049 A 
ATOM     46  H   UNL A   1      40.440  28.556  30.423  1.00  0.00     0.167 HD
ATOM     47  C   UNL A   1      39.772  30.782  34.159  1.00  0.00     0.034 A 
ATOM     48  C   UNL A   1      41.979  27.077  28.622  1.00  0.00     0.034 A 
ATOM     49  C   UNL A   1      40.961  30.008  34.381  1.00  0.00     0.049 A 
ATOM     50  C   UNL A   1      42.721  27.076  29.932  1.00  0.00     0.074 A 
ATOM     51  C   UNL A   1      41.718  29.906  35.534  1.00  0.00     0.029 A 
ATOM     52  N   UNL A   1      41.554  29.190  33.433  1.00  0.00    -0.354 N 
ATOM     53  N   UNL A   1      42.398  27.656  31.063  1.00  0.00    -0.248 NA
ATOM     54  C   UNL A   1      43.969  26.300  29.990  1.00  0.00     0.031 C 
ATOM     55  C   UNL A   1      42.772  29.021  35.281  1.00  0.00     0.029 A 
ATOM     56  C   UNL A   1      42.664  28.570  33.975  1.00  0.00     0.049 A 
ATOM     57  H   UNL A   1      41.233  29.068  32.511  1.00  0.00     0.167 HD
ATOM     58  C   UNL A   1      43.380  27.287  31.975  1.00  0.00     0.074 A 
ATOM     59  C   UNL A   1      44.297  26.415  31.270  1.00  0.00     0.031 C 
ATOM     60  C   UNL A   1      43.522  27.650  33.274  1.00  0.00     0.034 A 
BRANCH  47  61
ATOM     61  C   UNL A   1      39.252  31.646  35.277  1.00  0.00     0.023 A 
ATOM     62  C   UNL A   1      38.289  31.122  36.165  1.00  0.00     0.012 A 
ATOM     63  C   UNL A   1      39.734  32.954  35.475  1.00  0.00     0.148 A 
ATOM     64  C   UNL A   1      37.784  31.898  37.206  1.00  0.00     0.002 A 
ATOM     65  C   UNL A   1      39.260  33.706  36.545  1.00  0.00     0.091 A 
ATOM     66  F   UNL A   1      40.632  33.444  34.608  1.00  0.00    -0.205 F 
ATOM     67  C   UNL A   1      38.277  33.184  37.403  1.00  0.00     0.022 A 
BRANCH  65  68
ATOM     68  S   UNL A   1      39.885  35.345  36.929  1.00  0.00     0.127 S 
ATOM     69  O   UNL A   1      39.335  35.565  38.265  1.00  0.00    -0.237 OA
ATOM     70  O   UNL A   1      41.334  35.139  36.893  1.00  0.00    -0.237 OA
ATOM     71  O   UNL A   1      39.373  36.224  35.887  1.00  0.00    -0.744 OA
ENDBRANCH  65  68
ENDBRANCH  47  61
BRANCH  48  72
ATOM     72  C   UNL A   1      42.483  26.299  27.454  1.00  0.00     0.023 A 
ATOM     73  C   UNL A   1      43.318  26.939  26.516  1.00  0.00     0.012 A 
ATOM     74  C   UNL A   1      42.170  24.939  27.276  1.00  0.00     0.148 A 
ATOM     75  C   UNL A   1      43.804  26.249  25.406  1.00  0.00     0.002 A 
ATOM     76  C   UNL A   1      42.701  24.242  26.195  1.00  0.00     0.091 A 
ATOM     77  F   UNL A   1      41.364  24.348  28.171  1.00  0.00    -0.205 F 
ATOM     78  C   UNL A   1      43.504  24.898  25.250  1.00  0.00     0.022 A 
BRANCH  76  79
ATOM     79  S   UNL A   1      42.469  22.472  25.989  1.00  0.00     0.127 S 
ATOM     80  O   UNL A   1      43.037  22.247  24.663  1.00  0.00    -0.237 OA
ATOM     81  O   UNL A   1      43.258  21.929  27.096  1.00  0.00    -0.237 OA
ATOM     82  O   UNL A   1      41.035  22.253  26.117  1.00  0.00    -0.744 OA
ENDBRANCH  76  79
ENDBRANCH  48  72
BRANCH  60  83
ATOM     83  C   UNL A   1      44.688  27.081  34.033  1.00  0.00     0.023 A 
ATOM     84  C   UNL A   1      45.921  27.760  34.026  1.00  0.00     0.012 A 
ATOM     85  C   UNL A   1      44.534  25.927  34.826  1.00  0.00     0.148 A 
ATOM     86  C   UNL A   1      46.994  27.285  34.779  1.00  0.00     0.002 A 
ATOM     87  C   UNL A   1      45.594  25.486  35.609  1.00  0.00     0.091 A 
ATOM     88  F   UNL A   1      43.358  25.285  34.802  1.00  0.00    -0.205 F 
ATOM     89  C   UNL A   1      46.827  26.157  35.579  1.00  0.00     0.022 A 
BRANCH  87  90
ATOM     90  S   UNL A   1      45.434  24.100  36.740  1.00  0.00     0.127 S 
ATOM     91  O   UNL A   1      46.796  23.977  37.256  1.00  0.00    -0.237 OA
ATOM     92  O   UNL A   1      44.457  24.597  37.710  1.00  0.00    -0.237 OA
ATOM     93  O   UNL A   1      44.963  22.981  35.935  1.00  0.00    -0.744 OA
ENDBRANCH  87  90
ENDBRANCH  60  83
ENDBRANCH  34  35
ENDBRANCH  26  29
ENDBRANCH  24  25
ENDBRANCH  23  24
ENDBRANCH   1  23
TORSDOF 19
ENDMDL
MODEL 2
REMARK VINA RESULT:     -11.2      1.858      2.804
REMARK SMILES CCCC1C[NH+]([C@H](CC(=O)NCCCCNC(=O)c2ccc(-c3c4nc(c(-c5cccc(S(=O)(=O)[O-])c5F)c5ccc([nH]5)c(-c5cccc(S(=O)(=O)[O-])c5F)c5nc(c(-c6cccc(S(=O)(=O)[O-])c6F)c6ccc3[nH]6)C=C5)C=C4)cc2)c2ccccc2)C1
REMARK SMILES IDX 13 1 12 2 11 3 9 4 10 5 8 7 7 8 6 9 4 10 5 11 88 12 3 14
REMARK SMILES IDX 2 15 1 16 82 17 83 18 87 19 84 20 86 21 85 22 14 23 15 24
REMARK SMILES IDX 16 25 17 26 18 28 19 29 20 30 81 31 21 32 80 33 22 34 23 35
REMARK SMILES IDX 24 36 74 37 25 38 79 39 73 40 75 41 26 42 78 43 72 44 71 45
REMARK SMILES IDX 27 47 59 48 39 49 58 50 40 51 43 52 57 53 76 54 41 55 42 56
REMARK SMILES IDX 56 58 77 59 44 60 28 61 29 62 37 63 30 64 32 65 38 66 31 67
REMARK SMILES IDX 33 68 34 69 35 70 36 71 60 72 61 73 69 74 62 75 64 76 70 77
REMARK SMILES IDX 63 78 65 79 66 80 67 81 68 82 45 83 46 84 54 85 47 86 49 87
REMARK SMILES IDX 55 88 48 89 50 90 51 91 52 92 53 93
REMARK H PARENT 11 6 6 13 16 27 75 46 43 57
REMARK Flexibility Score: inf
ROOT
ATOM      1  C   UNL A   1      33.182  29.183  24.447  1.00  0.00     0.023 C 
ENDROOT
BRANCH   1   2
ATOM      2  C   UNL A   1      33.623  27.771  24.094  1.00  0.00     0.116 C 
BRANCH   2   3
ATOM      3  N   UNL A   1      33.487  27.518  22.676  1.00  0.00    -0.356 N 
ATOM      4  C   UNL A   1      33.580  26.348  21.986  1.00  0.00     0.226 C 
ATOM      5  O   UNL A   1      33.374  26.388  20.770  1.00  0.00    -0.275 OA
ATOM      6  H   UNL A   1      33.299  28.313  22.127  1.00  0.00     0.163 HD
BRANCH   4   7
ATOM      7  C   UNL A   1      33.844  25.025  22.687  1.00  0.00     0.170 C 
BRANCH   7   8
ATOM      8  C   UNL A   1      32.644  24.069  22.980  1.00  0.00     0.224 C 
BRANCH   8   9
ATOM      9  N   UNL A   1      33.069  22.657  22.885  1.00  0.00    -0.327 N 
ATOM     10  C   UNL A   1      33.000  20.803  23.903  1.00  0.00     0.099 C 
ATOM     11  C   UNL A   1      32.042  21.620  22.981  1.00  0.00     0.272 C 
ATOM     12  C   UNL A   1      33.817  22.111  24.013  1.00  0.00     0.272 C 
ATOM     13  H   UNL A   1      33.542  22.783  21.990  1.00  0.00     0.348 HD
BRANCH  10  14
ATOM     14  C   UNL A   1      32.470  20.292  25.243  1.00  0.00     0.015 C 
BRANCH  14  15
ATOM     15  C   UNL A   1      32.963  18.885  25.567  1.00  0.00    -0.003 C 
ATOM     16  C   UNL A   1      32.327  17.826  24.675  1.00  0.00     0.004 C 
ENDBRANCH  14  15
ENDBRANCH  10  14
ENDBRANCH   8   9
BRANCH   8  17
ATOM     17  C   UNL A   1      31.669  24.603  24.052  1.00  0.00     0.010 A 
ATOM     18  C   UNL A   1      31.823  24.466  25.439  1.00  0.00     0.010 A 
ATOM     19  C   UNL A   1      30.502  25.276  23.624  1.00  0.00     0.010 A 
ATOM     20  C   UNL A   1      30.907  25.014  26.349  1.00  0.00     0.001 A 
ATOM     21  C   UNL A   1      29.595  25.845  24.527  1.00  0.00     0.001 A 
ATOM     22  C   UNL A   1      29.802  25.719  25.893  1.00  0.00     0.000 A 
ENDBRANCH   8  17
ENDBRANCH   7   8
ENDBRANCH   4   7
ENDBRANCH   2   3
ENDBRANCH   1   2
BRANCH   1  23
ATOM     23  C   UNL A   1      32.028  29.302  25.425  1.00  0.00     0.023 C 
BRANCH  23  24
ATOM     24  C   UNL A   1      32.444  29.801  26.797  1.00  0.00     0.116 C 
BRANCH  24  25
ATOM     25  N   UNL A   1      32.357  31.252  26.944  1.00  0.00    -0.352 N 
ATOM     26  C   UNL A   1      33.296  32.120  27.456  1.00  0.00     0.251 C 
ATOM     27  H   UNL A   1      31.517  31.664  26.636  1.00  0.00     0.163 HD
ATOM     28  O   UNL A   1      33.044  33.306  27.596  1.00  0.00    -0.269 OA
BRANCH  26  29
ATOM     29  C   UNL A   1      34.598  31.564  27.876  1.00  0.00     0.039 A 
ATOM     30  C   UNL A   1      35.678  32.428  28.064  1.00  0.00     0.014 A 
ATOM     31  C   UNL A   1      34.704  30.208  28.191  1.00  0.00     0.014 A 
ATOM     32  C   UNL A   1      36.845  31.940  28.654  1.00  0.00     0.010 A 
ATOM     33  C   UNL A   1      35.816  29.757  28.882  1.00  0.00     0.010 A 
ATOM     34  C   UNL A   1      36.903  30.613  29.111  1.00  0.00    -0.014 A 
BRANCH  34  35
ATOM     35  C   UNL A   1      38.092  30.076  29.818  1.00  0.00     0.031 A 
ATOM     36  C   UNL A   1      38.405  30.563  31.207  1.00  0.00     0.074 A 
ATOM     37  C   UNL A   1      38.943  29.252  29.174  1.00  0.00     0.049 A 
ATOM     38  N   UNL A   1      39.454  30.322  31.949  1.00  0.00    -0.248 NA
ATOM     39  C   UNL A   1      37.435  31.484  31.826  1.00  0.00     0.031 C 
ATOM     40  C   UNL A   1      38.800  28.791  27.790  1.00  0.00     0.029 A 
ATOM     41  N   UNL A   1      40.118  28.679  29.591  1.00  0.00    -0.354 N 
ATOM     42  C   UNL A   1      39.296  31.102  33.087  1.00  0.00     0.074 A 
ATOM     43  C   UNL A   1      38.078  31.861  32.920  1.00  0.00     0.031 C 
ATOM     44  C   UNL A   1      39.837  27.996  27.481  1.00  0.00     0.029 A 
ATOM     45  C   UNL A   1      40.731  27.910  28.630  1.00  0.00     0.049 A 
ATOM     46  H   UNL A   1      40.487  28.807  30.495  1.00  0.00     0.167 HD
ATOM     47  C   UNL A   1      40.072  31.152  34.195  1.00  0.00     0.034 A 
ATOM     48  C   UNL A   1      41.884  27.212  28.676  1.00  0.00     0.034 A 
ATOM     49  C   UNL A   1      41.230  30.326  34.392  1.00  0.00     0.049 A 
ATOM     50  C   UNL A   1      42.674  27.206  29.957  1.00  0.00     0.074 A 
ATOM     51  C   UNL A   1      42.025  30.214  35.518  1.00  0.00     0.029 A 
ATOM     52  N   UNL A   1      41.746  29.457  33.444  1.00  0.00    -0.354 N 
ATOM     53  N   UNL A   1      42.424  27.828  31.084  1.00  0.00    -0.248 NA
ATOM     54  C   UNL A   1      43.884  26.371  29.988  1.00  0.00     0.031 C 
ATOM     55  C   UNL A   1      43.025  29.272  35.249  1.00  0.00     0.029 A 
ATOM     56  C   UNL A   1      42.845  28.796  33.960  1.00  0.00     0.049 A 
ATOM     57  H   UNL A   1      41.384  29.329  32.538  1.00  0.00     0.167 HD
ATOM     58  C   UNL A   1      43.421  27.432  31.968  1.00  0.00     0.074 A 
ATOM     59  C   UNL A   1      44.267  26.500  31.251  1.00  0.00     0.031 C 
ATOM     60  C   UNL A   1      43.630  27.819  33.251  1.00  0.00     0.034 A 
BRANCH  47  61
ATOM     61  C   UNL A   1      39.638  32.066  35.309  1.00  0.00     0.023 A 
ATOM     62  C   UNL A   1      40.059  33.412  35.303  1.00  0.00     0.012 A 
ATOM     63  C   UNL A   1      38.789  31.613  36.337  1.00  0.00     0.148 A 
ATOM     64  C   UNL A   1      39.678  34.282  36.322  1.00  0.00     0.002 A 
ATOM     65  C   UNL A   1      38.375  32.499  37.326  1.00  0.00     0.091 A 
ATOM     66  F   UNL A   1      38.417  30.325  36.340  1.00  0.00    -0.205 F 
ATOM     67  C   UNL A   1      38.828  33.829  37.327  1.00  0.00     0.022 A 
BRANCH  65  68
ATOM     68  S   UNL A   1      37.221  32.034  38.622  1.00  0.00     0.127 S 
ATOM     69  O   UNL A   1      37.898  32.538  39.815  1.00  0.00    -0.237 OA
ATOM     70  O   UNL A   1      36.018  32.777  38.244  1.00  0.00    -0.237 OA
ATOM     71  O   UNL A   1      37.089  30.587  38.540  1.00  0.00    -0.744 OA
ENDBRANCH  65  68
ENDBRANCH  47  61
BRANCH  48  72
ATOM     72  C   UNL A   1      42.304  26.383  27.511  1.00  0.00     0.023 A 
ATOM     73  C   UNL A   1      43.062  26.982  26.485  1.00  0.00     0.012 A 
ATOM     74  C   UNL A   1      41.988  25.015  27.419  1.00  0.00     0.148 A 
ATOM     75  C   UNL A   1      43.469  26.243  25.373  1.00  0.00     0.002 A 
ATOM     76  C   UNL A   1      42.441  24.271  26.333  1.00  0.00     0.091 A 
ATOM     77  F   UNL A   1      41.255  24.463  28.397  1.00  0.00    -0.205 F 
ATOM     78  C   UNL A   1      43.167  24.886  25.302  1.00  0.00     0.022 A 
BRANCH  76  79
ATOM     79  S   UNL A   1      42.206  22.492  26.226  1.00  0.00     0.127 S 
ATOM     80  O   UNL A   1      40.752  22.383  26.198  1.00  0.00    -0.237 OA
ATOM     81  O   UNL A   1      42.873  22.171  24.964  1.00  0.00    -0.237 OA
ATOM     82  O   UNL A   1      42.867  21.945  27.404  1.00  0.00    -0.744 OA
ENDBRANCH  76  79
ENDBRANCH  48  72
BRANCH  60  83
ATOM     83  C   UNL A   1      44.796  27.212  33.981  1.00  0.00     0.023 A 
ATOM     84  C   UNL A   1      46.058  27.832  33.914  1.00  0.00     0.012 A 
ATOM     85  C   UNL A   1      44.618  26.083  34.804  1.00  0.00     0.148 A 
ATOM     86  C   UNL A   1      47.135  27.322  34.639  1.00  0.00     0.002 A 
ATOM     87  C   UNL A   1      45.684  25.608  35.558  1.00  0.00     0.091 A 
ATOM     88  F   UNL A   1      43.413  25.496  34.836  1.00  0.00    -0.205 F 
ATOM     89  C   UNL A   1      46.945  26.220  35.469  1.00  0.00     0.022 A 
BRANCH  87  90
ATOM     90  S   UNL A   1      45.502  24.255  36.725  1.00  0.00     0.127 S 
ATOM     91  O   UNL A   1      45.266  23.121  35.833  1.00  0.00    -0.237 OA
ATOM     92  O   UNL A   1      46.803  24.242  37.396  1.00  0.00    -0.237 OA
ATOM     93  O   UNL A   1      44.386  24.620  37.587  1.00  0.00    -0.744 OA
ENDBRANCH  87  90
ENDBRANCH  60  83
ENDBRANCH  34  35
ENDBRANCH  26  29
ENDBRANCH  24  25
ENDBRANCH  23  24
ENDBRANCH   1  23
TORSDOF 19
ENDMDL
MODEL 3
REMARK VINA RESULT:     -11.1      0.892      7.877
REMARK SMILES CCCC1C[NH+]([C@H](CC(=O)NCCCCNC(=O)c2ccc(-c3c4nc(c(-c5cccc(S(=O)(=O)[O-])c5F)c5ccc([nH]5)c(-c5cccc(S(=O)(=O)[O-])c5F)c5nc(c(-c6cccc(S(=O)(=O)[O-])c6F)c6ccc3[nH]6)C=C5)C=C4)cc2)c2ccccc2)C1
REMARK SMILES IDX 13 1 12 2 11 3 9 4 10 5 8 7 7 8 6 9 4 10 5 11 88 12 3 14
REMARK SMILES IDX 2 15 1 16 82 17 83 18 87 19 84 20 86 21 85 22 14 23 15 24
REMARK SMILES IDX 16 25 17 26 18 28 19 29 20 30 81 31 21 32 80 33 22 34 23 35
REMARK SMILES IDX 24 36 74 37 25 38 79 39 73 40 75 41 26 42 78 43 72 44 71 45
REMARK SMILES IDX 27 47 59 48 39 49 58 50 40 51 43 52 57 53 76 54 41 55 42 56
REMARK SMILES IDX 56 58 77 59 44 60 28 61 29 62 37 63 30 64 32 65 38 66 31 67
REMARK SMILES IDX 33 68 34 69 35 70 36 71 60 72 61 73 69 74 62 75 64 76 70 77
REMARK SMILES IDX 63 78 65 79 66 80 67 81 68 82 45 83 46 84 54 85 47 86 49 87
REMARK SMILES IDX 55 88 48 89 50 90 51 91 52 92 53 93
REMARK H PARENT 11 6 6 13 16 27 75 46 43 57
REMARK Flexibility Score: inf
ROOT
ATOM      1  C   UNL A   1      31.770  26.864  26.154  1.00  0.00     0.023 C 
ENDROOT
BRANCH   1   2
ATOM      2  C   UNL A   1      30.430  26.266  25.755  1.00  0.00     0.116 C 
BRANCH   2   3
ATOM      3  N   UNL A   1      30.149  25.061  26.504  1.00  0.00    -0.356 N 
ATOM      4  C   UNL A   1      30.752  23.841  26.452  1.00  0.00     0.226 C 
ATOM      5  O   UNL A   1      30.355  22.977  27.238  1.00  0.00    -0.275 OA
ATOM      6  H   UNL A   1      29.410  25.133  27.150  1.00  0.00     0.163 HD
BRANCH   4   7
ATOM      7  C   UNL A   1      31.924  23.568  25.523  1.00  0.00     0.170 C 
BRANCH   7   8
ATOM      8  C   UNL A   1      32.998  22.516  25.946  1.00  0.00     0.224 C 
BRANCH   8   9
ATOM      9  N   UNL A   1      32.423  21.155  25.944  1.00  0.00    -0.327 N 
ATOM     10  C   UNL A   1      32.703  19.206  25.168  1.00  0.00     0.099 C 
ATOM     11  C   UNL A   1      33.280  20.043  26.352  1.00  0.00     0.272 C 
ATOM     12  C   UNL A   1      32.149  20.551  24.644  1.00  0.00     0.272 C 
ATOM     13  H   UNL A   1      31.640  21.405  26.549  1.00  0.00     0.348 HD
BRANCH  10  14
ATOM     14  C   UNL A   1      33.679  18.524  24.207  1.00  0.00     0.015 C 
BRANCH  14  15
ATOM     15  C   UNL A   1      32.998  17.475  23.332  1.00  0.00    -0.003 C 
ATOM     16  C   UNL A   1      32.372  18.078  22.082  1.00  0.00     0.004 C 
ENDBRANCH  14  15
ENDBRANCH  10  14
ENDBRANCH   8   9
BRANCH   8  17
ATOM     17  C   UNL A   1      34.423  22.847  25.452  1.00  0.00     0.010 A 
ATOM     18  C   UNL A   1      35.480  23.308  26.250  1.00  0.00     0.010 A 
ATOM     19  C   UNL A   1      34.709  22.698  24.075  1.00  0.00     0.010 A 
ATOM     20  C   UNL A   1      36.759  23.551  25.729  1.00  0.00     0.001 A 
ATOM     21  C   UNL A   1      35.989  22.917  23.551  1.00  0.00     0.001 A 
ATOM     22  C   UNL A   1      37.018  23.338  24.381  1.00  0.00     0.000 A 
ENDBRANCH   8  17
ENDBRANCH   7   8
ENDBRANCH   4   7
ENDBRANCH   2   3
ENDBRANCH   1   2
BRANCH   1  23
ATOM     23  C   UNL A   1      31.960  28.342  25.864  1.00  0.00     0.023 C 
BRANCH  23  24
ATOM     24  C   UNL A   1      32.308  29.161  27.093  1.00  0.00     0.116 C 
BRANCH  24  25
ATOM     25  N   UNL A   1      32.082  30.595  26.925  1.00  0.00    -0.352 N 
ATOM     26  C   UNL A   1      32.937  31.637  27.207  1.00  0.00     0.251 C 
ATOM     27  H   UNL A   1      31.203  30.850  26.562  1.00  0.00     0.163 HD
ATOM     28  O   UNL A   1      32.573  32.796  27.093  1.00  0.00    -0.269 OA
BRANCH  26  29
ATOM     29  C   UNL A   1      34.292  31.310  27.695  1.00  0.00     0.039 A 
ATOM     30  C   UNL A   1      35.175  32.347  28.000  1.00  0.00     0.014 A 
ATOM     31  C   UNL A   1      34.633  29.981  27.955  1.00  0.00     0.014 A 
ATOM     32  C   UNL A   1      36.373  32.051  28.651  1.00  0.00     0.010 A 
ATOM     33  C   UNL A   1      35.763  29.705  28.705  1.00  0.00     0.010 A 
ATOM     34  C   UNL A   1      36.653  30.734  29.051  1.00  0.00    -0.014 A 
BRANCH  34  35
ATOM     35  C   UNL A   1      37.874  30.386  29.818  1.00  0.00     0.031 A 
ATOM     36  C   UNL A   1      38.866  29.422  29.226  1.00  0.00     0.074 A 
ATOM     37  C   UNL A   1      38.029  30.839  31.079  1.00  0.00     0.049 A 
ATOM     38  N   UNL A   1      39.926  28.889  29.774  1.00  0.00    -0.248 NA
ATOM     39  C   UNL A   1      38.605  28.954  27.853  1.00  0.00     0.031 C 
ATOM     40  C   UNL A   1      37.084  31.697  31.798  1.00  0.00     0.029 A 
ATOM     41  N   UNL A   1      39.028  30.613  31.991  1.00  0.00    -0.354 N 
ATOM     42  C   UNL A   1      40.419  27.987  28.839  1.00  0.00     0.074 A 
ATOM     43  C   UNL A   1      39.519  28.007  27.709  1.00  0.00     0.031 C 
ATOM     44  C   UNL A   1      37.557  31.937  33.032  1.00  0.00     0.029 A 
ATOM     45  C   UNL A   1      38.823  31.231  33.203  1.00  0.00     0.049 A 
ATOM     46  H   UNL A   1      39.820  30.059  31.797  1.00  0.00     0.167 HD
ATOM     47  C   UNL A   1      41.546  27.239  28.894  1.00  0.00     0.034 A 
ATOM     48  C   UNL A   1      39.573  31.228  34.322  1.00  0.00     0.034 A 
ATOM     49  C   UNL A   1      42.484  27.295  29.979  1.00  0.00     0.049 A 
ATOM     50  C   UNL A   1      40.873  30.468  34.318  1.00  0.00     0.074 A 
ATOM     51  C   UNL A   1      43.711  26.666  30.090  1.00  0.00     0.029 A 
ATOM     52  N   UNL A   1      42.305  28.038  31.135  1.00  0.00    -0.354 N 
ATOM     53  N   UNL A   1      41.403  29.746  33.361  1.00  0.00    -0.248 NA
ATOM     54  C   UNL A   1      41.698  30.555  35.533  1.00  0.00     0.031 C 
ATOM     55  C   UNL A   1      44.276  27.031  31.316  1.00  0.00     0.029 A 
ATOM     56  C   UNL A   1      43.403  27.892  31.963  1.00  0.00     0.049 A 
ATOM     57  H   UNL A   1      41.515  28.588  31.337  1.00  0.00     0.167 HD
ATOM     58  C   UNL A   1      42.638  29.322  33.841  1.00  0.00     0.074 A 
ATOM     59  C   UNL A   1      42.784  29.888  35.167  1.00  0.00     0.031 C 
ATOM     60  C   UNL A   1      43.558  28.522  33.249  1.00  0.00     0.034 A 
BRANCH  47  61
ATOM     61  C   UNL A   1      41.864  26.370  27.707  1.00  0.00     0.023 A 
ATOM     62  C   UNL A   1      42.531  26.931  26.598  1.00  0.00     0.012 A 
ATOM     63  C   UNL A   1      41.541  25.000  27.697  1.00  0.00     0.148 A 
ATOM     64  C   UNL A   1      42.835  26.154  25.482  1.00  0.00     0.002 A 
ATOM     65  C   UNL A   1      41.888  24.220  26.599  1.00  0.00     0.091 A 
ATOM     66  F   UNL A   1      40.885  24.489  28.749  1.00  0.00    -0.205 F 
ATOM     67  C   UNL A   1      42.524  24.797  25.487  1.00  0.00     0.022 A 
BRANCH  65  68
ATOM     68  S   UNL A   1      41.599  22.448  26.539  1.00  0.00     0.127 S 
ATOM     69  O   UNL A   1      40.140  22.390  26.468  1.00  0.00    -0.237 OA
ATOM     70  O   UNL A   1      42.286  22.065  25.305  1.00  0.00    -0.237 OA
ATOM     71  O   UNL A   1      42.190  21.905  27.754  1.00  0.00    -0.744 OA
ENDBRANCH  65  68
ENDBRANCH  47  61
BRANCH  48  72
ATOM     72  C   UNL A   1      39.168  32.050  35.497  1.00  0.00     0.023 A 
ATOM     73  C   UNL A   1      38.283  31.497  36.444  1.00  0.00     0.012 A 
ATOM     74  C   UNL A   1      39.664  33.351  35.703  1.00  0.00     0.148 A 
ATOM     75  C   UNL A   1      37.873  32.235  37.555  1.00  0.00     0.002 A 
ATOM     76  C   UNL A   1      39.292  34.063  36.839  1.00  0.00     0.091 A 
ATOM     77  F   UNL A   1      40.495  33.867  34.786  1.00  0.00    -0.205 F 
ATOM     78  C   UNL A   1      38.385  33.514  37.758  1.00  0.00     0.022 A 
BRANCH  76  79
ATOM     79  S   UNL A   1      40.003  35.663  37.242  1.00  0.00     0.127 S 
ATOM     80  O   UNL A   1      39.651  36.452  36.067  1.00  0.00    -0.237 OA
ATOM     81  O   UNL A   1      39.280  36.021  38.464  1.00  0.00    -0.237 OA
ATOM     82  O   UNL A   1      41.425  35.414  37.444  1.00  0.00    -0.744 OA
ENDBRANCH  76  79
ENDBRANCH  48  72
BRANCH  60  83
ATOM     83  C   UNL A   1      44.825  28.237  34.007  1.00  0.00     0.023 A 
ATOM     84  C   UNL A   1      45.917  29.117  33.892  1.00  0.00     0.012 A 
ATOM     85  C   UNL A   1      44.897  27.150  34.900  1.00  0.00     0.148 A 
ATOM     86  C   UNL A   1      47.076  28.907  34.639  1.00  0.00     0.002 A 
ATOM     87  C   UNL A   1      46.037  26.973  35.675  1.00  0.00     0.091 A 
ATOM     88  F   UNL A   1      43.853  26.313  34.978  1.00  0.00    -0.205 F 
ATOM     89  C   UNL A   1      47.130  27.844  35.538  1.00  0.00     0.022 A 
BRANCH  87  90
ATOM     90  S   UNL A   1      46.153  25.689  36.925  1.00  0.00     0.127 S 
ATOM     91  O   UNL A   1      46.092  24.475  36.113  1.00  0.00    -0.237 OA
ATOM     92  O   UNL A   1      47.461  25.955  37.527  1.00  0.00    -0.237 OA
ATOM     93  O   UNL A   1      45.025  25.904  37.822  1.00  0.00    -0.744 OA
ENDBRANCH  87  90
ENDBRANCH  60  83
ENDBRANCH  34  35
ENDBRANCH  26  29
ENDBRANCH  24  25
ENDBRANCH  23  24
ENDBRANCH   1  23
TORSDOF 19
ENDMDL
