MODEL 1
REMARK VINA RESULT:     -11.8      0.000      0.000
REMARK SMILES CC1(C)C(C(=O)Nc2ccc(CC(=O)NCCCCNC(=O)c3ccc(-c4c5nc(c(-c6cccc(S(=O)(=O)[O-])c6F)c6ccc([nH]6)c(-c6cccc(S(=O)(=O)[O-])c6F)c6nc(c(-c7cccc(S(=O)(=O)[O-])c7F)c7ccc4[nH]7)C=C6)C=C5)cc3)cc2)C1(C)C
REMARK SMILES IDX 17 1 16 2 15 3 13 4 14 5 12 7 11 8 8 9 9 10 87 11 10 12
REMARK SMILES IDX 86 13 7 14 5 15 6 16 4 18 1 19 2 20 3 21 88 22 89 23 90 24
REMARK SMILES IDX 18 25 19 26 20 27 21 28 22 30 23 31 24 32 85 33 25 34 84 35
REMARK SMILES IDX 26 36 27 37 28 38 78 39 29 40 83 41 77 42 79 43 30 44 82 45
REMARK SMILES IDX 76 46 75 47 31 49 63 50 43 51 62 52 44 53 47 54 61 55 80 56
REMARK SMILES IDX 45 57 46 58 60 60 81 61 48 62 32 63 33 64 41 65 34 66 36 67
REMARK SMILES IDX 42 68 35 69 37 70 38 71 39 72 40 73 64 74 65 75 73 76 66 77
REMARK SMILES IDX 68 78 74 79 67 80 69 81 70 82 71 83 72 84 49 85 50 86 58 87
REMARK SMILES IDX 51 88 53 89 59 90 52 91 54 92 55 93 56 94 57 95
REMARK H PARENT 15 6 7 17 20 29 79 48 47 59
REMARK Flexibility Score: inf
ROOT
ATOM      1  C   UNL A   1      32.056  29.603  24.777  1.00  0.00     0.023 C 
ENDROOT
BRANCH   1   2
ATOM      2  C   UNL A   1      30.662  30.236  24.738  1.00  0.00     0.116 C 
BRANCH   2   3
ATOM      3  N   UNL A   1      30.207  30.450  23.380  1.00  0.00    -0.356 N 
ATOM      4  C   UNL A   1      29.539  29.595  22.550  1.00  0.00     0.224 C 
ATOM      5  O   UNL A   1      29.295  29.964  21.399  1.00  0.00    -0.275 OA
ATOM      6  H   UNL A   1      30.407  31.337  23.002  1.00  0.00     0.163 HD
BRANCH   4   7
ATOM      7  C   UNL A   1      29.036  28.260  23.057  1.00  0.00     0.135 C 
BRANCH   7   8
ATOM      8  C   UNL A   1      30.040  27.136  23.065  1.00  0.00    -0.039 A 
ATOM      9  C   UNL A   1      31.649  24.859  22.877  1.00  0.00     0.041 A 
ATOM     10  C   UNL A   1      32.002  26.010  22.172  1.00  0.00     0.026 A 
ATOM     11  C   UNL A   1      30.659  24.928  23.837  1.00  0.00     0.026 A 
ATOM     12  C   UNL A   1      31.197  27.154  22.274  1.00  0.00     0.006 A 
ATOM     13  C   UNL A   1      29.804  26.017  23.864  1.00  0.00     0.006 A 
BRANCH   9  14
ATOM     14  N   UNL A   1      32.220  23.619  22.560  1.00  0.00    -0.326 N 
ATOM     15  C   UNL A   1      33.510  23.255  22.893  1.00  0.00     0.228 C 
ATOM     16  O   UNL A   1      34.315  22.985  22.003  1.00  0.00    -0.274 OA
ATOM     17  H   UNL A   1      31.667  22.967  22.072  1.00  0.00     0.169 HD
BRANCH  15  18
ATOM     18  C   UNL A   1      33.861  22.824  24.293  1.00  0.00     0.091 C 
ATOM     19  C   UNL A   1      35.689  21.381  25.396  1.00  0.00     0.012 C 
ATOM     20  C   UNL A   1      35.271  22.754  24.897  1.00  0.00    -0.017 C 
ATOM     21  C   UNL A   1      36.492  23.476  24.384  1.00  0.00     0.012 C 
ATOM     22  C   UNL A   1      34.134  23.549  25.601  1.00  0.00    -0.017 C 
ATOM     23  C   UNL A   1      33.532  22.953  26.862  1.00  0.00     0.012 C 
ATOM     24  C   UNL A   1      34.096  25.056  25.695  1.00  0.00     0.012 C 
ENDBRANCH  15  18
ENDBRANCH   9  14
ENDBRANCH   7   8
ENDBRANCH   4   7
ENDBRANCH   2   3
ENDBRANCH   1   2
BRANCH   1  25
ATOM     25  C   UNL A   1      32.375  28.825  26.046  1.00  0.00     0.023 C 
BRANCH  25  26
ATOM     26  C   UNL A   1      33.645  29.266  26.748  1.00  0.00     0.116 C 
BRANCH  26  27
ATOM     27  N   UNL A   1      33.564  30.611  27.296  1.00  0.00    -0.352 N 
ATOM     28  C   UNL A   1      34.465  31.246  28.124  1.00  0.00     0.251 C 
ATOM     29  H   UNL A   1      32.767  31.134  27.044  1.00  0.00     0.163 HD
ATOM     30  O   UNL A   1      34.215  32.338  28.596  1.00  0.00    -0.269 OA
BRANCH  28  31
ATOM     31  C   UNL A   1      35.726  30.544  28.456  1.00  0.00     0.039 A 
ATOM     32  C   UNL A   1      36.865  30.814  27.696  1.00  0.00     0.014 A 
ATOM     33  C   UNL A   1      35.792  29.683  29.554  1.00  0.00     0.014 A 
ATOM     34  C   UNL A   1      38.089  30.262  28.079  1.00  0.00     0.010 A 
ATOM     35  C   UNL A   1      37.026  29.210  29.985  1.00  0.00     0.010 A 
ATOM     36  C   UNL A   1      38.185  29.484  29.245  1.00  0.00    -0.014 A 
BRANCH  36  37
ATOM     37  C   UNL A   1      39.490  28.950  29.708  1.00  0.00     0.031 A 
ATOM     38  C   UNL A   1      40.235  29.636  30.820  1.00  0.00     0.074 A 
ATOM     39  C   UNL A   1      40.042  27.896  29.074  1.00  0.00     0.049 A 
ATOM     40  N   UNL A   1      41.395  29.334  31.344  1.00  0.00    -0.248 NA
ATOM     41  C   UNL A   1      39.612  30.838  31.402  1.00  0.00     0.031 C 
ATOM     42  C   UNL A   1      39.462  27.202  27.921  1.00  0.00     0.029 A 
ATOM     43  N   UNL A   1      41.225  27.237  29.296  1.00  0.00    -0.354 N 
ATOM     44  C   UNL A   1      41.654  30.320  32.287  1.00  0.00     0.074 A 
ATOM     45  C   UNL A   1      40.552  31.256  32.236  1.00  0.00     0.031 C 
ATOM     46  C   UNL A   1      40.286  26.210  27.546  1.00  0.00     0.029 A 
ATOM     47  C   UNL A   1      41.461  26.211  28.411  1.00  0.00     0.049 A 
ATOM     48  H   UNL A   1      41.847  27.476  30.022  1.00  0.00     0.167 HD
ATOM     49  C   UNL A   1      42.697  30.422  33.144  1.00  0.00     0.034 A 
ATOM     50  C   UNL A   1      42.506  25.368  28.308  1.00  0.00     0.034 A 
ATOM     51  C   UNL A   1      43.766  29.464  33.224  1.00  0.00     0.049 A 
ATOM     52  C   UNL A   1      43.629  25.472  29.306  1.00  0.00     0.074 A 
ATOM     53  C   UNL A   1      44.816  29.422  34.124  1.00  0.00     0.029 A 
ATOM     54  N   UNL A   1      43.927  28.386  32.369  1.00  0.00    -0.354 N 
ATOM     55  N   UNL A   1      43.768  26.307  30.307  1.00  0.00    -0.248 NA
ATOM     56  C   UNL A   1      44.718  24.493  29.184  1.00  0.00     0.031 C 
ATOM     57  C   UNL A   1      45.628  28.331  33.795  1.00  0.00     0.029 A 
ATOM     58  C   UNL A   1      45.067  27.678  32.711  1.00  0.00     0.049 A 
ATOM     59  H   UNL A   1      43.321  28.158  31.628  1.00  0.00     0.167 HD
ATOM     60  C   UNL A   1      44.941  25.934  30.954  1.00  0.00     0.074 A 
ATOM     61  C   UNL A   1      45.459  24.780  30.246  1.00  0.00     0.031 C 
ATOM     62  C   UNL A   1      45.543  26.502  32.027  1.00  0.00     0.034 A 
BRANCH  49  63
ATOM     63  C   UNL A   1      42.702  31.582  34.106  1.00  0.00     0.023 A 
ATOM     64  C   UNL A   1      43.280  32.808  33.713  1.00  0.00     0.012 A 
ATOM     65  C   UNL A   1      42.090  31.480  35.369  1.00  0.00     0.148 A 
ATOM     66  C   UNL A   1      43.281  33.902  34.577  1.00  0.00     0.002 A 
ATOM     67  C   UNL A   1      42.054  32.589  36.206  1.00  0.00     0.091 A 
ATOM     68  F   UNL A   1      41.566  30.302  35.734  1.00  0.00    -0.205 F 
ATOM     69  C   UNL A   1      42.659  33.796  35.817  1.00  0.00     0.022 A 
BRANCH  67  70
ATOM     70  S   UNL A   1      41.207  32.581  37.791  1.00  0.00     0.127 S 
ATOM     71  O   UNL A   1      42.037  31.658  38.563  1.00  0.00    -0.237 OA
ATOM     72  O   UNL A   1      41.310  33.981  38.201  1.00  0.00    -0.237 OA
ATOM     73  O   UNL A   1      39.851  32.125  37.519  1.00  0.00    -0.744 OA
ENDBRANCH  67  70
ENDBRANCH  49  63
BRANCH  50  74
ATOM     74  C   UNL A   1      42.507  24.306  27.262  1.00  0.00     0.023 A 
ATOM     75  C   UNL A   1      43.356  24.437  26.144  1.00  0.00     0.012 A 
ATOM     76  C   UNL A   1      41.695  23.162  27.377  1.00  0.00     0.148 A 
ATOM     77  C   UNL A   1      43.371  23.464  25.145  1.00  0.00     0.002 A 
ATOM     78  C   UNL A   1      41.757  22.170  26.405  1.00  0.00     0.091 A 
ATOM     79  F   UNL A   1      40.888  23.062  28.442  1.00  0.00    -0.205 F 
ATOM     80  C   UNL A   1      42.579  22.327  25.280  1.00  0.00     0.022 A 
BRANCH  78  81
ATOM     81  S   UNL A   1      40.872  20.613  26.563  1.00  0.00     0.127 S 
ATOM     82  O   UNL A   1      39.527  20.991  26.135  1.00  0.00    -0.237 OA
ATOM     83  O   UNL A   1      41.600  19.757  25.626  1.00  0.00    -0.237 OA
ATOM     84  O   UNL A   1      41.008  20.225  27.960  1.00  0.00    -0.744 OA
ENDBRANCH  78  81
ENDBRANCH  50  74
BRANCH  62  85
ATOM     85  C   UNL A   1      46.818  25.874  32.527  1.00  0.00     0.023 A 
ATOM     86  C   UNL A   1      46.781  24.992  33.625  1.00  0.00     0.012 A 
ATOM     87  C   UNL A   1      48.041  26.103  31.865  1.00  0.00     0.148 A 
ATOM     88  C   UNL A   1      47.946  24.373  34.078  1.00  0.00     0.002 A 
ATOM     89  C   UNL A   1      49.188  25.444  32.289  1.00  0.00     0.091 A 
ATOM     90  F   UNL A   1      48.059  26.960  30.834  1.00  0.00    -0.205 F 
ATOM     91  C   UNL A   1      49.145  24.590  33.403  1.00  0.00     0.022 A 
BRANCH  89  92
ATOM     92  S   UNL A   1      50.756  25.585  31.423  1.00  0.00     0.127 S 
ATOM     93  O   UNL A   1      50.349  25.373  30.035  1.00  0.00    -0.237 OA
ATOM     94  O   UNL A   1      51.162  26.956  31.737  1.00  0.00    -0.237 OA
ATOM     95  O   UNL A   1      51.619  24.556  31.986  1.00  0.00    -0.744 OA
ENDBRANCH  89  92
ENDBRANCH  62  85
ENDBRANCH  36  37
ENDBRANCH  28  31
ENDBRANCH  26  27
ENDBRANCH  25  26
ENDBRANCH   1  25
TORSDOF 17
ENDMDL
MODEL 2
REMARK VINA RESULT:     -11.7      3.836      9.546
REMARK SMILES CC1(C)C(C(=O)Nc2ccc(CC(=O)NCCCCNC(=O)c3ccc(-c4c5nc(c(-c6cccc(S(=O)(=O)[O-])c6F)c6ccc([nH]6)c(-c6cccc(S(=O)(=O)[O-])c6F)c6nc(c(-c7cccc(S(=O)(=O)[O-])c7F)c7ccc4[nH]7)C=C6)C=C5)cc3)cc2)C1(C)C
REMARK SMILES IDX 17 1 16 2 15 3 13 4 14 5 12 7 11 8 8 9 9 10 87 11 10 12
REMARK SMILES IDX 86 13 7 14 5 15 6 16 4 18 1 19 2 20 3 21 88 22 89 23 90 24
REMARK SMILES IDX 18 25 19 26 20 27 21 28 22 30 23 31 24 32 85 33 25 34 84 35
REMARK SMILES IDX 26 36 27 37 28 38 78 39 29 40 83 41 77 42 79 43 30 44 82 45
REMARK SMILES IDX 76 46 75 47 31 49 63 50 43 51 62 52 44 53 47 54 61 55 80 56
REMARK SMILES IDX 45 57 46 58 60 60 81 61 48 62 32 63 33 64 41 65 34 66 36 67
REMARK SMILES IDX 42 68 35 69 37 70 38 71 39 72 40 73 64 74 65 75 73 76 66 77
REMARK SMILES IDX 68 78 74 79 67 80 69 81 70 82 71 83 72 84 49 85 50 86 58 87
REMARK SMILES IDX 51 88 53 89 59 90 52 91 54 92 55 93 56 94 57 95
REMARK H PARENT 15 6 7 17 20 29 79 48 47 59
REMARK Flexibility Score: inf
ROOT
ATOM      1  C   UNL A   1      35.515  21.546  25.884  1.00  0.00     0.023 C 
ENDROOT
BRANCH   1   2
ATOM      2  C   UNL A   1      35.451  20.270  25.040  1.00  0.00     0.116 C 
BRANCH   2   3
ATOM      3  N   UNL A   1      34.190  19.578  25.211  1.00  0.00    -0.356 N 
ATOM      4  C   UNL A   1      32.953  19.907  24.732  1.00  0.00     0.224 C 
ATOM      5  O   UNL A   1      31.994  19.200  25.048  1.00  0.00    -0.275 OA
ATOM      6  H   UNL A   1      34.230  18.753  25.747  1.00  0.00     0.163 HD
BRANCH   4   7
ATOM      7  C   UNL A   1      32.780  21.062  23.769  1.00  0.00     0.135 C 
BRANCH   7   8
ATOM      8  C   UNL A   1      31.885  22.181  24.236  1.00  0.00    -0.039 A 
ATOM      9  C   UNL A   1      30.544  24.432  25.206  1.00  0.00     0.041 A 
ATOM     10  C   UNL A   1      30.594  24.203  23.831  1.00  0.00     0.026 A 
ATOM     11  C   UNL A   1      30.939  23.435  26.076  1.00  0.00     0.026 A 
ATOM     12  C   UNL A   1      31.263  23.068  23.346  1.00  0.00     0.006 A 
ATOM     13  C   UNL A   1      31.687  22.370  25.604  1.00  0.00     0.006 A 
BRANCH   9  14
ATOM     14  N   UNL A   1      30.183  25.689  25.712  1.00  0.00    -0.326 N 
ATOM     15  C   UNL A   1      31.090  26.628  26.164  1.00  0.00     0.228 C 
ATOM     16  O   UNL A   1      31.048  27.000  27.335  1.00  0.00    -0.274 OA
ATOM     17  H   UNL A   1      29.226  25.915  25.748  1.00  0.00     0.169 HD
BRANCH  15  18
ATOM     18  C   UNL A   1      31.878  27.475  25.200  1.00  0.00     0.091 C 
ATOM     19  C   UNL A   1      33.005  29.793  25.244  1.00  0.00     0.012 C 
ATOM     20  C   UNL A   1      33.128  28.305  25.529  1.00  0.00    -0.017 C 
ATOM     21  C   UNL A   1      34.031  28.113  26.722  1.00  0.00     0.012 C 
ATOM     22  C   UNL A   1      33.136  27.267  24.370  1.00  0.00    -0.017 C 
ATOM     23  C   UNL A   1      33.122  27.798  22.948  1.00  0.00     0.012 C 
ATOM     24  C   UNL A   1      33.906  25.969  24.411  1.00  0.00     0.012 C 
ENDBRANCH  15  18
ENDBRANCH   9  14
ENDBRANCH   7   8
ENDBRANCH   4   7
ENDBRANCH   2   3
ENDBRANCH   1   2
BRANCH   1  25
ATOM     25  C   UNL A   1      35.738  22.829  25.095  1.00  0.00     0.023 C 
BRANCH  25  26
ATOM     26  C   UNL A   1      37.103  23.458  25.294  1.00  0.00     0.116 C 
BRANCH  26  27
ATOM     27  N   UNL A   1      38.119  22.508  25.721  1.00  0.00    -0.352 N 
ATOM     28  C   UNL A   1      39.279  22.764  26.422  1.00  0.00     0.251 C 
ATOM     29  H   UNL A   1      37.959  21.566  25.481  1.00  0.00     0.163 HD
ATOM     30  O   UNL A   1      40.095  21.884  26.617  1.00  0.00    -0.269 OA
BRANCH  28  31
ATOM     31  C   UNL A   1      39.523  24.146  26.893  1.00  0.00     0.039 A 
ATOM     32  C   UNL A   1      39.240  24.462  28.223  1.00  0.00     0.014 A 
ATOM     33  C   UNL A   1      40.093  25.096  26.043  1.00  0.00     0.014 A 
ATOM     34  C   UNL A   1      39.588  25.722  28.715  1.00  0.00     0.010 A 
ATOM     35  C   UNL A   1      40.520  26.314  26.559  1.00  0.00     0.010 A 
ATOM     36  C   UNL A   1      40.261  26.644  27.896  1.00  0.00    -0.014 A 
BRANCH  36  37
ATOM     37  C   UNL A   1      40.703  27.960  28.423  1.00  0.00     0.031 A 
ATOM     38  C   UNL A   1      42.171  28.267  28.548  1.00  0.00     0.074 A 
ATOM     39  C   UNL A   1      39.787  28.844  28.863  1.00  0.00     0.049 A 
ATOM     40  N   UNL A   1      42.750  29.346  29.006  1.00  0.00    -0.248 NA
ATOM     41  C   UNL A   1      43.114  27.214  28.133  1.00  0.00     0.031 C 
ATOM     42  C   UNL A   1      38.338  28.625  28.882  1.00  0.00     0.029 A 
ATOM     43  N   UNL A   1      39.939  30.099  29.399  1.00  0.00    -0.354 N 
ATOM     44  C   UNL A   1      44.114  29.092  28.967  1.00  0.00     0.074 A 
ATOM     45  C   UNL A   1      44.279  27.740  28.480  1.00  0.00     0.031 C 
ATOM     46  C   UNL A   1      37.736  29.712  29.393  1.00  0.00     0.029 A 
ATOM     47  C   UNL A   1      38.752  30.693  29.760  1.00  0.00     0.049 A 
ATOM     48  H   UNL A   1      40.815  30.533  29.514  1.00  0.00     0.167 HD
ATOM     49  C   UNL A   1      45.141  29.919  29.273  1.00  0.00     0.034 A 
ATOM     50  C   UNL A   1      38.511  31.891  30.325  1.00  0.00     0.034 A 
ATOM     51  C   UNL A   1      44.975  31.278  29.711  1.00  0.00     0.049 A 
ATOM     52  C   UNL A   1      39.669  32.811  30.609  1.00  0.00     0.074 A 
ATOM     53  C   UNL A   1      45.950  32.228  29.952  1.00  0.00     0.029 A 
ATOM     54  N   UNL A   1      43.755  31.877  29.982  1.00  0.00    -0.354 N 
ATOM     55  N   UNL A   1      40.948  32.617  30.397  1.00  0.00    -0.248 NA
ATOM     56  C   UNL A   1      39.346  34.129  31.173  1.00  0.00     0.031 C 
ATOM     57  C   UNL A   1      45.320  33.397  30.394  1.00  0.00     0.029 A 
ATOM     58  C   UNL A   1      43.952  33.182  30.400  1.00  0.00     0.049 A 
ATOM     59  H   UNL A   1      42.878  31.439  29.891  1.00  0.00     0.167 HD
ATOM     60  C   UNL A   1      41.579  33.798  30.770  1.00  0.00     0.074 A 
ATOM     61  C   UNL A   1      40.538  34.711  31.196  1.00  0.00     0.031 C 
ATOM     62  C   UNL A   1      42.902  34.095  30.774  1.00  0.00     0.034 A 
BRANCH  49  63
ATOM     63  C   UNL A   1      46.542  29.393  29.090  1.00  0.00     0.023 A 
ATOM     64  C   UNL A   1      47.284  28.983  30.218  1.00  0.00     0.012 A 
ATOM     65  C   UNL A   1      47.103  29.253  27.806  1.00  0.00     0.148 A 
ATOM     66  C   UNL A   1      48.574  28.475  30.074  1.00  0.00     0.002 A 
ATOM     67  C   UNL A   1      48.371  28.703  27.667  1.00  0.00     0.091 A 
ATOM     68  F   UNL A   1      46.392  29.669  26.749  1.00  0.00    -0.205 F 
ATOM     69  C   UNL A   1      49.112  28.325  28.799  1.00  0.00     0.022 A 
BRANCH  67  70
ATOM     70  S   UNL A   1      49.124  28.392  26.066  1.00  0.00     0.127 S 
ATOM     71  O   UNL A   1      48.003  28.646  25.160  1.00  0.00    -0.237 OA
ATOM     72  O   UNL A   1      50.182  29.401  26.022  1.00  0.00    -0.237 OA
ATOM     73  O   UNL A   1      49.596  27.016  26.105  1.00  0.00    -0.744 OA
ENDBRANCH  67  70
ENDBRANCH  49  63
BRANCH  50  74
ATOM     74  C   UNL A   1      37.109  32.320  30.594  1.00  0.00     0.023 A 
ATOM     75  C   UNL A   1      36.569  32.151  31.885  1.00  0.00     0.012 A 
ATOM     76  C   UNL A   1      36.317  32.912  29.592  1.00  0.00     0.148 A 
ATOM     77  C   UNL A   1      35.257  32.534  32.163  1.00  0.00     0.002 A 
ATOM     78  C   UNL A   1      35.030  33.342  29.891  1.00  0.00     0.091 A 
ATOM     79  F   UNL A   1      36.845  33.054  28.368  1.00  0.00    -0.205 F 
ATOM     80  C   UNL A   1      34.491  33.137  31.170  1.00  0.00     0.022 A 
BRANCH  78  81
ATOM     81  S   UNL A   1      34.020  34.247  28.712  1.00  0.00     0.127 S 
ATOM     82  O   UNL A   1      33.736  33.220  27.712  1.00  0.00    -0.237 OA
ATOM     83  O   UNL A   1      32.875  34.639  29.535  1.00  0.00    -0.237 OA
ATOM     84  O   UNL A   1      34.844  35.360  28.262  1.00  0.00    -0.744 OA
ENDBRANCH  78  81
ENDBRANCH  50  74
BRANCH  62  85
ATOM     85  C   UNL A   1      43.307  35.474  31.225  1.00  0.00     0.023 A 
ATOM     86  C   UNL A   1      43.600  36.467  30.269  1.00  0.00     0.012 A 
ATOM     87  C   UNL A   1      43.326  35.806  32.595  1.00  0.00     0.148 A 
ATOM     88  C   UNL A   1      43.940  37.759  30.670  1.00  0.00     0.002 A 
ATOM     89  C   UNL A   1      43.616  37.108  32.985  1.00  0.00     0.091 A 
ATOM     90  F   UNL A   1      43.062  34.843  33.490  1.00  0.00    -0.205 F 
ATOM     91  C   UNL A   1      43.936  38.081  32.025  1.00  0.00     0.022 A 
BRANCH  89  92
ATOM     92  S   UNL A   1      43.540  37.639  34.699  1.00  0.00     0.127 S 
ATOM     93  O   UNL A   1      44.645  36.890  35.293  1.00  0.00    -0.237 OA
ATOM     94  O   UNL A   1      43.769  39.080  34.588  1.00  0.00    -0.237 OA
ATOM     95  O   UNL A   1      42.211  37.275  35.172  1.00  0.00    -0.744 OA
ENDBRANCH  89  92
ENDBRANCH  62  85
ENDBRANCH  36  37
ENDBRANCH  28  31
ENDBRANCH  26  27
ENDBRANCH  25  26
ENDBRANCH   1  25
TORSDOF 17
ENDMDL
MODEL 3
REMARK VINA RESULT:     -11.6      4.654      9.693
REMARK SMILES CC1(C)C(C(=O)Nc2ccc(CC(=O)NCCCCNC(=O)c3ccc(-c4c5nc(c(-c6cccc(S(=O)(=O)[O-])c6F)c6ccc([nH]6)c(-c6cccc(S(=O)(=O)[O-])c6F)c6nc(c(-c7cccc(S(=O)(=O)[O-])c7F)c7ccc4[nH]7)C=C6)C=C5)cc3)cc2)C1(C)C
REMARK SMILES IDX 17 1 16 2 15 3 13 4 14 5 12 7 11 8 8 9 9 10 87 11 10 12
REMARK SMILES IDX 86 13 7 14 5 15 6 16 4 18 1 19 2 20 3 21 88 22 89 23 90 24
REMARK SMILES IDX 18 25 19 26 20 27 21 28 22 30 23 31 24 32 85 33 25 34 84 35
REMARK SMILES IDX 26 36 27 37 28 38 78 39 29 40 83 41 77 42 79 43 30 44 82 45
REMARK SMILES IDX 76 46 75 47 31 49 63 50 43 51 62 52 44 53 47 54 61 55 80 56
REMARK SMILES IDX 45 57 46 58 60 60 81 61 48 62 32 63 33 64 41 65 34 66 36 67
REMARK SMILES IDX 42 68 35 69 37 70 38 71 39 72 40 73 64 74 65 75 73 76 66 77
REMARK SMILES IDX 68 78 74 79 67 80 69 81 70 82 71 83 72 84 49 85 50 86 58 87
REMARK SMILES IDX 51 88 53 89 59 90 52 91 54 92 55 93 56 94 57 95
REMARK H PARENT 15 6 7 17 20 29 79 48 47 59
REMARK Flexibility Score: inf
ROOT
ATOM      1  C   UNL A   1      39.043  22.648  26.303  1.00  0.00     0.023 C 
ENDROOT
BRANCH   1   2
ATOM      2  C   UNL A   1      37.673  23.274  26.028  1.00  0.00     0.116 C 
BRANCH   2   3
ATOM      3  N   UNL A   1      37.419  23.404  24.608  1.00  0.00    -0.356 N 
ATOM      4  C   UNL A   1      36.531  22.722  23.824  1.00  0.00     0.224 C 
ATOM      5  O   UNL A   1      36.517  22.953  22.614  1.00  0.00    -0.275 OA
ATOM      6  H   UNL A   1      37.961  24.081  24.142  1.00  0.00     0.163 HD
BRANCH   4   7
ATOM      7  C   UNL A   1      35.532  21.766  24.441  1.00  0.00     0.135 C 
BRANCH   7   8
ATOM      8  C   UNL A   1      34.120  22.278  24.567  1.00  0.00    -0.039 A 
ATOM      9  C   UNL A   1      31.656  23.573  24.811  1.00  0.00     0.041 A 
ATOM     10  C   UNL A   1      31.998  22.971  23.600  1.00  0.00     0.026 A 
ATOM     11  C   UNL A   1      32.418  23.320  25.935  1.00  0.00     0.026 A 
ATOM     12  C   UNL A   1      33.234  22.315  23.482  1.00  0.00     0.006 A 
ATOM     13  C   UNL A   1      33.679  22.765  25.798  1.00  0.00     0.006 A 
BRANCH   9  14
ATOM     14  N   UNL A   1      30.607  24.500  24.881  1.00  0.00    -0.326 N 
ATOM     15  C   UNL A   1      30.677  25.695  25.569  1.00  0.00     0.228 C 
ATOM     16  O   UNL A   1      29.903  25.909  26.500  1.00  0.00    -0.274 OA
ATOM     17  H   UNL A   1      29.769  24.285  24.411  1.00  0.00     0.169 HD
BRANCH  15  18
ATOM     18  C   UNL A   1      31.408  26.881  24.996  1.00  0.00     0.091 C 
ATOM     19  C   UNL A   1      31.313  29.442  25.273  1.00  0.00     0.012 C 
ATOM     20  C   UNL A   1      31.878  28.122  25.769  1.00  0.00    -0.017 C 
ATOM     21  C   UNL A   1      32.080  28.212  27.262  1.00  0.00     0.012 C 
ATOM     22  C   UNL A   1      32.868  27.296  24.897  1.00  0.00    -0.017 C 
ATOM     23  C   UNL A   1      33.327  27.905  23.584  1.00  0.00     0.012 C 
ATOM     24  C   UNL A   1      33.974  26.441  25.465  1.00  0.00     0.012 C 
ENDBRANCH  15  18
ENDBRANCH   9  14
ENDBRANCH   7   8
ENDBRANCH   4   7
ENDBRANCH   2   3
ENDBRANCH   1   2
BRANCH   1  25
ATOM     25  C   UNL A   1      39.230  21.242  25.752  1.00  0.00     0.023 C 
BRANCH  25  26
ATOM     26  C   UNL A   1      39.890  20.274  26.715  1.00  0.00     0.116 C 
BRANCH  26  27
ATOM     27  N   UNL A   1      40.937  19.472  26.100  1.00  0.00    -0.352 N 
ATOM     28  C   UNL A   1      42.218  19.860  25.769  1.00  0.00     0.251 C 
ATOM     29  H   UNL A   1      40.702  18.538  25.895  1.00  0.00     0.163 HD
ATOM     30  O   UNL A   1      42.956  19.113  25.157  1.00  0.00    -0.269 OA
BRANCH  28  31
ATOM     31  C   UNL A   1      42.656  21.224  26.143  1.00  0.00     0.039 A 
ATOM     32  C   UNL A   1      42.744  22.197  25.147  1.00  0.00     0.014 A 
ATOM     33  C   UNL A   1      42.907  21.549  27.478  1.00  0.00     0.014 A 
ATOM     34  C   UNL A   1      43.027  23.517  25.504  1.00  0.00     0.010 A 
ATOM     35  C   UNL A   1      43.097  22.877  27.840  1.00  0.00     0.010 A 
ATOM     36  C   UNL A   1      43.172  23.873  26.855  1.00  0.00    -0.014 A 
BRANCH  36  37
ATOM     37  C   UNL A   1      43.401  25.283  27.258  1.00  0.00     0.031 A 
ATOM     38  C   UNL A   1      44.781  25.877  27.174  1.00  0.00     0.074 A 
ATOM     39  C   UNL A   1      42.386  26.003  27.774  1.00  0.00     0.049 A 
ATOM     40  N   UNL A   1      45.182  27.078  27.501  1.00  0.00    -0.248 NA
ATOM     41  C   UNL A   1      45.860  25.000  26.686  1.00  0.00     0.031 C 
ATOM     42  C   UNL A   1      41.024  25.509  27.996  1.00  0.00     0.029 A 
ATOM     43  N   UNL A   1      42.346  27.297  28.228  1.00  0.00    -0.354 N 
ATOM     44  C   UNL A   1      46.555  27.091  27.293  1.00  0.00     0.074 A 
ATOM     45  C   UNL A   1      46.928  25.765  26.851  1.00  0.00     0.031 C 
ATOM     46  C   UNL A   1      40.282  26.492  28.532  1.00  0.00     0.029 A 
ATOM     47  C   UNL A   1      41.116  27.674  28.716  1.00  0.00     0.049 A 
ATOM     48  H   UNL A   1      43.124  27.900  28.206  1.00  0.00     0.167 HD
ATOM     49  C   UNL A   1      47.424  28.121  27.423  1.00  0.00     0.034 A 
ATOM     50  C   UNL A   1      40.709  28.840  29.253  1.00  0.00     0.034 A 
ATOM     51  C   UNL A   1      47.041  29.449  27.816  1.00  0.00     0.049 A 
ATOM     52  C   UNL A   1      41.683  29.985  29.338  1.00  0.00     0.074 A 
ATOM     53  C   UNL A   1      47.827  30.585  27.882  1.00  0.00     0.029 A 
ATOM     54  N   UNL A   1      45.768  29.818  28.219  1.00  0.00    -0.354 N 
ATOM     55  N   UNL A   1      42.940  30.028  28.968  1.00  0.00    -0.248 NA
ATOM     56  C   UNL A   1      41.173  31.252  29.879  1.00  0.00     0.031 C 
ATOM     57  C   UNL A   1      47.033  31.638  28.350  1.00  0.00     0.029 A 
ATOM     58  C   UNL A   1      45.747  31.163  28.547  1.00  0.00     0.049 A 
ATOM     59  H   UNL A   1      44.993  29.213  28.264  1.00  0.00     0.167 HD
ATOM     60  C   UNL A   1      43.361  31.332  29.199  1.00  0.00     0.074 A 
ATOM     61  C   UNL A   1      42.217  32.054  29.717  1.00  0.00     0.031 C 
ATOM     62  C   UNL A   1      44.588  31.880  29.015  1.00  0.00     0.034 A 
BRANCH  49  63
ATOM     63  C   UNL A   1      48.869  27.865  27.079  1.00  0.00     0.023 A 
ATOM     64  C   UNL A   1      49.775  27.516  28.103  1.00  0.00     0.012 A 
ATOM     65  C   UNL A   1      49.318  27.912  25.746  1.00  0.00     0.148 A 
ATOM     66  C   UNL A   1      51.113  27.256  27.810  1.00  0.00     0.002 A 
ATOM     67  C   UNL A   1      50.642  27.606  25.456  1.00  0.00     0.091 A 
ATOM     68  F   UNL A   1      48.448  28.267  24.790  1.00  0.00    -0.205 F 
ATOM     69  C   UNL A   1      51.543  27.290  26.486  1.00  0.00     0.022 A 
BRANCH  67  70
ATOM     70  S   UNL A   1      51.278  27.542  23.777  1.00  0.00     0.127 S 
ATOM     71  O   UNL A   1      51.279  28.958  23.409  1.00  0.00    -0.237 OA
ATOM     72  O   UNL A   1      52.606  26.963  23.972  1.00  0.00    -0.237 OA
ATOM     73  O   UNL A   1      50.352  26.703  23.029  1.00  0.00    -0.744 OA
ENDBRANCH  67  70
ENDBRANCH  49  63
BRANCH  50  74
ATOM     74  C   UNL A   1      39.292  29.007  29.685  1.00  0.00     0.023 A 
ATOM     75  C   UNL A   1      38.920  28.635  30.992  1.00  0.00     0.012 A 
ATOM     76  C   UNL A   1      38.320  29.551  28.823  1.00  0.00     0.148 A 
ATOM     77  C   UNL A   1      37.599  28.770  31.421  1.00  0.00     0.002 A 
ATOM     78  C   UNL A   1      37.019  29.735  29.276  1.00  0.00     0.091 A 
ATOM     79  F   UNL A   1      38.693  29.889  27.580  1.00  0.00    -0.205 F 
ATOM     80  C   UNL A   1      36.652  29.329  30.568  1.00  0.00     0.022 A 
BRANCH  78  81
ATOM     81  S   UNL A   1      35.767  30.567  28.292  1.00  0.00     0.127 S 
ATOM     82  O   UNL A   1      35.304  29.486  27.425  1.00  0.00    -0.237 OA
ATOM     83  O   UNL A   1      34.811  30.989  29.316  1.00  0.00    -0.237 OA
ATOM     84  O   UNL A   1      36.456  31.663  27.626  1.00  0.00    -0.744 OA
ENDBRANCH  78  81
ENDBRANCH  50  74
BRANCH  62  85
ATOM     85  C   UNL A   1      44.758  33.339  29.345  1.00  0.00     0.023 A 
ATOM     86  C   UNL A   1      45.193  33.722  30.630  1.00  0.00     0.012 A 
ATOM     87  C   UNL A   1      44.557  34.328  28.360  1.00  0.00     0.148 A 
ATOM     88  C   UNL A   1      45.391  35.067  30.940  1.00  0.00     0.002 A 
ATOM     89  C   UNL A   1      44.806  35.661  28.662  1.00  0.00     0.091 A 
ATOM     90  F   UNL A   1      44.126  33.946  27.149  1.00  0.00    -0.205 F 
ATOM     91  C   UNL A   1      45.209  36.033  29.954  1.00  0.00     0.022 A 
BRANCH  89  92
ATOM     92  S   UNL A   1      44.694  36.964  27.429  1.00  0.00     0.127 S 
ATOM     93  O   UNL A   1      43.330  36.789  26.934  1.00  0.00    -0.237 OA
ATOM     94  O   UNL A   1      44.902  38.170  28.232  1.00  0.00    -0.237 OA
ATOM     95  O   UNL A   1      45.750  36.693  26.463  1.00  0.00    -0.744 OA
ENDBRANCH  89  92
ENDBRANCH  62  85
ENDBRANCH  36  37
ENDBRANCH  28  31
ENDBRANCH  26  27
ENDBRANCH  25  26
ENDBRANCH   1  25
TORSDOF 17
ENDMDL
