MODEL 1
REMARK VINA RESULT:     -10.7      0.000      0.000
REMARK SMILES CC(C)(O)CC[NH2+]CC(=O)NCCCCNC(=O)c1ccc(-c2c3nc(c(-c4cccc(S(=O)(=O)[O-])c4F)c4ccc([nH]4)c(-c4cccc(S(=O)(=O)[O-])c4F)c4nc(c(-c5cccc(S(=O)(=O)[O-])c5F)c5ccc2[nH]5)C=C4)C=C3)cc1
REMARK SMILES IDX 12 1 11 2 9 3 10 4 8 6 7 7 6 10 5 11 2 12 1 13 3 14 4 15
REMARK SMILES IDX 13 17 14 18 15 19 16 20 17 21 18 23 19 24 20 25 81 26 21 27
REMARK SMILES IDX 80 28 22 29 23 30 24 31 74 32 25 33 79 34 73 35 75 36 26 37
REMARK SMILES IDX 78 38 72 39 71 40 27 42 59 43 39 44 58 45 40 46 43 47 57 48
REMARK SMILES IDX 76 49 41 50 42 51 56 53 77 54 44 55 28 56 29 57 37 58 30 59
REMARK SMILES IDX 32 60 38 61 31 62 33 63 34 64 35 65 36 66 60 67 61 68 69 69
REMARK SMILES IDX 62 70 64 71 70 72 63 73 65 74 66 75 67 76 68 77 45 78 46 79
REMARK SMILES IDX 54 80 47 81 49 82 55 83 48 84 50 85 51 86 52 87 53 88
REMARK H PARENT 11 5 7 8 7 9 4 16 16 22 75 41 43 52
REMARK Flexibility Score: inf
ROOT
ATOM      1  C   UNL A   1      33.260  26.845  25.067  1.00  0.00     0.116 C 
ENDROOT
BRANCH   1   2
ATOM      2  N   UNL A   1      33.734  26.514  23.733  1.00  0.00    -0.351 N 
ATOM      3  C   UNL A   1      33.081  26.543  22.531  1.00  0.00     0.275 C 
ATOM      4  O   UNL A   1      33.656  26.071  21.544  1.00  0.00    -0.269 OA
ATOM      5  H   UNL A   1      34.673  26.223  23.687  1.00  0.00     0.163 HD
BRANCH   3   6
ATOM      6  C   UNL A   1      31.663  27.131  22.397  1.00  0.00     0.361 C 
BRANCH   6   7
ATOM      7  N   UNL A   1      31.671  28.619  22.317  1.00  0.00    -0.338 N 
ATOM      8  H   UNL A   1      32.559  28.973  22.672  1.00  0.00     0.346 HD
ATOM      9  H   UNL A   1      31.554  28.907  21.345  1.00  0.00     0.346 HD
BRANCH   7  10
ATOM     10  C   UNL A   1      30.577  29.158  23.117  1.00  0.00     0.263 C 
BRANCH  10  11
ATOM     11  C   UNL A   1      29.135  28.797  22.755  1.00  0.00     0.096 C 
BRANCH  11  12
ATOM     12  C   UNL A   1      28.137  29.971  22.619  1.00  0.00     0.064 C 
ATOM     13  C   UNL A   1      28.011  30.455  21.177  1.00  0.00     0.042 C 
ATOM     14  C   UNL A   1      28.578  31.121  23.532  1.00  0.00     0.042 C 
BRANCH  12  15
ATOM     15  O   UNL A   1      26.847  29.563  23.076  1.00  0.00    -0.390 OA
ATOM     16  H   UNL A   1      26.944  28.843  23.718  1.00  0.00     0.211 HD
ENDBRANCH  12  15
ENDBRANCH  11  12
ENDBRANCH  10  11
ENDBRANCH   7  10
ENDBRANCH   6   7
ENDBRANCH   3   6
ENDBRANCH   1   2
BRANCH   1  17
ATOM     17  C   UNL A   1      33.941  28.104  25.622  1.00  0.00     0.023 C 
BRANCH  17  18
ATOM     18  C   UNL A   1      33.099  29.367  25.635  1.00  0.00     0.023 C 
BRANCH  18  19
ATOM     19  C   UNL A   1      32.703  29.843  27.015  1.00  0.00     0.116 C 
BRANCH  19  20
ATOM     20  N   UNL A   1      32.684  31.296  27.150  1.00  0.00    -0.352 N 
ATOM     21  C   UNL A   1      33.667  32.119  27.653  1.00  0.00     0.251 C 
ATOM     22  H   UNL A   1      31.864  31.744  26.842  1.00  0.00     0.163 HD
ATOM     23  O   UNL A   1      33.471  33.318  27.787  1.00  0.00    -0.269 OA
BRANCH  21  24
ATOM     24  C   UNL A   1      34.948  31.511  28.068  1.00  0.00     0.039 A 
ATOM     25  C   UNL A   1      36.098  32.301  28.098  1.00  0.00     0.014 A 
ATOM     26  C   UNL A   1      34.979  30.190  28.520  1.00  0.00     0.014 A 
ATOM     27  C   UNL A   1      37.266  31.785  28.661  1.00  0.00     0.010 A 
ATOM     28  C   UNL A   1      36.105  29.721  29.177  1.00  0.00     0.010 A 
ATOM     29  C   UNL A   1      37.265  30.506  29.243  1.00  0.00    -0.014 A 
BRANCH  29  30
ATOM     30  C   UNL A   1      38.465  29.951  29.914  1.00  0.00     0.031 A 
ATOM     31  C   UNL A   1      38.837  30.439  31.289  1.00  0.00     0.074 A 
ATOM     32  C   UNL A   1      39.275  29.103  29.250  1.00  0.00     0.049 A 
ATOM     33  N   UNL A   1      39.892  30.159  32.005  1.00  0.00    -0.248 NA
ATOM     34  C   UNL A   1      37.923  31.407  31.922  1.00  0.00     0.031 C 
ATOM     35  C   UNL A   1      39.076  28.639  27.875  1.00  0.00     0.029 A 
ATOM     36  N   UNL A   1      40.447  28.504  29.634  1.00  0.00    -0.354 N 
ATOM     37  C   UNL A   1      39.794  30.948  33.145  1.00  0.00     0.074 A 
ATOM     38  C   UNL A   1      38.602  31.754  33.004  1.00  0.00     0.031 C 
ATOM     39  C   UNL A   1      40.085  27.822  27.534  1.00  0.00     0.029 A 
ATOM     40  C   UNL A   1      41.015  27.721  28.655  1.00  0.00     0.049 A 
ATOM     41  H   UNL A   1      40.846  28.623  30.526  1.00  0.00     0.167 HD
ATOM     42  C   UNL A   1      40.598  30.969  34.233  1.00  0.00     0.034 A 
ATOM     43  C   UNL A   1      42.155  27.003  28.663  1.00  0.00     0.034 A 
ATOM     44  C   UNL A   1      41.735  30.110  34.400  1.00  0.00     0.049 A 
ATOM     45  C   UNL A   1      42.983  26.973  29.919  1.00  0.00     0.074 A 
ATOM     46  C   UNL A   1      42.555  29.972  35.505  1.00  0.00     0.029 A 
ATOM     47  N   UNL A   1      42.207  29.233  33.436  1.00  0.00    -0.354 N 
ATOM     48  N   UNL A   1      42.781  27.598  31.055  1.00  0.00    -0.248 NA
ATOM     49  C   UNL A   1      44.171  26.107  29.913  1.00  0.00     0.031 C 
ATOM     50  C   UNL A   1      43.528  29.012  35.206  1.00  0.00     0.029 A 
ATOM     51  C   UNL A   1      43.306  28.547  33.920  1.00  0.00     0.049 A 
ATOM     52  H   UNL A   1      41.818  29.117  32.539  1.00  0.00     0.167 HD
ATOM     53  C   UNL A   1      43.796  27.179  31.907  1.00  0.00     0.074 A 
ATOM     54  C   UNL A   1      44.598  26.227  31.164  1.00  0.00     0.031 C 
ATOM     55  C   UNL A   1      44.053  27.559  33.183  1.00  0.00     0.034 A 
BRANCH  42  56
ATOM     56  C   UNL A   1      40.220  31.898  35.357  1.00  0.00     0.023 A 
ATOM     57  C   UNL A   1      40.909  33.122  35.502  1.00  0.00     0.012 A 
ATOM     58  C   UNL A   1      39.175  31.584  36.245  1.00  0.00     0.148 A 
ATOM     59  C   UNL A   1      40.590  33.999  36.536  1.00  0.00     0.002 A 
ATOM     60  C   UNL A   1      38.832  32.486  37.248  1.00  0.00     0.091 A 
ATOM     61  F   UNL A   1      38.549  30.406  36.109  1.00  0.00    -0.205 F 
ATOM     62  C   UNL A   1      39.546  33.686  37.403  1.00  0.00     0.022 A 
BRANCH  60  63
ATOM     63  S   UNL A   1      37.455  32.208  38.366  1.00  0.00     0.127 S 
ATOM     64  O   UNL A   1      37.977  32.749  39.619  1.00  0.00    -0.237 OA
ATOM     65  O   UNL A   1      36.392  33.007  37.754  1.00  0.00    -0.237 OA
ATOM     66  O   UNL A   1      37.215  30.771  38.353  1.00  0.00    -0.744 OA
ENDBRANCH  60  63
ENDBRANCH  42  56
BRANCH  43  67
ATOM     67  C   UNL A   1      42.524  26.181  27.476  1.00  0.00     0.023 A 
ATOM     68  C   UNL A   1      43.346  26.743  26.480  1.00  0.00     0.012 A 
ATOM     69  C   UNL A   1      42.108  24.842  27.346  1.00  0.00     0.148 A 
ATOM     70  C   UNL A   1      43.723  25.999  25.362  1.00  0.00     0.002 A 
ATOM     71  C   UNL A   1      42.530  24.089  26.255  1.00  0.00     0.091 A 
ATOM     72  F   UNL A   1      41.317  24.326  28.298  1.00  0.00    -0.205 F 
ATOM     73  C   UNL A   1      43.324  24.669  25.255  1.00  0.00     0.022 A 
BRANCH  71  74
ATOM     74  S   UNL A   1      42.174  22.334  26.103  1.00  0.00     0.127 S 
ATOM     75  O   UNL A   1      42.917  21.980  24.897  1.00  0.00    -0.237 OA
ATOM     76  O   UNL A   1      42.729  21.801  27.348  1.00  0.00    -0.237 OA
ATOM     77  O   UNL A   1      40.723  22.238  26.009  1.00  0.00    -0.744 OA
ENDBRANCH  71  74
ENDBRANCH  43  67
BRANCH  55  78
ATOM     78  C   UNL A   1      45.233  26.931  33.874  1.00  0.00     0.023 A 
ATOM     79  C   UNL A   1      46.498  27.545  33.783  1.00  0.00     0.012 A 
ATOM     80  C   UNL A   1      45.069  25.790  34.684  1.00  0.00     0.148 A 
ATOM     81  C   UNL A   1      47.591  27.015  34.469  1.00  0.00     0.002 A 
ATOM     82  C   UNL A   1      46.153  25.296  35.400  1.00  0.00     0.091 A 
ATOM     83  F   UNL A   1      43.862  25.212  34.740  1.00  0.00    -0.205 F 
ATOM     84  C   UNL A   1      47.415  25.901  35.286  1.00  0.00     0.022 A 
BRANCH  82  85
ATOM     85  S   UNL A   1      45.994  23.923  36.548  1.00  0.00     0.127 S 
ATOM     86  O   UNL A   1      44.867  24.354  37.373  1.00  0.00    -0.237 OA
ATOM     87  O   UNL A   1      45.702  22.801  35.655  1.00  0.00    -0.237 OA
ATOM     88  O   UNL A   1      47.275  23.826  37.234  1.00  0.00    -0.744 OA
ENDBRANCH  82  85
ENDBRANCH  55  78
ENDBRANCH  29  30
ENDBRANCH  21  24
ENDBRANCH  19  20
ENDBRANCH  18  19
ENDBRANCH  17  18
ENDBRANCH   1  17
TORSDOF 19
ENDMDL
MODEL 2
REMARK VINA RESULT:     -10.1      1.913      3.159
REMARK SMILES CC(C)(O)CC[NH2+]CC(=O)NCCCCNC(=O)c1ccc(-c2c3nc(c(-c4cccc(S(=O)(=O)[O-])c4F)c4ccc([nH]4)c(-c4cccc(S(=O)(=O)[O-])c4F)c4nc(c(-c5cccc(S(=O)(=O)[O-])c5F)c5ccc2[nH]5)C=C4)C=C3)cc1
REMARK SMILES IDX 12 1 11 2 9 3 10 4 8 6 7 7 6 10 5 11 2 12 1 13 3 14 4 15
REMARK SMILES IDX 13 17 14 18 15 19 16 20 17 21 18 23 19 24 20 25 81 26 21 27
REMARK SMILES IDX 80 28 22 29 23 30 24 31 74 32 25 33 79 34 73 35 75 36 26 37
REMARK SMILES IDX 78 38 72 39 71 40 27 42 59 43 39 44 58 45 40 46 43 47 57 48
REMARK SMILES IDX 76 49 41 50 42 51 56 53 77 54 44 55 28 56 29 57 37 58 30 59
REMARK SMILES IDX 32 60 38 61 31 62 33 63 34 64 35 65 36 66 60 67 61 68 69 69
REMARK SMILES IDX 62 70 64 71 70 72 63 73 65 74 66 75 67 76 68 77 45 78 46 79
REMARK SMILES IDX 54 80 47 81 49 82 55 83 48 84 50 85 51 86 52 87 53 88
REMARK H PARENT 11 5 7 8 7 9 4 16 16 22 75 41 43 52
REMARK Flexibility Score: inf
ROOT
ATOM      1  C   UNL A   1      33.220  28.540  23.243  1.00  0.00     0.116 C 
ENDROOT
BRANCH   1   2
ATOM      2  N   UNL A   1      33.203  27.757  22.018  1.00  0.00    -0.351 N 
ATOM      3  C   UNL A   1      33.131  26.402  21.838  1.00  0.00     0.275 C 
ATOM      4  O   UNL A   1      33.283  25.957  20.695  1.00  0.00    -0.269 OA
ATOM      5  H   UNL A   1      33.253  28.283  21.189  1.00  0.00     0.163 HD
BRANCH   3   6
ATOM      6  C   UNL A   1      32.879  25.443  23.018  1.00  0.00     0.361 C 
BRANCH   6   7
ATOM      7  N   UNL A   1      32.100  24.239  22.614  1.00  0.00    -0.338 N 
ATOM      8  H   UNL A   1      31.259  24.172  23.186  1.00  0.00     0.346 HD
ATOM      9  H   UNL A   1      31.839  24.317  21.631  1.00  0.00     0.346 HD
BRANCH   7  10
ATOM     10  C   UNL A   1      32.915  23.043  22.805  1.00  0.00     0.263 C 
BRANCH  10  11
ATOM     11  C   UNL A   1      32.842  22.291  24.135  1.00  0.00     0.096 C 
BRANCH  11  12
ATOM     12  C   UNL A   1      34.081  22.384  25.056  1.00  0.00     0.064 C 
ATOM     13  C   UNL A   1      33.934  23.479  26.109  1.00  0.00     0.042 C 
ATOM     14  C   UNL A   1      35.331  22.628  24.203  1.00  0.00     0.042 C 
BRANCH  12  15
ATOM     15  O   UNL A   1      34.282  21.136  25.721  1.00  0.00    -0.390 OA
ATOM     16  H   UNL A   1      33.506  20.570  25.589  1.00  0.00     0.211 HD
ENDBRANCH  12  15
ENDBRANCH  11  12
ENDBRANCH  10  11
ENDBRANCH   7  10
ENDBRANCH   6   7
ENDBRANCH   3   6
ENDBRANCH   1   2
BRANCH   1  17
ATOM     17  C   UNL A   1      31.804  28.911  23.705  1.00  0.00     0.023 C 
BRANCH  17  18
ATOM     18  C   UNL A   1      31.604  29.036  25.204  1.00  0.00     0.023 C 
BRANCH  18  19
ATOM     19  C   UNL A   1      32.753  29.692  25.939  1.00  0.00     0.116 C 
BRANCH  19  20
ATOM     20  N   UNL A   1      32.470  31.057  26.368  1.00  0.00    -0.352 N 
ATOM     21  C   UNL A   1      33.216  31.863  27.200  1.00  0.00     0.251 C 
ATOM     22  H   UNL A   1      31.639  31.453  26.019  1.00  0.00     0.163 HD
ATOM     23  O   UNL A   1      32.803  32.960  27.544  1.00  0.00    -0.269 OA
BRANCH  21  24
ATOM     24  C   UNL A   1      34.508  31.349  27.701  1.00  0.00     0.039 A 
ATOM     25  C   UNL A   1      35.556  32.243  27.922  1.00  0.00     0.014 A 
ATOM     26  C   UNL A   1      34.636  30.001  28.044  1.00  0.00     0.014 A 
ATOM     27  C   UNL A   1      36.710  31.796  28.566  1.00  0.00     0.010 A 
ATOM     28  C   UNL A   1      35.735  29.587  28.780  1.00  0.00     0.010 A 
ATOM     29  C   UNL A   1      36.790  30.474  29.037  1.00  0.00    -0.014 A 
BRANCH  29  30
ATOM     30  C   UNL A   1      37.969  29.982  29.788  1.00  0.00     0.031 A 
ATOM     31  C   UNL A   1      38.230  30.496  31.179  1.00  0.00     0.074 A 
ATOM     32  C   UNL A   1      38.859  29.169  29.184  1.00  0.00     0.049 A 
ATOM     33  N   UNL A   1      39.249  30.271  31.963  1.00  0.00    -0.248 NA
ATOM     34  C   UNL A   1      37.233  31.422  31.744  1.00  0.00     0.031 C 
ATOM     35  C   UNL A   1      38.770  28.688  27.804  1.00  0.00     0.029 A 
ATOM     36  N   UNL A   1      40.032  28.629  29.648  1.00  0.00    -0.354 N 
ATOM     37  C   UNL A   1      39.041  31.061  33.087  1.00  0.00     0.074 A 
ATOM     38  C   UNL A   1      37.824  31.809  32.863  1.00  0.00     0.031 C 
ATOM     39  C   UNL A   1      39.837  27.917  27.535  1.00  0.00     0.029 A 
ATOM     40  C   UNL A   1      40.697  27.868  28.714  1.00  0.00     0.049 A 
ATOM     41  H   UNL A   1      40.367  28.772  30.562  1.00  0.00     0.167 HD
ATOM     42  C   UNL A   1      39.772  31.128  34.224  1.00  0.00     0.034 A 
ATOM     43  C   UNL A   1      41.867  27.205  28.801  1.00  0.00     0.034 A 
ATOM     44  C   UNL A   1      40.936  30.325  34.471  1.00  0.00     0.049 A 
ATOM     45  C   UNL A   1      42.613  27.222  30.108  1.00  0.00     0.074 A 
ATOM     46  C   UNL A   1      41.690  30.233  35.627  1.00  0.00     0.029 A 
ATOM     47  N   UNL A   1      41.510  29.465  33.547  1.00  0.00    -0.354 N 
ATOM     48  N   UNL A   1      42.310  27.844  31.222  1.00  0.00    -0.248 NA
ATOM     49  C   UNL A   1      43.839  26.414  30.185  1.00  0.00     0.031 C 
ATOM     50  C   UNL A   1      42.724  29.318  35.399  1.00  0.00     0.029 A 
ATOM     51  C   UNL A   1      42.607  28.835  34.105  1.00  0.00     0.049 A 
ATOM     52  H   UNL A   1      41.184  29.325  32.628  1.00  0.00     0.167 HD
ATOM     53  C   UNL A   1      43.287  27.479  32.141  1.00  0.00     0.074 A 
ATOM     54  C   UNL A   1      44.179  26.562  31.459  1.00  0.00     0.031 C 
ATOM     55  C   UNL A   1      43.445  27.879  33.426  1.00  0.00     0.034 A 
BRANCH  42  56
ATOM     56  C   UNL A   1      39.281  32.044  35.313  1.00  0.00     0.023 A 
ATOM     57  C   UNL A   1      38.310  31.576  36.223  1.00  0.00     0.012 A 
ATOM     58  C   UNL A   1      39.794  33.347  35.459  1.00  0.00     0.148 A 
ATOM     59  C   UNL A   1      37.827  32.402  37.236  1.00  0.00     0.002 A 
ATOM     60  C   UNL A   1      39.340  34.150  36.500  1.00  0.00     0.091 A 
ATOM     61  F   UNL A   1      40.696  33.785  34.569  1.00  0.00    -0.205 F 
ATOM     62  C   UNL A   1      38.350  33.685  37.381  1.00  0.00     0.022 A 
BRANCH  60  63
ATOM     63  S   UNL A   1      40.005  35.789  36.816  1.00  0.00     0.127 S 
ATOM     64  O   UNL A   1      41.424  35.499  37.012  1.00  0.00    -0.237 OA
ATOM     65  O   UNL A   1      39.693  36.495  35.572  1.00  0.00    -0.237 OA
ATOM     66  O   UNL A   1      39.297  36.287  37.987  1.00  0.00    -0.744 OA
ENDBRANCH  60  63
ENDBRANCH  42  56
BRANCH  43  67
ATOM     67  C   UNL A   1      42.349  26.393  27.648  1.00  0.00     0.023 A 
ATOM     68  C   UNL A   1      43.228  26.979  26.716  1.00  0.00     0.012 A 
ATOM     69  C   UNL A   1      41.983  25.043  27.489  1.00  0.00     0.148 A 
ATOM     70  C   UNL A   1      43.712  26.246  25.632  1.00  0.00     0.002 A 
ATOM     71  C   UNL A   1      42.508  24.303  26.435  1.00  0.00     0.091 A 
ATOM     72  F   UNL A   1      41.136  24.505  28.379  1.00  0.00    -0.205 F 
ATOM     73  C   UNL A   1      43.360  24.906  25.498  1.00  0.00     0.022 A 
BRANCH  71  74
ATOM     74  S   UNL A   1      42.216  22.538  26.260  1.00  0.00     0.127 S 
ATOM     75  O   UNL A   1      42.943  22.234  25.031  1.00  0.00    -0.237 OA
ATOM     76  O   UNL A   1      42.820  22.006  27.482  1.00  0.00    -0.237 OA
ATOM     77  O   UNL A   1      40.768  22.389  26.198  1.00  0.00    -0.744 OA
ENDBRANCH  71  74
ENDBRANCH  43  67
BRANCH  55  78
ATOM     78  C   UNL A   1      44.606  27.313  34.197  1.00  0.00     0.023 A 
ATOM     79  C   UNL A   1      45.852  27.970  34.158  1.00  0.00     0.012 A 
ATOM     80  C   UNL A   1      44.439  26.187  35.027  1.00  0.00     0.148 A 
ATOM     81  C   UNL A   1      46.923  27.498  34.916  1.00  0.00     0.002 A 
ATOM     82  C   UNL A   1      45.499  25.751  35.814  1.00  0.00     0.091 A 
ATOM     83  F   UNL A   1      43.251  25.566  35.034  1.00  0.00    -0.205 F 
ATOM     84  C   UNL A   1      46.743  26.399  35.752  1.00  0.00     0.022 A 
BRANCH  82  85
ATOM     85  S   UNL A   1      45.326  24.402  36.988  1.00  0.00     0.127 S 
ATOM     86  O   UNL A   1      44.963  23.289  36.111  1.00  0.00    -0.237 OA
ATOM     87  O   UNL A   1      46.669  24.313  37.562  1.00  0.00    -0.237 OA
ATOM     88  O   UNL A   1      44.297  24.823  37.929  1.00  0.00    -0.744 OA
ENDBRANCH  82  85
ENDBRANCH  55  78
ENDBRANCH  29  30
ENDBRANCH  21  24
ENDBRANCH  19  20
ENDBRANCH  18  19
ENDBRANCH  17  18
ENDBRANCH   1  17
TORSDOF 19
ENDMDL
MODEL 3
REMARK VINA RESULT:     -10.0      1.972      2.513
REMARK SMILES CC(C)(O)CC[NH2+]CC(=O)NCCCCNC(=O)c1ccc(-c2c3nc(c(-c4cccc(S(=O)(=O)[O-])c4F)c4ccc([nH]4)c(-c4cccc(S(=O)(=O)[O-])c4F)c4nc(c(-c5cccc(S(=O)(=O)[O-])c5F)c5ccc2[nH]5)C=C4)C=C3)cc1
REMARK SMILES IDX 12 1 11 2 9 3 10 4 8 6 7 7 6 10 5 11 2 12 1 13 3 14 4 15
REMARK SMILES IDX 13 17 14 18 15 19 16 20 17 21 18 23 19 24 20 25 81 26 21 27
REMARK SMILES IDX 80 28 22 29 23 30 24 31 74 32 25 33 79 34 73 35 75 36 26 37
REMARK SMILES IDX 78 38 72 39 71 40 27 42 59 43 39 44 58 45 40 46 43 47 57 48
REMARK SMILES IDX 76 49 41 50 42 51 56 53 77 54 44 55 28 56 29 57 37 58 30 59
REMARK SMILES IDX 32 60 38 61 31 62 33 63 34 64 35 65 36 66 60 67 61 68 69 69
REMARK SMILES IDX 62 70 64 71 70 72 63 73 65 74 66 75 67 76 68 77 45 78 46 79
REMARK SMILES IDX 54 80 47 81 49 82 55 83 48 84 50 85 51 86 52 87 53 88
REMARK H PARENT 11 5 7 8 7 9 4 16 16 22 75 41 43 52
REMARK Flexibility Score: inf
ROOT
ATOM      1  C   UNL A   1      31.962  26.009  26.040  1.00  0.00     0.116 C 
ENDROOT
BRANCH   1   2
ATOM      2  N   UNL A   1      31.674  25.265  24.824  1.00  0.00    -0.351 N 
ATOM      3  C   UNL A   1      30.743  25.495  23.848  1.00  0.00     0.275 C 
ATOM      4  O   UNL A   1      30.588  24.633  22.976  1.00  0.00    -0.269 OA
ATOM      5  H   UNL A   1      32.237  24.471  24.681  1.00  0.00     0.163 HD
BRANCH   3   6
ATOM      6  C   UNL A   1      29.896  26.782  23.828  1.00  0.00     0.361 C 
BRANCH   6   7
ATOM      7  N   UNL A   1      30.014  27.520  22.539  1.00  0.00    -0.338 N 
ATOM      8  H   UNL A   1      30.752  27.100  21.975  1.00  0.00     0.346 HD
ATOM      9  H   UNL A   1      29.128  27.468  22.036  1.00  0.00     0.346 HD
BRANCH   7  10
ATOM     10  C   UNL A   1      30.339  28.917  22.805  1.00  0.00     0.263 C 
BRANCH  10  11
ATOM     11  C   UNL A   1      29.352  29.781  23.591  1.00  0.00     0.096 C 
BRANCH  11  12
ATOM     12  C   UNL A   1      28.147  30.350  22.806  1.00  0.00     0.064 C 
ATOM     13  C   UNL A   1      28.477  30.583  21.334  1.00  0.00     0.042 C 
ATOM     14  C   UNL A   1      27.683  31.655  23.463  1.00  0.00     0.042 C 
BRANCH  12  15
ATOM     15  O   UNL A   1      27.046  29.443  22.887  1.00  0.00    -0.390 OA
ATOM     16  H   UNL A   1      27.204  28.689  22.298  1.00  0.00     0.211 HD
ENDBRANCH  12  15
ENDBRANCH  11  12
ENDBRANCH  10  11
ENDBRANCH   7  10
ENDBRANCH   6   7
ENDBRANCH   3   6
ENDBRANCH   1   2
BRANCH   1  17
ATOM     17  C   UNL A   1      33.120  26.997  25.847  1.00  0.00     0.023 C 
BRANCH  17  18
ATOM     18  C   UNL A   1      32.809  28.453  26.142  1.00  0.00     0.023 C 
BRANCH  18  19
ATOM     19  C   UNL A   1      33.277  28.932  27.500  1.00  0.00     0.116 C 
BRANCH  19  20
ATOM     20  N   UNL A   1      33.446  30.378  27.583  1.00  0.00    -0.352 N 
ATOM     21  C   UNL A   1      34.562  31.087  27.972  1.00  0.00     0.251 C 
ATOM     22  H   UNL A   1      32.662  30.917  27.331  1.00  0.00     0.163 HD
ATOM     23  O   UNL A   1      34.524  32.304  28.080  1.00  0.00    -0.269 OA
BRANCH  21  24
ATOM     24  C   UNL A   1      35.792  30.335  28.297  1.00  0.00     0.039 A 
ATOM     25  C   UNL A   1      36.881  30.405  27.429  1.00  0.00     0.014 A 
ATOM     26  C   UNL A   1      35.890  29.651  29.510  1.00  0.00     0.014 A 
ATOM     27  C   UNL A   1      38.102  29.852  27.819  1.00  0.00     0.010 A 
ATOM     28  C   UNL A   1      37.128  29.201  29.940  1.00  0.00     0.010 A 
ATOM     29  C   UNL A   1      38.244  29.284  29.095  1.00  0.00    -0.014 A 
BRANCH  29  30
ATOM     30  C   UNL A   1      39.542  28.750  29.574  1.00  0.00     0.031 A 
ATOM     31  C   UNL A   1      40.272  29.461  30.682  1.00  0.00     0.074 A 
ATOM     32  C   UNL A   1      40.113  27.705  28.943  1.00  0.00     0.049 A 
ATOM     33  N   UNL A   1      41.456  29.220  31.176  1.00  0.00    -0.248 NA
ATOM     34  C   UNL A   1      39.600  30.627  31.282  1.00  0.00     0.031 C 
ATOM     35  C   UNL A   1      39.551  27.000  27.788  1.00  0.00     0.029 A 
ATOM     36  N   UNL A   1      41.311  27.074  29.165  1.00  0.00    -0.354 N 
ATOM     37  C   UNL A   1      41.690  30.227  32.105  1.00  0.00     0.074 A 
ATOM     38  C   UNL A   1      40.546  31.110  32.072  1.00  0.00     0.031 C 
ATOM     39  C   UNL A   1      40.398  26.028  27.410  1.00  0.00     0.029 A 
ATOM     40  C   UNL A   1      41.572  26.055  28.277  1.00  0.00     0.049 A 
ATOM     41  H   UNL A   1      41.925  27.326  29.891  1.00  0.00     0.167 HD
ATOM     42  C   UNL A   1      42.740  30.380  32.943  1.00  0.00     0.034 A 
ATOM     43  C   UNL A   1      42.637  25.236  28.178  1.00  0.00     0.034 A 
ATOM     44  C   UNL A   1      43.835  29.456  33.026  1.00  0.00     0.049 A 
ATOM     45  C   UNL A   1      43.750  25.371  29.181  1.00  0.00     0.074 A 
ATOM     46  C   UNL A   1      44.897  29.455  33.912  1.00  0.00     0.029 A 
ATOM     47  N   UNL A   1      44.003  28.358  32.196  1.00  0.00    -0.354 N 
ATOM     48  N   UNL A   1      43.873  26.228  30.166  1.00  0.00    -0.248 NA
ATOM     49  C   UNL A   1      44.850  24.400  29.089  1.00  0.00     0.031 C 
ATOM     50  C   UNL A   1      45.711  28.357  33.613  1.00  0.00     0.029 A 
ATOM     51  C   UNL A   1      45.149  27.670  32.549  1.00  0.00     0.049 A 
ATOM     52  H   UNL A   1      43.396  28.107  31.463  1.00  0.00     0.167 HD
ATOM     53  C   UNL A   1      45.045  25.883  30.829  1.00  0.00     0.074 A 
ATOM     54  C   UNL A   1      45.583  24.722  30.148  1.00  0.00     0.031 C 
ATOM     55  C   UNL A   1      45.633  26.481  31.894  1.00  0.00     0.034 A 
BRANCH  42  56
ATOM     56  C   UNL A   1      42.707  31.550  33.892  1.00  0.00     0.023 A 
ATOM     57  C   UNL A   1      43.238  32.789  33.477  1.00  0.00     0.012 A 
ATOM     58  C   UNL A   1      42.129  31.438  35.170  1.00  0.00     0.148 A 
ATOM     59  C   UNL A   1      43.231  33.888  34.334  1.00  0.00     0.002 A 
ATOM     60  C   UNL A   1      42.085  32.552  36.003  1.00  0.00     0.091 A 
ATOM     61  F   UNL A   1      41.653  30.246  35.558  1.00  0.00    -0.205 F 
ATOM     62  C   UNL A   1      42.646  33.772  35.592  1.00  0.00     0.022 A 
BRANCH  60  63
ATOM     63  S   UNL A   1      41.286  32.524  37.611  1.00  0.00     0.127 S 
ATOM     64  O   UNL A   1      39.934  32.093  37.262  1.00  0.00    -0.237 OA
ATOM     65  O   UNL A   1      42.076  31.526  38.333  1.00  0.00    -0.237 OA
ATOM     66  O   UNL A   1      41.398  33.878  38.135  1.00  0.00    -0.744 OA
ENDBRANCH  60  63
ENDBRANCH  42  56
BRANCH  43  67
ATOM     67  C   UNL A   1      42.652  24.159  27.149  1.00  0.00     0.023 A 
ATOM     68  C   UNL A   1      43.349  24.371  25.943  1.00  0.00     0.012 A 
ATOM     69  C   UNL A   1      42.024  22.918  27.368  1.00  0.00     0.148 A 
ATOM     70  C   UNL A   1      43.397  23.379  24.963  1.00  0.00     0.002 A 
ATOM     71  C   UNL A   1      42.119  21.915  26.408  1.00  0.00     0.091 A 
ATOM     72  F   UNL A   1      41.355  22.738  28.516  1.00  0.00    -0.205 F 
ATOM     73  C   UNL A   1      42.791  22.148  25.200  1.00  0.00     0.022 A 
BRANCH  71  74
ATOM     74  S   UNL A   1      41.483  20.257  26.685  1.00  0.00     0.127 S 
ATOM     75  O   UNL A   1      40.059  20.512  26.890  1.00  0.00    -0.237 OA
ATOM     76  O   UNL A   1      41.815  19.589  25.427  1.00  0.00    -0.237 OA
ATOM     77  O   UNL A   1      42.212  19.749  27.840  1.00  0.00    -0.744 OA
ENDBRANCH  71  74
ENDBRANCH  43  67
BRANCH  55  78
ATOM     78  C   UNL A   1      46.913  25.883  32.412  1.00  0.00     0.023 A 
ATOM     79  C   UNL A   1      48.147  26.338  31.907  1.00  0.00     0.012 A 
ATOM     80  C   UNL A   1      46.895  24.940  33.458  1.00  0.00     0.148 A 
ATOM     81  C   UNL A   1      49.346  25.843  32.419  1.00  0.00     0.002 A 
ATOM     82  C   UNL A   1      48.095  24.486  33.994  1.00  0.00     0.091 A 
ATOM     83  F   UNL A   1      45.710  24.506  33.910  1.00  0.00    -0.205 F 
ATOM     84  C   UNL A   1      49.319  24.929  33.470  1.00  0.00     0.022 A 
BRANCH  82  85
ATOM     85  S   UNL A   1      48.152  23.381  35.410  1.00  0.00     0.127 S 
ATOM     86  O   UNL A   1      49.531  23.552  35.865  1.00  0.00    -0.237 OA
ATOM     87  O   UNL A   1      47.141  23.957  36.297  1.00  0.00    -0.237 OA
ATOM     88  O   UNL A   1      47.818  22.059  34.897  1.00  0.00    -0.744 OA
ENDBRANCH  82  85
ENDBRANCH  55  78
ENDBRANCH  29  30
ENDBRANCH  21  24
ENDBRANCH  19  20
ENDBRANCH  18  19
ENDBRANCH  17  18
ENDBRANCH   1  17
TORSDOF 19
ENDMDL
