MODEL 1
REMARK VINA RESULT:     -11.4      0.000      0.000
REMARK SMILES Cc1cscc1CNC(=O)CC(C)(C)C(=O)NCCCCNC(=O)c1ccc(-c2c3nc(c(-c4cccc(S(=O)(=O)[O-])c4F)c4ccc([nH]4)c(-c4cccc(S(=O)(=O)[O-])c4F)c4nc(c(-c5cccc(S(=O)(=O)[O-])c5F)c5ccc2[nH]5)C=C4)C=C3)cc1
REMARK SMILES IDX 19 1 18 2 17 3 15 4 16 5 12 7 13 8 14 9 11 10 9 11 8 12
REMARK SMILES IDX 10 14 7 15 6 16 1 17 2 18 3 19 4 20 5 21 20 22 21 23 22 24
REMARK SMILES IDX 23 25 24 27 25 28 26 29 87 30 27 31 86 32 28 33 29 34 30 35
REMARK SMILES IDX 80 36 31 37 85 38 79 39 81 40 32 41 84 42 78 43 77 44 33 46
REMARK SMILES IDX 65 47 45 48 64 49 46 50 49 51 63 52 82 53 47 54 48 55 62 57
REMARK SMILES IDX 83 58 50 59 34 60 35 61 43 62 36 63 38 64 44 65 37 66 39 67
REMARK SMILES IDX 40 68 41 69 42 70 66 71 67 72 75 73 68 74 70 75 76 76 69 77
REMARK SMILES IDX 71 78 72 79 73 80 74 81 51 82 52 83 60 84 53 85 55 86 61 87
REMARK SMILES IDX 54 88 56 89 57 90 58 91 59 92
REMARK H PARENT 17 6 8 13 22 26 81 45 49 56
REMARK Flexibility Score: inf
ROOT
ATOM      1  C   UNL A   1      35.784  22.422  26.185  1.00  0.00     0.023 C 
ENDROOT
BRANCH   1   2
ATOM      2  C   UNL A   1      35.698  23.634  25.262  1.00  0.00     0.116 C 
BRANCH   2   3
ATOM      3  N   UNL A   1      35.161  23.308  23.959  1.00  0.00    -0.356 N 
ATOM      4  C   UNL A   1      34.106  23.779  23.246  1.00  0.00     0.226 C 
ATOM      5  O   UNL A   1      33.956  23.259  22.138  1.00  0.00    -0.274 OA
ATOM      6  H   UNL A   1      35.663  22.598  23.494  1.00  0.00     0.163 HD
BRANCH   4   7
ATOM      7  C   UNL A   1      33.104  24.819  23.795  1.00  0.00     0.052 C 
ATOM      8  C   UNL A   1      32.839  24.675  25.303  1.00  0.00     0.022 C 
ATOM      9  C   UNL A   1      31.766  24.608  23.048  1.00  0.00     0.022 C 
BRANCH   7  10
ATOM     10  C   UNL A   1      33.574  26.284  23.494  1.00  0.00     0.116 C 
BRANCH  10  11
ATOM     11  C   UNL A   1      33.177  26.972  22.192  1.00  0.00     0.221 C 
ATOM     12  N   UNL A   1      32.444  28.113  22.168  1.00  0.00    -0.352 N 
ATOM     13  H   UNL A   1      32.441  28.577  21.301  1.00  0.00     0.163 HD
ATOM     14  O   UNL A   1      33.432  26.449  21.104  1.00  0.00    -0.275 OA
BRANCH  12  15
ATOM     15  C   UNL A   1      31.672  28.762  23.196  1.00  0.00     0.152 C 
BRANCH  15  16
ATOM     16  C   UNL A   1      30.274  29.056  22.729  1.00  0.00    -0.015 A 
ATOM     17  C   UNL A   1      29.177  26.967  23.852  1.00  0.00     0.045 C 
ATOM     18  C   UNL A   1      29.126  28.230  23.052  1.00  0.00    -0.035 A 
ATOM     19  C   UNL A   1      27.959  28.757  22.530  1.00  0.00     0.068 A 
ATOM     20  S   UNL A   1      28.213  30.202  21.663  1.00  0.00    -0.152 S 
ATOM     21  C   UNL A   1      29.890  30.144  21.960  1.00  0.00     0.070 A 
ENDBRANCH  15  16
ENDBRANCH  12  15
ENDBRANCH  10  11
ENDBRANCH   7  10
ENDBRANCH   4   7
ENDBRANCH   2   3
ENDBRANCH   1   2
BRANCH   1  22
ATOM     22  C   UNL A   1      36.267  21.129  25.530  1.00  0.00     0.023 C 
BRANCH  22  23
ATOM     23  C   UNL A   1      37.649  21.190  24.885  1.00  0.00     0.116 C 
BRANCH  23  24
ATOM     24  N   UNL A   1      38.580  20.206  25.420  1.00  0.00    -0.352 N 
ATOM     25  C   UNL A   1      39.713  20.397  26.174  1.00  0.00     0.251 C 
ATOM     26  H   UNL A   1      38.367  19.268  25.211  1.00  0.00     0.163 HD
ATOM     27  O   UNL A   1      40.436  19.443  26.448  1.00  0.00    -0.269 OA
BRANCH  25  28
ATOM     28  C   UNL A   1      40.074  21.758  26.623  1.00  0.00     0.039 A 
ATOM     29  C   UNL A   1      40.987  21.905  27.670  1.00  0.00     0.014 A 
ATOM     30  C   UNL A   1      39.542  22.884  25.987  1.00  0.00     0.014 A 
ATOM     31  C   UNL A   1      41.429  23.181  28.026  1.00  0.00     0.010 A 
ATOM     32  C   UNL A   1      40.041  24.146  26.291  1.00  0.00     0.010 A 
ATOM     33  C   UNL A   1      40.992  24.308  27.311  1.00  0.00    -0.014 A 
BRANCH  33  34
ATOM     34  C   UNL A   1      41.526  25.664  27.599  1.00  0.00     0.031 A 
ATOM     35  C   UNL A   1      42.946  26.008  27.242  1.00  0.00     0.074 A 
ATOM     36  C   UNL A   1      40.762  26.553  28.267  1.00  0.00     0.049 A 
ATOM     37  N   UNL A   1      43.618  27.103  27.489  1.00  0.00    -0.248 NA
ATOM     38  C   UNL A   1      43.726  24.974  26.541  1.00  0.00     0.031 C 
ATOM     39  C   UNL A   1      39.398  26.312  28.741  1.00  0.00     0.029 A 
ATOM     40  N   UNL A   1      41.037  27.830  28.691  1.00  0.00    -0.354 N 
ATOM     41  C   UNL A   1      44.900  26.880  27.003  1.00  0.00     0.074 A 
ATOM     42  C   UNL A   1      44.927  25.531  26.484  1.00  0.00     0.031 C 
ATOM     43  C   UNL A   1      38.956  27.402  29.389  1.00  0.00     0.029 A 
ATOM     44  C   UNL A   1      40.011  28.410  29.401  1.00  0.00     0.049 A 
ATOM     45  H   UNL A   1      41.889  28.288  28.505  1.00  0.00     0.167 HD
ATOM     46  C   UNL A   1      45.951  27.734  26.956  1.00  0.00     0.034 A 
ATOM     47  C   UNL A   1      39.931  29.615  29.997  1.00  0.00     0.034 A 
ATOM     48  C   UNL A   1      45.907  29.091  27.429  1.00  0.00     0.049 A 
ATOM     49  C   UNL A   1      41.100  30.560  29.891  1.00  0.00     0.074 A 
ATOM     50  C   UNL A   1      46.898  30.055  27.369  1.00  0.00     0.029 A 
ATOM     51  N   UNL A   1      44.813  29.677  28.045  1.00  0.00    -0.354 N 
ATOM     52  N   UNL A   1      42.252  30.382  29.292  1.00  0.00    -0.248 NA
ATOM     53  C   UNL A   1      40.941  31.886  30.507  1.00  0.00     0.031 C 
ATOM     54  C   UNL A   1      46.402  31.227  27.951  1.00  0.00     0.029 A 
ATOM     55  C   UNL A   1      45.099  30.994  28.363  1.00  0.00     0.049 A 
ATOM     56  H   UNL A   1      43.958  29.225  28.228  1.00  0.00     0.167 HD
ATOM     57  C   UNL A   1      42.940  31.583  29.427  1.00  0.00     0.074 A 
ATOM     58  C   UNL A   1      42.065  32.488  30.143  1.00  0.00     0.031 C 
ATOM     59  C   UNL A   1      44.191  31.902  29.013  1.00  0.00     0.034 A 
BRANCH  46  60
ATOM     60  C   UNL A   1      47.214  27.247  26.296  1.00  0.00     0.023 A 
ATOM     61  C   UNL A   1      47.442  27.561  24.940  1.00  0.00     0.012 A 
ATOM     62  C   UNL A   1      48.195  26.538  27.016  1.00  0.00     0.148 A 
ATOM     63  C   UNL A   1      48.610  27.149  24.300  1.00  0.00     0.002 A 
ATOM     64  C   UNL A   1      49.376  26.167  26.382  1.00  0.00     0.091 A 
ATOM     65  F   UNL A   1      47.952  26.232  28.298  1.00  0.00    -0.205 F 
ATOM     66  C   UNL A   1      49.581  26.461  25.023  1.00  0.00     0.022 A 
BRANCH  64  67
ATOM     67  S   UNL A   1      50.722  25.344  27.241  1.00  0.00     0.127 S 
ATOM     68  O   UNL A   1      51.144  26.377  28.187  1.00  0.00    -0.237 OA
ATOM     69  O   UNL A   1      50.045  24.201  27.854  1.00  0.00    -0.237 OA
ATOM     70  O   UNL A   1      51.698  24.995  26.219  1.00  0.00    -0.744 OA
ENDBRANCH  64  67
ENDBRANCH  46  60
BRANCH  47  71
ATOM     71  C   UNL A   1      38.675  30.032  30.683  1.00  0.00     0.023 A 
ATOM     72  C   UNL A   1      38.472  29.667  32.029  1.00  0.00     0.012 A 
ATOM     73  C   UNL A   1      37.688  30.791  30.024  1.00  0.00     0.148 A 
ATOM     74  C   UNL A   1      37.296  30.017  32.693  1.00  0.00     0.002 A 
ATOM     75  C   UNL A   1      36.543  31.182  30.708  1.00  0.00     0.091 A 
ATOM     76  F   UNL A   1      37.889  31.116  28.738  1.00  0.00    -0.205 F 
ATOM     77  C   UNL A   1      36.336  30.782  32.037  1.00  0.00     0.022 A 
BRANCH  75  78
ATOM     78  S   UNL A   1      35.323  32.279  29.973  1.00  0.00     0.127 S 
ATOM     79  O   UNL A   1      34.367  32.439  31.064  1.00  0.00    -0.237 OA
ATOM     80  O   UNL A   1      36.121  33.469  29.672  1.00  0.00    -0.237 OA
ATOM     81  O   UNL A   1      34.839  31.576  28.792  1.00  0.00    -0.744 OA
ENDBRANCH  75  78
ENDBRANCH  47  71
BRANCH  59  82
ATOM     82  C   UNL A   1      44.681  33.300  29.285  1.00  0.00     0.023 A 
ATOM     83  C   UNL A   1      45.323  33.589  30.505  1.00  0.00     0.012 A 
ATOM     84  C   UNL A   1      44.573  34.303  28.302  1.00  0.00     0.148 A 
ATOM     85  C   UNL A   1      45.825  34.865  30.755  1.00  0.00     0.002 A 
ATOM     86  C   UNL A   1      45.116  35.560  28.541  1.00  0.00     0.091 A 
ATOM     87  F   UNL A   1      43.940  34.013  27.157  1.00  0.00    -0.205 F 
ATOM     88  C   UNL A   1      45.733  35.846  29.770  1.00  0.00     0.022 A 
BRANCH  86  89
ATOM     89  S   UNL A   1      45.125  36.855  27.296  1.00  0.00     0.127 S 
ATOM     90  O   UNL A   1      45.791  37.946  28.004  1.00  0.00    -0.237 OA
ATOM     91  O   UNL A   1      45.915  36.252  26.222  1.00  0.00    -0.237 OA
ATOM     92  O   UNL A   1      43.727  37.089  26.955  1.00  0.00    -0.744 OA
ENDBRANCH  86  89
ENDBRANCH  59  82
ENDBRANCH  33  34
ENDBRANCH  25  28
ENDBRANCH  23  24
ENDBRANCH  22  23
ENDBRANCH   1  22
TORSDOF 18
ENDMDL
MODEL 2
REMARK VINA RESULT:     -11.4      5.928      9.338
REMARK SMILES Cc1cscc1CNC(=O)CC(C)(C)C(=O)NCCCCNC(=O)c1ccc(-c2c3nc(c(-c4cccc(S(=O)(=O)[O-])c4F)c4ccc([nH]4)c(-c4cccc(S(=O)(=O)[O-])c4F)c4nc(c(-c5cccc(S(=O)(=O)[O-])c5F)c5ccc2[nH]5)C=C4)C=C3)cc1
REMARK SMILES IDX 19 1 18 2 17 3 15 4 16 5 12 7 13 8 14 9 11 10 9 11 8 12
REMARK SMILES IDX 10 14 7 15 6 16 1 17 2 18 3 19 4 20 5 21 20 22 21 23 22 24
REMARK SMILES IDX 23 25 24 27 25 28 26 29 87 30 27 31 86 32 28 33 29 34 30 35
REMARK SMILES IDX 80 36 31 37 85 38 79 39 81 40 32 41 84 42 78 43 77 44 33 46
REMARK SMILES IDX 65 47 45 48 64 49 46 50 49 51 63 52 82 53 47 54 48 55 62 57
REMARK SMILES IDX 83 58 50 59 34 60 35 61 43 62 36 63 38 64 44 65 37 66 39 67
REMARK SMILES IDX 40 68 41 69 42 70 66 71 67 72 75 73 68 74 70 75 76 76 69 77
REMARK SMILES IDX 71 78 72 79 73 80 74 81 51 82 52 83 60 84 53 85 55 86 61 87
REMARK SMILES IDX 54 88 56 89 57 90 58 91 59 92
REMARK H PARENT 17 6 8 13 22 26 81 45 49 56
REMARK Flexibility Score: inf
ROOT
ATOM      1  C   UNL A   1      31.998  29.987  27.143  1.00  0.00     0.023 C 
ENDROOT
BRANCH   1   2
ATOM      2  C   UNL A   1      31.846  29.016  25.975  1.00  0.00     0.116 C 
BRANCH   2   3
ATOM      3  N   UNL A   1      31.383  27.710  26.391  1.00  0.00    -0.356 N 
ATOM      4  C   UNL A   1      31.251  26.523  25.744  1.00  0.00     0.226 C 
ATOM      5  O   UNL A   1      30.824  25.599  26.440  1.00  0.00    -0.274 OA
ATOM      6  H   UNL A   1      31.105  27.674  27.336  1.00  0.00     0.163 HD
BRANCH   4   7
ATOM      7  C   UNL A   1      31.523  26.341  24.234  1.00  0.00     0.052 C 
ATOM      8  C   UNL A   1      30.851  27.414  23.359  1.00  0.00     0.022 C 
ATOM      9  C   UNL A   1      30.955  24.962  23.827  1.00  0.00     0.022 C 
BRANCH   7  10
ATOM     10  C   UNL A   1      33.059  26.317  23.925  1.00  0.00     0.116 C 
BRANCH  10  11
ATOM     11  C   UNL A   1      33.605  25.472  22.778  1.00  0.00     0.221 C 
ATOM     12  N   UNL A   1      34.145  24.244  22.975  1.00  0.00    -0.352 N 
ATOM     13  H   UNL A   1      34.254  23.711  22.154  1.00  0.00     0.163 HD
ATOM     14  O   UNL A   1      33.659  25.930  21.633  1.00  0.00    -0.275 OA
BRANCH  12  15
ATOM     15  C   UNL A   1      34.583  23.586  24.177  1.00  0.00     0.152 C 
BRANCH  15  16
ATOM     16  C   UNL A   1      34.071  22.175  24.249  1.00  0.00    -0.015 A 
ATOM     17  C   UNL A   1      36.249  21.157  25.274  1.00  0.00     0.045 C 
ATOM     18  C   UNL A   1      34.843  21.063  24.774  1.00  0.00    -0.035 A 
ATOM     19  C   UNL A   1      34.113  19.889  24.762  1.00  0.00     0.068 A 
ATOM     20  S   UNL A   1      32.542  20.090  24.133  1.00  0.00    -0.152 S 
ATOM     21  C   UNL A   1      32.812  21.749  23.855  1.00  0.00     0.070 A 
ENDBRANCH  15  16
ENDBRANCH  12  15
ENDBRANCH  10  11
ENDBRANCH   7  10
ENDBRANCH   4   7
ENDBRANCH   2   3
ENDBRANCH   1   2
BRANCH   1  22
ATOM     22  C   UNL A   1      31.833  31.465  26.794  1.00  0.00     0.023 C 
BRANCH  22  23
ATOM     23  C   UNL A   1      32.999  32.369  27.182  1.00  0.00     0.116 C 
BRANCH  23  24
ATOM     24  N   UNL A   1      32.592  33.729  27.507  1.00  0.00    -0.352 N 
ATOM     25  C   UNL A   1      33.073  34.575  28.478  1.00  0.00     0.251 C 
ATOM     26  H   UNL A   1      31.867  34.095  26.952  1.00  0.00     0.163 HD
ATOM     27  O   UNL A   1      32.528  35.659  28.673  1.00  0.00    -0.269 OA
BRANCH  25  28
ATOM     28  C   UNL A   1      34.223  34.160  29.308  1.00  0.00     0.039 A 
ATOM     29  C   UNL A   1      33.986  33.426  30.473  1.00  0.00     0.014 A 
ATOM     30  C   UNL A   1      35.530  34.462  28.918  1.00  0.00     0.014 A 
ATOM     31  C   UNL A   1      35.065  32.924  31.204  1.00  0.00     0.010 A 
ATOM     32  C   UNL A   1      36.601  33.898  29.604  1.00  0.00     0.010 A 
ATOM     33  C   UNL A   1      36.380  33.120  30.752  1.00  0.00    -0.014 A 
BRANCH  33  34
ATOM     34  C   UNL A   1      37.540  32.509  31.450  1.00  0.00     0.031 A 
ATOM     35  C   UNL A   1      38.270  31.350  30.830  1.00  0.00     0.074 A 
ATOM     36  C   UNL A   1      37.874  32.937  32.685  1.00  0.00     0.049 A 
ATOM     37  N   UNL A   1      39.247  30.631  31.321  1.00  0.00    -0.248 NA
ATOM     38  C   UNL A   1      37.827  30.922  29.492  1.00  0.00     0.031 C 
ATOM     39  C   UNL A   1      37.192  33.997  33.430  1.00  0.00     0.029 A 
ATOM     40  N   UNL A   1      38.855  32.508  33.546  1.00  0.00    -0.354 N 
ATOM     41  C   UNL A   1      39.513  29.652  30.370  1.00  0.00     0.074 A 
ATOM     42  C   UNL A   1      38.569  29.842  29.292  1.00  0.00     0.031 C 
ATOM     43  C   UNL A   1      37.773  34.136  34.633  1.00  0.00     0.029 A 
ATOM     44  C   UNL A   1      38.850  33.160  34.758  1.00  0.00     0.049 A 
ATOM     45  H   UNL A   1      39.501  31.800  33.319  1.00  0.00     0.167 HD
ATOM     46  C   UNL A   1      40.481  28.705  30.375  1.00  0.00     0.034 A 
ATOM     47  C   UNL A   1      39.624  32.989  35.848  1.00  0.00     0.034 A 
ATOM     48  C   UNL A   1      41.448  28.548  31.427  1.00  0.00     0.049 A 
ATOM     49  C   UNL A   1      40.721  31.956  35.807  1.00  0.00     0.074 A 
ATOM     50  C   UNL A   1      42.508  27.661  31.496  1.00  0.00     0.029 A 
ATOM     51  N   UNL A   1      41.479  29.300  32.591  1.00  0.00    -0.354 N 
ATOM     52  N   UNL A   1      41.051  31.142  34.835  1.00  0.00    -0.248 NA
ATOM     53  C   UNL A   1      41.576  31.847  36.998  1.00  0.00     0.031 C 
ATOM     54  C   UNL A   1      43.179  27.875  32.705  1.00  0.00     0.029 A 
ATOM     55  C   UNL A   1      42.544  28.904  33.381  1.00  0.00     0.049 A 
ATOM     56  H   UNL A   1      40.838  30.012  32.820  1.00  0.00     0.167 HD
ATOM     57  C   UNL A   1      42.173  30.452  35.281  1.00  0.00     0.074 A 
ATOM     58  C   UNL A   1      42.479  30.961  36.602  1.00  0.00     0.031 C 
ATOM     59  C   UNL A   1      42.875  29.471  34.662  1.00  0.00     0.034 A 
BRANCH  46  60
ATOM     60  C   UNL A   1      40.589  27.815  29.165  1.00  0.00     0.023 A 
ATOM     61  C   UNL A   1      39.736  26.698  29.059  1.00  0.00     0.012 A 
ATOM     62  C   UNL A   1      41.480  28.106  28.114  1.00  0.00     0.148 A 
ATOM     63  C   UNL A   1      39.789  25.863  27.944  1.00  0.00     0.002 A 
ATOM     64  C   UNL A   1      41.498  27.294  26.985  1.00  0.00     0.091 A 
ATOM     65  F   UNL A   1      42.297  29.161  28.240  1.00  0.00    -0.205 F 
ATOM     66  C   UNL A   1      40.662  26.167  26.903  1.00  0.00     0.022 A 
BRANCH  64  67
ATOM     67  S   UNL A   1      42.531  27.638  25.557  1.00  0.00     0.127 S 
ATOM     68  O   UNL A   1      41.976  28.909  25.091  1.00  0.00    -0.237 OA
ATOM     69  O   UNL A   1      43.863  27.740  26.155  1.00  0.00    -0.237 OA
ATOM     70  O   UNL A   1      42.357  26.511  24.653  1.00  0.00    -0.744 OA
ENDBRANCH  64  67
ENDBRANCH  46  60
BRANCH  47  71
ATOM     71  C   UNL A   1      39.444  33.861  37.042  1.00  0.00     0.023 A 
ATOM     72  C   UNL A   1      39.895  35.196  36.994  1.00  0.00     0.012 A 
ATOM     73  C   UNL A   1      38.825  33.390  38.216  1.00  0.00     0.148 A 
ATOM     74  C   UNL A   1      39.766  36.032  38.103  1.00  0.00     0.002 A 
ATOM     75  C   UNL A   1      38.653  34.245  39.300  1.00  0.00     0.091 A 
ATOM     76  F   UNL A   1      38.417  32.114  38.253  1.00  0.00    -0.205 F 
ATOM     77  C   UNL A   1      39.138  35.561  39.252  1.00  0.00     0.022 A 
BRANCH  75  78
ATOM     78  S   UNL A   1      37.735  33.753  40.764  1.00  0.00     0.127 S 
ATOM     79  O   UNL A   1      37.507  35.036  41.421  1.00  0.00    -0.237 OA
ATOM     80  O   UNL A   1      36.540  33.135  40.186  1.00  0.00    -0.237 OA
ATOM     81  O   UNL A   1      38.606  32.818  41.464  1.00  0.00    -0.744 OA
ENDBRANCH  75  78
ENDBRANCH  47  71
BRANCH  59  82
ATOM     82  C   UNL A   1      44.070  28.906  35.384  1.00  0.00     0.023 A 
ATOM     83  C   UNL A   1      45.339  29.489  35.194  1.00  0.00     0.012 A 
ATOM     84  C   UNL A   1      43.922  27.851  36.305  1.00  0.00     0.148 A 
ATOM     85  C   UNL A   1      46.448  29.010  35.889  1.00  0.00     0.002 A 
ATOM     86  C   UNL A   1      45.024  27.409  37.028  1.00  0.00     0.091 A 
ATOM     87  F   UNL A   1      42.710  27.297  36.455  1.00  0.00    -0.205 F 
ATOM     88  C   UNL A   1      46.289  27.980  36.814  1.00  0.00     0.022 A 
BRANCH  86  89
ATOM     89  S   UNL A   1      44.894  26.152  38.304  1.00  0.00     0.127 S 
ATOM     90  O   UNL A   1      46.280  26.040  38.755  1.00  0.00    -0.237 OA
ATOM     91  O   UNL A   1      43.987  26.776  39.267  1.00  0.00    -0.237 OA
ATOM     92  O   UNL A   1      44.351  24.970  37.646  1.00  0.00    -0.744 OA
ENDBRANCH  86  89
ENDBRANCH  59  82
ENDBRANCH  33  34
ENDBRANCH  25  28
ENDBRANCH  23  24
ENDBRANCH  22  23
ENDBRANCH   1  22
TORSDOF 18
ENDMDL
MODEL 3
REMARK VINA RESULT:     -11.2      1.853      2.220
REMARK SMILES Cc1cscc1CNC(=O)CC(C)(C)C(=O)NCCCCNC(=O)c1ccc(-c2c3nc(c(-c4cccc(S(=O)(=O)[O-])c4F)c4ccc([nH]4)c(-c4cccc(S(=O)(=O)[O-])c4F)c4nc(c(-c5cccc(S(=O)(=O)[O-])c5F)c5ccc2[nH]5)C=C4)C=C3)cc1
REMARK SMILES IDX 19 1 18 2 17 3 15 4 16 5 12 7 13 8 14 9 11 10 9 11 8 12
REMARK SMILES IDX 10 14 7 15 6 16 1 17 2 18 3 19 4 20 5 21 20 22 21 23 22 24
REMARK SMILES IDX 23 25 24 27 25 28 26 29 87 30 27 31 86 32 28 33 29 34 30 35
REMARK SMILES IDX 80 36 31 37 85 38 79 39 81 40 32 41 84 42 78 43 77 44 33 46
REMARK SMILES IDX 65 47 45 48 64 49 46 50 49 51 63 52 82 53 47 54 48 55 62 57
REMARK SMILES IDX 83 58 50 59 34 60 35 61 43 62 36 63 38 64 44 65 37 66 39 67
REMARK SMILES IDX 40 68 41 69 42 70 66 71 67 72 75 73 68 74 70 75 76 76 69 77
REMARK SMILES IDX 71 78 72 79 73 80 74 81 51 82 52 83 60 84 53 85 55 86 61 87
REMARK SMILES IDX 54 88 56 89 57 90 58 91 59 92
REMARK H PARENT 17 6 8 13 22 26 81 45 49 56
REMARK Flexibility Score: inf
ROOT
ATOM      1  C   UNL A   1      34.884  20.993  25.102  1.00  0.00     0.023 C 
ENDROOT
BRANCH   1   2
ATOM      2  C   UNL A   1      33.462  21.324  24.661  1.00  0.00     0.116 C 
BRANCH   2   3
ATOM      3  N   UNL A   1      33.389  21.745  23.279  1.00  0.00    -0.356 N 
ATOM      4  C   UNL A   1      32.995  22.899  22.680  1.00  0.00     0.226 C 
ATOM      5  O   UNL A   1      33.084  22.901  21.451  1.00  0.00    -0.274 OA
ATOM      6  H   UNL A   1      33.685  21.054  22.642  1.00  0.00     0.163 HD
BRANCH   4   7
ATOM      7  C   UNL A   1      32.394  24.097  23.451  1.00  0.00     0.052 C 
ATOM      8  C   UNL A   1      33.328  24.651  24.541  1.00  0.00     0.022 C 
ATOM      9  C   UNL A   1      31.098  23.601  24.133  1.00  0.00     0.022 C 
BRANCH   7  10
ATOM     10  C   UNL A   1      31.991  25.259  22.481  1.00  0.00     0.116 C 
BRANCH  10  11
ATOM     11  C   UNL A   1      32.858  26.510  22.370  1.00  0.00     0.221 C 
ATOM     12  N   UNL A   1      32.553  27.664  23.013  1.00  0.00    -0.352 N 
ATOM     13  H   UNL A   1      33.288  28.318  23.048  1.00  0.00     0.163 HD
ATOM     14  O   UNL A   1      33.825  26.536  21.603  1.00  0.00    -0.275 OA
BRANCH  12  15
ATOM     15  C   UNL A   1      31.339  28.095  23.656  1.00  0.00     0.152 C 
BRANCH  15  16
ATOM     16  C   UNL A   1      31.608  28.633  25.033  1.00  0.00    -0.015 A 
ATOM     17  C   UNL A   1      30.888  26.467  26.306  1.00  0.00     0.045 C 
ATOM     18  C   UNL A   1      31.412  27.867  26.250  1.00  0.00    -0.035 A 
ATOM     19  C   UNL A   1      31.778  28.591  27.370  1.00  0.00     0.068 A 
ATOM     20  S   UNL A   1      32.336  30.157  26.994  1.00  0.00    -0.152 S 
ATOM     21  C   UNL A   1      32.089  29.900  25.327  1.00  0.00     0.070 A 
ENDBRANCH  15  16
ENDBRANCH  12  15
ENDBRANCH  10  11
ENDBRANCH   7  10
ENDBRANCH   4   7
ENDBRANCH   2   3
ENDBRANCH   1   2
BRANCH   1  22
ATOM     22  C   UNL A   1      35.993  21.728  24.352  1.00  0.00     0.023 C 
BRANCH  22  23
ATOM     23  C   UNL A   1      37.133  22.264  25.214  1.00  0.00     0.116 C 
BRANCH  23  24
ATOM     24  N   UNL A   1      38.117  21.250  25.565  1.00  0.00    -0.352 N 
ATOM     25  C   UNL A   1      39.325  21.391  26.205  1.00  0.00     0.251 C 
ATOM     26  H   UNL A   1      37.884  20.329  25.307  1.00  0.00     0.163 HD
ATOM     27  O   UNL A   1      40.075  20.425  26.323  1.00  0.00    -0.269 OA
BRANCH  25  28
ATOM     28  C   UNL A   1      39.732  22.716  26.718  1.00  0.00     0.039 A 
ATOM     29  C   UNL A   1      40.701  22.785  27.722  1.00  0.00     0.014 A 
ATOM     30  C   UNL A   1      39.185  23.887  26.185  1.00  0.00     0.014 A 
ATOM     31  C   UNL A   1      41.182  24.030  28.133  1.00  0.00     0.010 A 
ATOM     32  C   UNL A   1      39.720  25.120  26.540  1.00  0.00     0.010 A 
ATOM     33  C   UNL A   1      40.726  25.205  27.515  1.00  0.00    -0.014 A 
BRANCH  33  34
ATOM     34  C   UNL A   1      41.296  26.534  27.858  1.00  0.00     0.031 A 
ATOM     35  C   UNL A   1      42.727  26.852  27.519  1.00  0.00     0.074 A 
ATOM     36  C   UNL A   1      40.554  27.415  28.560  1.00  0.00     0.049 A 
ATOM     37  N   UNL A   1      43.427  27.917  27.812  1.00  0.00    -0.248 NA
ATOM     38  C   UNL A   1      43.480  25.825  26.779  1.00  0.00     0.031 C 
ATOM     39  C   UNL A   1      39.182  27.193  29.020  1.00  0.00     0.029 A 
ATOM     40  N   UNL A   1      40.863  28.667  29.035  1.00  0.00    -0.354 N 
ATOM     41  C   UNL A   1      44.705  27.678  27.320  1.00  0.00     0.074 A 
ATOM     42  C   UNL A   1      44.696  26.351  26.747  1.00  0.00     0.031 C 
ATOM     43  C   UNL A   1      38.769  28.268  29.710  1.00  0.00     0.029 A 
ATOM     44  C   UNL A   1      39.851  29.246  29.765  1.00  0.00     0.049 A 
ATOM     45  H   UNL A   1      41.728  29.108  28.870  1.00  0.00     0.167 HD
ATOM     46  C   UNL A   1      45.778  28.504  27.310  1.00  0.00     0.034 A 
ATOM     47  C   UNL A   1      39.802  30.428  30.410  1.00  0.00     0.034 A 
ATOM     48  C   UNL A   1      45.771  29.841  27.837  1.00  0.00     0.049 A 
ATOM     49  C   UNL A   1      40.997  31.344  30.344  1.00  0.00     0.074 A 
ATOM     50  C   UNL A   1      46.788  30.780  27.818  1.00  0.00     0.029 A 
ATOM     51  N   UNL A   1      44.691  30.433  28.474  1.00  0.00    -0.354 N 
ATOM     52  N   UNL A   1      42.146  31.158  29.742  1.00  0.00    -0.248 NA
ATOM     53  C   UNL A   1      40.873  32.647  31.012  1.00  0.00     0.031 C 
ATOM     54  C   UNL A   1      46.322  31.940  28.446  1.00  0.00     0.029 A 
ATOM     55  C   UNL A   1      45.012  31.727  28.844  1.00  0.00     0.049 A 
ATOM     56  H   UNL A   1      43.823  29.998  28.636  1.00  0.00     0.167 HD
ATOM     57  C   UNL A   1      42.866  32.333  29.926  1.00  0.00     0.074 A 
ATOM     58  C   UNL A   1      42.014  33.232  30.676  1.00  0.00     0.031 C 
ATOM     59  C   UNL A   1      44.127  32.633  29.528  1.00  0.00     0.034 A 
BRANCH  46  60
ATOM     60  C   UNL A   1      47.030  28.009  26.634  1.00  0.00     0.023 A 
ATOM     61  C   UNL A   1      48.047  27.428  27.419  1.00  0.00     0.012 A 
ATOM     62  C   UNL A   1      47.182  28.060  25.235  1.00  0.00     0.148 A 
ATOM     63  C   UNL A   1      49.210  26.936  26.830  1.00  0.00     0.002 A 
ATOM     64  C   UNL A   1      48.326  27.530  24.649  1.00  0.00     0.091 A 
ATOM     65  F   UNL A   1      46.214  28.634  24.506  1.00  0.00    -0.205 F 
ATOM     66  C   UNL A   1      49.345  26.978  25.445  1.00  0.00     0.022 A 
BRANCH  64  67
ATOM     67  S   UNL A   1      48.566  27.466  22.870  1.00  0.00     0.127 S 
ATOM     68  O   UNL A   1      49.902  28.046  22.731  1.00  0.00    -0.237 OA
ATOM     69  O   UNL A   1      48.497  26.029  22.601  1.00  0.00    -0.237 OA
ATOM     70  O   UNL A   1      47.482  28.245  22.290  1.00  0.00    -0.744 OA
ENDBRANCH  64  67
ENDBRANCH  46  60
BRANCH  47  71
ATOM     71  C   UNL A   1      38.555  30.852  31.108  1.00  0.00     0.023 A 
ATOM     72  C   UNL A   1      38.413  30.585  32.485  1.00  0.00     0.012 A 
ATOM     73  C   UNL A   1      37.518  31.522  30.431  1.00  0.00     0.148 A 
ATOM     74  C   UNL A   1      37.249  30.943  33.164  1.00  0.00     0.002 A 
ATOM     75  C   UNL A   1      36.383  31.924  31.126  1.00  0.00     0.091 A 
ATOM     76  F   UNL A   1      37.661  31.753  29.118  1.00  0.00    -0.205 F 
ATOM     77  C   UNL A   1      36.238  31.620  32.488  1.00  0.00     0.022 A 
BRANCH  75  78
ATOM     78  S   UNL A   1      35.098  32.916  30.357  1.00  0.00     0.127 S 
ATOM     79  O   UNL A   1      35.861  34.049  29.841  1.00  0.00    -0.237 OA
ATOM     80  O   UNL A   1      34.577  32.007  29.334  1.00  0.00    -0.237 OA
ATOM     81  O   UNL A   1      34.151  33.212  31.424  1.00  0.00    -0.744 OA
ENDBRANCH  75  78
ENDBRANCH  47  71
BRANCH  59  82
ATOM     82  C   UNL A   1      44.655  34.005  29.857  1.00  0.00     0.023 A 
ATOM     83  C   UNL A   1      45.354  34.213  31.062  1.00  0.00     0.012 A 
ATOM     84  C   UNL A   1      44.523  35.065  28.939  1.00  0.00     0.148 A 
ATOM     85  C   UNL A   1      45.890  35.464  31.362  1.00  0.00     0.002 A 
ATOM     86  C   UNL A   1      45.100  36.297  29.225  1.00  0.00     0.091 A 
ATOM     87  F   UNL A   1      43.836  34.851  27.808  1.00  0.00    -0.205 F 
ATOM     88  C   UNL A   1      45.774  36.502  30.440  1.00  0.00     0.022 A 
BRANCH  86  89
ATOM     89  S   UNL A   1      45.079  37.661  28.056  1.00  0.00     0.127 S 
ATOM     90  O   UNL A   1      45.802  38.696  28.792  1.00  0.00    -0.237 OA
ATOM     91  O   UNL A   1      45.804  37.105  26.913  1.00  0.00    -0.237 OA
ATOM     92  O   UNL A   1      43.673  37.942  27.797  1.00  0.00    -0.744 OA
ENDBRANCH  86  89
ENDBRANCH  59  82
ENDBRANCH  33  34
ENDBRANCH  25  28
ENDBRANCH  23  24
ENDBRANCH  22  23
ENDBRANCH   1  22
TORSDOF 18
ENDMDL
