MODEL 1
REMARK VINA RESULT:     -12.6      0.000      0.000
REMARK SMILES COc1ccc(-c2cc(CC3(C(=O)NCCCCNC(=O)c4ccc(-c5c6nc(c(-c7cccc(S(=O)(=O)[O-])c7F)c7ccc([nH]7)c(-c7cccc(S(=O)(=O)[O-])c7F)c7nc(c(-c8cccc(S(=O)(=O)[O-])c8F)c8ccc5[nH]8)C=C7)C=C6)cc4)CCN(C(=O)C4CCCC4)CC3)on2)cc1
REMARK SMILES IDX 16 1 15 2 14 3 12 4 13 5 11 7 85 8 96 9 86 10 95 11 87 12
REMARK SMILES IDX 88 13 89 14 10 15 9 16 7 17 8 18 98 19 97 20 6 21 3 22 4 23
REMARK SMILES IDX 100 24 5 25 99 26 2 27 1 28 90 29 91 30 94 31 92 32 93 33
REMARK SMILES IDX 17 34 18 35 19 36 20 37 21 39 22 40 23 41 84 42 24 43 83 44
REMARK SMILES IDX 25 45 26 46 27 47 77 48 28 49 82 50 76 51 78 52 29 53 81 54
REMARK SMILES IDX 75 55 74 56 30 58 62 59 42 60 61 61 43 62 46 63 60 64 79 65
REMARK SMILES IDX 44 66 45 67 59 69 80 70 47 71 31 72 32 73 40 74 33 75 35 76
REMARK SMILES IDX 41 77 34 78 36 79 37 80 38 81 39 82 63 83 64 84 72 85 65 86
REMARK SMILES IDX 67 87 73 88 66 89 68 90 69 91 70 92 71 93 48 94 49 95 57 96
REMARK SMILES IDX 50 97 52 98 58 99 51 100 53 101 54 102 55 103 56 104
REMARK H PARENT 14 6 19 38 78 57 46 68
REMARK Flexibility Score: inf
ROOT
ATOM      1  C   UNL A   1      37.273  20.339  24.874  1.00  0.00     0.023 C 
ENDROOT
BRANCH   1   2
ATOM      2  C   UNL A   1      37.357  21.620  24.053  1.00  0.00     0.116 C 
BRANCH   2   3
ATOM      3  N   UNL A   1      37.600  22.791  24.883  1.00  0.00    -0.356 N 
ATOM      4  C   UNL A   1      36.746  23.624  25.544  1.00  0.00     0.226 C 
ATOM      5  O   UNL A   1      37.264  24.500  26.241  1.00  0.00    -0.274 OA
ATOM      6  H   UNL A   1      38.552  23.022  24.985  1.00  0.00     0.163 HD
BRANCH   4   7
ATOM      7  C   UNL A   1      35.206  23.482  25.440  1.00  0.00     0.060 C 
ATOM      8  C   UNL A   1      34.818  23.463  23.941  1.00  0.00     0.039 C 
ATOM      9  C   UNL A   1      34.793  22.215  26.235  1.00  0.00     0.039 C 
ATOM     10  C   UNL A   1      33.544  22.700  23.608  1.00  0.00     0.120 C 
ATOM     11  C   UNL A   1      33.602  21.426  25.708  1.00  0.00     0.120 C 
ATOM     12  N   UNL A   1      33.475  21.401  24.261  1.00  0.00    -0.342 N 
ATOM     13  C   UNL A   1      32.824  20.390  23.560  1.00  0.00     0.225 C 
ATOM     14  O   UNL A   1      32.197  20.631  22.522  1.00  0.00    -0.275 OA
BRANCH   7  15
ATOM     15  C   UNL A   1      34.605  24.764  26.117  1.00  0.00     0.095 C 
BRANCH  15  16
ATOM     16  C   UNL A   1      33.283  25.176  25.587  1.00  0.00     0.138 A 
ATOM     17  C   UNL A   1      31.466  26.091  24.749  1.00  0.00     0.114 A 
ATOM     18  C   UNL A   1      32.878  26.111  24.670  1.00  0.00     0.077 A 
ATOM     19  N   UNL A   1      31.043  25.128  25.577  1.00  0.00    -0.080 NA
ATOM     20  O   UNL A   1      32.189  24.546  26.094  1.00  0.00    -0.361 OA
BRANCH  17  21
ATOM     21  C   UNL A   1      30.554  26.966  24.044  1.00  0.00     0.004 A 
ATOM     22  C   UNL A   1      28.792  28.770  22.824  1.00  0.00     0.118 A 
ATOM     23  C   UNL A   1      28.307  27.595  23.409  1.00  0.00     0.047 A 
ATOM     24  C   UNL A   1      30.163  29.032  22.843  1.00  0.00     0.047 A 
ATOM     25  C   UNL A   1      29.183  26.691  24.014  1.00  0.00     0.014 A 
ATOM     26  C   UNL A   1      31.042  28.131  23.449  1.00  0.00     0.014 A 
BRANCH  22  27
ATOM     27  O   UNL A   1      27.833  29.588  22.294  1.00  0.00    -0.497 OA
ATOM     28  C   UNL A   1      28.269  30.512  21.305  1.00  0.00     0.278 C 
ENDBRANCH  22  27
ENDBRANCH  17  21
ENDBRANCH  15  16
ENDBRANCH   7  15
BRANCH  13  29
ATOM     29  C   UNL A   1      32.920  18.939  24.014  1.00  0.00     0.078 C 
ATOM     30  C   UNL A   1      32.575  17.920  22.932  1.00  0.00     0.013 C 
ATOM     31  C   UNL A   1      34.239  18.477  24.628  1.00  0.00     0.013 C 
ATOM     32  C   UNL A   1      33.101  16.616  23.501  1.00  0.00     0.001 C 
ATOM     33  C   UNL A   1      34.363  16.995  24.271  1.00  0.00     0.001 C 
ENDBRANCH  13  29
ENDBRANCH   4   7
ENDBRANCH   2   3
ENDBRANCH   1   2
BRANCH   1  34
ATOM     34  C   UNL A   1      38.596  19.582  25.000  1.00  0.00     0.023 C 
BRANCH  34  35
ATOM     35  C   UNL A   1      39.448  19.956  26.210  1.00  0.00     0.116 C 
BRANCH  35  36
ATOM     36  N   UNL A   1      40.773  19.350  26.183  1.00  0.00    -0.352 N 
ATOM     37  C   UNL A   1      42.008  19.944  26.299  1.00  0.00     0.251 C 
ATOM     38  H   UNL A   1      40.787  18.374  26.063  1.00  0.00     0.163 HD
ATOM     39  O   UNL A   1      43.025  19.284  26.103  1.00  0.00    -0.269 OA
BRANCH  37  40
ATOM     40  C   UNL A   1      42.107  21.381  26.635  1.00  0.00     0.039 A 
ATOM     41  C   UNL A   1      42.287  21.755  27.968  1.00  0.00     0.014 A 
ATOM     42  C   UNL A   1      42.046  22.354  25.635  1.00  0.00     0.014 A 
ATOM     43  C   UNL A   1      42.483  23.101  28.289  1.00  0.00     0.010 A 
ATOM     44  C   UNL A   1      42.325  23.682  25.945  1.00  0.00     0.010 A 
ATOM     45  C   UNL A   1      42.546  24.072  27.276  1.00  0.00    -0.014 A 
BRANCH  45  46
ATOM     46  C   UNL A   1      42.856  25.494  27.580  1.00  0.00     0.031 A 
ATOM     47  C   UNL A   1      44.260  26.015  27.424  1.00  0.00     0.074 A 
ATOM     48  C   UNL A   1      41.895  26.292  28.089  1.00  0.00     0.049 A 
ATOM     49  N   UNL A   1      44.735  27.200  27.709  1.00  0.00    -0.248 NA
ATOM     50  C   UNL A   1      45.269  25.076  26.907  1.00  0.00     0.031 C 
ATOM     51  C   UNL A   1      40.514  25.888  28.364  1.00  0.00     0.029 A 
ATOM     52  N   UNL A   1      41.940  27.605  28.491  1.00  0.00    -0.354 N 
ATOM     53  C   UNL A   1      46.098  27.138  27.443  1.00  0.00     0.074 A 
ATOM     54  C   UNL A   1      46.381  25.789  27.008  1.00  0.00     0.031 C 
ATOM     55  C   UNL A   1      39.844  26.929  28.884  1.00  0.00     0.029 A 
ATOM     56  C   UNL A   1      40.752  28.064  29.013  1.00  0.00     0.049 A 
ATOM     57  H   UNL A   1      42.746  28.165  28.413  1.00  0.00     0.167 HD
ATOM     58  C   UNL A   1      47.026  28.122  27.524  1.00  0.00     0.034 A 
ATOM     59  C   UNL A   1      40.432  29.259  29.546  1.00  0.00     0.034 A 
ATOM     60  C   UNL A   1      46.735  29.474  27.915  1.00  0.00     0.049 A 
ATOM     61  C   UNL A   1      41.474  30.345  29.591  1.00  0.00     0.074 A 
ATOM     62  C   UNL A   1      47.589  30.563  27.942  1.00  0.00     0.029 A 
ATOM     63  N   UNL A   1      45.500  29.924  28.355  1.00  0.00    -0.354 N 
ATOM     64  N   UNL A   1      42.720  30.310  29.186  1.00  0.00    -0.248 NA
ATOM     65  C   UNL A   1      41.057  31.645  30.135  1.00  0.00     0.031 C 
ATOM     66  C   UNL A   1      46.876  31.664  28.427  1.00  0.00     0.029 A 
ATOM     67  C   UNL A   1      45.570  31.270  28.667  1.00  0.00     0.049 A 
ATOM     68  H   UNL A   1      44.692  29.368  28.434  1.00  0.00     0.167 HD
ATOM     69  C   UNL A   1      43.223  31.590  29.388  1.00  0.00     0.074 A 
ATOM     70  C   UNL A   1      42.140  32.382  29.934  1.00  0.00     0.031 C 
ATOM     71  C   UNL A   1      44.472  32.063  29.157  1.00  0.00     0.034 A 
BRANCH  58  72
ATOM     72  C   UNL A   1      48.441  27.784  27.133  1.00  0.00     0.023 A 
ATOM     73  C   UNL A   1      49.344  27.324  28.114  1.00  0.00     0.012 A 
ATOM     74  C   UNL A   1      48.861  27.857  25.791  1.00  0.00     0.148 A 
ATOM     75  C   UNL A   1      50.651  26.978  27.773  1.00  0.00     0.002 A 
ATOM     76  C   UNL A   1      50.151  27.465  25.451  1.00  0.00     0.091 A 
ATOM     77  F   UNL A   1      47.996  28.315  24.874  1.00  0.00    -0.205 F 
ATOM     78  C   UNL A   1      51.050  27.039  26.441  1.00  0.00     0.022 A 
BRANCH  76  79
ATOM     79  S   UNL A   1      50.739  27.430  23.754  1.00  0.00     0.127 S 
ATOM     80  O   UNL A   1      51.978  26.666  23.887  1.00  0.00    -0.237 OA
ATOM     81  O   UNL A   1      49.656  26.721  23.071  1.00  0.00    -0.237 OA
ATOM     82  O   UNL A   1      50.903  28.820  23.354  1.00  0.00    -0.744 OA
ENDBRANCH  76  79
ENDBRANCH  58  72
BRANCH  59  83
ATOM     83  C   UNL A   1      39.045  29.517  30.029  1.00  0.00     0.023 A 
ATOM     84  C   UNL A   1      38.689  29.150  31.342  1.00  0.00     0.012 A 
ATOM     85  C   UNL A   1      38.084  30.132  29.203  1.00  0.00     0.148 A 
ATOM     86  C   UNL A   1      37.391  29.357  31.812  1.00  0.00     0.002 A 
ATOM     87  C   UNL A   1      36.809  30.387  29.697  1.00  0.00     0.091 A 
ATOM     88  F   UNL A   1      38.438  30.464  27.955  1.00  0.00    -0.205 F 
ATOM     89  C   UNL A   1      36.455  29.983  30.994  1.00  0.00     0.022 A 
BRANCH  87  90
ATOM     90  S   UNL A   1      35.580  31.305  28.761  1.00  0.00     0.127 S 
ATOM     91  O   UNL A   1      34.792  31.918  29.826  1.00  0.00    -0.237 OA
ATOM     92  O   UNL A   1      36.416  32.234  27.999  1.00  0.00    -0.237 OA
ATOM     93  O   UNL A   1      34.887  30.315  27.948  1.00  0.00    -0.744 OA
ENDBRANCH  87  90
ENDBRANCH  59  83
BRANCH  71  94
ATOM     94  C   UNL A   1      44.736  33.518  29.447  1.00  0.00     0.023 A 
ATOM     95  C   UNL A   1      45.139  33.918  30.736  1.00  0.00     0.012 A 
ATOM     96  C   UNL A   1      44.656  34.478  28.418  1.00  0.00     0.148 A 
ATOM     97  C   UNL A   1      45.424  35.257  31.005  1.00  0.00     0.002 A 
ATOM     98  C   UNL A   1      44.992  35.800  28.681  1.00  0.00     0.091 A 
ATOM     99  F   UNL A   1      44.254  34.080  27.202  1.00  0.00    -0.205 F 
ATOM    100  C   UNL A   1      45.363  36.194  29.977  1.00  0.00     0.022 A 
BRANCH  98 101
ATOM    101  S   UNL A   1      45.040  37.056  27.397  1.00  0.00     0.127 S 
ATOM    102  O   UNL A   1      46.034  36.503  26.477  1.00  0.00    -0.237 OA
ATOM    103  O   UNL A   1      43.666  37.038  26.894  1.00  0.00    -0.237 OA
ATOM    104  O   UNL A   1      45.425  38.294  28.061  1.00  0.00    -0.744 OA
ENDBRANCH  98 101
ENDBRANCH  71  94
ENDBRANCH  45  46
ENDBRANCH  37  40
ENDBRANCH  35  36
ENDBRANCH  34  35
ENDBRANCH   1  34
TORSDOF 19
ENDMDL
MODEL 2
REMARK VINA RESULT:     -12.5      1.798      7.439
REMARK SMILES COc1ccc(-c2cc(CC3(C(=O)NCCCCNC(=O)c4ccc(-c5c6nc(c(-c7cccc(S(=O)(=O)[O-])c7F)c7ccc([nH]7)c(-c7cccc(S(=O)(=O)[O-])c7F)c7nc(c(-c8cccc(S(=O)(=O)[O-])c8F)c8ccc5[nH]8)C=C7)C=C6)cc4)CCN(C(=O)C4CCCC4)CC3)on2)cc1
REMARK SMILES IDX 16 1 15 2 14 3 12 4 13 5 11 7 85 8 96 9 86 10 95 11 87 12
REMARK SMILES IDX 88 13 89 14 10 15 9 16 7 17 8 18 98 19 97 20 6 21 3 22 4 23
REMARK SMILES IDX 100 24 5 25 99 26 2 27 1 28 90 29 91 30 94 31 92 32 93 33
REMARK SMILES IDX 17 34 18 35 19 36 20 37 21 39 22 40 23 41 84 42 24 43 83 44
REMARK SMILES IDX 25 45 26 46 27 47 77 48 28 49 82 50 76 51 78 52 29 53 81 54
REMARK SMILES IDX 75 55 74 56 30 58 62 59 42 60 61 61 43 62 46 63 60 64 79 65
REMARK SMILES IDX 44 66 45 67 59 69 80 70 47 71 31 72 32 73 40 74 33 75 35 76
REMARK SMILES IDX 41 77 34 78 36 79 37 80 38 81 39 82 63 83 64 84 72 85 65 86
REMARK SMILES IDX 67 87 73 88 66 89 68 90 69 91 70 92 71 93 48 94 49 95 57 96
REMARK SMILES IDX 50 97 52 98 58 99 51 100 53 101 54 102 55 103 56 104
REMARK H PARENT 14 6 19 38 78 57 46 68
REMARK Flexibility Score: inf
ROOT
ATOM      1  C   UNL A   1      36.622  20.689  25.363  1.00  0.00     0.023 C 
ENDROOT
BRANCH   1   2
ATOM      2  C   UNL A   1      35.948  21.664  24.404  1.00  0.00     0.116 C 
BRANCH   2   3
ATOM      3  N   UNL A   1      35.365  22.804  25.098  1.00  0.00    -0.356 N 
ATOM      4  C   UNL A   1      34.080  23.078  25.465  1.00  0.00     0.226 C 
ATOM      5  O   UNL A   1      33.905  24.107  26.122  1.00  0.00    -0.274 OA
ATOM      6  H   UNL A   1      36.015  23.501  25.347  1.00  0.00     0.163 HD
BRANCH   4   7
ATOM      7  C   UNL A   1      32.896  22.149  25.091  1.00  0.00     0.060 C 
ATOM      8  C   UNL A   1      32.894  21.956  23.555  1.00  0.00     0.039 C 
ATOM      9  C   UNL A   1      33.045  20.840  25.910  1.00  0.00     0.039 C 
ATOM     10  C   UNL A   1      32.301  20.644  23.064  1.00  0.00     0.120 C 
ATOM     11  C   UNL A   1      32.575  19.552  25.248  1.00  0.00     0.120 C 
ATOM     12  N   UNL A   1      32.781  19.491  23.811  1.00  0.00    -0.342 N 
ATOM     13  C   UNL A   1      32.910  18.301  23.099  1.00  0.00     0.225 C 
ATOM     14  O   UNL A   1      32.479  18.195  21.944  1.00  0.00    -0.275 OA
BRANCH   7  15
ATOM     15  C   UNL A   1      31.594  22.911  25.522  1.00  0.00     0.095 C 
BRANCH  15  16
ATOM     16  C   UNL A   1      31.331  24.156  24.761  1.00  0.00     0.138 A 
ATOM     17  C   UNL A   1      30.785  26.112  23.915  1.00  0.00     0.114 A 
ATOM     18  C   UNL A   1      31.145  25.466  25.120  1.00  0.00     0.077 A 
ATOM     19  N   UNL A   1      30.859  25.272  22.876  1.00  0.00    -0.080 NA
ATOM     20  O   UNL A   1      31.215  24.043  23.410  1.00  0.00    -0.361 OA
BRANCH  17  21
ATOM     21  C   UNL A   1      30.391  27.497  23.768  1.00  0.00     0.004 A 
ATOM     22  C   UNL A   1      29.552  30.167  23.650  1.00  0.00     0.118 A 
ATOM     23  C   UNL A   1      28.830  29.170  22.986  1.00  0.00     0.047 A 
ATOM     24  C   UNL A   1      30.703  29.823  24.364  1.00  0.00     0.047 A 
ATOM     25  C   UNL A   1      29.247  27.838  23.039  1.00  0.00     0.014 A 
ATOM     26  C   UNL A   1      31.122  28.492  24.420  1.00  0.00     0.014 A 
BRANCH  22  27
ATOM     27  O   UNL A   1      29.025  31.425  23.550  1.00  0.00    -0.497 OA
ATOM     28  C   UNL A   1      28.870  31.942  22.235  1.00  0.00     0.278 C 
ENDBRANCH  22  27
ENDBRANCH  17  21
ENDBRANCH  15  16
ENDBRANCH   7  15
BRANCH  13  29
ATOM     29  C   UNL A   1      33.647  17.109  23.696  1.00  0.00     0.078 C 
ATOM     30  C   UNL A   1      34.966  17.464  24.373  1.00  0.00     0.013 C 
ATOM     31  C   UNL A   1      32.884  16.231  24.685  1.00  0.00     0.013 C 
ATOM     32  C   UNL A   1      35.288  16.222  25.182  1.00  0.00     0.001 C 
ATOM     33  C   UNL A   1      33.938  15.689  25.652  1.00  0.00     0.001 C 
ENDBRANCH  13  29
ENDBRANCH   4   7
ENDBRANCH   2   3
ENDBRANCH   1   2
BRANCH   1  34
ATOM     34  C   UNL A   1      37.983  20.177  24.888  1.00  0.00     0.023 C 
BRANCH  34  35
ATOM     35  C   UNL A   1      39.154  20.476  25.820  1.00  0.00     0.116 C 
BRANCH  35  36
ATOM     36  N   UNL A   1      40.088  19.363  25.936  1.00  0.00    -0.352 N 
ATOM     37  C   UNL A   1      41.448  19.382  26.139  1.00  0.00     0.251 C 
ATOM     38  H   UNL A   1      39.687  18.468  25.857  1.00  0.00     0.163 HD
ATOM     39  O   UNL A   1      42.092  18.339  26.061  1.00  0.00    -0.269 OA
BRANCH  37  40
ATOM     40  C   UNL A   1      42.134  20.660  26.426  1.00  0.00     0.039 A 
ATOM     41  C   UNL A   1      42.544  21.463  25.360  1.00  0.00     0.014 A 
ATOM     42  C   UNL A   1      42.351  21.074  27.741  1.00  0.00     0.014 A 
ATOM     43  C   UNL A   1      43.103  22.719  25.616  1.00  0.00     0.010 A 
ATOM     44  C   UNL A   1      42.828  22.357  27.992  1.00  0.00     0.010 A 
ATOM     45  C   UNL A   1      43.212  23.195  26.933  1.00  0.00    -0.014 A 
BRANCH  45  46
ATOM     46  C   UNL A   1      43.706  24.566  27.225  1.00  0.00     0.031 A 
ATOM     47  C   UNL A   1      42.762  25.619  27.742  1.00  0.00     0.074 A 
ATOM     48  C   UNL A   1      44.982  24.892  26.934  1.00  0.00     0.049 A 
ATOM     49  N   UNL A   1      42.993  26.884  27.985  1.00  0.00    -0.248 NA
ATOM     50  C   UNL A   1      41.372  25.206  27.994  1.00  0.00     0.031 C 
ATOM     51  C   UNL A   1      45.977  23.986  26.354  1.00  0.00     0.029 A 
ATOM     52  N   UNL A   1      45.656  26.082  27.062  1.00  0.00    -0.354 N 
ATOM     53  C   UNL A   1      41.773  27.424  28.379  1.00  0.00     0.074 A 
ATOM     54  C   UNL A   1      40.798  26.359  28.309  1.00  0.00     0.031 C 
ATOM     55  C   UNL A   1      47.131  24.651  26.181  1.00  0.00     0.029 A 
ATOM     56  C   UNL A   1      46.952  26.036  26.603  1.00  0.00     0.049 A 
ATOM     57  H   UNL A   1      45.249  26.893  27.446  1.00  0.00     0.167 HD
ATOM     58  C   UNL A   1      41.495  28.684  28.791  1.00  0.00     0.034 A 
ATOM     59  C   UNL A   1      47.888  27.001  26.520  1.00  0.00     0.034 A 
ATOM     60  C   UNL A   1      42.474  29.731  28.902  1.00  0.00     0.049 A 
ATOM     61  C   UNL A   1      47.562  28.384  27.018  1.00  0.00     0.074 A 
ATOM     62  C   UNL A   1      42.308  31.014  29.393  1.00  0.00     0.029 A 
ATOM     63  N   UNL A   1      43.799  29.622  28.509  1.00  0.00    -0.354 N 
ATOM     64  N   UNL A   1      46.444  28.832  27.536  1.00  0.00    -0.248 NA
ATOM     65  C   UNL A   1      48.636  29.386  26.952  1.00  0.00     0.031 C 
ATOM     66  C   UNL A   1      43.526  31.690  29.270  1.00  0.00     0.029 A 
ATOM     67  C   UNL A   1      44.459  30.817  28.735  1.00  0.00     0.049 A 
ATOM     68  H   UNL A   1      44.209  28.814  28.125  1.00  0.00     0.167 HD
ATOM     69  C   UNL A   1      46.692  30.152  27.893  1.00  0.00     0.074 A 
ATOM     70  C   UNL A   1      48.072  30.425  27.551  1.00  0.00     0.031 C 
ATOM     71  C   UNL A   1      45.848  31.061  28.442  1.00  0.00     0.034 A 
BRANCH  58  72
ATOM     72  C   UNL A   1      40.078  28.989  29.204  1.00  0.00     0.023 A 
ATOM     73  C   UNL A   1      39.096  29.205  28.215  1.00  0.00     0.012 A 
ATOM     74  C   UNL A   1      39.704  28.999  30.562  1.00  0.00     0.148 A 
ATOM     75  C   UNL A   1      37.773  29.462  28.571  1.00  0.00     0.002 A 
ATOM     76  C   UNL A   1      38.373  29.208  30.907  1.00  0.00     0.091 A 
ATOM     77  F   UNL A   1      40.655  28.811  31.489  1.00  0.00    -0.205 F 
ATOM     78  C   UNL A   1      37.411  29.453  29.915  1.00  0.00     0.022 A 
BRANCH  76  79
ATOM     79  S   UNL A   1      37.789  29.137  32.604  1.00  0.00     0.127 S 
ATOM     80  O   UNL A   1      37.818  27.698  32.866  1.00  0.00    -0.237 OA
ATOM     81  O   UNL A   1      38.812  29.906  33.313  1.00  0.00    -0.237 OA
ATOM     82  O   UNL A   1      36.465  29.742  32.601  1.00  0.00    -0.744 OA
ENDBRANCH  76  79
ENDBRANCH  58  72
BRANCH  59  83
ATOM     83  C   UNL A   1      49.248  26.684  25.996  1.00  0.00     0.023 A 
ATOM     84  C   UNL A   1      50.126  25.904  26.775  1.00  0.00     0.012 A 
ATOM     85  C   UNL A   1      49.669  27.135  24.731  1.00  0.00     0.148 A 
ATOM     86  C   UNL A   1      51.412  25.612  26.320  1.00  0.00     0.002 A 
ATOM     87  C   UNL A   1      50.931  26.793  24.259  1.00  0.00     0.091 A 
ATOM     88  F   UNL A   1      48.824  27.884  24.010  1.00  0.00    -0.205 F 
ATOM     89  C   UNL A   1      51.812  26.048  25.060  1.00  0.00     0.022 A 
BRANCH  87  90
ATOM     90  S   UNL A   1      51.481  27.199  22.597  1.00  0.00     0.127 S 
ATOM     91  O   UNL A   1      50.459  26.554  21.779  1.00  0.00    -0.237 OA
ATOM     92  O   UNL A   1      51.429  28.661  22.612  1.00  0.00    -0.237 OA
ATOM     93  O   UNL A   1      52.825  26.648  22.484  1.00  0.00    -0.744 OA
ENDBRANCH  87  90
ENDBRANCH  59  83
BRANCH  71  94
ATOM     94  C   UNL A   1      46.397  32.429  28.754  1.00  0.00     0.023 A 
ATOM     95  C   UNL A   1      47.073  32.657  29.970  1.00  0.00     0.012 A 
ATOM     96  C   UNL A   1      46.306  33.470  27.808  1.00  0.00     0.148 A 
ATOM     97  C   UNL A   1      47.619  33.909  30.252  1.00  0.00     0.002 A 
ATOM     98  C   UNL A   1      46.898  34.698  28.074  1.00  0.00     0.091 A 
ATOM     99  F   UNL A   1      45.643  33.237  26.665  1.00  0.00    -0.205 F 
ATOM    100  C   UNL A   1      47.543  34.924  29.301  1.00  0.00     0.022 A 
BRANCH  98 101
ATOM    101  S   UNL A   1      46.938  36.029  26.870  1.00  0.00     0.127 S 
ATOM    102  O   UNL A   1      45.554  36.502  26.901  1.00  0.00    -0.237 OA
ATOM    103  O   UNL A   1      47.911  36.951  27.459  1.00  0.00    -0.237 OA
ATOM    104  O   UNL A   1      47.362  35.424  25.614  1.00  0.00    -0.744 OA
ENDBRANCH  98 101
ENDBRANCH  71  94
ENDBRANCH  45  46
ENDBRANCH  37  40
ENDBRANCH  35  36
ENDBRANCH  34  35
ENDBRANCH   1  34
TORSDOF 19
ENDMDL
MODEL 3
REMARK VINA RESULT:     -12.2      1.118      7.233
REMARK SMILES COc1ccc(-c2cc(CC3(C(=O)NCCCCNC(=O)c4ccc(-c5c6nc(c(-c7cccc(S(=O)(=O)[O-])c7F)c7ccc([nH]7)c(-c7cccc(S(=O)(=O)[O-])c7F)c7nc(c(-c8cccc(S(=O)(=O)[O-])c8F)c8ccc5[nH]8)C=C7)C=C6)cc4)CCN(C(=O)C4CCCC4)CC3)on2)cc1
REMARK SMILES IDX 16 1 15 2 14 3 12 4 13 5 11 7 85 8 96 9 86 10 95 11 87 12
REMARK SMILES IDX 88 13 89 14 10 15 9 16 7 17 8 18 98 19 97 20 6 21 3 22 4 23
REMARK SMILES IDX 100 24 5 25 99 26 2 27 1 28 90 29 91 30 94 31 92 32 93 33
REMARK SMILES IDX 17 34 18 35 19 36 20 37 21 39 22 40 23 41 84 42 24 43 83 44
REMARK SMILES IDX 25 45 26 46 27 47 77 48 28 49 82 50 76 51 78 52 29 53 81 54
REMARK SMILES IDX 75 55 74 56 30 58 62 59 42 60 61 61 43 62 46 63 60 64 79 65
REMARK SMILES IDX 44 66 45 67 59 69 80 70 47 71 31 72 32 73 40 74 33 75 35 76
REMARK SMILES IDX 41 77 34 78 36 79 37 80 38 81 39 82 63 83 64 84 72 85 65 86
REMARK SMILES IDX 67 87 73 88 66 89 68 90 69 91 70 92 71 93 48 94 49 95 57 96
REMARK SMILES IDX 50 97 52 98 58 99 51 100 53 101 54 102 55 103 56 104
REMARK H PARENT 14 6 19 38 78 57 46 68
REMARK Flexibility Score: inf
ROOT
ATOM      1  C   UNL A   1      37.245  20.404  24.948  1.00  0.00     0.023 C 
ENDROOT
BRANCH   1   2
ATOM      2  C   UNL A   1      37.343  21.667  24.100  1.00  0.00     0.116 C 
BRANCH   2   3
ATOM      3  N   UNL A   1      37.647  22.845  24.901  1.00  0.00    -0.356 N 
ATOM      4  C   UNL A   1      36.838  23.720  25.565  1.00  0.00     0.226 C 
ATOM      5  O   UNL A   1      37.403  24.591  26.232  1.00  0.00    -0.274 OA
ATOM      6  H   UNL A   1      38.609  23.044  24.977  1.00  0.00     0.163 HD
BRANCH   4   7
ATOM      7  C   UNL A   1      35.292  23.630  25.499  1.00  0.00     0.060 C 
ATOM      8  C   UNL A   1      34.863  23.676  24.012  1.00  0.00     0.039 C 
ATOM      9  C   UNL A   1      34.860  22.350  26.261  1.00  0.00     0.039 C 
ATOM     10  C   UNL A   1      33.557  22.965  23.689  1.00  0.00     0.120 C 
ATOM     11  C   UNL A   1      33.630  21.618  25.742  1.00  0.00     0.120 C 
ATOM     12  N   UNL A   1      33.463  21.648  24.299  1.00  0.00    -0.342 N 
ATOM     13  C   UNL A   1      32.761  20.682  23.582  1.00  0.00     0.225 C 
ATOM     14  O   UNL A   1      32.114  20.979  22.571  1.00  0.00    -0.275 OA
BRANCH   7  15
ATOM     15  C   UNL A   1      34.752  24.906  26.236  1.00  0.00     0.095 C 
BRANCH  15  16
ATOM     16  C   UNL A   1      33.437  25.386  25.748  1.00  0.00     0.138 A 
ATOM     17  C   UNL A   1      31.641  26.397  24.978  1.00  0.00     0.114 A 
ATOM     18  C   UNL A   1      33.049  26.362  24.866  1.00  0.00     0.077 A 
ATOM     19  N   UNL A   1      31.196  25.430  25.789  1.00  0.00    -0.080 NA
ATOM     20  O   UNL A   1      32.329  24.787  26.264  1.00  0.00    -0.361 OA
BRANCH  17  21
ATOM     21  C   UNL A   1      30.749  27.328  24.318  1.00  0.00     0.004 A 
ATOM     22  C   UNL A   1      28.957  29.170  23.205  1.00  0.00     0.118 A 
ATOM     23  C   UNL A   1      28.680  27.800  23.161  1.00  0.00     0.047 A 
ATOM     24  C   UNL A   1      30.142  29.613  23.799  1.00  0.00     0.047 A 
ATOM     25  C   UNL A   1      29.573  26.878  23.711  1.00  0.00     0.014 A 
ATOM     26  C   UNL A   1      31.036  28.694  24.351  1.00  0.00     0.014 A 
BRANCH  22  27
ATOM     27  O   UNL A   1      27.992  29.973  22.664  1.00  0.00    -0.497 OA
ATOM     28  C   UNL A   1      27.867  31.275  23.222  1.00  0.00     0.278 C 
ENDBRANCH  22  27
ENDBRANCH  17  21
ENDBRANCH  15  16
ENDBRANCH   7  15
BRANCH  13  29
ATOM     29  C   UNL A   1      32.822  19.214  23.984  1.00  0.00     0.078 C 
ATOM     30  C   UNL A   1      32.465  18.243  22.863  1.00  0.00     0.013 C 
ATOM     31  C   UNL A   1      34.125  18.702  24.592  1.00  0.00     0.013 C 
ATOM     32  C   UNL A   1      32.958  16.908  23.389  1.00  0.00     0.001 C 
ATOM     33  C   UNL A   1      34.221  17.231  24.182  1.00  0.00     0.001 C 
ENDBRANCH  13  29
ENDBRANCH   4   7
ENDBRANCH   2   3
ENDBRANCH   1   2
BRANCH   1  34
ATOM     34  C   UNL A   1      38.503  19.534  24.930  1.00  0.00     0.023 C 
BRANCH  34  35
ATOM     35  C   UNL A   1      39.380  19.631  26.176  1.00  0.00     0.116 C 
BRANCH  35  36
ATOM     36  N   UNL A   1      40.669  18.970  26.018  1.00  0.00    -0.352 N 
ATOM     37  C   UNL A   1      41.935  19.507  26.046  1.00  0.00     0.251 C 
ATOM     38  H   UNL A   1      40.629  17.998  25.869  1.00  0.00     0.163 HD
ATOM     39  O   UNL A   1      42.901  18.811  25.744  1.00  0.00    -0.269 OA
BRANCH  37  40
ATOM     40  C   UNL A   1      42.127  20.926  26.414  1.00  0.00     0.039 A 
ATOM     41  C   UNL A   1      42.428  21.248  27.740  1.00  0.00     0.014 A 
ATOM     42  C   UNL A   1      42.033  21.933  25.452  1.00  0.00     0.014 A 
ATOM     43  C   UNL A   1      42.712  22.573  28.082  1.00  0.00     0.010 A 
ATOM     44  C   UNL A   1      42.398  23.236  25.777  1.00  0.00     0.010 A 
ATOM     45  C   UNL A   1      42.740  23.573  27.096  1.00  0.00    -0.014 A 
BRANCH  45  46
ATOM     46  C   UNL A   1      43.139  24.968  27.416  1.00  0.00     0.031 A 
ATOM     47  C   UNL A   1      42.144  25.924  28.020  1.00  0.00     0.074 A 
ATOM     48  C   UNL A   1      44.369  25.405  27.076  1.00  0.00     0.049 A 
ATOM     49  N   UNL A   1      42.287  27.194  28.300  1.00  0.00    -0.248 NA
ATOM     50  C   UNL A   1      40.805  25.391  28.324  1.00  0.00     0.031 C 
ATOM     51  C   UNL A   1      45.400  24.604  26.413  1.00  0.00     0.029 A 
ATOM     52  N   UNL A   1      44.953  26.641  27.217  1.00  0.00    -0.354 N 
ATOM     53  C   UNL A   1      41.051  27.619  28.774  1.00  0.00     0.074 A 
ATOM     54  C   UNL A   1      40.161  26.483  28.712  1.00  0.00     0.031 C 
ATOM     55  C   UNL A   1      46.488  25.364  26.210  1.00  0.00     0.029 A 
ATOM     56  C   UNL A   1      46.223  26.715  26.693  1.00  0.00     0.049 A 
ATOM     57  H   UNL A   1      44.504  27.402  27.651  1.00  0.00     0.167 HD
ATOM     58  C   UNL A   1      40.697  28.838  29.248  1.00  0.00     0.034 A 
ATOM     59  C   UNL A   1      47.075  27.755  26.602  1.00  0.00     0.034 A 
ATOM     60  C   UNL A   1      41.595  29.956  29.351  1.00  0.00     0.049 A 
ATOM     61  C   UNL A   1      46.667  29.089  27.168  1.00  0.00     0.074 A 
ATOM     62  C   UNL A   1      41.354  31.204  29.899  1.00  0.00     0.029 A 
ATOM     63  N   UNL A   1      42.902  29.968  28.889  1.00  0.00    -0.354 N 
ATOM     64  N   UNL A   1      45.546  29.428  27.757  1.00  0.00    -0.248 NA
ATOM     65  C   UNL A   1      47.654  30.175  27.088  1.00  0.00     0.031 C 
ATOM     66  C   UNL A   1      42.508  31.979  29.742  1.00  0.00     0.029 A 
ATOM     67  C   UNL A   1      43.477  31.203  29.129  1.00  0.00     0.049 A 
ATOM     68  H   UNL A   1      43.353  29.209  28.455  1.00  0.00     0.167 HD
ATOM     69  C   UNL A   1      45.708  30.750  28.153  1.00  0.00     0.074 A 
ATOM     70  C   UNL A   1      47.043  31.145  27.754  1.00  0.00     0.031 C 
ATOM     71  C   UNL A   1      44.825  31.569  28.777  1.00  0.00     0.034 A 
BRANCH  58  72
ATOM     72  C   UNL A   1      39.284  29.014  29.742  1.00  0.00     0.023 A 
ATOM     73  C   UNL A   1      38.954  28.633  31.059  1.00  0.00     0.012 A 
ATOM     74  C   UNL A   1      38.301  29.614  28.931  1.00  0.00     0.148 A 
ATOM     75  C   UNL A   1      37.661  28.811  31.549  1.00  0.00     0.002 A 
ATOM     76  C   UNL A   1      37.026  29.832  29.443  1.00  0.00     0.091 A 
ATOM     77  F   UNL A   1      38.627  29.952  27.675  1.00  0.00    -0.205 F 
ATOM     78  C   UNL A   1      36.702  29.419  30.744  1.00  0.00     0.022 A 
BRANCH  76  79
ATOM     79  S   UNL A   1      35.742  30.680  28.517  1.00  0.00     0.127 S 
ATOM     80  O   UNL A   1      36.532  31.472  27.575  1.00  0.00    -0.237 OA
ATOM     81  O   UNL A   1      35.012  29.564  27.913  1.00  0.00    -0.237 OA
ATOM     82  O   UNL A   1      34.981  31.448  29.492  1.00  0.00    -0.744 OA
ENDBRANCH  76  79
ENDBRANCH  58  72
BRANCH  59  83
ATOM     83  C   UNL A   1      48.426  27.566  26.000  1.00  0.00     0.023 A 
ATOM     84  C   UNL A   1      48.581  27.655  24.602  1.00  0.00     0.012 A 
ATOM     85  C   UNL A   1      49.557  27.314  26.801  1.00  0.00     0.148 A 
ATOM     86  C   UNL A   1      49.829  27.458  24.010  1.00  0.00     0.002 A 
ATOM     87  C   UNL A   1      50.807  27.175  26.209  1.00  0.00     0.091 A 
ATOM     88  F   UNL A   1      49.388  27.222  28.127  1.00  0.00    -0.205 F 
ATOM     89  C   UNL A   1      50.942  27.227  24.813  1.00  0.00     0.022 A 
BRANCH  87  90
ATOM     90  S   UNL A   1      52.315  27.007  27.171  1.00  0.00     0.127 S 
ATOM     91  O   UNL A   1      52.224  28.152  28.072  1.00  0.00    -0.237 OA
ATOM     92  O   UNL A   1      52.120  25.703  27.808  1.00  0.00    -0.237 OA
ATOM     93  O   UNL A   1      53.403  27.045  26.204  1.00  0.00    -0.744 OA
ENDBRANCH  87  90
ENDBRANCH  59  83
BRANCH  71  94
ATOM     94  C   UNL A   1      45.281  32.964  29.115  1.00  0.00     0.023 A 
ATOM     95  C   UNL A   1      45.827  33.240  30.384  1.00  0.00     0.012 A 
ATOM     96  C   UNL A   1      45.234  33.986  28.145  1.00  0.00     0.148 A 
ATOM     97  C   UNL A   1      46.287  34.520  30.694  1.00  0.00     0.002 A 
ATOM     98  C   UNL A   1      45.742  35.244  28.443  1.00  0.00     0.091 A 
ATOM     99  F   UNL A   1      44.693  33.708  26.949  1.00  0.00    -0.205 F 
ATOM    100  C   UNL A   1      46.257  35.517  29.722  1.00  0.00     0.022 A 
BRANCH  98 101
ATOM    101  S   UNL A   1      45.837  36.559  27.224  1.00  0.00     0.127 S 
ATOM    102  O   UNL A   1      46.863  37.428  27.802  1.00  0.00    -0.237 OA
ATOM    103  O   UNL A   1      46.256  35.838  26.021  1.00  0.00    -0.237 OA
ATOM    104  O   UNL A   1      44.501  37.136  27.150  1.00  0.00    -0.744 OA
ENDBRANCH  98 101
ENDBRANCH  71  94
ENDBRANCH  45  46
ENDBRANCH  37  40
ENDBRANCH  35  36
ENDBRANCH  34  35
ENDBRANCH   1  34
TORSDOF 19
ENDMDL
