MODEL 1
REMARK VINA RESULT:     -12.6      0.000      0.000
REMARK SMILES Cc1cc(Cl)cc2c1O[C@H](C(F)(F)F)C(C(=O)NCCCCNC(=O)c1ccc(-c3c4nc(c(-c5cccc(S(=O)(=O)[O-])c5F)c5ccc([nH]5)c(-c5cccc(S(=O)(=O)[O-])c5F)c5nc(c(-c6cccc(S(=O)(=O)[O-])c6F)c6ccc3[nH]6)C=C5)C=C4)cc1)=C2
REMARK SMILES IDX 21 1 20 2 19 3 18 4 16 5 17 6 15 8 1 9 2 10 3 11 8 12 4 13
REMARK SMILES IDX 7 14 9 15 5 16 6 17 89 18 10 19 11 20 12 21 13 22 14 23
REMARK SMILES IDX 22 24 23 25 24 26 25 28 26 29 27 30 88 31 28 32 87 33 29 34
REMARK SMILES IDX 30 35 31 36 81 37 32 38 86 39 80 40 82 41 33 42 85 43 79 44
REMARK SMILES IDX 78 45 34 47 66 48 46 49 65 50 47 51 50 52 64 53 83 54 48 55
REMARK SMILES IDX 49 56 63 58 84 59 51 60 35 61 36 62 44 63 37 64 39 65 45 66
REMARK SMILES IDX 38 67 40 68 41 69 42 70 43 71 67 72 68 73 76 74 69 75 71 76
REMARK SMILES IDX 77 77 70 78 72 79 73 80 74 81 75 82 52 83 53 84 61 85 54 86
REMARK SMILES IDX 56 87 62 88 55 89 57 90 58 91 59 92 60 93
REMARK H PARENT 18 7 23 27 82 46 50 57
REMARK Flexibility Score: inf
ROOT
ATOM      1  C   UNL A   1      32.455  28.252  24.618  1.00  0.00     0.023 C 
ENDROOT
BRANCH   1   2
ATOM      2  C   UNL A   1      31.910  28.538  23.216  1.00  0.00     0.023 C 
BRANCH   2   3
ATOM      3  C   UNL A   1      31.146  27.372  22.596  1.00  0.00     0.116 C 
BRANCH   3   4
ATOM      4  N   UNL A   1      31.950  26.647  21.629  1.00  0.00    -0.352 N 
ATOM      5  C   UNL A   1      32.784  25.582  21.637  1.00  0.00     0.251 C 
ATOM      6  O   UNL A   1      33.280  25.289  20.544  1.00  0.00    -0.270 OA
ATOM      7  H   UNL A   1      31.866  27.033  20.728  1.00  0.00     0.163 HD
BRANCH   5   8
ATOM      8  C   UNL A   1      33.132  24.764  22.838  1.00  0.00     0.067 C 
ATOM      9  C   UNL A   1      33.567  22.499  27.465  1.00  0.00     0.048 C 
ATOM     10  C   UNL A   1      34.377  22.551  26.200  1.00  0.00    -0.007 A 
ATOM     11  C   UNL A   1      35.533  21.765  26.099  1.00  0.00     0.027 A 
ATOM     12  C   UNL A   1      33.989  23.322  25.095  1.00  0.00     0.131 A 
ATOM     13  C   UNL A   1      36.291  21.773  24.928  1.00  0.00     0.042 A 
ATOM     14  C   UNL A   1      34.752  23.333  23.922  1.00  0.00     0.019 A 
ATOM     15  O   UNL A   1      32.872  24.098  25.228  1.00  0.00    -0.475 OA
ATOM     16  Cl  UNL A   1      37.715  20.810  24.832  1.00  0.00    -0.084 Cl
ATOM     17  C   UNL A   1      35.910  22.556  23.841  1.00  0.00     0.032 A 
ATOM     18  C   UNL A   1      34.346  24.182  22.809  1.00  0.00     0.025 C 
ATOM     19  C   UNL A   1      32.216  24.530  24.004  1.00  0.00     0.314 C 
BRANCH  19  20
ATOM     20  C   UNL A   1      31.071  23.555  23.680  1.00  0.00     0.429 C 
ATOM     21  F   UNL A   1      30.666  22.912  24.805  1.00  0.00    -0.167 F 
ATOM     22  F   UNL A   1      29.980  24.175  23.178  1.00  0.00    -0.167 F 
ATOM     23  F   UNL A   1      31.434  22.607  22.785  1.00  0.00    -0.167 F 
ENDBRANCH  19  20
ENDBRANCH   5   8
ENDBRANCH   3   4
ENDBRANCH   2   3
ENDBRANCH   1   2
BRANCH   1  24
ATOM     24  C   UNL A   1      33.425  29.296  25.171  1.00  0.00     0.116 C 
BRANCH  24  25
ATOM     25  N   UNL A   1      32.763  30.446  25.772  1.00  0.00    -0.352 N 
ATOM     26  C   UNL A   1      33.168  31.187  26.856  1.00  0.00     0.251 C 
ATOM     27  H   UNL A   1      31.919  30.729  25.348  1.00  0.00     0.163 HD
ATOM     28  O   UNL A   1      32.451  32.079  27.303  1.00  0.00    -0.269 OA
BRANCH  26  29
ATOM     29  C   UNL A   1      34.460  30.872  27.492  1.00  0.00     0.039 A 
ATOM     30  C   UNL A   1      35.408  31.888  27.638  1.00  0.00     0.014 A 
ATOM     31  C   UNL A   1      34.706  29.588  27.986  1.00  0.00     0.014 A 
ATOM     32  C   UNL A   1      36.586  31.631  28.340  1.00  0.00     0.010 A 
ATOM     33  C   UNL A   1      35.854  29.351  28.733  1.00  0.00     0.010 A 
ATOM     34  C   UNL A   1      36.803  30.368  28.915  1.00  0.00    -0.014 A 
BRANCH  34  35
ATOM     35  C   UNL A   1      38.023  30.073  29.702  1.00  0.00     0.031 A 
ATOM     36  C   UNL A   1      39.050  29.125  29.149  1.00  0.00     0.074 A 
ATOM     37  C   UNL A   1      38.159  30.577  30.943  1.00  0.00     0.049 A 
ATOM     38  N   UNL A   1      40.120  28.643  29.722  1.00  0.00    -0.248 NA
ATOM     39  C   UNL A   1      38.828  28.636  27.778  1.00  0.00     0.031 C 
ATOM     40  C   UNL A   1      37.202  31.465  31.606  1.00  0.00     0.029 A 
ATOM     41  N   UNL A   1      39.145  30.393  31.881  1.00  0.00    -0.354 N 
ATOM     42  C   UNL A   1      40.679  27.768  28.800  1.00  0.00     0.074 A 
ATOM     43  C   UNL A   1      39.813  27.761  27.641  1.00  0.00     0.031 C 
ATOM     44  C   UNL A   1      37.648  31.750  32.839  1.00  0.00     0.029 A 
ATOM     45  C   UNL A   1      38.905  31.045  33.068  1.00  0.00     0.049 A 
ATOM     46  H   UNL A   1      39.948  29.847  31.717  1.00  0.00     0.167 HD
ATOM     47  C   UNL A   1      41.828  27.060  28.894  1.00  0.00     0.034 A 
ATOM     48  C   UNL A   1      39.618  31.064  34.212  1.00  0.00     0.034 A 
ATOM     49  C   UNL A   1      42.711  27.111  30.027  1.00  0.00     0.049 A 
ATOM     50  C   UNL A   1      40.908  30.290  34.281  1.00  0.00     0.074 A 
ATOM     51  C   UNL A   1      43.930  26.479  30.195  1.00  0.00     0.029 A 
ATOM     52  N   UNL A   1      42.475  27.841  31.182  1.00  0.00    -0.354 N 
ATOM     53  N   UNL A   1      41.483  29.563  33.354  1.00  0.00    -0.248 NA
ATOM     54  C   UNL A   1      41.662  30.363  35.541  1.00  0.00     0.031 C 
ATOM     55  C   UNL A   1      44.431  26.826  31.456  1.00  0.00     0.029 A 
ATOM     56  C   UNL A   1      43.526  27.679  32.067  1.00  0.00     0.049 A 
ATOM     57  H   UNL A   1      41.677  28.394  31.348  1.00  0.00     0.167 HD
ATOM     58  C   UNL A   1      42.675  29.109  33.908  1.00  0.00     0.074 A 
ATOM     59  C   UNL A   1      42.753  29.669  35.242  1.00  0.00     0.031 C 
ATOM     60  C   UNL A   1      43.609  28.285  33.372  1.00  0.00     0.034 A 
BRANCH  47  61
ATOM     61  C   UNL A   1      42.233  26.228  27.707  1.00  0.00     0.023 A 
ATOM     62  C   UNL A   1      43.048  26.805  26.712  1.00  0.00     0.012 A 
ATOM     63  C   UNL A   1      41.861  24.875  27.599  1.00  0.00     0.148 A 
ATOM     64  C   UNL A   1      43.463  26.057  25.612  1.00  0.00     0.002 A 
ATOM     65  C   UNL A   1      42.313  24.124  26.520  1.00  0.00     0.091 A 
ATOM     66  F   UNL A   1      41.066  24.352  28.543  1.00  0.00    -0.205 F 
ATOM     67  C   UNL A   1      43.105  24.716  25.520  1.00  0.00     0.022 A 
BRANCH  65  68
ATOM     68  S   UNL A   1      41.968  22.370  26.346  1.00  0.00     0.127 S 
ATOM     69  O   UNL A   1      42.619  22.066  25.072  1.00  0.00    -0.237 OA
ATOM     70  O   UNL A   1      42.635  21.806  27.521  1.00  0.00    -0.237 OA
ATOM     71  O   UNL A   1      40.517  22.244  26.353  1.00  0.00    -0.744 OA
ENDBRANCH  65  68
ENDBRANCH  47  61
BRANCH  48  72
ATOM     72  C   UNL A   1      39.167  31.913  35.351  1.00  0.00     0.023 A 
ATOM     73  C   UNL A   1      38.287  31.363  36.304  1.00  0.00     0.012 A 
ATOM     74  C   UNL A   1      39.637  33.228  35.530  1.00  0.00     0.148 A 
ATOM     75  C   UNL A   1      37.867  32.114  37.403  1.00  0.00     0.002 A 
ATOM     76  C   UNL A   1      39.257  33.953  36.655  1.00  0.00     0.091 A 
ATOM     77  F   UNL A   1      40.462  33.740  34.605  1.00  0.00    -0.205 F 
ATOM     78  C   UNL A   1      38.361  33.403  37.585  1.00  0.00     0.022 A 
BRANCH  76  79
ATOM     79  S   UNL A   1      39.950  35.564  37.044  1.00  0.00     0.127 S 
ATOM     80  O   UNL A   1      39.253  35.898  38.283  1.00  0.00    -0.237 OA
ATOM     81  O   UNL A   1      41.372  35.253  37.200  1.00  0.00    -0.237 OA
ATOM     82  O   UNL A   1      39.646  36.408  35.897  1.00  0.00    -0.744 OA
ENDBRANCH  76  79
ENDBRANCH  48  72
BRANCH  60  83
ATOM     83  C   UNL A   1      44.802  27.933  34.222  1.00  0.00     0.023 A 
ATOM     84  C   UNL A   1      45.883  28.833  34.300  1.00  0.00     0.012 A 
ATOM     85  C   UNL A   1      44.813  26.768  35.014  1.00  0.00     0.148 A 
ATOM     86  C   UNL A   1      46.968  28.567  35.134  1.00  0.00     0.002 A 
ATOM     87  C   UNL A   1      45.877  26.532  35.876  1.00  0.00     0.091 A 
ATOM     88  F   UNL A   1      43.785  25.911  34.910  1.00  0.00    -0.205 F 
ATOM     89  C   UNL A   1      46.959  27.425  35.931  1.00  0.00     0.022 A 
BRANCH  87  90
ATOM     90  S   UNL A   1      45.893  25.136  37.008  1.00  0.00     0.127 S 
ATOM     91  O   UNL A   1      44.665  25.354  37.769  1.00  0.00    -0.237 OA
ATOM     92  O   UNL A   1      45.851  23.990  36.099  1.00  0.00    -0.237 OA
ATOM     93  O   UNL A   1      47.134  25.255  37.762  1.00  0.00    -0.744 OA
ENDBRANCH  87  90
ENDBRANCH  60  83
ENDBRANCH  34  35
ENDBRANCH  26  29
ENDBRANCH  24  25
ENDBRANCH   1  24
TORSDOF 15
ENDMDL
MODEL 2
REMARK VINA RESULT:     -12.5      2.572      3.515
REMARK SMILES Cc1cc(Cl)cc2c1O[C@H](C(F)(F)F)C(C(=O)NCCCCNC(=O)c1ccc(-c3c4nc(c(-c5cccc(S(=O)(=O)[O-])c5F)c5ccc([nH]5)c(-c5cccc(S(=O)(=O)[O-])c5F)c5nc(c(-c6cccc(S(=O)(=O)[O-])c6F)c6ccc3[nH]6)C=C5)C=C4)cc1)=C2
REMARK SMILES IDX 21 1 20 2 19 3 18 4 16 5 17 6 15 8 1 9 2 10 3 11 8 12 4 13
REMARK SMILES IDX 7 14 9 15 5 16 6 17 89 18 10 19 11 20 12 21 13 22 14 23
REMARK SMILES IDX 22 24 23 25 24 26 25 28 26 29 27 30 88 31 28 32 87 33 29 34
REMARK SMILES IDX 30 35 31 36 81 37 32 38 86 39 80 40 82 41 33 42 85 43 79 44
REMARK SMILES IDX 78 45 34 47 66 48 46 49 65 50 47 51 50 52 64 53 83 54 48 55
REMARK SMILES IDX 49 56 63 58 84 59 51 60 35 61 36 62 44 63 37 64 39 65 45 66
REMARK SMILES IDX 38 67 40 68 41 69 42 70 43 71 67 72 68 73 76 74 69 75 71 76
REMARK SMILES IDX 77 77 70 78 72 79 73 80 74 81 75 82 52 83 53 84 61 85 54 86
REMARK SMILES IDX 56 87 62 88 55 89 57 90 58 91 59 92 60 93
REMARK H PARENT 18 7 23 27 82 46 50 57
REMARK Flexibility Score: inf
ROOT
ATOM      1  C   UNL A   1      31.806  31.688  26.811  1.00  0.00     0.023 C 
ENDROOT
BRANCH   1   2
ATOM      2  C   UNL A   1      31.986  30.170  26.899  1.00  0.00     0.023 C 
BRANCH   2   3
ATOM      3  C   UNL A   1      33.437  29.709  26.800  1.00  0.00     0.116 C 
BRANCH   3   4
ATOM      4  N   UNL A   1      33.805  29.359  25.440  1.00  0.00    -0.352 N 
ATOM      5  C   UNL A   1      33.701  28.277  24.635  1.00  0.00     0.251 C 
ATOM      6  O   UNL A   1      34.168  28.415  23.499  1.00  0.00    -0.270 OA
ATOM      7  H   UNL A   1      34.249  30.109  24.982  1.00  0.00     0.163 HD
BRANCH   5   8
ATOM      8  C   UNL A   1      33.079  26.972  25.014  1.00  0.00     0.067 C 
ATOM      9  C   UNL A   1      30.234  23.069  26.857  1.00  0.00     0.048 C 
ATOM     10  C   UNL A   1      31.574  23.218  26.191  1.00  0.00    -0.007 A 
ATOM     11  C   UNL A   1      32.303  22.066  25.864  1.00  0.00     0.027 A 
ATOM     12  C   UNL A   1      32.098  24.469  25.838  1.00  0.00     0.131 A 
ATOM     13  C   UNL A   1      33.538  22.172  25.223  1.00  0.00     0.042 A 
ATOM     14  C   UNL A   1      33.338  24.576  25.199  1.00  0.00     0.019 A 
ATOM     15  O   UNL A   1      31.379  25.577  26.190  1.00  0.00    -0.475 OA
ATOM     16  Cl  UNL A   1      34.423  20.745  24.844  1.00  0.00    -0.084 Cl
ATOM     17  C   UNL A   1      34.061  23.420  24.893  1.00  0.00     0.032 A 
ATOM     18  C   UNL A   1      33.875  25.894  24.889  1.00  0.00     0.025 C 
ATOM     19  C   UNL A   1      31.657  26.806  25.463  1.00  0.00     0.314 C 
BRANCH  19  20
ATOM     20  C   UNL A   1      30.645  26.945  24.312  1.00  0.00     0.429 C 
ATOM     21  F   UNL A   1      29.519  26.238  24.585  1.00  0.00    -0.167 F 
ATOM     22  F   UNL A   1      30.254  28.224  24.110  1.00  0.00    -0.167 F 
ATOM     23  F   UNL A   1      31.131  26.488  23.135  1.00  0.00    -0.167 F 
ENDBRANCH  19  20
ENDBRANCH   5   8
ENDBRANCH   3   4
ENDBRANCH   2   3
ENDBRANCH   1   2
BRANCH   1  24
ATOM     24  C   UNL A   1      32.944  32.520  27.404  1.00  0.00     0.116 C 
BRANCH  24  25
ATOM     25  N   UNL A   1      32.566  33.894  27.703  1.00  0.00    -0.352 N 
ATOM     26  C   UNL A   1      33.113  34.739  28.638  1.00  0.00     0.251 C 
ATOM     27  H   UNL A   1      31.826  34.265  27.169  1.00  0.00     0.163 HD
ATOM     28  O   UNL A   1      32.623  35.848  28.838  1.00  0.00    -0.269 OA
BRANCH  26  29
ATOM     29  C   UNL A   1      34.276  34.281  29.421  1.00  0.00     0.039 A 
ATOM     30  C   UNL A   1      34.057  33.572  30.605  1.00  0.00     0.014 A 
ATOM     31  C   UNL A   1      35.572  34.509  28.953  1.00  0.00     0.014 A 
ATOM     32  C   UNL A   1      35.146  33.035  31.293  1.00  0.00     0.010 A 
ATOM     33  C   UNL A   1      36.649  33.924  29.609  1.00  0.00     0.010 A 
ATOM     34  C   UNL A   1      36.446  33.184  30.784  1.00  0.00    -0.014 A 
BRANCH  34  35
ATOM     35  C   UNL A   1      37.620  32.591  31.465  1.00  0.00     0.031 A 
ATOM     36  C   UNL A   1      38.343  31.439  30.828  1.00  0.00     0.074 A 
ATOM     37  C   UNL A   1      37.972  33.023  32.691  1.00  0.00     0.049 A 
ATOM     38  N   UNL A   1      39.310  30.704  31.309  1.00  0.00    -0.248 NA
ATOM     39  C   UNL A   1      37.901  31.045  29.479  1.00  0.00     0.031 C 
ATOM     40  C   UNL A   1      37.310  34.099  33.432  1.00  0.00     0.029 A 
ATOM     41  N   UNL A   1      38.958  32.591  33.543  1.00  0.00    -0.354 N 
ATOM     42  C   UNL A   1      39.569  29.742  30.342  1.00  0.00     0.074 A 
ATOM     43  C   UNL A   1      38.635  29.964  29.260  1.00  0.00     0.031 C 
ATOM     44  C   UNL A   1      37.910  34.244  34.624  1.00  0.00     0.029 A 
ATOM     45  C   UNL A   1      38.978  33.256  34.747  1.00  0.00     0.049 A 
ATOM     46  H   UNL A   1      39.592  31.874  33.312  1.00  0.00     0.167 HD
ATOM     47  C   UNL A   1      40.520  28.779  30.339  1.00  0.00     0.034 A 
ATOM     48  C   UNL A   1      39.764  33.082  35.827  1.00  0.00     0.034 A 
ATOM     49  C   UNL A   1      41.478  28.595  31.394  1.00  0.00     0.049 A 
ATOM     50  C   UNL A   1      40.835  32.023  35.787  1.00  0.00     0.074 A 
ATOM     51  C   UNL A   1      42.521  27.690  31.459  1.00  0.00     0.029 A 
ATOM     52  N   UNL A   1      41.518  29.337  32.565  1.00  0.00    -0.354 N 
ATOM     53  N   UNL A   1      41.143  31.199  34.815  1.00  0.00    -0.248 NA
ATOM     54  C   UNL A   1      41.684  31.888  36.979  1.00  0.00     0.031 C 
ATOM     55  C   UNL A   1      43.190  27.881  32.674  1.00  0.00     0.029 A 
ATOM     56  C   UNL A   1      42.568  28.912  33.360  1.00  0.00     0.049 A 
ATOM     57  H   UNL A   1      40.890  30.059  32.798  1.00  0.00     0.167 HD
ATOM     58  C   UNL A   1      42.233  30.464  35.267  1.00  0.00     0.074 A 
ATOM     59  C   UNL A   1      42.550  30.962  36.589  1.00  0.00     0.031 C 
ATOM     60  C   UNL A   1      42.898  29.453  34.654  1.00  0.00     0.034 A 
BRANCH  47  61
ATOM     61  C   UNL A   1      40.618  27.900  29.122  1.00  0.00     0.023 A 
ATOM     62  C   UNL A   1      39.733  26.811  28.990  1.00  0.00     0.012 A 
ATOM     63  C   UNL A   1      41.535  28.176  28.089  1.00  0.00     0.148 A 
ATOM     64  C   UNL A   1      39.778  25.990  27.865  1.00  0.00     0.002 A 
ATOM     65  C   UNL A   1      41.546  27.378  26.951  1.00  0.00     0.091 A 
ATOM     66  F   UNL A   1      42.384  29.202  28.245  1.00  0.00    -0.205 F 
ATOM     67  C   UNL A   1      40.675  26.280  26.841  1.00  0.00     0.022 A 
BRANCH  65  68
ATOM     68  S   UNL A   1      42.613  27.709  25.545  1.00  0.00     0.127 S 
ATOM     69  O   UNL A   1      42.354  26.545  24.698  1.00  0.00    -0.237 OA
ATOM     70  O   UNL A   1      42.069  28.967  25.034  1.00  0.00    -0.237 OA
ATOM     71  O   UNL A   1      43.964  27.804  26.081  1.00  0.00    -0.744 OA
ENDBRANCH  65  68
ENDBRANCH  47  61
BRANCH  48  72
ATOM     72  C   UNL A   1      39.623  33.989  37.001  1.00  0.00     0.023 A 
ATOM     73  C   UNL A   1      40.018  35.335  36.873  1.00  0.00     0.012 A 
ATOM     74  C   UNL A   1      39.057  33.553  38.214  1.00  0.00     0.148 A 
ATOM     75  C   UNL A   1      39.872  36.225  37.938  1.00  0.00     0.002 A 
ATOM     76  C   UNL A   1      38.865  34.457  39.254  1.00  0.00     0.091 A 
ATOM     77  F   UNL A   1      38.701  32.265  38.323  1.00  0.00    -0.205 F 
ATOM     78  C   UNL A   1      39.285  35.790  39.123  1.00  0.00     0.022 A 
BRANCH  76  79
ATOM     79  S   UNL A   1      37.992  34.021  40.763  1.00  0.00     0.127 S 
ATOM     80  O   UNL A   1      37.805  35.327  41.388  1.00  0.00    -0.237 OA
ATOM     81  O   UNL A   1      36.771  33.407  40.239  1.00  0.00    -0.237 OA
ATOM     82  O   UNL A   1      38.870  33.098  41.470  1.00  0.00    -0.744 OA
ENDBRANCH  76  79
ENDBRANCH  48  72
BRANCH  60  83
ATOM     83  C   UNL A   1      44.038  28.811  35.401  1.00  0.00     0.023 A 
ATOM     84  C   UNL A   1      45.333  29.347  35.275  1.00  0.00     0.012 A 
ATOM     85  C   UNL A   1      43.813  27.746  36.295  1.00  0.00     0.148 A 
ATOM     86  C   UNL A   1      46.394  28.818  36.009  1.00  0.00     0.002 A 
ATOM     87  C   UNL A   1      44.866  27.253  37.057  1.00  0.00     0.091 A 
ATOM     88  F   UNL A   1      42.576  27.233  36.385  1.00  0.00    -0.205 F 
ATOM     89  C   UNL A   1      46.158  27.781  36.909  1.00  0.00     0.022 A 
BRANCH  87  90
ATOM     90  S   UNL A   1      44.623  25.988  38.310  1.00  0.00     0.127 S 
ATOM     91  O   UNL A   1      44.137  24.865  37.510  1.00  0.00    -0.237 OA
ATOM     92  O   UNL A   1      45.973  25.812  38.848  1.00  0.00    -0.237 OA
ATOM     93  O   UNL A   1      43.670  26.549  39.257  1.00  0.00    -0.744 OA
ENDBRANCH  87  90
ENDBRANCH  60  83
ENDBRANCH  34  35
ENDBRANCH  26  29
ENDBRANCH  24  25
ENDBRANCH   1  24
TORSDOF 15
ENDMDL
MODEL 3
REMARK VINA RESULT:     -12.4      4.892      9.772
REMARK SMILES Cc1cc(Cl)cc2c1O[C@H](C(F)(F)F)C(C(=O)NCCCCNC(=O)c1ccc(-c3c4nc(c(-c5cccc(S(=O)(=O)[O-])c5F)c5ccc([nH]5)c(-c5cccc(S(=O)(=O)[O-])c5F)c5nc(c(-c6cccc(S(=O)(=O)[O-])c6F)c6ccc3[nH]6)C=C5)C=C4)cc1)=C2
REMARK SMILES IDX 21 1 20 2 19 3 18 4 16 5 17 6 15 8 1 9 2 10 3 11 8 12 4 13
REMARK SMILES IDX 7 14 9 15 5 16 6 17 89 18 10 19 11 20 12 21 13 22 14 23
REMARK SMILES IDX 22 24 23 25 24 26 25 28 26 29 27 30 88 31 28 32 87 33 29 34
REMARK SMILES IDX 30 35 31 36 81 37 32 38 86 39 80 40 82 41 33 42 85 43 79 44
REMARK SMILES IDX 78 45 34 47 66 48 46 49 65 50 47 51 50 52 64 53 83 54 48 55
REMARK SMILES IDX 49 56 63 58 84 59 51 60 35 61 36 62 44 63 37 64 39 65 45 66
REMARK SMILES IDX 38 67 40 68 41 69 42 70 43 71 67 72 68 73 76 74 69 75 71 76
REMARK SMILES IDX 77 77 70 78 72 79 73 80 74 81 75 82 52 83 53 84 61 85 54 86
REMARK SMILES IDX 56 87 62 88 55 89 57 90 58 91 59 92 60 93
REMARK H PARENT 18 7 23 27 82 46 50 57
REMARK Flexibility Score: inf
ROOT
ATOM      1  C   UNL A   1      34.603  22.379  25.401  1.00  0.00     0.023 C 
ENDROOT
BRANCH   1   2
ATOM      2  C   UNL A   1      33.614  21.296  25.839  1.00  0.00     0.023 C 
BRANCH   2   3
ATOM      3  C   UNL A   1      32.224  21.438  25.226  1.00  0.00     0.116 C 
BRANCH   3   4
ATOM      4  N   UNL A   1      31.296  22.098  26.127  1.00  0.00    -0.352 N 
ATOM      5  C   UNL A   1      30.922  23.367  26.405  1.00  0.00     0.251 C 
ATOM      6  O   UNL A   1      30.061  23.486  27.284  1.00  0.00    -0.270 OA
ATOM      7  H   UNL A   1      30.811  21.448  26.684  1.00  0.00     0.163 HD
BRANCH   5   8
ATOM      8  C   UNL A   1      31.460  24.594  25.742  1.00  0.00     0.067 C 
ATOM      9  C   UNL A   1      33.772  28.141  22.776  1.00  0.00     0.048 C 
ATOM     10  C   UNL A   1      33.093  28.121  24.117  1.00  0.00    -0.007 A 
ATOM     11  C   UNL A   1      32.910  29.328  24.806  1.00  0.00     0.027 A 
ATOM     12  C   UNL A   1      32.587  26.941  24.681  1.00  0.00     0.131 A 
ATOM     13  C   UNL A   1      32.261  29.344  26.040  1.00  0.00     0.042 A 
ATOM     14  C   UNL A   1      31.939  26.956  25.921  1.00  0.00     0.019 A 
ATOM     15  O   UNL A   1      32.800  25.775  24.001  1.00  0.00    -0.475 OA
ATOM     16  Cl  UNL A   1      32.060  30.836  26.876  1.00  0.00    -0.084 Cl
ATOM     17  C   UNL A   1      31.778  28.165  26.603  1.00  0.00     0.032 A 
ATOM     18  C   UNL A   1      31.468  25.705  26.501  1.00  0.00     0.025 C 
ATOM     19  C   UNL A   1      31.927  24.655  24.317  1.00  0.00     0.314 C 
BRANCH  19  20
ATOM     20  C   UNL A   1      30.768  24.625  23.304  1.00  0.00     0.429 C 
ATOM     21  F   UNL A   1      31.183  25.086  22.097  1.00  0.00    -0.167 F 
ATOM     22  F   UNL A   1      30.288  23.378  23.094  1.00  0.00    -0.167 F 
ATOM     23  F   UNL A   1      29.722  25.393  23.689  1.00  0.00    -0.167 F 
ENDBRANCH  19  20
ENDBRANCH   5   8
ENDBRANCH   3   4
ENDBRANCH   2   3
ENDBRANCH   1   2
BRANCH   1  24
ATOM     24  C   UNL A   1      35.922  22.414  26.174  1.00  0.00     0.116 C 
BRANCH  24  25
ATOM     25  N   UNL A   1      36.850  21.359  25.790  1.00  0.00    -0.352 N 
ATOM     26  C   UNL A   1      38.224  21.386  25.820  1.00  0.00     0.251 C 
ATOM     27  H   UNL A   1      36.443  20.521  25.470  1.00  0.00     0.163 HD
ATOM     28  O   UNL A   1      38.875  20.444  25.376  1.00  0.00    -0.269 OA
BRANCH  26  29
ATOM     29  C   UNL A   1      38.902  22.578  26.362  1.00  0.00     0.039 A 
ATOM     30  C   UNL A   1      40.006  22.405  27.200  1.00  0.00     0.014 A 
ATOM     31  C   UNL A   1      38.474  23.857  25.998  1.00  0.00     0.014 A 
ATOM     32  C   UNL A   1      40.725  23.523  27.627  1.00  0.00     0.010 A 
ATOM     33  C   UNL A   1      39.225  24.963  26.376  1.00  0.00     0.010 A 
ATOM     34  C   UNL A   1      40.355  24.806  27.194  1.00  0.00    -0.014 A 
BRANCH  34  35
ATOM     35  C   UNL A   1      41.120  26.011  27.593  1.00  0.00     0.031 A 
ATOM     36  C   UNL A   1      40.440  27.092  28.385  1.00  0.00     0.074 A 
ATOM     37  C   UNL A   1      42.386  26.174  27.164  1.00  0.00     0.049 A 
ATOM     38  N   UNL A   1      40.889  28.269  28.729  1.00  0.00    -0.248 NA
ATOM     39  C   UNL A   1      39.061  26.820  28.826  1.00  0.00     0.031 C 
ATOM     40  C   UNL A   1      43.131  25.216  26.345  1.00  0.00     0.029 A 
ATOM     41  N   UNL A   1      43.261  27.217  27.335  1.00  0.00    -0.354 N 
ATOM     42  C   UNL A   1      39.842  28.893  29.393  1.00  0.00     0.074 A 
ATOM     43  C   UNL A   1      38.722  27.977  29.377  1.00  0.00     0.031 C 
ATOM     44  C   UNL A   1      44.351  25.715  26.087  1.00  0.00     0.029 A 
ATOM     45  C   UNL A   1      44.465  27.037  26.696  1.00  0.00     0.049 A 
ATOM     46  H   UNL A   1      43.047  28.018  27.866  1.00  0.00     0.167 HD
ATOM     47  C   UNL A   1      39.823  30.106  29.994  1.00  0.00     0.034 A 
ATOM     48  C   UNL A   1      45.536  27.850  26.607  1.00  0.00     0.034 A 
ATOM     49  C   UNL A   1      40.954  30.990  30.051  1.00  0.00     0.049 A 
ATOM     50  C   UNL A   1      45.501  29.183  27.309  1.00  0.00     0.074 A 
ATOM     51  C   UNL A   1      41.057  32.213  30.688  1.00  0.00     0.029 A 
ATOM     52  N   UNL A   1      42.183  30.742  29.459  1.00  0.00    -0.354 N 
ATOM     53  N   UNL A   1      44.542  29.706  28.034  1.00  0.00    -0.248 NA
ATOM     54  C   UNL A   1      46.702  30.023  27.204  1.00  0.00     0.031 C 
ATOM     55  C   UNL A   1      42.349  32.708  30.477  1.00  0.00     0.029 A 
ATOM     56  C   UNL A   1      43.052  31.787  29.715  1.00  0.00     0.049 A 
ATOM     57  H   UNL A   1      42.405  29.940  28.932  1.00  0.00     0.167 HD
ATOM     58  C   UNL A   1      45.031  30.925  28.491  1.00  0.00     0.074 A 
ATOM     59  C   UNL A   1      46.382  31.048  27.984  1.00  0.00     0.031 C 
ATOM     60  C   UNL A   1      44.411  31.869  29.242  1.00  0.00     0.034 A 
BRANCH  47  61
ATOM     61  C   UNL A   1      38.559  30.513  30.701  1.00  0.00     0.023 A 
ATOM     62  C   UNL A   1      38.397  30.179  32.061  1.00  0.00     0.012 A 
ATOM     63  C   UNL A   1      37.563  31.265  30.049  1.00  0.00     0.148 A 
ATOM     64  C   UNL A   1      37.251  30.562  32.756  1.00  0.00     0.002 A 
ATOM     65  C   UNL A   1      36.441  31.678  30.759  1.00  0.00     0.091 A 
ATOM     66  F   UNL A   1      37.724  31.551  28.750  1.00  0.00    -0.205 F 
ATOM     67  C   UNL A   1      36.279  31.319  32.109  1.00  0.00     0.022 A 
BRANCH  65  68
ATOM     68  S   UNL A   1      35.166  32.718  30.039  1.00  0.00     0.127 S 
ATOM     69  O   UNL A   1      34.278  32.930  31.182  1.00  0.00    -0.237 OA
ATOM     70  O   UNL A   1      35.926  33.900  29.630  1.00  0.00    -0.237 OA
ATOM     71  O   UNL A   1      34.597  31.951  28.940  1.00  0.00    -0.744 OA
ENDBRANCH  65  68
ENDBRANCH  47  61
BRANCH  48  72
ATOM     72  C   UNL A   1      46.762  27.387  25.897  1.00  0.00     0.023 A 
ATOM     73  C   UNL A   1      46.905  27.678  24.525  1.00  0.00     0.012 A 
ATOM     74  C   UNL A   1      47.801  26.715  26.568  1.00  0.00     0.148 A 
ATOM     75  C   UNL A   1      48.052  27.290  23.831  1.00  0.00     0.002 A 
ATOM     76  C   UNL A   1      48.964  26.379  25.883  1.00  0.00     0.091 A 
ATOM     77  F   UNL A   1      47.641  26.434  27.869  1.00  0.00    -0.205 F 
ATOM     78  C   UNL A   1      49.085  26.652  24.511  1.00  0.00     0.022 A 
BRANCH  76  79
ATOM     79  S   UNL A   1      50.401  25.681  26.706  1.00  0.00     0.127 S 
ATOM     80  O   UNL A   1      50.728  26.725  27.673  1.00  0.00    -0.237 OA
ATOM     81  O   UNL A   1      49.853  24.453  27.284  1.00  0.00    -0.237 OA
ATOM     82  O   UNL A   1      51.385  25.460  25.655  1.00  0.00    -0.744 OA
ENDBRANCH  76  79
ENDBRANCH  48  72
BRANCH  60  83
ATOM     83  C   UNL A   1      45.181  33.122  29.567  1.00  0.00     0.023 A 
ATOM     84  C   UNL A   1      46.001  33.150  30.712  1.00  0.00     0.012 A 
ATOM     85  C   UNL A   1      45.169  34.229  28.697  1.00  0.00     0.148 A 
ATOM     86  C   UNL A   1      46.780  34.271  30.998  1.00  0.00     0.002 A 
ATOM     87  C   UNL A   1      45.983  35.324  28.965  1.00  0.00     0.091 A 
ATOM     88  F   UNL A   1      44.365  34.193  27.623  1.00  0.00    -0.205 F 
ATOM     89  C   UNL A   1      46.782  35.351  30.118  1.00  0.00     0.022 A 
BRANCH  87  90
ATOM     90  S   UNL A   1      46.116  36.711  27.830  1.00  0.00     0.127 S 
ATOM     91  O   UNL A   1      44.785  37.306  27.926  1.00  0.00    -0.237 OA
ATOM     92  O   UNL A   1      47.185  37.510  28.430  1.00  0.00    -0.237 OA
ATOM     93  O   UNL A   1      46.457  36.131  26.537  1.00  0.00    -0.744 OA
ENDBRANCH  87  90
ENDBRANCH  60  83
ENDBRANCH  34  35
ENDBRANCH  26  29
ENDBRANCH  24  25
ENDBRANCH   1  24
TORSDOF 15
ENDMDL
