MODEL 1
REMARK VINA RESULT:     -13.2      0.000      0.000
REMARK SMILES Cc1cccc(CC(=O)N2CCC3(CCC(=O)N([C@H](C)C(=O)NCCCCNC(=O)c4ccc(-c5c6nc(c(-c7cccc(S(=O)(=O)[O-])c7F)c7ccc([nH]7)c(-c7cccc(S(=O)(=O)[O-])c7F)c7nc(c(-c8cccc(S(=O)(=O)[O-])c8F)c8ccc5[nH]8)C=C7)C=C6)cc4)C3)CC2)c1
REMARK SMILES IDX 25 1 24 2 23 3 21 4 22 5 19 7 20 8 18 9 8 10 9 11 10 12
REMARK SMILES IDX 11 13 96 14 12 15 95 16 13 17 14 18 94 19 15 20 16 21 17 22
REMARK SMILES IDX 7 23 6 24 1 25 2 26 3 27 97 28 4 29 5 30 26 31 27 32 28 33
REMARK SMILES IDX 29 34 30 36 31 37 32 38 93 39 33 40 92 41 34 42 35 43 36 44
REMARK SMILES IDX 86 45 37 46 91 47 85 48 87 49 38 50 90 51 84 52 83 53 39 55
REMARK SMILES IDX 71 56 51 57 70 58 52 59 55 60 69 61 88 62 53 63 54 64 68 66
REMARK SMILES IDX 89 67 56 68 40 69 41 70 49 71 42 72 44 73 50 74 43 75 45 76
REMARK SMILES IDX 46 77 47 78 48 79 72 80 73 81 81 82 74 83 76 84 82 85 75 86
REMARK SMILES IDX 77 87 78 88 79 89 80 90 57 91 58 92 66 93 59 94 61 95 67 96
REMARK SMILES IDX 60 97 62 98 63 99 64 100 65 101
REMARK H PARENT 23 6 28 35 87 54 55 65
REMARK Flexibility Score: inf
ROOT
ATOM      1  C   UNL A   1      37.129  20.127  25.042  1.00  0.00     0.023 C 
ENDROOT
BRANCH   1   2
ATOM      2  C   UNL A   1      35.968  21.102  25.195  1.00  0.00     0.116 C 
BRANCH   2   3
ATOM      3  N   UNL A   1      35.755  21.936  24.022  1.00  0.00    -0.354 N 
ATOM      4  C   UNL A   1      35.113  23.138  23.908  1.00  0.00     0.242 C 
ATOM      5  O   UNL A   1      35.209  23.747  22.838  1.00  0.00    -0.273 OA
ATOM      6  H   UNL A   1      36.130  21.581  23.185  1.00  0.00     0.163 HD
BRANCH   4   7
ATOM      7  C   UNL A   1      34.235  23.704  25.049  1.00  0.00     0.171 C 
ATOM      8  C   UNL A   1      34.778  25.026  25.601  1.00  0.00     0.042 C 
BRANCH   7   9
ATOM      9  N   UNL A   1      32.773  23.737  24.857  1.00  0.00    -0.330 N 
ATOM     10  C   UNL A   1      30.058  29.203  22.543  1.00  0.00     0.226 C 
ATOM     11  O   UNL A   1      30.530  29.661  21.494  1.00  0.00    -0.275 OA
ATOM     12  N   UNL A   1      30.106  27.842  22.803  1.00  0.00    -0.342 N 
ATOM     13  C   UNL A   1      31.059  27.005  22.079  1.00  0.00     0.120 C 
ATOM     14  C   UNL A   1      29.230  27.094  23.696  1.00  0.00     0.120 C 
ATOM     15  C   UNL A   1      31.914  26.209  23.076  1.00  0.00     0.030 C 
ATOM     16  C   UNL A   1      30.056  26.407  24.771  1.00  0.00     0.030 C 
ATOM     17  C   UNL A   1      31.081  25.434  24.138  1.00  0.00    -0.008 C 
ATOM     18  C   UNL A   1      30.304  24.239  23.523  1.00  0.00     0.019 C 
ATOM     19  C   UNL A   1      32.014  24.912  25.251  1.00  0.00     0.127 C 
ATOM     20  C   UNL A   1      31.197  23.074  23.161  1.00  0.00     0.101 C 
ATOM     21  C   UNL A   1      32.067  22.677  24.321  1.00  0.00     0.223 C 
ATOM     22  O   UNL A   1      32.220  21.504  24.637  1.00  0.00    -0.275 OA
BRANCH  10  23
ATOM     23  C   UNL A   1      29.653  30.186  23.640  1.00  0.00     0.135 C 
BRANCH  23  24
ATOM     24  C   UNL A   1      30.645  30.516  24.721  1.00  0.00    -0.038 A 
ATOM     25  C   UNL A   1      33.497  28.750  26.542  1.00  0.00     0.044 C 
ATOM     26  C   UNL A   1      32.494  29.791  26.140  1.00  0.00    -0.051 A 
ATOM     27  C   UNL A   1      32.342  30.953  26.904  1.00  0.00     0.003 A 
ATOM     28  C   UNL A   1      31.661  29.593  25.035  1.00  0.00     0.007 A 
ATOM     29  C   UNL A   1      31.375  31.902  26.567  1.00  0.00     0.001 A 
ATOM     30  C   UNL A   1      30.529  31.688  25.477  1.00  0.00     0.004 A 
ENDBRANCH  23  24
ENDBRANCH  10  23
ENDBRANCH   7   9
ENDBRANCH   4   7
ENDBRANCH   2   3
ENDBRANCH   1   2
BRANCH   1  31
ATOM     31  C   UNL A   1      38.511  20.777  25.027  1.00  0.00     0.023 C 
BRANCH  31  32
ATOM     32  C   UNL A   1      38.666  21.942  25.992  1.00  0.00     0.116 C 
BRANCH  32  33
ATOM     33  N   UNL A   1      39.756  21.792  26.932  1.00  0.00    -0.352 N 
ATOM     34  C   UNL A   1      40.606  22.736  27.492  1.00  0.00     0.251 C 
ATOM     35  H   UNL A   1      39.921  20.866  27.224  1.00  0.00     0.163 HD
ATOM     36  O   UNL A   1      41.587  22.320  28.077  1.00  0.00    -0.269 OA
BRANCH  34  37
ATOM     37  C   UNL A   1      40.251  24.189  27.521  1.00  0.00     0.039 A 
ATOM     38  C   UNL A   1      41.114  25.078  26.855  1.00  0.00     0.014 A 
ATOM     39  C   UNL A   1      39.270  24.708  28.358  1.00  0.00     0.014 A 
ATOM     40  C   UNL A   1      41.180  26.413  27.249  1.00  0.00     0.010 A 
ATOM     41  C   UNL A   1      39.397  25.993  28.826  1.00  0.00     0.010 A 
ATOM     42  C   UNL A   1      40.410  26.813  28.329  1.00  0.00    -0.014 A 
BRANCH  42  43
ATOM     43  C   UNL A   1      40.602  28.027  29.097  1.00  0.00     0.031 A 
ATOM     44  C   UNL A   1      39.692  29.164  28.910  1.00  0.00     0.074 A 
ATOM     45  C   UNL A   1      41.392  27.927  30.186  1.00  0.00     0.049 A 
ATOM     46  N   UNL A   1      39.819  30.294  29.507  1.00  0.00    -0.248 NA
ATOM     47  C   UNL A   1      38.557  29.107  28.000  1.00  0.00     0.031 C 
ATOM     48  C   UNL A   1      41.380  28.736  31.399  1.00  0.00     0.029 A 
ATOM     49  N   UNL A   1      42.520  27.112  30.332  1.00  0.00    -0.354 N 
ATOM     50  C   UNL A   1      38.654  31.001  29.303  1.00  0.00     0.074 A 
ATOM     51  C   UNL A   1      37.961  30.272  28.270  1.00  0.00     0.031 C 
ATOM     52  C   UNL A   1      42.558  28.591  32.029  1.00  0.00     0.029 A 
ATOM     53  C   UNL A   1      43.421  27.855  31.121  1.00  0.00     0.049 A 
ATOM     54  H   UNL A   1      42.657  26.210  29.962  1.00  0.00     0.167 HD
ATOM     55  C   UNL A   1      38.374  32.029  30.153  1.00  0.00     0.034 A 
ATOM     56  C   UNL A   1      44.561  28.359  30.553  1.00  0.00     0.034 A 
ATOM     57  C   UNL A   1      39.545  32.319  31.004  1.00  0.00     0.049 A 
ATOM     58  C   UNL A   1      44.651  29.876  30.599  1.00  0.00     0.074 A 
ATOM     59  C   UNL A   1      39.873  32.016  32.316  1.00  0.00     0.029 A 
ATOM     60  N   UNL A   1      40.721  32.760  30.402  1.00  0.00    -0.354 N 
ATOM     61  N   UNL A   1      43.663  30.675  30.900  1.00  0.00    -0.248 NA
ATOM     62  C   UNL A   1      45.881  30.610  30.325  1.00  0.00     0.031 C 
ATOM     63  C   UNL A   1      41.278  32.196  32.470  1.00  0.00     0.029 A 
ATOM     64  C   UNL A   1      41.799  32.645  31.266  1.00  0.00     0.049 A 
ATOM     65  H   UNL A   1      40.778  33.110  29.484  1.00  0.00     0.167 HD
ATOM     66  C   UNL A   1      44.046  31.985  30.750  1.00  0.00     0.074 A 
ATOM     67  C   UNL A   1      45.471  31.882  30.473  1.00  0.00     0.031 C 
ATOM     68  C   UNL A   1      43.142  33.018  30.816  1.00  0.00     0.034 A 
BRANCH  55  69
ATOM     69  C   UNL A   1      36.996  32.627  30.420  1.00  0.00     0.023 A 
ATOM     70  C   UNL A   1      36.356  32.249  31.624  1.00  0.00     0.012 A 
ATOM     71  C   UNL A   1      36.229  33.455  29.562  1.00  0.00     0.148 A 
ATOM     72  C   UNL A   1      35.033  32.600  31.925  1.00  0.00     0.002 A 
ATOM     73  C   UNL A   1      34.904  33.798  29.851  1.00  0.00     0.091 A 
ATOM     74  F   UNL A   1      36.764  33.953  28.453  1.00  0.00    -0.205 F 
ATOM     75  C   UNL A   1      34.298  33.363  31.031  1.00  0.00     0.022 A 
BRANCH  73  76
ATOM     76  S   UNL A   1      33.883  34.774  28.726  1.00  0.00     0.127 S 
ATOM     77  O   UNL A   1      32.550  34.220  28.965  1.00  0.00    -0.237 OA
ATOM     78  O   UNL A   1      34.074  36.134  29.230  1.00  0.00    -0.237 OA
ATOM     79  O   UNL A   1      34.399  34.540  27.384  1.00  0.00    -0.744 OA
ENDBRANCH  73  76
ENDBRANCH  55  69
BRANCH  56  80
ATOM     80  C   UNL A   1      45.091  27.476  29.459  1.00  0.00     0.023 A 
ATOM     81  C   UNL A   1      45.420  26.143  29.821  1.00  0.00     0.012 A 
ATOM     82  C   UNL A   1      44.896  27.771  28.099  1.00  0.00     0.148 A 
ATOM     83  C   UNL A   1      45.364  25.107  28.885  1.00  0.00     0.002 A 
ATOM     84  C   UNL A   1      44.878  26.734  27.163  1.00  0.00     0.091 A 
ATOM     85  F   UNL A   1      44.683  29.044  27.739  1.00  0.00    -0.205 F 
ATOM     86  C   UNL A   1      45.055  25.399  27.562  1.00  0.00     0.022 A 
BRANCH  84  87
ATOM     87  S   UNL A   1      44.520  27.045  25.427  1.00  0.00     0.127 S 
ATOM     88  O   UNL A   1      45.844  27.389  24.912  1.00  0.00    -0.237 OA
ATOM     89  O   UNL A   1      44.003  25.757  24.962  1.00  0.00    -0.237 OA
ATOM     90  O   UNL A   1      43.532  28.114  25.433  1.00  0.00    -0.744 OA
ENDBRANCH  84  87
ENDBRANCH  56  80
BRANCH  68  91
ATOM     91  C   UNL A   1      43.400  34.480  30.442  1.00  0.00     0.023 A 
ATOM     92  C   UNL A   1      43.781  35.457  31.381  1.00  0.00     0.012 A 
ATOM     93  C   UNL A   1      43.386  34.905  29.082  1.00  0.00     0.148 A 
ATOM     94  C   UNL A   1      44.092  36.774  31.015  1.00  0.00     0.002 A 
ATOM     95  C   UNL A   1      43.809  36.180  28.711  1.00  0.00     0.091 A 
ATOM     96  F   UNL A   1      42.927  34.087  28.125  1.00  0.00    -0.205 F 
ATOM     97  C   UNL A   1      44.135  37.130  29.678  1.00  0.00     0.022 A 
BRANCH  95  98
ATOM     98  S   UNL A   1      44.097  36.601  26.985  1.00  0.00     0.127 S 
ATOM     99  O   UNL A   1      45.066  35.586  26.582  1.00  0.00    -0.237 OA
ATOM    100  O   UNL A   1      42.765  36.438  26.396  1.00  0.00    -0.237 OA
ATOM    101  O   UNL A   1      44.573  37.978  27.004  1.00  0.00    -0.744 OA
ENDBRANCH  95  98
ENDBRANCH  68  91
ENDBRANCH  42  43
ENDBRANCH  34  37
ENDBRANCH  32  33
ENDBRANCH  31  32
ENDBRANCH   1  31
TORSDOF 17
ENDMDL
MODEL 2
REMARK VINA RESULT:     -13.1      3.912      9.758
REMARK SMILES Cc1cccc(CC(=O)N2CCC3(CCC(=O)N([C@H](C)C(=O)NCCCCNC(=O)c4ccc(-c5c6nc(c(-c7cccc(S(=O)(=O)[O-])c7F)c7ccc([nH]7)c(-c7cccc(S(=O)(=O)[O-])c7F)c7nc(c(-c8cccc(S(=O)(=O)[O-])c8F)c8ccc5[nH]8)C=C7)C=C6)cc4)C3)CC2)c1
REMARK SMILES IDX 25 1 24 2 23 3 21 4 22 5 19 7 20 8 18 9 8 10 9 11 10 12
REMARK SMILES IDX 11 13 96 14 12 15 95 16 13 17 14 18 94 19 15 20 16 21 17 22
REMARK SMILES IDX 7 23 6 24 1 25 2 26 3 27 97 28 4 29 5 30 26 31 27 32 28 33
REMARK SMILES IDX 29 34 30 36 31 37 32 38 93 39 33 40 92 41 34 42 35 43 36 44
REMARK SMILES IDX 86 45 37 46 91 47 85 48 87 49 38 50 90 51 84 52 83 53 39 55
REMARK SMILES IDX 71 56 51 57 70 58 52 59 55 60 69 61 88 62 53 63 54 64 68 66
REMARK SMILES IDX 89 67 56 68 40 69 41 70 49 71 42 72 44 73 50 74 43 75 45 76
REMARK SMILES IDX 46 77 47 78 48 79 72 80 73 81 81 82 74 83 76 84 82 85 75 86
REMARK SMILES IDX 77 87 78 88 79 89 80 90 57 91 58 92 66 93 59 94 61 95 67 96
REMARK SMILES IDX 60 97 62 98 63 99 64 100 65 101
REMARK H PARENT 23 6 28 35 87 54 55 65
REMARK Flexibility Score: inf
ROOT
ATOM      1  C   UNL A   1      35.606  29.496  27.829  1.00  0.00     0.023 C 
ENDROOT
BRANCH   1   2
ATOM      2  C   UNL A   1      34.475  29.078  26.896  1.00  0.00     0.116 C 
BRANCH   2   3
ATOM      3  N   UNL A   1      33.309  28.563  27.596  1.00  0.00    -0.354 N 
ATOM      4  C   UNL A   1      31.985  28.632  27.259  1.00  0.00     0.242 C 
ATOM      5  O   UNL A   1      31.183  27.966  27.923  1.00  0.00    -0.273 OA
ATOM      6  H   UNL A   1      33.501  28.093  28.438  1.00  0.00     0.163 HD
BRANCH   4   7
ATOM      7  C   UNL A   1      31.480  29.560  26.129  1.00  0.00     0.171 C 
ATOM      8  C   UNL A   1      32.094  30.961  26.208  1.00  0.00     0.042 C 
BRANCH   7   9
ATOM      9  N   UNL A   1      31.459  29.036  24.750  1.00  0.00    -0.330 N 
ATOM     10  C   UNL A   1      34.076  23.167  23.605  1.00  0.00     0.226 C 
ATOM     11  O   UNL A   1      33.678  22.230  24.309  1.00  0.00    -0.275 OA
ATOM     12  N   UNL A   1      33.248  24.244  23.328  1.00  0.00    -0.342 N 
ATOM     13  C   UNL A   1      32.088  24.496  24.180  1.00  0.00     0.120 C 
ATOM     14  C   UNL A   1      33.351  25.155  22.196  1.00  0.00     0.120 C 
ATOM     15  C   UNL A   1      32.126  25.942  24.695  1.00  0.00     0.030 C 
ATOM     16  C   UNL A   1      33.523  26.580  22.694  1.00  0.00     0.030 C 
ATOM     17  C   UNL A   1      32.320  27.003  23.573  1.00  0.00    -0.008 C 
ATOM     18  C   UNL A   1      31.071  27.135  22.662  1.00  0.00     0.019 C 
ATOM     19  C   UNL A   1      32.634  28.376  24.205  1.00  0.00     0.127 C 
ATOM     20  C   UNL A   1      29.918  27.845  23.333  1.00  0.00     0.101 C 
ATOM     21  C   UNL A   1      30.359  29.157  23.923  1.00  0.00     0.223 C 
ATOM     22  O   UNL A   1      29.700  30.178  23.780  1.00  0.00    -0.275 OA
BRANCH  10  23
ATOM     23  C   UNL A   1      35.563  23.227  23.259  1.00  0.00     0.135 C 
BRANCH  23  24
ATOM     24  C   UNL A   1      36.568  22.809  24.299  1.00  0.00    -0.038 A 
ATOM     25  C   UNL A   1      38.707  24.501  26.968  1.00  0.00     0.044 C 
ATOM     26  C   UNL A   1      38.109  23.451  26.079  1.00  0.00    -0.051 A 
ATOM     27  C   UNL A   1      38.636  22.155  26.067  1.00  0.00     0.003 A 
ATOM     28  C   UNL A   1      37.057  23.762  25.212  1.00  0.00     0.007 A 
ATOM     29  C   UNL A   1      38.119  21.187  25.204  1.00  0.00     0.001 A 
ATOM     30  C   UNL A   1      37.086  21.510  24.323  1.00  0.00     0.004 A 
ENDBRANCH  23  24
ENDBRANCH  10  23
ENDBRANCH   7   9
ENDBRANCH   4   7
ENDBRANCH   2   3
ENDBRANCH   1   2
BRANCH   1  31
ATOM     31  C   UNL A   1      35.385  30.827  28.544  1.00  0.00     0.023 C 
BRANCH  31  32
ATOM     32  C   UNL A   1      35.493  32.048  27.643  1.00  0.00     0.116 C 
BRANCH  32  33
ATOM     33  N   UNL A   1      34.906  33.248  28.199  1.00  0.00    -0.352 N 
ATOM     34  C   UNL A   1      35.210  33.951  29.357  1.00  0.00     0.251 C 
ATOM     35  H   UNL A   1      34.171  33.629  27.668  1.00  0.00     0.163 HD
ATOM     36  O   UNL A   1      34.414  34.798  29.716  1.00  0.00    -0.269 OA
BRANCH  34  37
ATOM     37  C   UNL A   1      36.530  33.796  30.044  1.00  0.00     0.039 A 
ATOM     38  C   UNL A   1      37.686  34.062  29.289  1.00  0.00     0.014 A 
ATOM     39  C   UNL A   1      36.666  33.185  31.285  1.00  0.00     0.014 A 
ATOM     40  C   UNL A   1      38.897  33.465  29.635  1.00  0.00     0.010 A 
ATOM     41  C   UNL A   1      37.825  32.509  31.578  1.00  0.00     0.010 A 
ATOM     42  C   UNL A   1      38.909  32.584  30.703  1.00  0.00    -0.014 A 
BRANCH  42  43
ATOM     43  C   UNL A   1      39.950  31.616  30.987  1.00  0.00     0.031 A 
ATOM     44  C   UNL A   1      39.931  30.305  30.327  1.00  0.00     0.074 A 
ATOM     45  C   UNL A   1      41.065  32.094  31.578  1.00  0.00     0.049 A 
ATOM     46  N   UNL A   1      40.780  29.370  30.558  1.00  0.00    -0.248 NA
ATOM     47  C   UNL A   1      38.917  29.946  29.347  1.00  0.00     0.031 C 
ATOM     48  C   UNL A   1      42.422  31.563  31.527  1.00  0.00     0.029 A 
ATOM     49  N   UNL A   1      41.141  33.132  32.513  1.00  0.00    -0.354 N 
ATOM     50  C   UNL A   1      40.620  28.416  29.577  1.00  0.00     0.074 A 
ATOM     51  C   UNL A   1      39.380  28.764  28.929  1.00  0.00     0.031 C 
ATOM     52  C   UNL A   1      43.124  32.068  32.556  1.00  0.00     0.029 A 
ATOM     53  C   UNL A   1      42.169  32.763  33.403  1.00  0.00     0.049 A 
ATOM     54  H   UNL A   1      40.591  33.948  32.544  1.00  0.00     0.167 HD
ATOM     55  C   UNL A   1      41.647  27.547  29.358  1.00  0.00     0.034 A 
ATOM     56  C   UNL A   1      41.856  32.394  34.684  1.00  0.00     0.034 A 
ATOM     57  C   UNL A   1      42.661  27.679  30.423  1.00  0.00     0.049 A 
ATOM     58  C   UNL A   1      42.256  30.969  35.028  1.00  0.00     0.074 A 
ATOM     59  C   UNL A   1      43.897  28.302  30.495  1.00  0.00     0.029 A 
ATOM     60  N   UNL A   1      42.305  27.371  31.733  1.00  0.00    -0.354 N 
ATOM     61  N   UNL A   1      42.624  30.065  34.161  1.00  0.00    -0.248 NA
ATOM     62  C   UNL A   1      42.289  30.459  36.394  1.00  0.00     0.031 C 
ATOM     63  C   UNL A   1      44.237  28.445  31.871  1.00  0.00     0.029 A 
ATOM     64  C   UNL A   1      43.229  27.876  32.634  1.00  0.00     0.049 A 
ATOM     65  H   UNL A   1      41.502  26.861  31.986  1.00  0.00     0.167 HD
ATOM     66  C   UNL A   1      42.818  28.857  34.784  1.00  0.00     0.074 A 
ATOM     67  C   UNL A   1      42.679  29.187  36.194  1.00  0.00     0.031 C 
ATOM     68  C   UNL A   1      43.022  27.698  34.073  1.00  0.00     0.034 A 
BRANCH  55  69
ATOM     69  C   UNL A   1      41.895  26.750  28.080  1.00  0.00     0.023 A 
ATOM     70  C   UNL A   1      41.652  27.413  26.855  1.00  0.00     0.012 A 
ATOM     71  C   UNL A   1      42.260  25.385  27.968  1.00  0.00     0.148 A 
ATOM     72  C   UNL A   1      41.693  26.759  25.616  1.00  0.00     0.002 A 
ATOM     73  C   UNL A   1      42.290  24.724  26.735  1.00  0.00     0.091 A 
ATOM     74  F   UNL A   1      42.609  24.691  29.046  1.00  0.00    -0.205 F 
ATOM     75  C   UNL A   1      41.997  25.408  25.555  1.00  0.00     0.022 A 
BRANCH  73  76
ATOM     76  S   UNL A   1      42.661  22.963  26.583  1.00  0.00     0.127 S 
ATOM     77  O   UNL A   1      44.059  22.908  27.014  1.00  0.00    -0.237 OA
ATOM     78  O   UNL A   1      41.714  22.361  27.521  1.00  0.00    -0.237 OA
ATOM     79  O   UNL A   1      42.449  22.610  25.185  1.00  0.00    -0.744 OA
ENDBRANCH  73  76
ENDBRANCH  55  69
BRANCH  56  80
ATOM     80  C   UNL A   1      40.652  33.126  35.208  1.00  0.00     0.023 A 
ATOM     81  C   UNL A   1      39.395  32.488  35.036  1.00  0.00     0.012 A 
ATOM     82  C   UNL A   1      40.758  34.149  36.166  1.00  0.00     0.148 A 
ATOM     83  C   UNL A   1      38.339  32.728  35.918  1.00  0.00     0.002 A 
ATOM     84  C   UNL A   1      39.683  34.408  37.021  1.00  0.00     0.091 A 
ATOM     85  F   UNL A   1      41.912  34.822  36.268  1.00  0.00    -0.205 F 
ATOM     86  C   UNL A   1      38.497  33.661  36.934  1.00  0.00     0.022 A 
BRANCH  84  87
ATOM     87  S   UNL A   1      39.806  35.629  38.337  1.00  0.00     0.127 S 
ATOM     88  O   UNL A   1      39.765  36.879  37.582  1.00  0.00    -0.237 OA
ATOM     89  O   UNL A   1      38.614  35.365  39.143  1.00  0.00    -0.237 OA
ATOM     90  O   UNL A   1      41.059  35.325  39.014  1.00  0.00    -0.744 OA
ENDBRANCH  84  87
ENDBRANCH  56  80
BRANCH  68  91
ATOM     91  C   UNL A   1      43.021  26.274  34.635  1.00  0.00     0.023 A 
ATOM     92  C   UNL A   1      41.937  25.730  35.348  1.00  0.00     0.012 A 
ATOM     93  C   UNL A   1      44.087  25.372  34.352  1.00  0.00     0.148 A 
ATOM     94  C   UNL A   1      41.915  24.399  35.789  1.00  0.00     0.002 A 
ATOM     95  C   UNL A   1      44.010  24.021  34.689  1.00  0.00     0.091 A 
ATOM     96  F   UNL A   1      45.214  25.818  33.781  1.00  0.00    -0.205 F 
ATOM     97  C   UNL A   1      42.937  23.535  35.434  1.00  0.00     0.022 A 
BRANCH  95  98
ATOM     98  S   UNL A   1      45.200  22.831  34.050  1.00  0.00     0.127 S 
ATOM     99  O   UNL A   1      44.713  21.578  34.622  1.00  0.00    -0.237 OA
ATOM    100  O   UNL A   1      45.016  22.951  32.601  1.00  0.00    -0.237 OA
ATOM    101  O   UNL A   1      46.495  23.298  34.525  1.00  0.00    -0.744 OA
ENDBRANCH  95  98
ENDBRANCH  68  91
ENDBRANCH  42  43
ENDBRANCH  34  37
ENDBRANCH  32  33
ENDBRANCH  31  32
ENDBRANCH   1  31
TORSDOF 17
ENDMDL
MODEL 3
REMARK VINA RESULT:     -12.9      3.924      9.797
REMARK SMILES Cc1cccc(CC(=O)N2CCC3(CCC(=O)N([C@H](C)C(=O)NCCCCNC(=O)c4ccc(-c5c6nc(c(-c7cccc(S(=O)(=O)[O-])c7F)c7ccc([nH]7)c(-c7cccc(S(=O)(=O)[O-])c7F)c7nc(c(-c8cccc(S(=O)(=O)[O-])c8F)c8ccc5[nH]8)C=C7)C=C6)cc4)C3)CC2)c1
REMARK SMILES IDX 25 1 24 2 23 3 21 4 22 5 19 7 20 8 18 9 8 10 9 11 10 12
REMARK SMILES IDX 11 13 96 14 12 15 95 16 13 17 14 18 94 19 15 20 16 21 17 22
REMARK SMILES IDX 7 23 6 24 1 25 2 26 3 27 97 28 4 29 5 30 26 31 27 32 28 33
REMARK SMILES IDX 29 34 30 36 31 37 32 38 93 39 33 40 92 41 34 42 35 43 36 44
REMARK SMILES IDX 86 45 37 46 91 47 85 48 87 49 38 50 90 51 84 52 83 53 39 55
REMARK SMILES IDX 71 56 51 57 70 58 52 59 55 60 69 61 88 62 53 63 54 64 68 66
REMARK SMILES IDX 89 67 56 68 40 69 41 70 49 71 42 72 44 73 50 74 43 75 45 76
REMARK SMILES IDX 46 77 47 78 48 79 72 80 73 81 81 82 74 83 76 84 82 85 75 86
REMARK SMILES IDX 77 87 78 88 79 89 80 90 57 91 58 92 66 93 59 94 61 95 67 96
REMARK SMILES IDX 60 97 62 98 63 99 64 100 65 101
REMARK H PARENT 23 6 28 35 87 54 55 65
REMARK Flexibility Score: inf
ROOT
ATOM      1  C   UNL A   1      34.993  30.354  27.704  1.00  0.00     0.023 C 
ENDROOT
BRANCH   1   2
ATOM      2  C   UNL A   1      34.390  29.097  27.089  1.00  0.00     0.116 C 
BRANCH   2   3
ATOM      3  N   UNL A   1      34.282  29.157  25.640  1.00  0.00    -0.354 N 
ATOM      4  C   UNL A   1      33.428  28.499  24.799  1.00  0.00     0.242 C 
ATOM      5  O   UNL A   1      33.404  28.843  23.612  1.00  0.00    -0.273 OA
ATOM      6  H   UNL A   1      34.918  29.763  25.199  1.00  0.00     0.163 HD
BRANCH   4   7
ATOM      7  C   UNL A   1      32.558  27.315  25.284  1.00  0.00     0.171 C 
ATOM      8  C   UNL A   1      31.473  27.756  26.272  1.00  0.00     0.042 C 
BRANCH   7   9
ATOM      9  N   UNL A   1      32.046  26.365  24.278  1.00  0.00    -0.330 N 
ATOM     10  C   UNL A   1      33.037  19.984  25.230  1.00  0.00     0.226 C 
ATOM     11  O   UNL A   1      32.680  19.519  26.320  1.00  0.00    -0.275 OA
ATOM     12  N   UNL A   1      32.390  21.083  24.685  1.00  0.00    -0.342 N 
ATOM     13  C   UNL A   1      31.591  21.948  25.550  1.00  0.00     0.120 C 
ATOM     14  C   UNL A   1      32.343  21.458  23.278  1.00  0.00     0.120 C 
ATOM     15  C   UNL A   1      32.054  23.405  25.398  1.00  0.00     0.030 C 
ATOM     16  C   UNL A   1      32.923  22.851  23.096  1.00  0.00     0.030 C 
ATOM     17  C   UNL A   1      32.125  23.890  23.921  1.00  0.00    -0.008 C 
ATOM     18  C   UNL A   1      30.720  24.046  23.282  1.00  0.00     0.019 C 
ATOM     19  C   UNL A   1      32.867  25.242  23.854  1.00  0.00     0.127 C 
ATOM     20  C   UNL A   1      29.966  25.252  23.794  1.00  0.00     0.101 C 
ATOM     21  C   UNL A   1      30.802  26.498  23.692  1.00  0.00     0.223 C 
ATOM     22  O   UNL A   1      30.342  27.546  23.259  1.00  0.00    -0.275 OA
BRANCH  10  23
ATOM     23  C   UNL A   1      34.347  19.481  24.626  1.00  0.00     0.135 C 
BRANCH  23  24
ATOM     24  C   UNL A   1      35.624  20.206  24.955  1.00  0.00    -0.038 A 
ATOM     25  C   UNL A   1      36.690  23.786  25.736  1.00  0.00     0.044 C 
ATOM     26  C   UNL A   1      36.747  22.312  25.466  1.00  0.00    -0.051 A 
ATOM     27  C   UNL A   1      37.981  21.673  25.305  1.00  0.00     0.003 A 
ATOM     28  C   UNL A   1      35.574  21.566  25.317  1.00  0.00     0.007 A 
ATOM     29  C   UNL A   1      38.041  20.311  25.001  1.00  0.00     0.001 A 
ATOM     30  C   UNL A   1      36.867  19.577  24.829  1.00  0.00     0.004 A 
ENDBRANCH  23  24
ENDBRANCH  10  23
ENDBRANCH   7   9
ENDBRANCH   4   7
ENDBRANCH   2   3
ENDBRANCH   1   2
BRANCH   1  31
ATOM     31  C   UNL A   1      33.991  31.472  27.985  1.00  0.00     0.023 C 
BRANCH  31  32
ATOM     32  C   UNL A   1      34.604  32.862  28.050  1.00  0.00     0.116 C 
BRANCH  32  33
ATOM     33  N   UNL A   1      33.870  33.796  28.876  1.00  0.00    -0.352 N 
ATOM     34  C   UNL A   1      34.067  34.190  30.192  1.00  0.00     0.251 C 
ATOM     35  H   UNL A   1      33.103  34.223  28.430  1.00  0.00     0.163 HD
ATOM     36  O   UNL A   1      33.170  34.816  30.723  1.00  0.00    -0.269 OA
BRANCH  34  37
ATOM     37  C   UNL A   1      35.384  34.002  30.877  1.00  0.00     0.039 A 
ATOM     38  C   UNL A   1      36.533  34.448  30.201  1.00  0.00     0.014 A 
ATOM     39  C   UNL A   1      35.538  33.208  32.008  1.00  0.00     0.014 A 
ATOM     40  C   UNL A   1      37.773  33.873  30.477  1.00  0.00     0.010 A 
ATOM     41  C   UNL A   1      36.730  32.560  32.218  1.00  0.00     0.010 A 
ATOM     42  C   UNL A   1      37.820  32.835  31.392  1.00  0.00    -0.014 A 
BRANCH  42  43
ATOM     43  C   UNL A   1      38.913  31.894  31.543  1.00  0.00     0.031 A 
ATOM     44  C   UNL A   1      38.849  30.585  30.881  1.00  0.00     0.074 A 
ATOM     45  C   UNL A   1      40.077  32.399  31.999  1.00  0.00     0.049 A 
ATOM     46  N   UNL A   1      39.744  29.671  31.003  1.00  0.00    -0.248 NA
ATOM     47  C   UNL A   1      37.734  30.202  30.026  1.00  0.00     0.031 C 
ATOM     48  C   UNL A   1      41.433  31.904  31.783  1.00  0.00     0.029 A 
ATOM     49  N   UNL A   1      40.238  33.436  32.925  1.00  0.00    -0.354 N 
ATOM     50  C   UNL A   1      39.492  28.717  30.042  1.00  0.00     0.074 A 
ATOM     51  C   UNL A   1      38.175  29.035  29.549  1.00  0.00     0.031 C 
ATOM     52  C   UNL A   1      42.239  32.425  32.724  1.00  0.00     0.029 A 
ATOM     53  C   UNL A   1      41.375  33.091  33.683  1.00  0.00     0.049 A 
ATOM     54  H   UNL A   1      39.675  34.237  33.027  1.00  0.00     0.167 HD
ATOM     55  C   UNL A   1      40.508  27.877  29.696  1.00  0.00     0.034 A 
ATOM     56  C   UNL A   1      41.226  32.710  34.991  1.00  0.00     0.034 A 
ATOM     57  C   UNL A   1      41.639  28.032  30.633  1.00  0.00     0.049 A 
ATOM     58  C   UNL A   1      41.701  31.295  35.275  1.00  0.00     0.074 A 
ATOM     59  C   UNL A   1      42.857  28.687  30.561  1.00  0.00     0.029 A 
ATOM     60  N   UNL A   1      41.449  27.711  31.974  1.00  0.00    -0.354 N 
ATOM     61  N   UNL A   1      41.987  30.403  34.364  1.00  0.00    -0.248 NA
ATOM     62  C   UNL A   1      41.911  30.781  36.624  1.00  0.00     0.031 C 
ATOM     63  C   UNL A   1      43.355  28.835  31.888  1.00  0.00     0.029 A 
ATOM     64  C   UNL A   1      42.461  28.236  32.762  1.00  0.00     0.049 A 
ATOM     65  H   UNL A   1      40.695  27.178  32.318  1.00  0.00     0.167 HD
ATOM     66  C   UNL A   1      42.285  29.199  34.952  1.00  0.00     0.074 A 
ATOM     67  C   UNL A   1      42.307  29.520  36.371  1.00  0.00     0.031 C 
ATOM     68  C   UNL A   1      42.432  28.048  34.215  1.00  0.00     0.034 A 
BRANCH  55  69
ATOM     69  C   UNL A   1      40.622  27.091  28.393  1.00  0.00     0.023 A 
ATOM     70  C   UNL A   1      39.656  26.083  28.165  1.00  0.00     0.012 A 
ATOM     71  C   UNL A   1      41.639  27.187  27.410  1.00  0.00     0.148 A 
ATOM     72  C   UNL A   1      39.729  25.189  27.089  1.00  0.00     0.002 A 
ATOM     73  C   UNL A   1      41.725  26.288  26.340  1.00  0.00     0.091 A 
ATOM     74  F   UNL A   1      42.541  28.161  27.467  1.00  0.00    -0.205 F 
ATOM     75  C   UNL A   1      40.774  25.279  26.183  1.00  0.00     0.022 A 
BRANCH  73  76
ATOM     76  S   UNL A   1      43.066  26.338  25.132  1.00  0.00     0.127 S 
ATOM     77  O   UNL A   1      42.981  25.007  24.528  1.00  0.00    -0.237 OA
ATOM     78  O   UNL A   1      42.654  27.430  24.252  1.00  0.00    -0.237 OA
ATOM     79  O   UNL A   1      44.293  26.581  25.879  1.00  0.00    -0.744 OA
ENDBRANCH  73  76
ENDBRANCH  55  69
BRANCH  56  80
ATOM     80  C   UNL A   1      40.076  33.407  35.660  1.00  0.00     0.023 A 
ATOM     81  C   UNL A   1      38.814  32.759  35.596  1.00  0.00     0.012 A 
ATOM     82  C   UNL A   1      40.269  34.400  36.636  1.00  0.00     0.148 A 
ATOM     83  C   UNL A   1      37.851  32.955  36.588  1.00  0.00     0.002 A 
ATOM     84  C   UNL A   1      39.285  34.617  37.604  1.00  0.00     0.091 A 
ATOM     85  F   UNL A   1      41.420  35.086  36.641  1.00  0.00    -0.205 F 
ATOM     86  C   UNL A   1      38.104  33.857  37.614  1.00  0.00     0.022 A 
BRANCH  84  87
ATOM     87  S   UNL A   1      39.530  35.796  38.941  1.00  0.00     0.127 S 
ATOM     88  O   UNL A   1      39.285  37.065  38.260  1.00  0.00    -0.237 OA
ATOM     89  O   UNL A   1      38.499  35.415  39.908  1.00  0.00    -0.237 OA
ATOM     90  O   UNL A   1      40.891  35.563  39.402  1.00  0.00    -0.744 OA
ENDBRANCH  84  87
ENDBRANCH  56  80
BRANCH  68  91
ATOM     91  C   UNL A   1      42.535  26.622  34.762  1.00  0.00     0.023 A 
ATOM     92  C   UNL A   1      41.538  26.032  35.560  1.00  0.00     0.012 A 
ATOM     93  C   UNL A   1      43.610  25.766  34.385  1.00  0.00     0.148 A 
ATOM     94  C   UNL A   1      41.606  24.699  35.990  1.00  0.00     0.002 A 
ATOM     95  C   UNL A   1      43.614  24.411  34.716  1.00  0.00     0.091 A 
ATOM     96  F   UNL A   1      44.665  26.259  33.724  1.00  0.00    -0.205 F 
ATOM     97  C   UNL A   1      42.629  23.879  35.544  1.00  0.00     0.022 A 
BRANCH  95  98
ATOM     98  S   UNL A   1      44.793  23.273  33.970  1.00  0.00     0.127 S 
ATOM     99  O   UNL A   1      44.529  23.454  32.544  1.00  0.00    -0.237 OA
ATOM    100  O   UNL A   1      46.078  23.812  34.422  1.00  0.00    -0.237 OA
ATOM    101  O   UNL A   1      44.466  21.968  34.527  1.00  0.00    -0.744 OA
ENDBRANCH  95  98
ENDBRANCH  68  91
ENDBRANCH  42  43
ENDBRANCH  34  37
ENDBRANCH  32  33
ENDBRANCH  31  32
ENDBRANCH   1  31
TORSDOF 17
ENDMDL
