MODEL 1
REMARK VINA RESULT:     -12.4      0.000      0.000
REMARK SMILES Cn1cc(-c2ccn(Cc3ccc(C(=O)NCCCCNC(=O)c4ccc(-c5c6nc(c(-c7cccc(S(=O)(=O)[O-])c7F)c7ccc([nH]7)c(-c7cccc(S(=O)(=O)[O-])c7F)c7nc(c(-c8cccc(S(=O)(=O)[O-])c8F)c8ccc5[nH]8)C=C7)C=C6)cc4)cc3)n2)cn1
REMARK SMILES IDX 18 1 17 2 16 3 14 4 15 5 13 7 10 8 11 9 88 10 12 11 87 12
REMARK SMILES IDX 9 13 8 14 5 15 6 16 89 17 7 18 4 19 1 20 2 21 3 22 91 23
REMARK SMILES IDX 90 24 19 25 20 26 21 27 22 28 23 30 24 31 25 32 86 33 26 34
REMARK SMILES IDX 85 35 27 36 28 37 29 38 79 39 30 40 84 41 78 42 80 43 31 44
REMARK SMILES IDX 83 45 77 46 76 47 32 49 64 50 44 51 63 52 45 53 48 54 62 55
REMARK SMILES IDX 81 56 46 57 47 58 61 60 82 61 49 62 33 63 34 64 42 65 35 66
REMARK SMILES IDX 37 67 43 68 36 69 38 70 39 71 40 72 41 73 65 74 66 75 74 76
REMARK SMILES IDX 67 77 69 78 75 79 68 80 70 81 71 82 72 83 73 84 50 85 51 86
REMARK SMILES IDX 59 87 52 88 54 89 60 90 53 91 55 92 56 93 57 94 58 95
REMARK H PARENT 16 6 21 29 80 48 48 59
REMARK Flexibility Score: inf
ROOT
ATOM      1  C   UNL A   1      31.732  30.436  26.869  1.00  0.00     0.023 C 
ENDROOT
BRANCH   1   2
ATOM      2  C   UNL A   1      32.642  29.903  25.751  1.00  0.00     0.116 C 
BRANCH   2   3
ATOM      3  N   UNL A   1      31.863  29.460  24.610  1.00  0.00    -0.352 N 
ATOM      4  C   UNL A   1      31.712  28.233  24.014  1.00  0.00     0.251 C 
ATOM      5  O   UNL A   1      31.012  28.156  23.005  1.00  0.00    -0.269 OA
ATOM      6  H   UNL A   1      31.342  30.177  24.181  1.00  0.00     0.163 HD
BRANCH   4   7
ATOM      7  C   UNL A   1      32.337  26.986  24.538  1.00  0.00     0.039 A 
ATOM      8  C   UNL A   1      33.618  24.610  25.385  1.00  0.00    -0.026 A 
ATOM      9  C   UNL A   1      34.179  25.396  24.370  1.00  0.00     0.006 A 
ATOM     10  C   UNL A   1      32.446  25.059  26.004  1.00  0.00     0.006 A 
ATOM     11  C   UNL A   1      33.543  26.570  23.952  1.00  0.00     0.014 A 
ATOM     12  C   UNL A   1      31.824  26.241  25.598  1.00  0.00     0.014 A 
BRANCH   8  13
ATOM     13  C   UNL A   1      34.263  23.322  25.832  1.00  0.00     0.179 C 
BRANCH  13  14
ATOM     14  N   UNL A   1      33.700  22.129  25.200  1.00  0.00    -0.268 N 
ATOM     15  C   UNL A   1      33.435  20.077  24.747  1.00  0.00     0.095 A 
ATOM     16  C   UNL A   1      32.718  20.788  23.763  1.00  0.00     0.050 A 
ATOM     17  N   UNL A   1      34.083  20.888  25.585  1.00  0.00    -0.172 NA
ATOM     18  C   UNL A   1      32.908  22.113  24.080  1.00  0.00     0.110 A 
BRANCH  15  19
ATOM     19  C   UNL A   1      33.486  18.630  24.828  1.00  0.00     0.040 A 
ATOM     20  C   UNL A   1      32.553  15.261  25.648  1.00  0.00     0.173 C 
ATOM     21  N   UNL A   1      33.120  16.516  25.220  1.00  0.00    -0.275 N 
ATOM     22  C   UNL A   1      32.578  17.758  25.379  1.00  0.00     0.118 A 
ATOM     23  N   UNL A   1      34.321  16.523  24.613  1.00  0.00    -0.181 NA
ATOM     24  C   UNL A   1      34.538  17.820  24.362  1.00  0.00     0.145 A 
ENDBRANCH  15  19
ENDBRANCH  13  14
ENDBRANCH   8  13
ENDBRANCH   4   7
ENDBRANCH   2   3
ENDBRANCH   1   2
BRANCH   1  25
ATOM     25  C   UNL A   1      31.528  31.957  26.885  1.00  0.00     0.023 C 
BRANCH  25  26
ATOM     26  C   UNL A   1      32.788  32.769  27.157  1.00  0.00     0.116 C 
BRANCH  26  27
ATOM     27  N   UNL A   1      32.507  34.064  27.784  1.00  0.00    -0.352 N 
ATOM     28  C   UNL A   1      33.060  34.590  28.940  1.00  0.00     0.251 C 
ATOM     29  H   UNL A   1      31.842  34.630  27.327  1.00  0.00     0.163 HD
ATOM     30  O   UNL A   1      32.487  35.454  29.580  1.00  0.00    -0.269 OA
BRANCH  28  31
ATOM     31  C   UNL A   1      34.377  34.085  29.364  1.00  0.00     0.039 A 
ATOM     32  C   UNL A   1      34.520  33.207  30.441  1.00  0.00     0.014 A 
ATOM     33  C   UNL A   1      35.474  34.472  28.601  1.00  0.00     0.014 A 
ATOM     34  C   UNL A   1      35.773  32.655  30.686  1.00  0.00     0.010 A 
ATOM     35  C   UNL A   1      36.658  33.799  28.733  1.00  0.00     0.010 A 
ATOM     36  C   UNL A   1      36.835  32.940  29.811  1.00  0.00    -0.014 A 
BRANCH  36  37
ATOM     37  C   UNL A   1      38.117  32.261  29.940  1.00  0.00     0.031 A 
ATOM     38  C   UNL A   1      38.149  30.889  29.365  1.00  0.00     0.074 A 
ATOM     39  C   UNL A   1      39.240  32.900  30.336  1.00  0.00     0.049 A 
ATOM     40  N   UNL A   1      38.245  29.773  30.011  1.00  0.00    -0.248 NA
ATOM     41  C   UNL A   1      37.886  30.721  27.927  1.00  0.00     0.031 C 
ATOM     42  C   UNL A   1      39.424  34.335  30.602  1.00  0.00     0.029 A 
ATOM     43  N   UNL A   1      40.509  32.420  30.424  1.00  0.00    -0.354 N 
ATOM     44  C   UNL A   1      38.318  28.780  29.036  1.00  0.00     0.074 A 
ATOM     45  C   UNL A   1      37.866  29.390  27.814  1.00  0.00     0.031 C 
ATOM     46  C   UNL A   1      40.738  34.638  30.534  1.00  0.00     0.029 A 
ATOM     47  C   UNL A   1      41.491  33.406  30.404  1.00  0.00     0.049 A 
ATOM     48  H   UNL A   1      40.714  31.461  30.498  1.00  0.00     0.167 HD
ATOM     49  C   UNL A   1      39.001  27.623  29.263  1.00  0.00     0.034 A 
ATOM     50  C   UNL A   1      42.822  33.219  30.222  1.00  0.00     0.034 A 
ATOM     51  C   UNL A   1      39.295  27.460  30.668  1.00  0.00     0.049 A 
ATOM     52  C   UNL A   1      43.109  31.806  30.561  1.00  0.00     0.074 A 
ATOM     53  C   UNL A   1      38.541  27.437  31.826  1.00  0.00     0.029 A 
ATOM     54  N   UNL A   1      40.586  27.711  31.069  1.00  0.00    -0.354 N 
ATOM     55  N   UNL A   1      42.966  31.315  31.762  1.00  0.00    -0.248 NA
ATOM     56  C   UNL A   1      43.090  30.836  29.479  1.00  0.00     0.031 C 
ATOM     57  C   UNL A   1      39.311  28.181  32.770  1.00  0.00     0.029 A 
ATOM     58  C   UNL A   1      40.518  28.531  32.163  1.00  0.00     0.049 A 
ATOM     59  H   UNL A   1      41.407  27.365  30.649  1.00  0.00     0.167 HD
ATOM     60  C   UNL A   1      42.368  30.078  31.555  1.00  0.00     0.074 A 
ATOM     61  C   UNL A   1      42.564  29.796  30.131  1.00  0.00     0.031 C 
ATOM     62  C   UNL A   1      41.509  29.540  32.470  1.00  0.00     0.034 A 
BRANCH  49  63
ATOM     63  C   UNL A   1      39.755  26.828  28.216  1.00  0.00     0.023 A 
ATOM     64  C   UNL A   1      39.605  25.421  28.251  1.00  0.00     0.012 A 
ATOM     65  C   UNL A   1      40.797  27.336  27.409  1.00  0.00     0.148 A 
ATOM     66  C   UNL A   1      40.493  24.568  27.587  1.00  0.00     0.002 A 
ATOM     67  C   UNL A   1      41.630  26.487  26.687  1.00  0.00     0.091 A 
ATOM     68  F   UNL A   1      41.091  28.638  27.427  1.00  0.00    -0.205 F 
ATOM     69  C   UNL A   1      41.506  25.101  26.801  1.00  0.00     0.022 A 
BRANCH  67  70
ATOM     70  S   UNL A   1      42.926  27.123  25.616  1.00  0.00     0.127 S 
ATOM     71  O   UNL A   1      43.834  27.725  26.587  1.00  0.00    -0.237 OA
ATOM     72  O   UNL A   1      43.416  25.898  24.983  1.00  0.00    -0.237 OA
ATOM     73  O   UNL A   1      42.263  28.042  24.701  1.00  0.00    -0.744 OA
ENDBRANCH  67  70
ENDBRANCH  49  63
BRANCH  50  74
ATOM     74  C   UNL A   1      43.794  34.083  29.510  1.00  0.00     0.023 A 
ATOM     75  C   UNL A   1      44.624  34.958  30.237  1.00  0.00     0.012 A 
ATOM     76  C   UNL A   1      44.099  33.860  28.147  1.00  0.00     0.148 A 
ATOM     77  C   UNL A   1      45.734  35.568  29.637  1.00  0.00     0.002 A 
ATOM     78  C   UNL A   1      45.194  34.478  27.551  1.00  0.00     0.091 A 
ATOM     79  F   UNL A   1      43.375  32.967  27.460  1.00  0.00    -0.205 F 
ATOM     80  C   UNL A   1      46.023  35.323  28.297  1.00  0.00     0.022 A 
BRANCH  78  81
ATOM     81  S   UNL A   1      45.628  34.197  25.828  1.00  0.00     0.127 S 
ATOM     82  O   UNL A   1      44.402  34.597  25.138  1.00  0.00    -0.237 OA
ATOM     83  O   UNL A   1      46.757  35.103  25.648  1.00  0.00    -0.237 OA
ATOM     84  O   UNL A   1      45.932  32.774  25.726  1.00  0.00    -0.744 OA
ENDBRANCH  78  81
ENDBRANCH  50  74
BRANCH  62  85
ATOM     85  C   UNL A   1      41.386  30.194  33.825  1.00  0.00     0.023 A 
ATOM     86  C   UNL A   1      42.325  29.988  34.858  1.00  0.00     0.012 A 
ATOM     87  C   UNL A   1      40.413  31.194  33.988  1.00  0.00     0.148 A 
ATOM     88  C   UNL A   1      42.284  30.749  36.030  1.00  0.00     0.002 A 
ATOM     89  C   UNL A   1      40.403  31.981  35.132  1.00  0.00     0.091 A 
ATOM     90  F   UNL A   1      39.530  31.384  32.996  1.00  0.00    -0.205 F 
ATOM     91  C   UNL A   1      41.331  31.756  36.161  1.00  0.00     0.022 A 
BRANCH  89  92
ATOM     92  S   UNL A   1      39.284  33.374  35.301  1.00  0.00     0.127 S 
ATOM     93  O   UNL A   1      37.979  32.738  35.132  1.00  0.00    -0.237 OA
ATOM     94  O   UNL A   1      39.566  33.842  36.659  1.00  0.00    -0.237 OA
ATOM     95  O   UNL A   1      39.659  34.320  34.257  1.00  0.00    -0.744 OA
ENDBRANCH  89  92
ENDBRANCH  62  85
ENDBRANCH  36  37
ENDBRANCH  28  31
ENDBRANCH  26  27
ENDBRANCH  25  26
ENDBRANCH   1  25
TORSDOF 17
ENDMDL
MODEL 2
REMARK VINA RESULT:     -12.4      3.864      9.988
REMARK SMILES Cn1cc(-c2ccn(Cc3ccc(C(=O)NCCCCNC(=O)c4ccc(-c5c6nc(c(-c7cccc(S(=O)(=O)[O-])c7F)c7ccc([nH]7)c(-c7cccc(S(=O)(=O)[O-])c7F)c7nc(c(-c8cccc(S(=O)(=O)[O-])c8F)c8ccc5[nH]8)C=C7)C=C6)cc4)cc3)n2)cn1
REMARK SMILES IDX 18 1 17 2 16 3 14 4 15 5 13 7 10 8 11 9 88 10 12 11 87 12
REMARK SMILES IDX 9 13 8 14 5 15 6 16 89 17 7 18 4 19 1 20 2 21 3 22 91 23
REMARK SMILES IDX 90 24 19 25 20 26 21 27 22 28 23 30 24 31 25 32 86 33 26 34
REMARK SMILES IDX 85 35 27 36 28 37 29 38 79 39 30 40 84 41 78 42 80 43 31 44
REMARK SMILES IDX 83 45 77 46 76 47 32 49 64 50 44 51 63 52 45 53 48 54 62 55
REMARK SMILES IDX 81 56 46 57 47 58 61 60 82 61 49 62 33 63 34 64 42 65 35 66
REMARK SMILES IDX 37 67 43 68 36 69 38 70 39 71 40 72 41 73 65 74 66 75 74 76
REMARK SMILES IDX 67 77 69 78 75 79 68 80 70 81 71 82 72 83 73 84 50 85 51 86
REMARK SMILES IDX 59 87 52 88 54 89 60 90 53 91 55 92 56 93 57 94 58 95
REMARK H PARENT 16 6 21 29 80 48 48 59
REMARK Flexibility Score: inf
ROOT
ATOM      1  C   UNL A   1      37.219  20.969  24.845  1.00  0.00     0.023 C 
ENDROOT
BRANCH   1   2
ATOM      2  C   UNL A   1      35.740  20.582  24.990  1.00  0.00     0.116 C 
BRANCH   2   3
ATOM      3  N   UNL A   1      35.180  21.109  26.220  1.00  0.00    -0.352 N 
ATOM      4  C   UNL A   1      34.348  22.171  26.476  1.00  0.00     0.251 C 
ATOM      5  O   UNL A   1      34.070  22.425  27.648  1.00  0.00    -0.269 OA
ATOM      6  H   UNL A   1      35.448  20.610  27.026  1.00  0.00     0.163 HD
BRANCH   4   7
ATOM      7  C   UNL A   1      33.750  23.018  25.407  1.00  0.00     0.039 A 
ATOM      8  C   UNL A   1      32.731  24.754  23.420  1.00  0.00    -0.026 A 
ATOM      9  C   UNL A   1      34.010  24.960  23.953  1.00  0.00     0.006 A 
ATOM     10  C   UNL A   1      32.000  23.642  23.852  1.00  0.00     0.006 A 
ATOM     11  C   UNL A   1      34.511  24.100  24.938  1.00  0.00     0.014 A 
ATOM     12  C   UNL A   1      32.511  22.775  24.820  1.00  0.00     0.014 A 
BRANCH   8  13
ATOM     13  C   UNL A   1      32.150  25.683  22.383  1.00  0.00     0.179 C 
BRANCH  13  14
ATOM     14  N   UNL A   1      31.307  26.739  22.943  1.00  0.00    -0.268 N 
ATOM     15  C   UNL A   1      30.231  28.562  23.037  1.00  0.00     0.095 A 
ATOM     16  C   UNL A   1      30.299  28.082  24.360  1.00  0.00     0.050 A 
ATOM     17  N   UNL A   1      30.894  27.780  22.181  1.00  0.00    -0.172 NA
ATOM     18  C   UNL A   1      31.001  26.904  24.270  1.00  0.00     0.110 A 
BRANCH  15  19
ATOM     19  C   UNL A   1      29.542  29.777  22.646  1.00  0.00     0.040 A 
ATOM     20  C   UNL A   1      27.998  32.260  20.560  1.00  0.00     0.173 C 
ATOM     21  N   UNL A   1      28.568  31.409  21.577  1.00  0.00    -0.275 N 
ATOM     22  C   UNL A   1      29.135  30.182  21.397  1.00  0.00     0.118 A 
ATOM     23  N   UNL A   1      28.586  31.832  22.855  1.00  0.00    -0.181 NA
ATOM     24  C   UNL A   1      29.174  30.824  23.511  1.00  0.00     0.145 A 
ENDBRANCH  15  19
ENDBRANCH  13  14
ENDBRANCH   8  13
ENDBRANCH   4   7
ENDBRANCH   2   3
ENDBRANCH   1   2
BRANCH   1  25
ATOM     25  C   UNL A   1      38.223  19.817  24.997  1.00  0.00     0.023 C 
BRANCH  25  26
ATOM     26  C   UNL A   1      39.293  20.038  26.058  1.00  0.00     0.116 C 
BRANCH  26  27
ATOM     27  N   UNL A   1      40.475  19.195  25.858  1.00  0.00    -0.352 N 
ATOM     28  C   UNL A   1      41.801  19.590  25.780  1.00  0.00     0.251 C 
ATOM     29  H   UNL A   1      40.306  18.228  25.767  1.00  0.00     0.163 HD
ATOM     30  O   UNL A   1      42.636  18.898  25.223  1.00  0.00    -0.269 OA
BRANCH  28  31
ATOM     31  C   UNL A   1      42.177  20.866  26.410  1.00  0.00     0.039 A 
ATOM     32  C   UNL A   1      42.576  21.973  25.656  1.00  0.00     0.014 A 
ATOM     33  C   UNL A   1      42.056  20.945  27.794  1.00  0.00     0.014 A 
ATOM     34  C   UNL A   1      42.769  23.186  26.309  1.00  0.00     0.010 A 
ATOM     35  C   UNL A   1      42.073  22.170  28.403  1.00  0.00     0.010 A 
ATOM     36  C   UNL A   1      42.493  23.281  27.682  1.00  0.00    -0.014 A 
BRANCH  36  37
ATOM     37  C   UNL A   1      42.529  24.566  28.369  1.00  0.00     0.031 A 
ATOM     38  C   UNL A   1      41.324  25.413  28.155  1.00  0.00     0.074 A 
ATOM     39  C   UNL A   1      43.462  24.865  29.298  1.00  0.00     0.049 A 
ATOM     40  N   UNL A   1      41.255  26.520  27.492  1.00  0.00    -0.248 NA
ATOM     41  C   UNL A   1      40.016  24.900  28.591  1.00  0.00     0.031 C 
ATOM     42  C   UNL A   1      44.505  23.991  29.856  1.00  0.00     0.029 A 
ATOM     43  N   UNL A   1      43.572  25.980  30.069  1.00  0.00    -0.354 N 
ATOM     44  C   UNL A   1      39.947  26.972  27.651  1.00  0.00     0.074 A 
ATOM     45  C   UNL A   1      39.192  25.843  28.126  1.00  0.00     0.031 C 
ATOM     46  C   UNL A   1      44.927  24.493  31.036  1.00  0.00     0.029 A 
ATOM     47  C   UNL A   1      44.328  25.800  31.223  1.00  0.00     0.049 A 
ATOM     48  H   UNL A   1      43.155  26.839  29.831  1.00  0.00     0.167 HD
ATOM     49  C   UNL A   1      39.658  28.305  27.637  1.00  0.00     0.034 A 
ATOM     50  C   UNL A   1      44.396  26.638  32.286  1.00  0.00     0.034 A 
ATOM     51  C   UNL A   1      40.766  29.071  27.118  1.00  0.00     0.049 A 
ATOM     52  C   UNL A   1      43.963  27.973  31.811  1.00  0.00     0.074 A 
ATOM     53  C   UNL A   1      41.504  29.050  25.950  1.00  0.00     0.029 A 
ATOM     54  N   UNL A   1      41.532  29.759  28.030  1.00  0.00    -0.354 N 
ATOM     55  N   UNL A   1      44.624  28.665  30.924  1.00  0.00    -0.248 NA
ATOM     56  C   UNL A   1      42.559  28.319  31.959  1.00  0.00     0.031 C 
ATOM     57  C   UNL A   1      42.852  29.255  26.373  1.00  0.00     0.029 A 
ATOM     58  C   UNL A   1      42.843  29.479  27.751  1.00  0.00     0.049 A 
ATOM     59  H   UNL A   1      41.200  30.344  28.749  1.00  0.00     0.167 HD
ATOM     60  C   UNL A   1      43.639  29.177  30.087  1.00  0.00     0.074 A 
ATOM     61  C   UNL A   1      42.389  29.016  30.832  1.00  0.00     0.031 C 
ATOM     62  C   UNL A   1      43.876  29.397  28.760  1.00  0.00     0.034 A 
BRANCH  49  63
ATOM     63  C   UNL A   1      38.562  28.974  28.441  1.00  0.00     0.023 A 
ATOM     64  C   UNL A   1      37.738  29.896  27.754  1.00  0.00     0.012 A 
ATOM     65  C   UNL A   1      38.476  28.973  29.852  1.00  0.00     0.148 A 
ATOM     66  C   UNL A   1      36.938  30.821  28.435  1.00  0.00     0.002 A 
ATOM     67  C   UNL A   1      37.620  29.840  30.523  1.00  0.00     0.091 A 
ATOM     68  F   UNL A   1      39.314  28.231  30.577  1.00  0.00    -0.205 F 
ATOM     69  C   UNL A   1      36.876  30.791  29.821  1.00  0.00     0.022 A 
BRANCH  67  70
ATOM     70  S   UNL A   1      37.464  29.813  32.313  1.00  0.00     0.127 S 
ATOM     71  O   UNL A   1      36.288  30.653  32.515  1.00  0.00    -0.237 OA
ATOM     72  O   UNL A   1      37.261  28.387  32.571  1.00  0.00    -0.237 OA
ATOM     73  O   UNL A   1      38.723  30.338  32.824  1.00  0.00    -0.744 OA
ENDBRANCH  67  70
ENDBRANCH  49  63
BRANCH  50  74
ATOM     74  C   UNL A   1      44.527  26.308  33.726  1.00  0.00     0.023 A 
ATOM     75  C   UNL A   1      45.794  26.330  34.341  1.00  0.00     0.012 A 
ATOM     76  C   UNL A   1      43.387  26.234  34.559  1.00  0.00     0.148 A 
ATOM     77  C   UNL A   1      45.921  26.306  35.737  1.00  0.00     0.002 A 
ATOM     78  C   UNL A   1      43.517  26.197  35.945  1.00  0.00     0.091 A 
ATOM     79  F   UNL A   1      42.171  26.298  34.000  1.00  0.00    -0.205 F 
ATOM     80  C   UNL A   1      44.783  26.246  36.538  1.00  0.00     0.022 A 
BRANCH  78  81
ATOM     81  S   UNL A   1      42.089  26.130  37.036  1.00  0.00     0.127 S 
ATOM     82  O   UNL A   1      42.706  26.302  38.352  1.00  0.00    -0.237 OA
ATOM     83  O   UNL A   1      41.302  27.269  36.575  1.00  0.00    -0.237 OA
ATOM     84  O   UNL A   1      41.493  24.817  36.825  1.00  0.00    -0.744 OA
ENDBRANCH  78  81
ENDBRANCH  50  74
BRANCH  62  85
ATOM     85  C   UNL A   1      45.293  29.299  28.248  1.00  0.00     0.023 A 
ATOM     86  C   UNL A   1      45.843  28.097  27.753  1.00  0.00     0.012 A 
ATOM     87  C   UNL A   1      46.014  30.492  28.076  1.00  0.00     0.148 A 
ATOM     88  C   UNL A   1      47.088  28.085  27.117  1.00  0.00     0.002 A 
ATOM     89  C   UNL A   1      47.229  30.485  27.402  1.00  0.00     0.091 A 
ATOM     90  F   UNL A   1      45.478  31.628  28.546  1.00  0.00    -0.205 F 
ATOM     91  C   UNL A   1      47.775  29.281  26.929  1.00  0.00     0.022 A 
BRANCH  89  92
ATOM     92  S   UNL A   1      48.096  32.008  27.018  1.00  0.00     0.127 S 
ATOM     93  O   UNL A   1      49.344  31.511  26.443  1.00  0.00    -0.237 OA
ATOM     94  O   UNL A   1      47.194  32.651  26.061  1.00  0.00    -0.237 OA
ATOM     95  O   UNL A   1      48.230  32.724  28.281  1.00  0.00    -0.744 OA
ENDBRANCH  89  92
ENDBRANCH  62  85
ENDBRANCH  36  37
ENDBRANCH  28  31
ENDBRANCH  26  27
ENDBRANCH  25  26
ENDBRANCH   1  25
TORSDOF 17
ENDMDL
MODEL 3
REMARK VINA RESULT:     -12.2      3.912      9.944
REMARK SMILES Cn1cc(-c2ccn(Cc3ccc(C(=O)NCCCCNC(=O)c4ccc(-c5c6nc(c(-c7cccc(S(=O)(=O)[O-])c7F)c7ccc([nH]7)c(-c7cccc(S(=O)(=O)[O-])c7F)c7nc(c(-c8cccc(S(=O)(=O)[O-])c8F)c8ccc5[nH]8)C=C7)C=C6)cc4)cc3)n2)cn1
REMARK SMILES IDX 18 1 17 2 16 3 14 4 15 5 13 7 10 8 11 9 88 10 12 11 87 12
REMARK SMILES IDX 9 13 8 14 5 15 6 16 89 17 7 18 4 19 1 20 2 21 3 22 91 23
REMARK SMILES IDX 90 24 19 25 20 26 21 27 22 28 23 30 24 31 25 32 86 33 26 34
REMARK SMILES IDX 85 35 27 36 28 37 29 38 79 39 30 40 84 41 78 42 80 43 31 44
REMARK SMILES IDX 83 45 77 46 76 47 32 49 64 50 44 51 63 52 45 53 48 54 62 55
REMARK SMILES IDX 81 56 46 57 47 58 61 60 82 61 49 62 33 63 34 64 42 65 35 66
REMARK SMILES IDX 37 67 43 68 36 69 38 70 39 71 40 72 41 73 65 74 66 75 74 76
REMARK SMILES IDX 67 77 69 78 75 79 68 80 70 81 71 82 72 83 73 84 50 85 51 86
REMARK SMILES IDX 59 87 52 88 54 89 60 90 53 91 55 92 56 93 57 94 58 95
REMARK H PARENT 16 6 21 29 80 48 48 59
REMARK Flexibility Score: inf
ROOT
ATOM      1  C   UNL A   1      36.450  20.764  25.563  1.00  0.00     0.023 C 
ENDROOT
BRANCH   1   2
ATOM      2  C   UNL A   1      35.296  21.036  24.586  1.00  0.00     0.116 C 
BRANCH   2   3
ATOM      3  N   UNL A   1      34.196  20.115  24.807  1.00  0.00    -0.352 N 
ATOM      4  C   UNL A   1      32.835  20.290  24.827  1.00  0.00     0.251 C 
ATOM      5  O   UNL A   1      32.126  19.320  25.097  1.00  0.00    -0.269 OA
ATOM      6  H   UNL A   1      34.481  19.188  24.974  1.00  0.00     0.163 HD
BRANCH   4   7
ATOM      7  C   UNL A   1      32.171  21.587  24.519  1.00  0.00     0.039 A 
ATOM      8  C   UNL A   1      30.824  24.038  24.090  1.00  0.00    -0.026 A 
ATOM      9  C   UNL A   1      30.922  23.498  25.379  1.00  0.00     0.006 A 
ATOM     10  C   UNL A   1      31.455  23.365  23.036  1.00  0.00     0.006 A 
ATOM     11  C   UNL A   1      31.588  22.285  25.589  1.00  0.00     0.014 A 
ATOM     12  C   UNL A   1      32.135  22.165  23.252  1.00  0.00     0.014 A 
BRANCH   8  13
ATOM     13  C   UNL A   1      30.084  25.325  23.827  1.00  0.00     0.179 C 
BRANCH  13  14
ATOM     14  N   UNL A   1      30.927  26.518  23.910  1.00  0.00    -0.268 N 
ATOM     15  C   UNL A   1      32.044  28.086  24.794  1.00  0.00     0.095 A 
ATOM     16  C   UNL A   1      31.900  28.430  23.434  1.00  0.00     0.050 A 
ATOM     17  N   UNL A   1      31.402  26.956  25.100  1.00  0.00    -0.172 NA
ATOM     18  C   UNL A   1      31.173  27.399  22.888  1.00  0.00     0.110 A 
BRANCH  15  19
ATOM     19  C   UNL A   1      32.781  28.878  25.759  1.00  0.00     0.040 A 
ATOM     20  C   UNL A   1      33.768  31.682  27.775  1.00  0.00     0.173 C 
ATOM     21  N   UNL A   1      33.554  30.444  27.066  1.00  0.00    -0.275 N 
ATOM     22  C   UNL A   1      32.559  30.170  26.175  1.00  0.00     0.118 A 
ATOM     23  N   UNL A   1      34.412  29.423  27.251  1.00  0.00    -0.181 NA
ATOM     24  C   UNL A   1      33.928  28.459  26.457  1.00  0.00     0.145 A 
ENDBRANCH  15  19
ENDBRANCH  13  14
ENDBRANCH   8  13
ENDBRANCH   4   7
ENDBRANCH   2   3
ENDBRANCH   1   2
BRANCH   1  25
ATOM     25  C   UNL A   1      37.617  19.944  24.995  1.00  0.00     0.023 C 
BRANCH  25  26
ATOM     26  C   UNL A   1      39.001  20.441  25.394  1.00  0.00     0.116 C 
BRANCH  26  27
ATOM     27  N   UNL A   1      39.945  19.349  25.650  1.00  0.00    -0.352 N 
ATOM     28  C   UNL A   1      41.287  19.443  25.980  1.00  0.00     0.251 C 
ATOM     29  H   UNL A   1      39.579  18.437  25.580  1.00  0.00     0.163 HD
ATOM     30  O   UNL A   1      42.055  18.518  25.777  1.00  0.00    -0.269 OA
BRANCH  28  31
ATOM     31  C   UNL A   1      41.757  20.691  26.604  1.00  0.00     0.039 A 
ATOM     32  C   UNL A   1      42.382  21.697  25.863  1.00  0.00     0.014 A 
ATOM     33  C   UNL A   1      41.494  20.854  27.960  1.00  0.00     0.014 A 
ATOM     34  C   UNL A   1      42.661  22.907  26.490  1.00  0.00     0.010 A 
ATOM     35  C   UNL A   1      41.607  22.096  28.523  1.00  0.00     0.010 A 
ATOM     36  C   UNL A   1      42.249  23.107  27.818  1.00  0.00    -0.014 A 
BRANCH  36  37
ATOM     37  C   UNL A   1      42.380  24.409  28.458  1.00  0.00     0.031 A 
ATOM     38  C   UNL A   1      41.223  25.320  28.243  1.00  0.00     0.074 A 
ATOM     39  C   UNL A   1      43.353  24.682  29.354  1.00  0.00     0.049 A 
ATOM     40  N   UNL A   1      41.203  26.406  27.543  1.00  0.00    -0.248 NA
ATOM     41  C   UNL A   1      39.898  24.902  28.726  1.00  0.00     0.031 C 
ATOM     42  C   UNL A   1      44.354  23.766  29.917  1.00  0.00     0.029 A 
ATOM     43  N   UNL A   1      43.549  25.814  30.082  1.00  0.00    -0.354 N 
ATOM     44  C   UNL A   1      39.928  26.942  27.716  1.00  0.00     0.074 A 
ATOM     45  C   UNL A   1      39.120  25.878  28.248  1.00  0.00     0.031 C 
ATOM     46  C   UNL A   1      44.837  24.281  31.069  1.00  0.00     0.029 A 
ATOM     47  C   UNL A   1      44.321  25.627  31.224  1.00  0.00     0.049 A 
ATOM     48  H   UNL A   1      43.178  26.688  29.823  1.00  0.00     0.167 HD
ATOM     49  C   UNL A   1      39.720  28.288  27.662  1.00  0.00     0.034 A 
ATOM     50  C   UNL A   1      44.467  26.495  32.255  1.00  0.00     0.034 A 
ATOM     51  C   UNL A   1      40.858  28.968  27.090  1.00  0.00     0.049 A 
ATOM     52  C   UNL A   1      44.103  27.837  31.743  1.00  0.00     0.074 A 
ATOM     53  C   UNL A   1      41.564  28.863  25.906  1.00  0.00     0.029 A 
ATOM     54  N   UNL A   1      41.687  29.638  27.959  1.00  0.00    -0.354 N 
ATOM     55  N   UNL A   1      44.781  28.458  30.817  1.00  0.00    -0.248 NA
ATOM     56  C   UNL A   1      42.726  28.272  31.911  1.00  0.00     0.031 C 
ATOM     57  C   UNL A   1      42.932  29.000  26.291  1.00  0.00     0.029 A 
ATOM     58  C   UNL A   1      42.971  29.270  27.660  1.00  0.00     0.049 A 
ATOM     59  H   UNL A   1      41.409  30.267  28.665  1.00  0.00     0.167 HD
ATOM     60  C   UNL A   1      43.808  28.999  29.986  1.00  0.00     0.074 A 
ATOM     61  C   UNL A   1      42.569  28.940  30.765  1.00  0.00     0.031 C 
ATOM     62  C   UNL A   1      44.023  29.160  28.647  1.00  0.00     0.034 A 
BRANCH  49  63
ATOM     63  C   UNL A   1      38.686  29.049  28.467  1.00  0.00     0.023 A 
ATOM     64  C   UNL A   1      37.968  30.063  27.790  1.00  0.00     0.012 A 
ATOM     65  C   UNL A   1      38.583  29.031  29.877  1.00  0.00     0.148 A 
ATOM     66  C   UNL A   1      37.257  31.051  28.481  1.00  0.00     0.002 A 
ATOM     67  C   UNL A   1      37.810  29.967  30.556  1.00  0.00     0.091 A 
ATOM     68  F   UNL A   1      39.333  28.195  30.596  1.00  0.00    -0.205 F 
ATOM     69  C   UNL A   1      37.175  31.002  29.865  1.00  0.00     0.022 A 
BRANCH  67  70
ATOM     70  S   UNL A   1      37.630  29.923  32.343  1.00  0.00     0.127 S 
ATOM     71  O   UNL A   1      36.611  30.946  32.558  1.00  0.00    -0.237 OA
ATOM     72  O   UNL A   1      37.184  28.546  32.562  1.00  0.00    -0.237 OA
ATOM     73  O   UNL A   1      38.954  30.212  32.878  1.00  0.00    -0.744 OA
ENDBRANCH  67  70
ENDBRANCH  49  63
BRANCH  50  74
ATOM     74  C   UNL A   1      44.614  26.206  33.702  1.00  0.00     0.023 A 
ATOM     75  C   UNL A   1      45.887  26.252  34.302  1.00  0.00     0.012 A 
ATOM     76  C   UNL A   1      43.483  26.149  34.549  1.00  0.00     0.148 A 
ATOM     77  C   UNL A   1      46.029  26.269  35.697  1.00  0.00     0.002 A 
ATOM     78  C   UNL A   1      43.628  26.153  35.933  1.00  0.00     0.091 A 
ATOM     79  F   UNL A   1      42.262  26.192  34.001  1.00  0.00    -0.205 F 
ATOM     80  C   UNL A   1      44.900  26.225  36.512  1.00  0.00     0.022 A 
BRANCH  78  81
ATOM     81  S   UNL A   1      42.212  26.109  37.041  1.00  0.00     0.127 S 
ATOM     82  O   UNL A   1      41.434  27.261  36.584  1.00  0.00    -0.237 OA
ATOM     83  O   UNL A   1      41.624  24.811  36.729  1.00  0.00    -0.237 OA
ATOM     84  O   UNL A   1      42.758  26.254  38.385  1.00  0.00    -0.744 OA
ENDBRANCH  78  81
ENDBRANCH  50  74
BRANCH  62  85
ATOM     85  C   UNL A   1      45.418  28.959  28.105  1.00  0.00     0.023 A 
ATOM     86  C   UNL A   1      46.422  29.946  28.200  1.00  0.00     0.012 A 
ATOM     87  C   UNL A   1      45.777  27.671  27.673  1.00  0.00     0.148 A 
ATOM     88  C   UNL A   1      47.746  29.659  27.856  1.00  0.00     0.002 A 
ATOM     89  C   UNL A   1      47.102  27.375  27.379  1.00  0.00     0.091 A 
ATOM     90  F   UNL A   1      44.814  26.740  27.593  1.00  0.00    -0.205 F 
ATOM     91  C   UNL A   1      48.089  28.370  27.459  1.00  0.00     0.022 A 
BRANCH  89  92
ATOM     92  S   UNL A   1      47.623  25.704  26.987  1.00  0.00     0.127 S 
ATOM     93  O   UNL A   1      47.195  24.965  28.173  1.00  0.00    -0.237 OA
ATOM     94  O   UNL A   1      46.858  25.411  25.774  1.00  0.00    -0.237 OA
ATOM     95  O   UNL A   1      49.065  25.771  26.778  1.00  0.00    -0.744 OA
ENDBRANCH  89  92
ENDBRANCH  62  85
ENDBRANCH  36  37
ENDBRANCH  28  31
ENDBRANCH  26  27
ENDBRANCH  25  26
ENDBRANCH   1  25
TORSDOF 17
ENDMDL
