MODEL 1
REMARK VINA RESULT:     -12.4      0.000      0.000
REMARK SMILES C[C@H]1CC[C@@]2(CO)C(C(=O)NCCCCNC(=O)c3ccc(-c4c5nc(c(-c6cccc(S(=O)(=O)[O-])c6F)c6ccc([nH]6)c(-c6cccc(S(=O)(=O)[O-])c6F)c6nc(c(-c7cccc(S(=O)(=O)[O-])c7F)c7ccc4[nH]7)C=C6)C=C5)cc3)=C[C@@H](O)C[C@@H]2[C@@]1(C)CCc1ccoc1
REMARK SMILES IDX 13 1 12 2 11 3 9 4 10 5 8 7 1 8 2 9 3 10 87 11 4 12 86 13
REMARK SMILES IDX 88 14 5 15 85 16 83 17 82 18 89 19 90 20 91 21 92 22 95 23
REMARK SMILES IDX 93 24 94 25 6 26 7 27 84 29 14 31 15 32 16 33 17 34 18 36
REMARK SMILES IDX 19 37 20 38 81 39 21 40 80 41 22 42 23 43 24 44 74 45 25 46
REMARK SMILES IDX 79 47 73 48 75 49 26 50 78 51 72 52 71 53 27 55 59 56 39 57
REMARK SMILES IDX 58 58 40 59 43 60 57 61 76 62 41 63 42 64 56 66 77 67 44 68
REMARK SMILES IDX 28 69 29 70 37 71 30 72 32 73 38 74 31 75 33 76 34 77 35 78
REMARK SMILES IDX 36 79 60 80 61 81 69 82 62 83 64 84 70 85 63 86 65 87 66 88
REMARK SMILES IDX 67 89 68 90 45 91 46 92 54 93 47 94 49 95 55 96 48 97 50 98
REMARK SMILES IDX 51 99 52 100 53 101
REMARK H PARENT 11 6 7 28 84 30 16 35 75 54 43 65
REMARK Flexibility Score: inf
ROOT
ATOM      1  C   UNL A   1      36.030  22.620  23.342  1.00  0.00     0.023 C 
ENDROOT
BRANCH   1   2
ATOM      2  C   UNL A   1      34.553  23.009  23.205  1.00  0.00     0.116 C 
BRANCH   2   3
ATOM      3  N   UNL A   1      33.693  21.828  23.151  1.00  0.00    -0.352 N 
ATOM      4  C   UNL A   1      32.763  21.382  24.057  1.00  0.00     0.247 C 
ATOM      5  O   UNL A   1      32.119  20.357  23.874  1.00  0.00    -0.270 OA
ATOM      6  H   UNL A   1      33.797  21.269  22.347  1.00  0.00     0.163 HD
BRANCH   4   7
ATOM      7  C   UNL A   1      32.524  22.234  25.248  1.00  0.00     0.024 C 
ATOM      8  C   UNL A   1      32.597  25.866  22.605  1.00  0.00     0.008 C 
ATOM      9  C   UNL A   1      31.539  26.105  23.716  1.00  0.00    -0.008 C 
ATOM     10  C   UNL A   1      30.428  25.062  23.534  1.00  0.00     0.005 C 
ATOM     11  C   UNL A   1      32.099  26.129  25.209  1.00  0.00    -0.026 C 
ATOM     12  C   UNL A   1      30.924  23.645  23.811  1.00  0.00     0.015 C 
ATOM     13  C   UNL A   1      32.594  24.655  25.534  1.00  0.00     0.011 C 
ATOM     14  C   UNL A   1      30.972  26.543  26.189  1.00  0.00     0.012 C 
ATOM     15  C   UNL A   1      31.608  23.463  25.192  1.00  0.00     0.027 C 
ATOM     16  C   UNL A   1      33.227  24.470  26.946  1.00  0.00     0.041 C 
ATOM     17  C   UNL A   1      33.543  23.009  27.370  1.00  0.00     0.138 C 
ATOM     18  C   UNL A   1      33.291  21.978  26.324  1.00  0.00     0.014 C 
BRANCH  11  19
ATOM     19  C   UNL A   1      33.306  27.172  25.227  1.00  0.00     0.012 C 
BRANCH  19  20
ATOM     20  C   UNL A   1      33.201  28.583  24.616  1.00  0.00     0.039 C 
BRANCH  20  21
ATOM     21  C   UNL A   1      32.774  29.657  25.556  1.00  0.00    -0.010 A 
ATOM     22  C   UNL A   1      31.537  30.367  25.508  1.00  0.00     0.045 A 
ATOM     23  C   UNL A   1      33.429  30.155  26.662  1.00  0.00     0.198 A 
ATOM     24  C   UNL A   1      31.550  31.256  26.556  1.00  0.00     0.195 A 
ATOM     25  O   UNL A   1      32.700  31.129  27.264  1.00  0.00    -0.472 OA
ENDBRANCH  20  21
ENDBRANCH  19  20
ENDBRANCH  11  19
BRANCH  15  26
ATOM     26  C   UNL A   1      30.486  23.181  26.257  1.00  0.00     0.168 C 
BRANCH  26  27
ATOM     27  O   UNL A   1      29.936  21.870  26.206  1.00  0.00    -0.395 OA
ATOM     28  H   UNL A   1      29.867  21.584  25.281  1.00  0.00     0.210 HD
ENDBRANCH  26  27
ENDBRANCH  15  26
BRANCH  17  29
ATOM     29  O   UNL A   1      34.933  22.945  27.687  1.00  0.00    -0.389 OA
ATOM     30  H   UNL A   1      35.241  23.820  27.971  1.00  0.00     0.211 HD
ENDBRANCH  17  29
ENDBRANCH   4   7
ENDBRANCH   2   3
ENDBRANCH   1   2
BRANCH   1  31
ATOM     31  C   UNL A   1      36.260  21.484  24.333  1.00  0.00     0.023 C 
BRANCH  31  32
ATOM     32  C   UNL A   1      37.250  21.819  25.441  1.00  0.00     0.116 C 
BRANCH  32  33
ATOM     33  N   UNL A   1      38.283  20.806  25.627  1.00  0.00    -0.352 N 
ATOM     34  C   UNL A   1      39.517  20.959  26.228  1.00  0.00     0.251 C 
ATOM     35  H   UNL A   1      38.077  19.908  25.283  1.00  0.00     0.163 HD
ATOM     36  O   UNL A   1      40.330  20.049  26.252  1.00  0.00    -0.269 OA
BRANCH  34  37
ATOM     37  C   UNL A   1      39.843  22.279  26.807  1.00  0.00     0.039 A 
ATOM     38  C   UNL A   1      40.839  22.363  27.782  1.00  0.00     0.014 A 
ATOM     39  C   UNL A   1      39.256  23.432  26.280  1.00  0.00     0.014 A 
ATOM     40  C   UNL A   1      41.316  23.619  28.164  1.00  0.00     0.010 A 
ATOM     41  C   UNL A   1      39.788  24.674  26.602  1.00  0.00     0.010 A 
ATOM     42  C   UNL A   1      40.829  24.781  27.540  1.00  0.00    -0.014 A 
BRANCH  42  43
ATOM     43  C   UNL A   1      41.405  26.118  27.836  1.00  0.00     0.031 A 
ATOM     44  C   UNL A   1      42.808  26.441  27.399  1.00  0.00     0.074 A 
ATOM     45  C   UNL A   1      40.707  26.999  28.582  1.00  0.00     0.049 A 
ATOM     46  N   UNL A   1      43.519  27.512  27.635  1.00  0.00    -0.248 NA
ATOM     47  C   UNL A   1      43.520  25.407  26.626  1.00  0.00     0.031 C 
ATOM     48  C   UNL A   1      39.378  26.766  29.152  1.00  0.00     0.029 A 
ATOM     49  N   UNL A   1      41.033  28.260  29.015  1.00  0.00    -0.354 N 
ATOM     50  C   UNL A   1      44.765  27.269  27.071  1.00  0.00     0.074 A 
ATOM     51  C   UNL A   1      44.732  25.932  26.524  1.00  0.00     0.031 C 
ATOM     52  C   UNL A   1      39.001  27.848  29.853  1.00  0.00     0.029 A 
ATOM     53  C   UNL A   1      40.066  28.844  29.802  1.00  0.00     0.049 A 
ATOM     54  H   UNL A   1      41.880  28.707  28.785  1.00  0.00     0.167 HD
ATOM     55  C   UNL A   1      45.830  28.100  26.977  1.00  0.00     0.034 A 
ATOM     56  C   UNL A   1      40.042  30.047  30.410  1.00  0.00     0.034 A 
ATOM     57  C   UNL A   1      45.839  29.452  27.465  1.00  0.00     0.049 A 
ATOM     58  C   UNL A   1      41.207  30.981  30.219  1.00  0.00     0.074 A 
ATOM     59  C   UNL A   1      46.841  30.399  27.358  1.00  0.00     0.029 A 
ATOM     60  N   UNL A   1      44.789  30.053  28.139  1.00  0.00    -0.354 N 
ATOM     61  N   UNL A   1      42.318  30.787  29.549  1.00  0.00    -0.248 NA
ATOM     62  C   UNL A   1      41.101  32.315  30.829  1.00  0.00     0.031 C 
ATOM     63  C   UNL A   1      46.394  31.578  27.964  1.00  0.00     0.029 A 
ATOM     64  C   UNL A   1      45.110  31.364  28.441  1.00  0.00     0.049 A 
ATOM     65  H   UNL A   1      43.939  29.612  28.369  1.00  0.00     0.167 HD
ATOM     66  C   UNL A   1      43.023  31.984  29.625  1.00  0.00     0.074 A 
ATOM     67  C   UNL A   1      42.203  32.904  30.385  1.00  0.00     0.031 C 
ATOM     68  C   UNL A   1      44.249  32.287  29.132  1.00  0.00     0.034 A 
BRANCH  55  69
ATOM     69  C   UNL A   1      47.040  27.599  26.235  1.00  0.00     0.023 A 
ATOM     70  C   UNL A   1      47.980  26.801  26.922  1.00  0.00     0.012 A 
ATOM     71  C   UNL A   1      47.225  27.860  24.865  1.00  0.00     0.148 A 
ATOM     72  C   UNL A   1      49.102  26.300  26.266  1.00  0.00     0.002 A 
ATOM     73  C   UNL A   1      48.325  27.322  24.207  1.00  0.00     0.091 A 
ATOM     74  F   UNL A   1      46.330  28.635  24.234  1.00  0.00    -0.205 F 
ATOM     75  C   UNL A   1      49.269  26.553  24.907  1.00  0.00     0.022 A 
BRANCH  73  76
ATOM     76  S   UNL A   1      48.601  27.525  22.443  1.00  0.00     0.127 S 
ATOM     77  O   UNL A   1      48.637  26.135  21.988  1.00  0.00    -0.237 OA
ATOM     78  O   UNL A   1      47.411  28.270  22.031  1.00  0.00    -0.237 OA
ATOM     79  O   UNL A   1      49.853  28.256  22.312  1.00  0.00    -0.744 OA
ENDBRANCH  73  76
ENDBRANCH  55  69
BRANCH  56  80
ATOM     80  C   UNL A   1      38.842  30.477  31.186  1.00  0.00     0.023 A 
ATOM     81  C   UNL A   1      38.773  30.191  32.564  1.00  0.00     0.012 A 
ATOM     82  C   UNL A   1      37.777  31.167  30.576  1.00  0.00     0.148 A 
ATOM     83  C   UNL A   1      37.649  30.544  33.311  1.00  0.00     0.002 A 
ATOM     84  C   UNL A   1      36.682  31.563  31.339  1.00  0.00     0.091 A 
ATOM     85  F   UNL A   1      37.847  31.419  29.262  1.00  0.00    -0.205 F 
ATOM     86  C   UNL A   1      36.608  31.237  32.702  1.00  0.00     0.022 A 
BRANCH  84  87
ATOM     87  S   UNL A   1      35.367  32.575  30.650  1.00  0.00     0.127 S 
ATOM     88  O   UNL A   1      34.375  32.549  31.719  1.00  0.00    -0.237 OA
ATOM     89  O   UNL A   1      36.033  33.864  30.458  1.00  0.00    -0.237 OA
ATOM     90  O   UNL A   1      34.993  31.912  29.406  1.00  0.00    -0.744 OA
ENDBRANCH  84  87
ENDBRANCH  56  80
BRANCH  68  91
ATOM     91  C   UNL A   1      44.768  33.680  29.360  1.00  0.00     0.023 A 
ATOM     92  C   UNL A   1      45.549  33.954  30.499  1.00  0.00     0.012 A 
ATOM     93  C   UNL A   1      44.555  34.692  28.404  1.00  0.00     0.148 A 
ATOM     94  C   UNL A   1      46.088  35.224  30.698  1.00  0.00     0.002 A 
ATOM     95  C   UNL A   1      45.133  35.943  28.587  1.00  0.00     0.091 A 
ATOM     96  F   UNL A   1      43.792  34.416  27.336  1.00  0.00    -0.205 F 
ATOM     97  C   UNL A   1      45.891  36.213  29.738  1.00  0.00     0.022 A 
BRANCH  95  98
ATOM     98  S   UNL A   1      45.008  37.245  27.356  1.00  0.00     0.127 S 
ATOM     99  O   UNL A   1      43.613  37.129  26.939  1.00  0.00    -0.237 OA
ATOM    100  O   UNL A   1      45.315  38.445  28.136  1.00  0.00    -0.237 OA
ATOM    101  O   UNL A   1      45.998  36.923  26.336  1.00  0.00    -0.744 OA
ENDBRANCH  95  98
ENDBRANCH  68  91
ENDBRANCH  42  43
ENDBRANCH  34  37
ENDBRANCH  32  33
ENDBRANCH  31  32
ENDBRANCH   1  31
TORSDOF 20
ENDMDL
MODEL 2
REMARK VINA RESULT:     -12.3      5.520      8.866
REMARK SMILES C[C@H]1CC[C@@]2(CO)C(C(=O)NCCCCNC(=O)c3ccc(-c4c5nc(c(-c6cccc(S(=O)(=O)[O-])c6F)c6ccc([nH]6)c(-c6cccc(S(=O)(=O)[O-])c6F)c6nc(c(-c7cccc(S(=O)(=O)[O-])c7F)c7ccc4[nH]7)C=C6)C=C5)cc3)=C[C@@H](O)C[C@@H]2[C@@]1(C)CCc1ccoc1
REMARK SMILES IDX 13 1 12 2 11 3 9 4 10 5 8 7 1 8 2 9 3 10 87 11 4 12 86 13
REMARK SMILES IDX 88 14 5 15 85 16 83 17 82 18 89 19 90 20 91 21 92 22 95 23
REMARK SMILES IDX 93 24 94 25 6 26 7 27 84 29 14 31 15 32 16 33 17 34 18 36
REMARK SMILES IDX 19 37 20 38 81 39 21 40 80 41 22 42 23 43 24 44 74 45 25 46
REMARK SMILES IDX 79 47 73 48 75 49 26 50 78 51 72 52 71 53 27 55 59 56 39 57
REMARK SMILES IDX 58 58 40 59 43 60 57 61 76 62 41 63 42 64 56 66 77 67 44 68
REMARK SMILES IDX 28 69 29 70 37 71 30 72 32 73 38 74 31 75 33 76 34 77 35 78
REMARK SMILES IDX 36 79 60 80 61 81 69 82 62 83 64 84 70 85 63 86 65 87 66 88
REMARK SMILES IDX 67 89 68 90 45 91 46 92 54 93 47 94 49 95 55 96 48 97 50 98
REMARK SMILES IDX 51 99 52 100 53 101
REMARK H PARENT 11 6 7 28 84 30 16 35 75 54 43 65
REMARK Flexibility Score: inf
ROOT
ATOM      1  C   UNL A   1      31.454  30.964  26.140  1.00  0.00     0.023 C 
ENDROOT
BRANCH   1   2
ATOM      2  C   UNL A   1      31.442  29.848  25.088  1.00  0.00     0.116 C 
BRANCH   2   3
ATOM      3  N   UNL A   1      32.786  29.579  24.581  1.00  0.00    -0.352 N 
ATOM      4  C   UNL A   1      33.277  28.459  23.958  1.00  0.00     0.247 C 
ATOM      5  O   UNL A   1      34.443  28.379  23.593  1.00  0.00    -0.270 OA
ATOM      6  H   UNL A   1      33.436  30.309  24.706  1.00  0.00     0.163 HD
BRANCH   4   7
ATOM      7  C   UNL A   1      32.313  27.365  23.685  1.00  0.00     0.024 C 
ATOM      8  C   UNL A   1      35.209  24.432  25.474  1.00  0.00     0.008 C 
ATOM      9  C   UNL A   1      33.774  23.977  25.852  1.00  0.00    -0.008 C 
ATOM     10  C   UNL A   1      33.158  25.066  26.741  1.00  0.00     0.005 C 
ATOM     11  C   UNL A   1      32.826  23.596  24.627  1.00  0.00    -0.026 C 
ATOM     12  C   UNL A   1      32.931  26.367  25.975  1.00  0.00     0.015 C 
ATOM     13  C   UNL A   1      32.548  24.942  23.830  1.00  0.00     0.011 C 
ATOM     14  C   UNL A   1      31.495  23.002  25.155  1.00  0.00     0.012 C 
ATOM     15  C   UNL A   1      32.103  26.208  24.672  1.00  0.00     0.027 C 
ATOM     16  C   UNL A   1      31.666  24.780  22.555  1.00  0.00     0.041 C 
ATOM     17  C   UNL A   1      31.215  26.095  21.862  1.00  0.00     0.138 C 
ATOM     18  C   UNL A   1      31.770  27.346  22.455  1.00  0.00     0.014 C 
BRANCH  11  19
ATOM     19  C   UNL A   1      33.628  22.541  23.740  1.00  0.00     0.012 C 
BRANCH  19  20
ATOM     20  C   UNL A   1      34.421  21.367  24.347  1.00  0.00     0.039 C 
BRANCH  20  21
ATOM     21  C   UNL A   1      33.697  20.066  24.399  1.00  0.00    -0.010 A 
ATOM     22  C   UNL A   1      34.291  18.786  24.610  1.00  0.00     0.045 A 
ATOM     23  C   UNL A   1      32.344  19.821  24.301  1.00  0.00     0.198 A 
ATOM     24  C   UNL A   1      33.268  17.868  24.591  1.00  0.00     0.195 A 
ATOM     25  O   UNL A   1      32.080  18.494  24.405  1.00  0.00    -0.472 OA
ENDBRANCH  20  21
ENDBRANCH  19  20
ENDBRANCH  11  19
BRANCH  15  26
ATOM     26  C   UNL A   1      30.578  26.273  25.053  1.00  0.00     0.168 C 
BRANCH  26  27
ATOM     27  O   UNL A   1      30.319  26.642  26.401  1.00  0.00    -0.395 OA
ATOM     28  H   UNL A   1      29.524  27.199  26.436  1.00  0.00     0.210 HD
ENDBRANCH  26  27
ENDBRANCH  15  26
BRANCH  17  29
ATOM     29  O   UNL A   1      31.664  26.045  20.509  1.00  0.00    -0.389 OA
ATOM     30  H   UNL A   1      30.915  26.203  19.913  1.00  0.00     0.211 HD
ENDBRANCH  17  29
ENDBRANCH   4   7
ENDBRANCH   2   3
ENDBRANCH   1   2
BRANCH   1  31
ATOM     31  C   UNL A   1      32.505  30.755  27.224  1.00  0.00     0.023 C 
BRANCH  31  32
ATOM     32  C   UNL A   1      33.510  31.894  27.340  1.00  0.00     0.116 C 
BRANCH  32  33
ATOM     33  N   UNL A   1      32.891  33.204  27.511  1.00  0.00    -0.352 N 
ATOM     34  C   UNL A   1      33.201  34.168  28.448  1.00  0.00     0.251 C 
ATOM     35  H   UNL A   1      32.166  33.426  26.884  1.00  0.00     0.163 HD
ATOM     36  O   UNL A   1      32.552  35.199  28.540  1.00  0.00    -0.269 OA
BRANCH  34  37
ATOM     37  C   UNL A   1      34.321  33.896  29.373  1.00  0.00     0.039 A 
ATOM     38  C   UNL A   1      34.088  33.117  30.508  1.00  0.00     0.014 A 
ATOM     39  C   UNL A   1      35.614  34.300  29.033  1.00  0.00     0.014 A 
ATOM     40  C   UNL A   1      35.175  32.661  31.257  1.00  0.00     0.010 A 
ATOM     41  C   UNL A   1      36.695  33.777  29.732  1.00  0.00     0.010 A 
ATOM     42  C   UNL A   1      36.488  32.947  30.846  1.00  0.00    -0.014 A 
BRANCH  42  43
ATOM     43  C   UNL A   1      37.663  32.371  31.551  1.00  0.00     0.031 A 
ATOM     44  C   UNL A   1      38.437  31.246  30.919  1.00  0.00     0.074 A 
ATOM     45  C   UNL A   1      37.969  32.789  32.795  1.00  0.00     0.049 A 
ATOM     46  N   UNL A   1      39.432  30.554  31.407  1.00  0.00    -0.248 NA
ATOM     47  C   UNL A   1      38.012  30.817  29.574  1.00  0.00     0.031 C 
ATOM     48  C   UNL A   1      37.233  33.802  33.558  1.00  0.00     0.029 A 
ATOM     49  N   UNL A   1      38.964  32.392  33.654  1.00  0.00    -0.354 N 
ATOM     50  C   UNL A   1      39.729  29.592  30.450  1.00  0.00     0.074 A 
ATOM     51  C   UNL A   1      38.779  29.756  29.373  1.00  0.00     0.031 C 
ATOM     52  C   UNL A   1      37.805  33.948  34.765  1.00  0.00     0.029 A 
ATOM     53  C   UNL A   1      38.933  33.029  34.874  1.00  0.00     0.049 A 
ATOM     54  H   UNL A   1      39.638  31.713  33.420  1.00  0.00     0.167 HD
ATOM     55  C   UNL A   1      40.730  28.681  30.445  1.00  0.00     0.034 A 
ATOM     56  C   UNL A   1      39.727  32.890  35.955  1.00  0.00     0.034 A 
ATOM     57  C   UNL A   1      41.713  28.562  31.487  1.00  0.00     0.049 A 
ATOM     58  C   UNL A   1      40.882  31.926  35.887  1.00  0.00     0.074 A 
ATOM     59  C   UNL A   1      42.808  27.719  31.545  1.00  0.00     0.029 A 
ATOM     60  N   UNL A   1      41.727  29.320  32.646  1.00  0.00    -0.354 N 
ATOM     61  N   UNL A   1      41.237  31.131  34.906  1.00  0.00    -0.248 NA
ATOM     62  C   UNL A   1      41.772  31.868  37.057  1.00  0.00     0.031 C 
ATOM     63  C   UNL A   1      43.489  27.972  32.740  1.00  0.00     0.029 A 
ATOM     64  C   UNL A   1      42.820  28.977  33.420  1.00  0.00     0.049 A 
ATOM     65  H   UNL A   1      41.057  30.001  32.884  1.00  0.00     0.167 HD
ATOM     66  C   UNL A   1      42.409  30.511  35.324  1.00  0.00     0.074 A 
ATOM     67  C   UNL A   1      42.717  31.039  36.636  1.00  0.00     0.031 C 
ATOM     68  C   UNL A   1      43.151  29.569  34.690  1.00  0.00     0.034 A 
BRANCH  55  69
ATOM     69  C   UNL A   1      40.867  27.805  29.228  1.00  0.00     0.023 A 
ATOM     70  C   UNL A   1      40.124  26.607  29.162  1.00  0.00     0.012 A 
ATOM     71  C   UNL A   1      41.673  28.180  28.137  1.00  0.00     0.148 A 
ATOM     72  C   UNL A   1      40.207  25.780  28.044  1.00  0.00     0.002 A 
ATOM     73  C   UNL A   1      41.718  27.370  27.007  1.00  0.00     0.091 A 
ATOM     74  F   UNL A   1      42.385  29.313  28.226  1.00  0.00    -0.205 F 
ATOM     75  C   UNL A   1      40.996  26.166  26.964  1.00  0.00     0.022 A 
BRANCH  73  76
ATOM     76  S   UNL A   1      42.645  27.807  25.532  1.00  0.00     0.127 S 
ATOM     77  O   UNL A   1      42.483  26.605  24.715  1.00  0.00    -0.237 OA
ATOM     78  O   UNL A   1      41.915  28.978  25.046  1.00  0.00    -0.237 OA
ATOM     79  O   UNL A   1      44.005  28.078  25.975  1.00  0.00    -0.744 OA
ENDBRANCH  73  76
ENDBRANCH  55  69
BRANCH  56  80
ATOM     80  C   UNL A   1      39.514  33.740  37.162  1.00  0.00     0.023 A 
ATOM     81  C   UNL A   1      40.020  35.055  37.177  1.00  0.00     0.012 A 
ATOM     82  C   UNL A   1      38.816  33.263  38.288  1.00  0.00     0.148 A 
ATOM     83  C   UNL A   1      39.873  35.863  38.304  1.00  0.00     0.002 A 
ATOM     84  C   UNL A   1      38.627  34.094  39.388  1.00  0.00     0.091 A 
ATOM     85  F   UNL A   1      38.354  32.005  38.267  1.00  0.00    -0.205 F 
ATOM     86  C   UNL A   1      39.169  35.387  39.406  1.00  0.00     0.022 A 
BRANCH  84  87
ATOM     87  S   UNL A   1      37.617  33.592  40.787  1.00  0.00     0.127 S 
ATOM     88  O   UNL A   1      36.443  33.034  40.127  1.00  0.00    -0.237 OA
ATOM     89  O   UNL A   1      38.475  32.610  41.454  1.00  0.00    -0.237 OA
ATOM     90  O   UNL A   1      37.406  34.812  41.558  1.00  0.00    -0.744 OA
ENDBRANCH  84  87
ENDBRANCH  56  80
BRANCH  68  91
ATOM     91  C   UNL A   1      44.391  29.075  35.383  1.00  0.00     0.023 A 
ATOM     92  C   UNL A   1      45.623  29.716  35.148  1.00  0.00     0.012 A 
ATOM     93  C   UNL A   1      44.319  28.034  36.329  1.00  0.00     0.148 A 
ATOM     94  C   UNL A   1      46.772  29.310  35.825  1.00  0.00     0.002 A 
ATOM     95  C   UNL A   1      45.460  27.666  37.032  1.00  0.00     0.091 A 
ATOM     96  F   UNL A   1      43.141  27.424  36.523  1.00  0.00    -0.205 F 
ATOM     97  C   UNL A   1      46.688  28.295  36.774  1.00  0.00     0.022 A 
BRANCH  95  98
ATOM     98  S   UNL A   1      45.423  26.433  38.339  1.00  0.00     0.127 S 
ATOM     99  O   UNL A   1      46.739  26.603  38.949  1.00  0.00    -0.237 OA
ATOM    100  O   UNL A   1      44.304  26.886  39.166  1.00  0.00    -0.237 OA
ATOM    101  O   UNL A   1      45.199  25.156  37.674  1.00  0.00    -0.744 OA
ENDBRANCH  95  98
ENDBRANCH  68  91
ENDBRANCH  42  43
ENDBRANCH  34  37
ENDBRANCH  32  33
ENDBRANCH  31  32
ENDBRANCH   1  31
TORSDOF 20
ENDMDL
MODEL 3
REMARK VINA RESULT:     -12.0      1.690      2.480
REMARK SMILES C[C@H]1CC[C@@]2(CO)C(C(=O)NCCCCNC(=O)c3ccc(-c4c5nc(c(-c6cccc(S(=O)(=O)[O-])c6F)c6ccc([nH]6)c(-c6cccc(S(=O)(=O)[O-])c6F)c6nc(c(-c7cccc(S(=O)(=O)[O-])c7F)c7ccc4[nH]7)C=C6)C=C5)cc3)=C[C@@H](O)C[C@@H]2[C@@]1(C)CCc1ccoc1
REMARK SMILES IDX 13 1 12 2 11 3 9 4 10 5 8 7 1 8 2 9 3 10 87 11 4 12 86 13
REMARK SMILES IDX 88 14 5 15 85 16 83 17 82 18 89 19 90 20 91 21 92 22 95 23
REMARK SMILES IDX 93 24 94 25 6 26 7 27 84 29 14 31 15 32 16 33 17 34 18 36
REMARK SMILES IDX 19 37 20 38 81 39 21 40 80 41 22 42 23 43 24 44 74 45 25 46
REMARK SMILES IDX 79 47 73 48 75 49 26 50 78 51 72 52 71 53 27 55 59 56 39 57
REMARK SMILES IDX 58 58 40 59 43 60 57 61 76 62 41 63 42 64 56 66 77 67 44 68
REMARK SMILES IDX 28 69 29 70 37 71 30 72 32 73 38 74 31 75 33 76 34 77 35 78
REMARK SMILES IDX 36 79 60 80 61 81 69 82 62 83 64 84 70 85 63 86 65 87 66 88
REMARK SMILES IDX 67 89 68 90 45 91 46 92 54 93 47 94 49 95 55 96 48 97 50 98
REMARK SMILES IDX 51 99 52 100 53 101
REMARK H PARENT 11 6 7 28 84 30 16 35 75 54 43 65
REMARK Flexibility Score: inf
ROOT
ATOM      1  C   UNL A   1      36.823  20.327  24.878  1.00  0.00     0.023 C 
ENDROOT
BRANCH   1   2
ATOM      2  C   UNL A   1      35.351  20.653  25.161  1.00  0.00     0.116 C 
BRANCH   2   3
ATOM      3  N   UNL A   1      35.205  21.441  26.384  1.00  0.00    -0.352 N 
ATOM      4  C   UNL A   1      34.239  22.355  26.725  1.00  0.00     0.247 C 
ATOM      5  O   UNL A   1      34.256  22.947  27.795  1.00  0.00    -0.270 OA
ATOM      6  H   UNL A   1      35.904  21.296  27.063  1.00  0.00     0.163 HD
BRANCH   4   7
ATOM      7  C   UNL A   1      33.129  22.549  25.760  1.00  0.00     0.024 C 
ATOM      8  C   UNL A   1      33.863  26.980  25.882  1.00  0.00     0.008 C 
ATOM      9  C   UNL A   1      33.454  26.604  24.433  1.00  0.00    -0.008 C 
ATOM     10  C   UNL A   1      34.537  25.675  23.869  1.00  0.00     0.005 C 
ATOM     11  C   UNL A   1      31.991  25.988  24.266  1.00  0.00    -0.026 C 
ATOM     12  C   UNL A   1      34.571  24.331  24.591  1.00  0.00     0.015 C 
ATOM     13  C   UNL A   1      32.008  24.572  24.984  1.00  0.00     0.011 C 
ATOM     14  C   UNL A   1      31.658  25.821  22.762  1.00  0.00     0.012 C 
ATOM     15  C   UNL A   1      33.206  23.594  24.638  1.00  0.00     0.027 C 
ATOM     16  C   UNL A   1      30.646  23.813  24.975  1.00  0.00     0.041 C 
ATOM     17  C   UNL A   1      30.673  22.350  25.494  1.00  0.00     0.138 C 
ATOM     18  C   UNL A   1      31.986  21.892  26.030  1.00  0.00     0.014 C 
BRANCH  11  19
ATOM     19  C   UNL A   1      30.987  26.999  24.982  1.00  0.00     0.012 C 
BRANCH  19  20
ATOM     20  C   UNL A   1      30.966  28.511  24.683  1.00  0.00     0.039 C 
BRANCH  20  21
ATOM     21  C   UNL A   1      29.848  28.977  23.816  1.00  0.00    -0.010 A 
ATOM     22  C   UNL A   1      28.865  28.145  23.200  1.00  0.00     0.045 A 
ATOM     23  C   UNL A   1      29.500  30.263  23.463  1.00  0.00     0.198 A 
ATOM     24  C   UNL A   1      28.025  28.977  22.501  1.00  0.00     0.195 A 
ATOM     25  O   UNL A   1      28.406  30.269  22.659  1.00  0.00    -0.472 OA
ENDBRANCH  20  21
ENDBRANCH  19  20
ENDBRANCH  11  19
BRANCH  15  26
ATOM     26  C   UNL A   1      33.051  22.770  23.307  1.00  0.00     0.168 C 
BRANCH  26  27
ATOM     27  O   UNL A   1      33.955  23.139  22.273  1.00  0.00    -0.395 OA
ATOM     28  H   UNL A   1      34.396  23.971  22.510  1.00  0.00     0.210 HD
ENDBRANCH  26  27
ENDBRANCH  15  26
BRANCH  17  29
ATOM     29  O   UNL A   1      29.735  22.256  26.565  1.00  0.00    -0.389 OA
ATOM     30  H   UNL A   1      28.965  22.814  26.371  1.00  0.00     0.211 HD
ENDBRANCH  17  29
ENDBRANCH   4   7
ENDBRANCH   2   3
ENDBRANCH   1   2
BRANCH   1  31
ATOM     31  C   UNL A   1      37.717  21.561  24.860  1.00  0.00     0.023 C 
BRANCH  31  32
ATOM     32  C   UNL A   1      38.731  21.608  25.996  1.00  0.00     0.116 C 
BRANCH  32  33
ATOM     33  N   UNL A   1      39.589  20.430  26.062  1.00  0.00    -0.352 N 
ATOM     34  C   UNL A   1      40.935  20.381  26.367  1.00  0.00     0.251 C 
ATOM     35  H   UNL A   1      39.158  19.567  25.865  1.00  0.00     0.163 HD
ATOM     36  O   UNL A   1      41.563  19.336  26.310  1.00  0.00    -0.269 OA
BRANCH  34  37
ATOM     37  C   UNL A   1      41.607  21.648  26.723  1.00  0.00     0.039 A 
ATOM     38  C   UNL A   1      42.019  22.507  25.702  1.00  0.00     0.014 A 
ATOM     39  C   UNL A   1      41.696  22.033  28.063  1.00  0.00     0.014 A 
ATOM     40  C   UNL A   1      42.438  23.799  26.026  1.00  0.00     0.010 A 
ATOM     41  C   UNL A   1      42.035  23.344  28.374  1.00  0.00     0.010 A 
ATOM     42  C   UNL A   1      42.402  24.243  27.359  1.00  0.00    -0.014 A 
BRANCH  42  43
ATOM     43  C   UNL A   1      42.722  25.649  27.716  1.00  0.00     0.031 A 
ATOM     44  C   UNL A   1      44.139  26.144  27.609  1.00  0.00     0.074 A 
ATOM     45  C   UNL A   1      41.763  26.445  28.230  1.00  0.00     0.049 A 
ATOM     46  N   UNL A   1      44.635  27.303  27.954  1.00  0.00    -0.248 NA
ATOM     47  C   UNL A   1      45.137  25.198  27.079  1.00  0.00     0.031 C 
ATOM     48  C   UNL A   1      40.373  26.052  28.480  1.00  0.00     0.029 A 
ATOM     49  N   UNL A   1      41.818  27.747  28.665  1.00  0.00    -0.354 N 
ATOM     50  C   UNL A   1      46.001  27.214  27.715  1.00  0.00     0.074 A 
ATOM     51  C   UNL A   1      46.265  25.874  27.242  1.00  0.00     0.031 C 
ATOM     52  C   UNL A   1      39.709  27.089  29.017  1.00  0.00     0.029 A 
ATOM     53  C   UNL A   1      40.625  28.214  29.171  1.00  0.00     0.049 A 
ATOM     54  H   UNL A   1      42.634  28.296  28.621  1.00  0.00     0.167 HD
ATOM     55  C   UNL A   1      46.947  28.175  27.835  1.00  0.00     0.034 A 
ATOM     56  C   UNL A   1      40.308  29.415  29.695  1.00  0.00     0.034 A 
ATOM     57  C   UNL A   1      46.674  29.525  28.244  1.00  0.00     0.049 A 
ATOM     58  C   UNL A   1      41.363  30.489  29.740  1.00  0.00     0.074 A 
ATOM     59  C   UNL A   1      47.549  30.593  28.331  1.00  0.00     0.029 A 
ATOM     60  N   UNL A   1      45.426  29.997  28.618  1.00  0.00    -0.354 N 
ATOM     61  N   UNL A   1      42.617  30.429  29.363  1.00  0.00    -0.248 NA
ATOM     62  C   UNL A   1      40.950  31.809  30.240  1.00  0.00     0.031 C 
ATOM     63  C   UNL A   1      46.827  31.714  28.754  1.00  0.00     0.029 A 
ATOM     64  C   UNL A   1      45.503  31.344  28.923  1.00  0.00     0.049 A 
ATOM     65  H   UNL A   1      44.606  29.454  28.662  1.00  0.00     0.167 HD
ATOM     66  C   UNL A   1      43.131  31.708  29.545  1.00  0.00     0.074 A 
ATOM     67  C   UNL A   1      42.046  32.528  30.042  1.00  0.00     0.031 C 
ATOM     68  C   UNL A   1      44.394  32.159  29.343  1.00  0.00     0.034 A 
BRANCH  55  69
ATOM     69  C   UNL A   1      48.353  27.822  27.427  1.00  0.00     0.023 A 
ATOM     70  C   UNL A   1      49.268  27.408  28.419  1.00  0.00     0.012 A 
ATOM     71  C   UNL A   1      48.756  27.841  26.079  1.00  0.00     0.148 A 
ATOM     72  C   UNL A   1      50.571  27.052  28.080  1.00  0.00     0.002 A 
ATOM     73  C   UNL A   1      50.046  27.445  25.744  1.00  0.00     0.091 A 
ATOM     74  F   UNL A   1      47.878  28.254  25.154  1.00  0.00    -0.205 F 
ATOM     75  C   UNL A   1      50.956  27.061  26.742  1.00  0.00     0.022 A 
BRANCH  73  76
ATOM     76  S   UNL A   1      50.625  27.351  24.046  1.00  0.00     0.127 S 
ATOM     77  O   UNL A   1      51.801  26.492  24.183  1.00  0.00    -0.237 OA
ATOM     78  O   UNL A   1      49.490  26.726  23.368  1.00  0.00    -0.237 OA
ATOM     79  O   UNL A   1      50.901  28.721  23.637  1.00  0.00    -0.744 OA
ENDBRANCH  73  76
ENDBRANCH  55  69
BRANCH  56  80
ATOM     80  C   UNL A   1      38.913  29.699  30.142  1.00  0.00     0.023 A 
ATOM     81  C   UNL A   1      38.523  29.350  31.450  1.00  0.00     0.012 A 
ATOM     82  C   UNL A   1      37.975  30.313  29.289  1.00  0.00     0.148 A 
ATOM     83  C   UNL A   1      37.216  29.567  31.887  1.00  0.00     0.002 A 
ATOM     84  C   UNL A   1      36.688  30.574  29.750  1.00  0.00     0.091 A 
ATOM     85  F   UNL A   1      38.354  30.625  28.042  1.00  0.00    -0.205 F 
ATOM     86  C   UNL A   1      36.301  30.186  31.041  1.00  0.00     0.022 A 
BRANCH  84  87
ATOM     87  S   UNL A   1      35.499  31.488  28.761  1.00  0.00     0.127 S 
ATOM     88  O   UNL A   1      34.571  31.972  29.777  1.00  0.00    -0.237 OA
ATOM     89  O   UNL A   1      36.334  32.522  28.146  1.00  0.00    -0.237 OA
ATOM     90  O   UNL A   1      34.968  30.515  27.813  1.00  0.00    -0.744 OA
ENDBRANCH  84  87
ENDBRANCH  56  80
BRANCH  68  91
ATOM     91  C   UNL A   1      44.668  33.613  29.618  1.00  0.00     0.023 A 
ATOM     92  C   UNL A   1      45.118  34.007  30.893  1.00  0.00     0.012 A 
ATOM     93  C   UNL A   1      44.565  34.571  28.592  1.00  0.00     0.148 A 
ATOM     94  C   UNL A   1      45.434  35.340  31.151  1.00  0.00     0.002 A 
ATOM     95  C   UNL A   1      44.925  35.890  28.844  1.00  0.00     0.091 A 
ATOM     96  F   UNL A   1      44.116  34.178  27.390  1.00  0.00    -0.205 F 
ATOM     97  C   UNL A   1      45.349  36.277  30.125  1.00  0.00     0.022 A 
BRANCH  95  98
ATOM     98  S   UNL A   1      44.935  37.143  27.556  1.00  0.00     0.127 S 
ATOM     99  O   UNL A   1      45.314  38.338  28.305  1.00  0.00    -0.237 OA
ATOM    100  O   UNL A   1      45.963  36.644  26.641  1.00  0.00    -0.237 OA
ATOM    101  O   UNL A   1      43.589  37.150  26.998  1.00  0.00    -0.744 OA
ENDBRANCH  95  98
ENDBRANCH  68  91
ENDBRANCH  42  43
ENDBRANCH  34  37
ENDBRANCH  32  33
ENDBRANCH  31  32
ENDBRANCH   1  31
TORSDOF 20
ENDMDL
