MODEL 1
REMARK VINA RESULT:     -12.3      0.000      0.000
REMARK SMILES CC(C)(C)OC(=O)N[C@@H](Cc1c[nH]c2cccc(Cl)c12)C(=O)NCCCCNC(=O)c1ccc(-c2c3nc(c(-c4cccc(S(=O)(=O)[O-])c4F)c4ccc([nH]4)c(-c4cccc(S(=O)(=O)[O-])c4F)c4nc(c(-c5cccc(S(=O)(=O)[O-])c5F)c5ccc2[nH]5)C=C4)C=C3)cc1
REMARK SMILES IDX 25 1 24 2 23 3 21 4 22 5 9 7 8 8 6 9 7 10 5 12 2 13 1 14
REMARK SMILES IDX 3 15 4 16 10 17 11 18 12 19 20 20 13 21 14 22 18 23 15 25
REMARK SMILES IDX 17 26 19 27 16 28 26 29 27 30 28 31 29 32 30 34 31 35 32 36
REMARK SMILES IDX 93 37 33 38 92 39 34 40 35 41 36 42 86 43 37 44 91 45 85 46
REMARK SMILES IDX 87 47 38 48 90 49 84 50 83 51 39 53 71 54 51 55 70 56 52 57
REMARK SMILES IDX 55 58 69 59 88 60 53 61 54 62 68 64 89 65 56 66 40 67 41 68
REMARK SMILES IDX 49 69 42 70 44 71 50 72 43 73 45 74 46 75 47 76 48 77 72 78
REMARK SMILES IDX 73 79 81 80 74 81 76 82 82 83 75 84 77 85 78 86 79 87 80 88
REMARK SMILES IDX 57 89 58 90 66 91 59 92 61 93 67 94 60 95 62 96 63 97 64 98
REMARK SMILES IDX 65 99
REMARK H PARENT 23 6 8 11 13 24 28 33 87 52 55 63
REMARK Flexibility Score: inf
ROOT
ATOM      1  C   UNL A   1      31.985  28.953  27.119  1.00  0.00     0.023 C 
ENDROOT
BRANCH   1   2
ATOM      2  C   UNL A   1      31.853  27.663  26.318  1.00  0.00     0.116 C 
BRANCH   2   3
ATOM      3  N   UNL A   1      30.773  26.800  26.746  1.00  0.00    -0.354 N 
ATOM      4  C   UNL A   1      30.176  25.756  26.092  1.00  0.00     0.243 C 
ATOM      5  O   UNL A   1      29.509  24.978  26.784  1.00  0.00    -0.273 OA
ATOM      6  H   UNL A   1      30.413  26.993  27.641  1.00  0.00     0.163 HD
BRANCH   4   7
ATOM      7  C   UNL A   1      30.355  25.486  24.575  1.00  0.00     0.179 C 
BRANCH   7   8
ATOM      8  N   UNL A   1      30.561  24.065  24.303  1.00  0.00    -0.309 N 
ATOM      9  C   UNL A   1      31.689  23.324  24.483  1.00  0.00     0.408 C 
ATOM     10  O   UNL A   1      31.646  22.110  24.401  1.00  0.00    -0.225 OA
ATOM     11  H   UNL A   1      29.784  23.580  23.944  1.00  0.00     0.167 HD
BRANCH   9  12
ATOM     12  O   UNL A   1      32.803  24.071  24.687  1.00  0.00    -0.444 OA
BRANCH  12  13
ATOM     13  C   UNL A   1      33.690  24.349  23.572  1.00  0.00     0.106 C 
ATOM     14  C   UNL A   1      33.881  25.874  23.569  1.00  0.00     0.056 C 
ATOM     15  C   UNL A   1      33.051  23.950  22.233  1.00  0.00     0.056 C 
ATOM     16  C   UNL A   1      35.059  23.689  23.773  1.00  0.00     0.056 C 
ENDBRANCH  12  13
ENDBRANCH   9  12
ENDBRANCH   7   8
BRANCH   7  17
ATOM     17  C   UNL A   1      29.309  26.172  23.670  1.00  0.00     0.073 C 
BRANCH  17  18
ATOM     18  C   UNL A   1      29.685  27.493  23.054  1.00  0.00    -0.019 A 
ATOM     19  C   UNL A   1      30.905  27.732  22.445  1.00  0.00     0.087 A 
ATOM     20  C   UNL A   1      28.921  28.717  22.937  1.00  0.00     0.021 A 
ATOM     21  N   UNL A   1      30.958  29.039  22.054  1.00  0.00    -0.361 N 
ATOM     22  C   UNL A   1      29.796  29.683  22.412  1.00  0.00     0.047 A 
ATOM     23  C   UNL A   1      27.613  29.166  23.238  1.00  0.00     0.050 A 
ATOM     24  H   UNL A   1      31.716  29.459  21.588  1.00  0.00     0.166 HD
ATOM     25  C   UNL A   1      29.458  31.038  22.274  1.00  0.00     0.027 A 
ATOM     26  C   UNL A   1      27.239  30.503  23.077  1.00  0.00     0.021 A 
ATOM     27  Cl  UNL A   1      26.464  28.020  23.774  1.00  0.00    -0.084 Cl
ATOM     28  C   UNL A   1      28.164  31.434  22.621  1.00  0.00     0.004 A 
ENDBRANCH  17  18
ENDBRANCH   7  17
ENDBRANCH   4   7
ENDBRANCH   2   3
ENDBRANCH   1   2
BRANCH   1  29
ATOM     29  C   UNL A   1      32.882  30.020  26.485  1.00  0.00     0.023 C 
BRANCH  29  30
ATOM     30  C   UNL A   1      34.154  30.313  27.271  1.00  0.00     0.116 C 
BRANCH  30  31
ATOM     31  N   UNL A   1      34.014  31.457  28.170  1.00  0.00    -0.352 N 
ATOM     32  C   UNL A   1      34.761  31.728  29.296  1.00  0.00     0.251 C 
ATOM     33  H   UNL A   1      33.307  32.105  27.948  1.00  0.00     0.163 HD
ATOM     34  O   UNL A   1      34.372  32.523  30.142  1.00  0.00    -0.269 OA
BRANCH  32  35
ATOM     35  C   UNL A   1      36.079  31.088  29.425  1.00  0.00     0.039 A 
ATOM     36  C   UNL A   1      36.205  29.727  29.725  1.00  0.00     0.014 A 
ATOM     37  C   UNL A   1      37.200  31.911  29.295  1.00  0.00     0.014 A 
ATOM     38  C   UNL A   1      37.478  29.193  29.879  1.00  0.00     0.010 A 
ATOM     39  C   UNL A   1      38.453  31.370  29.346  1.00  0.00     0.010 A 
ATOM     40  C   UNL A   1      38.583  30.032  29.701  1.00  0.00    -0.014 A 
BRANCH  40  41
ATOM     41  C   UNL A   1      39.938  29.542  29.838  1.00  0.00     0.031 A 
ATOM     42  C   UNL A   1      40.460  29.588  31.230  1.00  0.00     0.074 A 
ATOM     43  C   UNL A   1      40.493  28.841  28.826  1.00  0.00     0.049 A 
ATOM     44  N   UNL A   1      41.438  30.302  31.684  1.00  0.00    -0.248 NA
ATOM     45  C   UNL A   1      39.703  28.884  32.282  1.00  0.00     0.031 C 
ATOM     46  C   UNL A   1      39.871  28.441  27.556  1.00  0.00     0.029 A 
ATOM     47  N   UNL A   1      41.677  28.182  28.793  1.00  0.00    -0.354 N 
ATOM     48  C   UNL A   1      41.560  29.945  33.024  1.00  0.00     0.074 A 
ATOM     49  C   UNL A   1      40.339  29.277  33.387  1.00  0.00     0.031 C 
ATOM     50  C   UNL A   1      40.567  27.411  27.025  1.00  0.00     0.029 A 
ATOM     51  C   UNL A   1      41.735  27.159  27.849  1.00  0.00     0.049 A 
ATOM     52  H   UNL A   1      42.431  28.407  29.384  1.00  0.00     0.167 HD
ATOM     53  C   UNL A   1      42.759  29.956  33.668  1.00  0.00     0.034 A 
ATOM     54  C   UNL A   1      42.617  26.126  27.846  1.00  0.00     0.034 A 
ATOM     55  C   UNL A   1      43.769  30.637  32.908  1.00  0.00     0.049 A 
ATOM     56  C   UNL A   1      43.763  26.552  28.693  1.00  0.00     0.074 A 
ATOM     57  C   UNL A   1      43.898  31.915  32.401  1.00  0.00     0.029 A 
ATOM     58  N   UNL A   1      44.629  29.848  32.176  1.00  0.00    -0.354 N 
ATOM     59  N   UNL A   1      44.517  27.581  28.413  1.00  0.00    -0.248 NA
ATOM     60  C   UNL A   1      43.745  26.150  30.093  1.00  0.00     0.031 C 
ATOM     61  C   UNL A   1      44.426  31.731  31.091  1.00  0.00     0.029 A 
ATOM     62  C   UNL A   1      44.671  30.367  30.908  1.00  0.00     0.049 A 
ATOM     63  H   UNL A   1      45.121  29.061  32.503  1.00  0.00     0.167 HD
ATOM     64  C   UNL A   1      44.696  28.221  29.634  1.00  0.00     0.074 A 
ATOM     65  C   UNL A   1      44.265  27.251  30.642  1.00  0.00     0.031 C 
ATOM     66  C   UNL A   1      44.866  29.574  29.713  1.00  0.00     0.034 A 
BRANCH  53  67
ATOM     67  C   UNL A   1      43.104  29.048  34.814  1.00  0.00     0.023 A 
ATOM     68  C   UNL A   1      43.633  29.621  35.986  1.00  0.00     0.012 A 
ATOM     69  C   UNL A   1      43.143  27.638  34.705  1.00  0.00     0.148 A 
ATOM     70  C   UNL A   1      44.163  28.825  37.009  1.00  0.00     0.002 A 
ATOM     71  C   UNL A   1      43.592  26.849  35.754  1.00  0.00     0.091 A 
ATOM     72  F   UNL A   1      42.869  27.060  33.530  1.00  0.00    -0.205 F 
ATOM     73  C   UNL A   1      44.123  27.438  36.903  1.00  0.00     0.022 A 
BRANCH  71  74
ATOM     74  S   UNL A   1      43.522  25.056  35.680  1.00  0.00     0.127 S 
ATOM     75  O   UNL A   1      44.519  24.766  34.654  1.00  0.00    -0.237 OA
ATOM     76  O   UNL A   1      43.907  24.686  37.043  1.00  0.00    -0.237 OA
ATOM     77  O   UNL A   1      42.141  24.737  35.342  1.00  0.00    -0.744 OA
ENDBRANCH  71  74
ENDBRANCH  53  67
BRANCH  54  78
ATOM     78  C   UNL A   1      42.358  24.697  27.502  1.00  0.00     0.023 A 
ATOM     79  C   UNL A   1      41.105  24.114  27.789  1.00  0.00     0.012 A 
ATOM     80  C   UNL A   1      43.233  23.969  26.661  1.00  0.00     0.148 A 
ATOM     81  C   UNL A   1      40.735  22.873  27.241  1.00  0.00     0.002 A 
ATOM     82  C   UNL A   1      42.876  22.727  26.146  1.00  0.00     0.091 A 
ATOM     83  F   UNL A   1      44.382  24.535  26.272  1.00  0.00    -0.205 F 
ATOM     84  C   UNL A   1      41.619  22.179  26.419  1.00  0.00     0.022 A 
BRANCH  82  85
ATOM     85  S   UNL A   1      44.001  21.787  25.100  1.00  0.00     0.127 S 
ATOM     86  O   UNL A   1      43.958  22.544  23.849  1.00  0.00    -0.237 OA
ATOM     87  O   UNL A   1      45.256  21.885  25.837  1.00  0.00    -0.237 OA
ATOM     88  O   UNL A   1      43.424  20.450  25.007  1.00  0.00    -0.744 OA
ENDBRANCH  82  85
ENDBRANCH  54  78
BRANCH  66  89
ATOM     89  C   UNL A   1      45.019  30.366  28.437  1.00  0.00     0.023 A 
ATOM     90  C   UNL A   1      43.906  30.811  27.689  1.00  0.00     0.012 A 
ATOM     91  C   UNL A   1      46.283  30.902  28.152  1.00  0.00     0.148 A 
ATOM     92  C   UNL A   1      44.050  31.780  26.690  1.00  0.00     0.002 A 
ATOM     93  C   UNL A   1      46.418  31.892  27.186  1.00  0.00     0.091 A 
ATOM     94  F   UNL A   1      47.322  30.484  28.890  1.00  0.00    -0.205 F 
ATOM     95  C   UNL A   1      45.304  32.333  26.452  1.00  0.00     0.022 A 
BRANCH  93  96
ATOM     96  S   UNL A   1      47.975  32.737  26.911  1.00  0.00     0.127 S 
ATOM     97  O   UNL A   1      48.848  31.639  26.502  1.00  0.00    -0.237 OA
ATOM     98  O   UNL A   1      47.630  33.677  25.844  1.00  0.00    -0.237 OA
ATOM     99  O   UNL A   1      48.327  33.367  28.178  1.00  0.00    -0.744 OA
ENDBRANCH  93  96
ENDBRANCH  66  89
ENDBRANCH  40  41
ENDBRANCH  32  35
ENDBRANCH  30  31
ENDBRANCH  29  30
ENDBRANCH   1  29
TORSDOF 19
ENDMDL
MODEL 2
REMARK VINA RESULT:     -12.1      3.678      7.589
REMARK SMILES CC(C)(C)OC(=O)N[C@@H](Cc1c[nH]c2cccc(Cl)c12)C(=O)NCCCCNC(=O)c1ccc(-c2c3nc(c(-c4cccc(S(=O)(=O)[O-])c4F)c4ccc([nH]4)c(-c4cccc(S(=O)(=O)[O-])c4F)c4nc(c(-c5cccc(S(=O)(=O)[O-])c5F)c5ccc2[nH]5)C=C4)C=C3)cc1
REMARK SMILES IDX 25 1 24 2 23 3 21 4 22 5 9 7 8 8 6 9 7 10 5 12 2 13 1 14
REMARK SMILES IDX 3 15 4 16 10 17 11 18 12 19 20 20 13 21 14 22 18 23 15 25
REMARK SMILES IDX 17 26 19 27 16 28 26 29 27 30 28 31 29 32 30 34 31 35 32 36
REMARK SMILES IDX 93 37 33 38 92 39 34 40 35 41 36 42 86 43 37 44 91 45 85 46
REMARK SMILES IDX 87 47 38 48 90 49 84 50 83 51 39 53 71 54 51 55 70 56 52 57
REMARK SMILES IDX 55 58 69 59 88 60 53 61 54 62 68 64 89 65 56 66 40 67 41 68
REMARK SMILES IDX 49 69 42 70 44 71 50 72 43 73 45 74 46 75 47 76 48 77 72 78
REMARK SMILES IDX 73 79 81 80 74 81 76 82 82 83 75 84 77 85 78 86 79 87 80 88
REMARK SMILES IDX 57 89 58 90 66 91 59 92 61 93 67 94 60 95 62 96 63 97 64 98
REMARK SMILES IDX 65 99
REMARK H PARENT 23 6 8 11 13 24 28 33 87 52 55 63
REMARK Flexibility Score: inf
ROOT
ATOM      1  C   UNL A   1      35.552  23.074  25.699  1.00  0.00     0.023 C 
ENDROOT
BRANCH   1   2
ATOM      2  C   UNL A   1      34.708  24.279  25.300  1.00  0.00     0.116 C 
BRANCH   2   3
ATOM      3  N   UNL A   1      34.750  24.599  23.889  1.00  0.00    -0.354 N 
ATOM      4  C   UNL A   1      33.736  24.969  23.046  1.00  0.00     0.243 C 
ATOM      5  O   UNL A   1      34.070  25.498  21.979  1.00  0.00    -0.273 OA
ATOM      6  H   UNL A   1      35.639  24.540  23.473  1.00  0.00     0.163 HD
BRANCH   4   7
ATOM      7  C   UNL A   1      32.235  24.814  23.398  1.00  0.00     0.179 C 
BRANCH   7   8
ATOM      8  N   UNL A   1      31.439  25.917  22.862  1.00  0.00    -0.309 N 
ATOM      9  C   UNL A   1      31.310  27.180  23.350  1.00  0.00     0.408 C 
ATOM     10  O   UNL A   1      30.773  28.045  22.681  1.00  0.00    -0.225 OA
ATOM     11  H   UNL A   1      30.933  25.720  22.042  1.00  0.00     0.167 HD
BRANCH   9  12
ATOM     12  O   UNL A   1      31.769  27.324  24.619  1.00  0.00    -0.444 OA
BRANCH  12  13
ATOM     13  C   UNL A   1      32.843  28.263  24.887  1.00  0.00     0.106 C 
ATOM     14  C   UNL A   1      32.156  29.540  25.395  1.00  0.00     0.056 C 
ATOM     15  C   UNL A   1      33.612  28.618  23.605  1.00  0.00     0.056 C 
ATOM     16  C   UNL A   1      33.774  27.742  25.989  1.00  0.00     0.056 C 
ENDBRANCH  12  13
ENDBRANCH   9  12
ENDBRANCH   7   8
BRANCH   7  17
ATOM     17  C   UNL A   1      31.651  23.408  23.133  1.00  0.00     0.073 C 
BRANCH  17  18
ATOM     18  C   UNL A   1      31.878  22.354  24.183  1.00  0.00    -0.019 A 
ATOM     19  C   UNL A   1      31.832  22.608  25.543  1.00  0.00     0.087 A 
ATOM     20  C   UNL A   1      32.150  20.939  24.039  1.00  0.00     0.021 A 
ATOM     21  N   UNL A   1      32.148  21.465  26.220  1.00  0.00    -0.361 N 
ATOM     22  C   UNL A   1      32.424  20.454  25.329  1.00  0.00     0.047 A 
ATOM     23  C   UNL A   1      32.245  19.995  22.990  1.00  0.00     0.050 A 
ATOM     24  H   UNL A   1      32.176  21.378  27.199  1.00  0.00     0.166 HD
ATOM     25  C   UNL A   1      32.862  19.145  25.584  1.00  0.00     0.027 A 
ATOM     26  C   UNL A   1      32.644  18.675  23.221  1.00  0.00     0.021 A 
ATOM     27  Cl  UNL A   1      31.816  20.488  21.410  1.00  0.00    -0.084 Cl
ATOM     28  C   UNL A   1      32.973  18.264  24.506  1.00  0.00     0.004 A 
ENDBRANCH  17  18
ENDBRANCH   7  17
ENDBRANCH   4   7
ENDBRANCH   2   3
ENDBRANCH   1   2
BRANCH   1  29
ATOM     29  C   UNL A   1      35.761  22.037  24.592  1.00  0.00     0.023 C 
BRANCH  29  30
ATOM     30  C   UNL A   1      37.224  21.739  24.283  1.00  0.00     0.116 C 
BRANCH  30  31
ATOM     31  N   UNL A   1      37.643  20.418  24.745  1.00  0.00    -0.352 N 
ATOM     32  C   UNL A   1      38.835  20.086  25.350  1.00  0.00     0.251 C 
ATOM     33  H   UNL A   1      37.003  19.682  24.608  1.00  0.00     0.163 HD
ATOM     34  O   UNL A   1      39.217  18.924  25.412  1.00  0.00    -0.269 OA
BRANCH  32  35
ATOM     35  C   UNL A   1      39.614  21.160  25.985  1.00  0.00     0.039 A 
ATOM     36  C   UNL A   1      41.003  21.068  26.131  1.00  0.00     0.014 A 
ATOM     37  C   UNL A   1      38.901  22.250  26.490  1.00  0.00     0.014 A 
ATOM     38  C   UNL A   1      41.676  22.095  26.781  1.00  0.00     0.010 A 
ATOM     39  C   UNL A   1      39.569  23.306  27.038  1.00  0.00     0.010 A 
ATOM     40  C   UNL A   1      40.940  23.193  27.238  1.00  0.00    -0.014 A 
BRANCH  40  41
ATOM     41  C   UNL A   1      41.575  24.303  27.916  1.00  0.00     0.031 A 
ATOM     42  C   UNL A   1      40.712  25.507  28.045  1.00  0.00     0.074 A 
ATOM     43  C   UNL A   1      42.715  24.090  28.608  1.00  0.00     0.049 A 
ATOM     44  N   UNL A   1      40.890  26.669  27.505  1.00  0.00    -0.248 NA
ATOM     45  C   UNL A   1      39.406  25.360  28.716  1.00  0.00     0.031 C 
ATOM     46  C   UNL A   1      43.417  22.817  28.824  1.00  0.00     0.029 A 
ATOM     47  N   UNL A   1      43.393  24.940  29.417  1.00  0.00    -0.354 N 
ATOM     48  C   UNL A   1      39.841  27.455  27.975  1.00  0.00     0.074 A 
ATOM     49  C   UNL A   1      38.850  26.553  28.496  1.00  0.00     0.031 C 
ATOM     50  C   UNL A   1      44.231  22.935  29.897  1.00  0.00     0.029 A 
ATOM     51  C   UNL A   1      44.195  24.309  30.365  1.00  0.00     0.049 A 
ATOM     52  H   UNL A   1      43.326  25.919  29.341  1.00  0.00     0.167 HD
ATOM     53  C   UNL A   1      39.975  28.795  28.175  1.00  0.00     0.034 A 
ATOM     54  C   UNL A   1      44.675  24.870  31.506  1.00  0.00     0.034 A 
ATOM     55  C   UNL A   1      41.179  29.307  27.583  1.00  0.00     0.049 A 
ATOM     56  C   UNL A   1      44.616  26.342  31.304  1.00  0.00     0.074 A 
ATOM     57  C   UNL A   1      41.689  29.329  26.299  1.00  0.00     0.029 A 
ATOM     58  N   UNL A   1      42.254  29.485  28.423  1.00  0.00    -0.354 N 
ATOM     59  N   UNL A   1      45.284  26.964  30.368  1.00  0.00    -0.248 NA
ATOM     60  C   UNL A   1      43.439  27.039  31.803  1.00  0.00     0.031 C 
ATOM     61  C   UNL A   1      43.069  29.008  26.455  1.00  0.00     0.029 A 
ATOM     62  C   UNL A   1      43.338  28.898  27.823  1.00  0.00     0.049 A 
ATOM     63  H   UNL A   1      42.247  29.947  29.293  1.00  0.00     0.167 HD
ATOM     64  C   UNL A   1      44.380  27.884  29.851  1.00  0.00     0.074 A 
ATOM     65  C   UNL A   1      43.289  27.938  30.826  1.00  0.00     0.031 C 
ATOM     66  C   UNL A   1      44.427  28.275  28.543  1.00  0.00     0.034 A 
BRANCH  53  67
ATOM     67  C   UNL A   1      39.204  29.571  29.204  1.00  0.00     0.023 A 
ATOM     68  C   UNL A   1      38.677  30.824  28.840  1.00  0.00     0.012 A 
ATOM     69  C   UNL A   1      39.170  29.225  30.575  1.00  0.00     0.148 A 
ATOM     70  C   UNL A   1      38.127  31.686  29.797  1.00  0.00     0.002 A 
ATOM     71  C   UNL A   1      38.550  30.044  31.507  1.00  0.00     0.091 A 
ATOM     72  F   UNL A   1      39.857  28.159  31.003  1.00  0.00    -0.205 F 
ATOM     73  C   UNL A   1      38.043  31.288  31.127  1.00  0.00     0.022 A 
BRANCH  71  74
ATOM     74  S   UNL A   1      38.382  29.554  33.227  1.00  0.00     0.127 S 
ATOM     75  O   UNL A   1      37.763  30.741  33.810  1.00  0.00    -0.237 OA
ATOM     76  O   UNL A   1      37.508  28.385  33.121  1.00  0.00    -0.237 OA
ATOM     77  O   UNL A   1      39.735  29.251  33.676  1.00  0.00    -0.744 OA
ENDBRANCH  71  74
ENDBRANCH  53  67
BRANCH  54  78
ATOM     78  C   UNL A   1      44.796  24.247  32.857  1.00  0.00     0.023 A 
ATOM     79  C   UNL A   1      43.772  23.407  33.346  1.00  0.00     0.012 A 
ATOM     80  C   UNL A   1      46.019  24.258  33.568  1.00  0.00     0.148 A 
ATOM     81  C   UNL A   1      43.971  22.597  34.477  1.00  0.00     0.002 A 
ATOM     82  C   UNL A   1      46.202  23.479  34.706  1.00  0.00     0.091 A 
ATOM     83  F   UNL A   1      47.052  24.952  33.075  1.00  0.00    -0.205 F 
ATOM     84  C   UNL A   1      45.186  22.632  35.158  1.00  0.00     0.022 A 
BRANCH  82  85
ATOM     85  S   UNL A   1      47.748  23.514  35.628  1.00  0.00     0.127 S 
ATOM     86  O   UNL A   1      47.440  22.659  36.774  1.00  0.00    -0.237 OA
ATOM     87  O   UNL A   1      48.688  22.943  34.669  1.00  0.00    -0.237 OA
ATOM     88  O   UNL A   1      47.967  24.915  35.973  1.00  0.00    -0.744 OA
ENDBRANCH  82  85
ENDBRANCH  54  78
BRANCH  66  89
ATOM     89  C   UNL A   1      45.583  27.817  27.687  1.00  0.00     0.023 A 
ATOM     90  C   UNL A   1      46.893  28.317  27.860  1.00  0.00     0.012 A 
ATOM     91  C   UNL A   1      45.395  26.670  26.900  1.00  0.00     0.148 A 
ATOM     92  C   UNL A   1      47.991  27.678  27.274  1.00  0.00     0.002 A 
ATOM     93  C   UNL A   1      46.491  26.016  26.351  1.00  0.00     0.091 A 
ATOM     94  F   UNL A   1      44.147  26.199  26.769  1.00  0.00    -0.205 F 
ATOM     95  C   UNL A   1      47.791  26.517  26.534  1.00  0.00     0.022 A 
BRANCH  93  96
ATOM     96  S   UNL A   1      46.323  24.451  25.493  1.00  0.00     0.127 S 
ATOM     97  O   UNL A   1      47.235  24.625  24.364  1.00  0.00    -0.237 OA
ATOM     98  O   UNL A   1      46.776  23.496  26.504  1.00  0.00    -0.237 OA
ATOM     99  O   UNL A   1      44.915  24.330  25.136  1.00  0.00    -0.744 OA
ENDBRANCH  93  96
ENDBRANCH  66  89
ENDBRANCH  40  41
ENDBRANCH  32  35
ENDBRANCH  30  31
ENDBRANCH  29  30
ENDBRANCH   1  29
TORSDOF 19
ENDMDL
MODEL 3
REMARK VINA RESULT:     -11.9      1.711      2.292
REMARK SMILES CC(C)(C)OC(=O)N[C@@H](Cc1c[nH]c2cccc(Cl)c12)C(=O)NCCCCNC(=O)c1ccc(-c2c3nc(c(-c4cccc(S(=O)(=O)[O-])c4F)c4ccc([nH]4)c(-c4cccc(S(=O)(=O)[O-])c4F)c4nc(c(-c5cccc(S(=O)(=O)[O-])c5F)c5ccc2[nH]5)C=C4)C=C3)cc1
REMARK SMILES IDX 25 1 24 2 23 3 21 4 22 5 9 7 8 8 6 9 7 10 5 12 2 13 1 14
REMARK SMILES IDX 3 15 4 16 10 17 11 18 12 19 20 20 13 21 14 22 18 23 15 25
REMARK SMILES IDX 17 26 19 27 16 28 26 29 27 30 28 31 29 32 30 34 31 35 32 36
REMARK SMILES IDX 93 37 33 38 92 39 34 40 35 41 36 42 86 43 37 44 91 45 85 46
REMARK SMILES IDX 87 47 38 48 90 49 84 50 83 51 39 53 71 54 51 55 70 56 52 57
REMARK SMILES IDX 55 58 69 59 88 60 53 61 54 62 68 64 89 65 56 66 40 67 41 68
REMARK SMILES IDX 49 69 42 70 44 71 50 72 43 73 45 74 46 75 47 76 48 77 72 78
REMARK SMILES IDX 73 79 81 80 74 81 76 82 82 83 75 84 77 85 78 86 79 87 80 88
REMARK SMILES IDX 57 89 58 90 66 91 59 92 61 93 67 94 60 95 62 96 63 97 64 98
REMARK SMILES IDX 65 99
REMARK H PARENT 23 6 8 11 13 24 28 33 87 52 55 63
REMARK Flexibility Score: inf
ROOT
ATOM      1  C   UNL A   1      32.285  27.488  26.620  1.00  0.00     0.023 C 
ENDROOT
BRANCH   1   2
ATOM      2  C   UNL A   1      32.434  25.989  26.390  1.00  0.00     0.116 C 
BRANCH   2   3
ATOM      3  N   UNL A   1      31.303  25.200  26.831  1.00  0.00    -0.354 N 
ATOM      4  C   UNL A   1      30.895  23.957  26.431  1.00  0.00     0.243 C 
ATOM      5  O   UNL A   1      30.104  23.368  27.177  1.00  0.00    -0.273 OA
ATOM      6  H   UNL A   1      30.744  25.622  27.523  1.00  0.00     0.163 HD
BRANCH   4   7
ATOM      7  C   UNL A   1      31.421  23.258  25.151  1.00  0.00     0.179 C 
BRANCH   7   8
ATOM      8  N   UNL A   1      31.416  21.803  25.293  1.00  0.00    -0.309 N 
ATOM      9  C   UNL A   1      32.449  20.934  25.122  1.00  0.00     0.408 C 
ATOM     10  O   UNL A   1      32.339  19.773  25.473  1.00  0.00    -0.225 OA
ATOM     11  H   UNL A   1      30.555  21.400  25.545  1.00  0.00     0.167 HD
BRANCH   9  12
ATOM     12  O   UNL A   1      33.521  21.479  24.494  1.00  0.00    -0.444 OA
BRANCH  12  13
ATOM     13  C   UNL A   1      34.724  21.765  25.254  1.00  0.00     0.106 C 
ATOM     14  C   UNL A   1      35.243  23.107  24.712  1.00  0.00     0.056 C 
ATOM     15  C   UNL A   1      35.809  20.706  25.010  1.00  0.00     0.056 C 
ATOM     16  C   UNL A   1      34.412  21.934  26.746  1.00  0.00     0.056 C 
ENDBRANCH  12  13
ENDBRANCH   9  12
ENDBRANCH   7   8
BRANCH   7  17
ATOM     17  C   UNL A   1      30.811  23.781  23.832  1.00  0.00     0.073 C 
BRANCH  17  18
ATOM     18  C   UNL A   1      31.487  24.952  23.172  1.00  0.00    -0.019 A 
ATOM     19  C   UNL A   1      32.668  24.850  22.458  1.00  0.00     0.087 A 
ATOM     20  C   UNL A   1      31.087  26.342  23.107  1.00  0.00     0.021 A 
ATOM     21  N   UNL A   1      33.050  26.095  22.050  1.00  0.00    -0.361 N 
ATOM     22  C   UNL A   1      32.149  27.033  22.498  1.00  0.00     0.047 A 
ATOM     23  C   UNL A   1      29.987  27.134  23.513  1.00  0.00     0.050 A 
ATOM     24  H   UNL A   1      33.853  26.293  21.516  1.00  0.00     0.166 HD
ATOM     25  C   UNL A   1      32.191  28.430  22.375  1.00  0.00     0.027 A 
ATOM     26  C   UNL A   1      29.987  28.524  23.370  1.00  0.00     0.021 A 
ATOM     27  Cl  UNL A   1      28.613  26.347  24.158  1.00  0.00    -0.084 Cl
ATOM     28  C   UNL A   1      31.093  29.166  22.827  1.00  0.00     0.004 A 
ENDBRANCH  17  18
ENDBRANCH   7  17
ENDBRANCH   4   7
ENDBRANCH   2   3
ENDBRANCH   1   2
BRANCH   1  29
ATOM     29  C   UNL A   1      33.254  28.364  25.821  1.00  0.00     0.023 C 
BRANCH  29  30
ATOM     30  C   UNL A   1      34.387  28.958  26.649  1.00  0.00     0.116 C 
BRANCH  30  31
ATOM     31  N   UNL A   1      34.125  30.335  27.064  1.00  0.00    -0.352 N 
ATOM     32  C   UNL A   1      34.836  31.078  27.980  1.00  0.00     0.251 C 
ATOM     33  H   UNL A   1      33.354  30.780  26.644  1.00  0.00     0.163 HD
ATOM     34  O   UNL A   1      34.363  32.089  28.485  1.00  0.00    -0.269 OA
BRANCH  32  35
ATOM     35  C   UNL A   1      36.214  30.667  28.289  1.00  0.00     0.039 A 
ATOM     36  C   UNL A   1      37.156  31.578  28.782  1.00  0.00     0.014 A 
ATOM     37  C   UNL A   1      36.559  29.342  28.013  1.00  0.00     0.014 A 
ATOM     38  C   UNL A   1      38.454  31.137  29.011  1.00  0.00     0.010 A 
ATOM     39  C   UNL A   1      37.804  28.881  28.331  1.00  0.00     0.010 A 
ATOM     40  C   UNL A   1      38.759  29.795  28.765  1.00  0.00    -0.014 A 
BRANCH  40  41
ATOM     41  C   UNL A   1      40.087  29.265  28.989  1.00  0.00     0.031 A 
ATOM     42  C   UNL A   1      40.420  29.051  30.423  1.00  0.00     0.074 A 
ATOM     43  C   UNL A   1      40.777  28.749  27.949  1.00  0.00     0.049 A 
ATOM     44  N   UNL A   1      41.323  29.655  31.123  1.00  0.00    -0.248 NA
ATOM     45  C   UNL A   1      39.534  28.182  31.221  1.00  0.00     0.031 C 
ATOM     46  C   UNL A   1      40.332  28.595  26.557  1.00  0.00     0.029 A 
ATOM     47  N   UNL A   1      41.959  28.086  27.954  1.00  0.00    -0.354 N 
ATOM     48  C   UNL A   1      41.268  29.059  32.381  1.00  0.00     0.074 A 
ATOM     49  C   UNL A   1      40.015  28.359  32.453  1.00  0.00     0.031 C 
ATOM     50  C   UNL A   1      41.099  27.665  25.945  1.00  0.00     0.029 A 
ATOM     51  C   UNL A   1      42.149  27.249  26.857  1.00  0.00     0.049 A 
ATOM     52  H   UNL A   1      42.626  28.188  28.670  1.00  0.00     0.167 HD
ATOM     53  C   UNL A   1      42.372  28.934  33.169  1.00  0.00     0.034 A 
ATOM     54  C   UNL A   1      43.031  26.218  26.784  1.00  0.00     0.034 A 
ATOM     55  C   UNL A   1      43.469  29.723  32.684  1.00  0.00     0.049 A 
ATOM     56  C   UNL A   1      44.051  26.464  27.838  1.00  0.00     0.074 A 
ATOM     57  C   UNL A   1      43.655  31.069  32.439  1.00  0.00     0.029 A 
ATOM     58  N   UNL A   1      44.424  29.064  31.943  1.00  0.00    -0.354 N 
ATOM     59  N   UNL A   1      44.829  27.514  27.850  1.00  0.00    -0.248 NA
ATOM     60  C   UNL A   1      43.850  25.817  29.127  1.00  0.00     0.031 C 
ATOM     61  C   UNL A   1      44.354  31.115  31.198  1.00  0.00     0.029 A 
ATOM     62  C   UNL A   1      44.631  29.802  30.805  1.00  0.00     0.049 A 
ATOM     63  H   UNL A   1      44.873  28.222  32.183  1.00  0.00     0.167 HD
ATOM     64  C   UNL A   1      44.840  27.921  29.179  1.00  0.00     0.074 A 
ATOM     65  C   UNL A   1      44.284  26.793  29.929  1.00  0.00     0.031 C 
ATOM     66  C   UNL A   1      44.988  29.234  29.523  1.00  0.00     0.034 A 
BRANCH  53  67
ATOM     67  C   UNL A   1      42.567  27.828  34.167  1.00  0.00     0.023 A 
ATOM     68  C   UNL A   1      42.278  28.090  35.520  1.00  0.00     0.012 A 
ATOM     69  C   UNL A   1      43.237  26.619  33.868  1.00  0.00     0.148 A 
ATOM     70  C   UNL A   1      42.627  27.180  36.526  1.00  0.00     0.002 A 
ATOM     71  C   UNL A   1      43.506  25.683  34.856  1.00  0.00     0.091 A 
ATOM     72  F   UNL A   1      43.736  26.428  32.641  1.00  0.00    -0.205 F 
ATOM     73  C   UNL A   1      43.221  25.967  36.193  1.00  0.00     0.022 A 
BRANCH  71  74
ATOM     74  S   UNL A   1      44.235  24.088  34.469  1.00  0.00     0.127 S 
ATOM     75  O   UNL A   1      45.657  24.365  34.646  1.00  0.00    -0.237 OA
ATOM     76  O   UNL A   1      43.636  23.230  35.492  1.00  0.00    -0.237 OA
ATOM     77  O   UNL A   1      43.805  23.787  33.109  1.00  0.00    -0.744 OA
ENDBRANCH  71  74
ENDBRANCH  53  67
BRANCH  54  78
ATOM     78  C   UNL A   1      42.829  24.879  26.155  1.00  0.00     0.023 A 
ATOM     79  C   UNL A   1      43.783  24.370  25.247  1.00  0.00     0.012 A 
ATOM     80  C   UNL A   1      41.844  23.981  26.631  1.00  0.00     0.148 A 
ATOM     81  C   UNL A   1      43.768  23.021  24.853  1.00  0.00     0.002 A 
ATOM     82  C   UNL A   1      41.813  22.654  26.213  1.00  0.00     0.091 A 
ATOM     83  F   UNL A   1      40.993  24.391  27.578  1.00  0.00    -0.205 F 
ATOM     84  C   UNL A   1      42.783  22.162  25.336  1.00  0.00     0.022 A 
BRANCH  82  85
ATOM     85  S   UNL A   1      40.543  21.518  26.795  1.00  0.00     0.127 S 
ATOM     86  O   UNL A   1      40.892  20.284  26.093  1.00  0.00    -0.237 OA
ATOM     87  O   UNL A   1      40.788  21.498  28.234  1.00  0.00    -0.237 OA
ATOM     88  O   UNL A   1      39.273  22.103  26.377  1.00  0.00    -0.744 OA
ENDBRANCH  82  85
ENDBRANCH  54  78
BRANCH  66  89
ATOM     89  C   UNL A   1      45.303  30.240  28.443  1.00  0.00     0.023 A 
ATOM     90  C   UNL A   1      44.305  31.041  27.845  1.00  0.00     0.012 A 
ATOM     91  C   UNL A   1      46.651  30.573  28.238  1.00  0.00     0.148 A 
ATOM     92  C   UNL A   1      44.644  32.158  27.074  1.00  0.00     0.002 A 
ATOM     93  C   UNL A   1      46.984  31.705  27.504  1.00  0.00     0.091 A 
ATOM     94  F   UNL A   1      47.581  29.813  28.835  1.00  0.00    -0.205 F 
ATOM     95  C   UNL A   1      45.984  32.500  26.919  1.00  0.00     0.022 A 
BRANCH  93  96
ATOM     96  S   UNL A   1      48.678  32.275  27.366  1.00  0.00     0.127 S 
ATOM     97  O   UNL A   1      49.075  32.390  28.768  1.00  0.00    -0.237 OA
ATOM     98  O   UNL A   1      49.313  31.177  26.637  1.00  0.00    -0.237 OA
ATOM     99  O   UNL A   1      48.626  33.535  26.634  1.00  0.00    -0.744 OA
ENDBRANCH  93  96
ENDBRANCH  66  89
ENDBRANCH  40  41
ENDBRANCH  32  35
ENDBRANCH  30  31
ENDBRANCH  29  30
ENDBRANCH   1  29
TORSDOF 19
ENDMDL
