MODEL 1
REMARK VINA RESULT:     -12.9      0.000      0.000
REMARK SMILES Cc1sc(NC(=O)[C@@H]2[C@@H](C(=O)NCCCCNC(=O)c3ccc(-c4c5nc(c(-c6cccc(S(=O)(=O)[O-])c6F)c6ccc([nH]6)c(-c6cccc(S(=O)(=O)[O-])c6F)c6nc(c(-c7cccc(S(=O)(=O)[O-])c7F)c7ccc4[nH]7)C=C6)C=C5)cc3)[C@@H]3C=C[C@H]2C3)c(C#N)c1C
REMARK SMILES IDX 14 1 13 2 12 3 10 4 11 5 9 7 8 8 86 9 83 10 85 11 87 12
REMARK SMILES IDX 84 13 6 14 5 15 7 17 4 18 1 19 2 20 3 21 91 22 88 23 92 24
REMARK SMILES IDX 89 25 90 26 15 27 16 28 17 29 18 30 19 32 20 33 21 34 82 35
REMARK SMILES IDX 22 36 81 37 23 38 24 39 25 40 75 41 26 42 80 43 74 44 76 45
REMARK SMILES IDX 27 46 79 47 73 48 72 49 28 51 60 52 40 53 59 54 41 55 44 56
REMARK SMILES IDX 58 57 77 58 42 59 43 60 57 62 78 63 45 64 29 65 30 66 38 67
REMARK SMILES IDX 31 68 33 69 39 70 32 71 34 72 35 73 36 74 37 75 61 76 62 77
REMARK SMILES IDX 70 78 63 79 65 80 71 81 64 82 66 83 67 84 68 85 69 86 46 87
REMARK SMILES IDX 47 88 55 89 48 90 50 91 56 92 49 93 51 94 52 95 53 96 54 97
REMARK H PARENT 12 6 5 16 17 31 76 50 44 61
REMARK Flexibility Score: inf
ROOT
ATOM      1  C   UNL A   1      31.623  30.653  26.496  1.00  0.00     0.023 C 
ENDROOT
BRANCH   1   2
ATOM      2  C   UNL A   1      33.008  29.996  26.594  1.00  0.00     0.116 C 
BRANCH   2   3
ATOM      3  N   UNL A   1      33.486  29.490  25.318  1.00  0.00    -0.356 N 
ATOM      4  C   UNL A   1      33.212  28.415  24.531  1.00  0.00     0.224 C 
ATOM      5  O   UNL A   1      34.027  28.217  23.618  1.00  0.00    -0.275 OA
ATOM      6  H   UNL A   1      34.180  30.068  24.925  1.00  0.00     0.163 HD
BRANCH   4   7
ATOM      7  C   UNL A   1      32.125  27.359  24.770  1.00  0.00     0.098 C 
ATOM      8  C   UNL A   1      32.504  25.832  24.719  1.00  0.00     0.099 C 
ATOM      9  C   UNL A   1      31.715  25.413  23.441  1.00  0.00     0.025 C 
ATOM     10  C   UNL A   1      31.023  27.506  23.676  1.00  0.00     0.025 C 
ATOM     11  C   UNL A   1      30.257  25.328  23.793  1.00  0.00    -0.027 C 
ATOM     12  C   UNL A   1      31.625  26.668  22.573  1.00  0.00     0.017 C 
ATOM     13  C   UNL A   1      29.843  26.593  23.965  1.00  0.00    -0.027 C 
BRANCH   8  14
ATOM     14  C   UNL A   1      32.193  25.112  26.048  1.00  0.00     0.229 C 
ATOM     15  N   UNL A   1      32.634  23.875  26.429  1.00  0.00    -0.316 N 
ATOM     16  H   UNL A   1      32.590  23.717  27.400  1.00  0.00     0.170 HD
ATOM     17  O   UNL A   1      31.508  25.672  26.912  1.00  0.00    -0.274 OA
BRANCH  15  18
ATOM     18  C   UNL A   1      33.127  22.810  25.712  1.00  0.00     0.113 A 
ATOM     19  C   UNL A   1      32.891  19.064  25.201  1.00  0.00     0.057 C 
ATOM     20  C   UNL A   1      33.301  20.492  25.102  1.00  0.00     0.008 A 
ATOM     21  S   UNL A   1      32.139  21.732  24.856  1.00  0.00    -0.122 S 
ATOM     22  C   UNL A   1      34.563  21.070  25.126  1.00  0.00    -0.017 A 
ATOM     23  C   UNL A   1      34.444  22.481  25.437  1.00  0.00     0.090 A 
ATOM     24  C   UNL A   1      35.852  20.329  24.981  1.00  0.00     0.047 C 
BRANCH  23  25
ATOM     25  C   UNL A   1      35.551  23.357  25.644  1.00  0.00     0.103 C 
ATOM     26  N   UNL A   1      36.463  24.079  25.769  1.00  0.00    -0.192 NA
ENDBRANCH  23  25
ENDBRANCH  15  18
ENDBRANCH   8  14
ENDBRANCH   4   7
ENDBRANCH   2   3
ENDBRANCH   1   2
BRANCH   1  27
ATOM     27  C   UNL A   1      31.568  32.168  26.657  1.00  0.00     0.023 C 
BRANCH  27  28
ATOM     28  C   UNL A   1      32.775  32.747  27.369  1.00  0.00     0.116 C 
BRANCH  28  29
ATOM     29  N   UNL A   1      32.643  34.174  27.713  1.00  0.00    -0.352 N 
ATOM     30  C   UNL A   1      33.161  34.820  28.833  1.00  0.00     0.251 C 
ATOM     31  H   UNL A   1      32.133  34.732  27.082  1.00  0.00     0.163 HD
ATOM     32  O   UNL A   1      32.735  35.897  29.227  1.00  0.00    -0.269 OA
BRANCH  30  33
ATOM     33  C   UNL A   1      34.342  34.210  29.454  1.00  0.00     0.039 A 
ATOM     34  C   UNL A   1      34.376  33.431  30.619  1.00  0.00     0.014 A 
ATOM     35  C   UNL A   1      35.484  34.400  28.712  1.00  0.00     0.014 A 
ATOM     36  C   UNL A   1      35.597  32.842  30.972  1.00  0.00     0.010 A 
ATOM     37  C   UNL A   1      36.344  33.370  28.784  1.00  0.00     0.010 A 
ATOM     38  C   UNL A   1      36.623  32.894  30.035  1.00  0.00    -0.014 A 
BRANCH  38  39
ATOM     39  C   UNL A   1      37.946  32.315  30.093  1.00  0.00     0.031 A 
ATOM     40  C   UNL A   1      37.971  30.930  29.558  1.00  0.00     0.074 A 
ATOM     41  C   UNL A   1      39.018  33.136  30.258  1.00  0.00     0.049 A 
ATOM     42  N   UNL A   1      37.964  29.836  30.248  1.00  0.00    -0.248 NA
ATOM     43  C   UNL A   1      37.676  30.711  28.126  1.00  0.00     0.031 C 
ATOM     44  C   UNL A   1      39.068  34.605  30.418  1.00  0.00     0.029 A 
ATOM     45  N   UNL A   1      40.337  32.839  30.214  1.00  0.00    -0.354 N 
ATOM     46  C   UNL A   1      38.015  28.820  29.297  1.00  0.00     0.074 A 
ATOM     47  C   UNL A   1      37.486  29.389  28.093  1.00  0.00     0.031 C 
ATOM     48  C   UNL A   1      40.329  35.057  30.203  1.00  0.00     0.029 A 
ATOM     49  C   UNL A   1      41.208  33.914  30.049  1.00  0.00     0.049 A 
ATOM     50  H   UNL A   1      40.663  31.913  30.295  1.00  0.00     0.167 HD
ATOM     51  C   UNL A   1      38.849  27.755  29.465  1.00  0.00     0.034 A 
ATOM     52  C   UNL A   1      42.539  33.837  29.766  1.00  0.00     0.034 A 
ATOM     53  C   UNL A   1      39.372  27.741  30.814  1.00  0.00     0.049 A 
ATOM     54  C   UNL A   1      42.959  32.454  30.114  1.00  0.00     0.074 A 
ATOM     55  C   UNL A   1      38.818  27.692  32.076  1.00  0.00     0.029 A 
ATOM     56  N   UNL A   1      40.635  28.265  30.970  1.00  0.00    -0.354 N 
ATOM     57  N   UNL A   1      42.908  31.994  31.337  1.00  0.00    -0.248 NA
ATOM     58  C   UNL A   1      42.878  31.454  29.060  1.00  0.00     0.031 C 
ATOM     59  C   UNL A   1      39.576  28.629  32.842  1.00  0.00     0.029 A 
ATOM     60  C   UNL A   1      40.621  29.110  32.049  1.00  0.00     0.049 A 
ATOM     61  H   UNL A   1      41.415  28.068  30.403  1.00  0.00     0.167 HD
ATOM     62  C   UNL A   1      42.322  30.741  31.209  1.00  0.00     0.074 A 
ATOM     63  C   UNL A   1      42.385  30.435  29.774  1.00  0.00     0.031 C 
ATOM     64  C   UNL A   1      41.525  30.230  32.197  1.00  0.00     0.034 A 
BRANCH  51  65
ATOM     65  C   UNL A   1      39.566  27.002  28.358  1.00  0.00     0.023 A 
ATOM     66  C   UNL A   1      39.467  25.592  28.397  1.00  0.00     0.012 A 
ATOM     67  C   UNL A   1      40.533  27.545  27.479  1.00  0.00     0.148 A 
ATOM     68  C   UNL A   1      40.336  24.771  27.672  1.00  0.00     0.002 A 
ATOM     69  C   UNL A   1      41.356  26.725  26.714  1.00  0.00     0.091 A 
ATOM     70  F   UNL A   1      40.763  28.857  27.450  1.00  0.00    -0.205 F 
ATOM     71  C   UNL A   1      41.285  25.337  26.832  1.00  0.00     0.022 A 
BRANCH  69  72
ATOM     72  S   UNL A   1      42.592  27.401  25.593  1.00  0.00     0.127 S 
ATOM     73  O   UNL A   1      43.641  27.799  26.527  1.00  0.00    -0.237 OA
ATOM     74  O   UNL A   1      42.905  26.235  24.766  1.00  0.00    -0.237 OA
ATOM     75  O   UNL A   1      41.929  28.482  24.877  1.00  0.00    -0.744 OA
ENDBRANCH  69  72
ENDBRANCH  51  65
BRANCH  52  76
ATOM     76  C   UNL A   1      43.357  34.695  28.863  1.00  0.00     0.023 A 
ATOM     77  C   UNL A   1      43.497  34.388  27.492  1.00  0.00     0.012 A 
ATOM     78  C   UNL A   1      43.754  35.981  29.289  1.00  0.00     0.148 A 
ATOM     79  C   UNL A   1      44.003  35.333  26.581  1.00  0.00     0.002 A 
ATOM     80  C   UNL A   1      44.253  36.916  28.384  1.00  0.00     0.091 A 
ATOM     81  F   UNL A   1      43.551  36.320  30.569  1.00  0.00    -0.205 F 
ATOM     82  C   UNL A   1      44.374  36.599  27.025  1.00  0.00     0.022 A 
BRANCH  80  83
ATOM     83  S   UNL A   1      44.716  38.578  28.891  1.00  0.00     0.127 S 
ATOM     84  O   UNL A   1      45.942  38.321  29.646  1.00  0.00    -0.237 OA
ATOM     85  O   UNL A   1      44.912  39.237  27.602  1.00  0.00    -0.237 OA
ATOM     86  O   UNL A   1      43.597  39.064  29.690  1.00  0.00    -0.744 OA
ENDBRANCH  80  83
ENDBRANCH  52  76
BRANCH  64  87
ATOM     87  C   UNL A   1      41.435  30.991  33.502  1.00  0.00     0.023 A 
ATOM     88  C   UNL A   1      42.490  31.071  34.440  1.00  0.00     0.012 A 
ATOM     89  C   UNL A   1      40.309  31.801  33.692  1.00  0.00     0.148 A 
ATOM     90  C   UNL A   1      42.410  31.922  35.549  1.00  0.00     0.002 A 
ATOM     91  C   UNL A   1      40.249  32.675  34.770  1.00  0.00     0.091 A 
ATOM     92  F   UNL A   1      39.328  31.732  32.780  1.00  0.00    -0.205 F 
ATOM     93  C   UNL A   1      41.291  32.733  35.708  1.00  0.00     0.022 A 
BRANCH  91  94
ATOM     94  S   UNL A   1      38.892  33.828  34.957  1.00  0.00     0.127 S 
ATOM     95  O   UNL A   1      39.179  34.425  36.260  1.00  0.00    -0.237 OA
ATOM     96  O   UNL A   1      39.086  34.723  33.815  1.00  0.00    -0.237 OA
ATOM     97  O   UNL A   1      37.672  33.034  34.892  1.00  0.00    -0.744 OA
ENDBRANCH  91  94
ENDBRANCH  64  87
ENDBRANCH  38  39
ENDBRANCH  30  33
ENDBRANCH  28  29
ENDBRANCH  27  28
ENDBRANCH   1  27
TORSDOF 17
ENDMDL
MODEL 2
REMARK VINA RESULT:     -12.8      4.551     10.037
REMARK SMILES Cc1sc(NC(=O)[C@@H]2[C@@H](C(=O)NCCCCNC(=O)c3ccc(-c4c5nc(c(-c6cccc(S(=O)(=O)[O-])c6F)c6ccc([nH]6)c(-c6cccc(S(=O)(=O)[O-])c6F)c6nc(c(-c7cccc(S(=O)(=O)[O-])c7F)c7ccc4[nH]7)C=C6)C=C5)cc3)[C@@H]3C=C[C@H]2C3)c(C#N)c1C
REMARK SMILES IDX 14 1 13 2 12 3 10 4 11 5 9 7 8 8 86 9 83 10 85 11 87 12
REMARK SMILES IDX 84 13 6 14 5 15 7 17 4 18 1 19 2 20 3 21 91 22 88 23 92 24
REMARK SMILES IDX 89 25 90 26 15 27 16 28 17 29 18 30 19 32 20 33 21 34 82 35
REMARK SMILES IDX 22 36 81 37 23 38 24 39 25 40 75 41 26 42 80 43 74 44 76 45
REMARK SMILES IDX 27 46 79 47 73 48 72 49 28 51 60 52 40 53 59 54 41 55 44 56
REMARK SMILES IDX 58 57 77 58 42 59 43 60 57 62 78 63 45 64 29 65 30 66 38 67
REMARK SMILES IDX 31 68 33 69 39 70 32 71 34 72 35 73 36 74 37 75 61 76 62 77
REMARK SMILES IDX 70 78 63 79 65 80 71 81 64 82 66 83 67 84 68 85 69 86 46 87
REMARK SMILES IDX 47 88 55 89 48 90 50 91 56 92 49 93 51 94 52 95 53 96 54 97
REMARK H PARENT 12 6 5 16 17 31 76 50 44 61
REMARK Flexibility Score: inf
ROOT
ATOM      1  C   UNL A   1      36.977  20.898  24.774  1.00  0.00     0.023 C 
ENDROOT
BRANCH   1   2
ATOM      2  C   UNL A   1      35.618  20.468  25.346  1.00  0.00     0.116 C 
BRANCH   2   3
ATOM      3  N   UNL A   1      35.048  21.451  26.253  1.00  0.00    -0.356 N 
ATOM      4  C   UNL A   1      34.233  22.533  26.131  1.00  0.00     0.224 C 
ATOM      5  O   UNL A   1      34.179  23.259  27.133  1.00  0.00    -0.275 OA
ATOM      6  H   UNL A   1      35.319  21.296  27.186  1.00  0.00     0.163 HD
BRANCH   4   7
ATOM      7  C   UNL A   1      33.539  23.016  24.850  1.00  0.00     0.098 C 
ATOM      8  C   UNL A   1      32.853  24.432  24.829  1.00  0.00     0.099 C 
ATOM      9  C   UNL A   1      31.362  23.994  24.695  1.00  0.00     0.025 C 
ATOM     10  C   UNL A   1      32.379  22.035  24.499  1.00  0.00     0.025 C 
ATOM     11  C   UNL A   1      31.126  23.548  23.281  1.00  0.00    -0.027 C 
ATOM     12  C   UNL A   1      31.270  22.614  25.345  1.00  0.00     0.017 C 
ATOM     13  C   UNL A   1      31.766  22.376  23.150  1.00  0.00    -0.027 C 
BRANCH   8  14
ATOM     14  C   UNL A   1      33.452  25.352  23.745  1.00  0.00     0.229 C 
ATOM     15  N   UNL A   1      33.283  26.704  23.637  1.00  0.00    -0.316 N 
ATOM     16  H   UNL A   1      33.966  27.149  23.085  1.00  0.00     0.170 HD
ATOM     17  O   UNL A   1      34.197  24.884  22.876  1.00  0.00    -0.274 OA
BRANCH  15  18
ATOM     18  C   UNL A   1      32.339  27.561  24.153  1.00  0.00     0.113 A 
ATOM     19  C   UNL A   1      29.669  30.101  23.274  1.00  0.00     0.057 C 
ATOM     20  C   UNL A   1      30.604  29.220  24.027  1.00  0.00     0.008 A 
ATOM     21  S   UNL A   1      30.712  27.541  23.682  1.00  0.00    -0.122 S 
ATOM     22  C   UNL A   1      31.455  29.506  25.085  1.00  0.00    -0.017 A 
ATOM     23  C   UNL A   1      32.464  28.470  25.192  1.00  0.00     0.090 A 
ATOM     24  C   UNL A   1      31.418  30.753  25.907  1.00  0.00     0.047 C 
BRANCH  23  25
ATOM     25  C   UNL A   1      33.560  28.501  26.104  1.00  0.00     0.103 C 
ATOM     26  N   UNL A   1      34.486  28.528  26.818  1.00  0.00    -0.192 NA
ENDBRANCH  23  25
ENDBRANCH  15  18
ENDBRANCH   8  14
ENDBRANCH   4   7
ENDBRANCH   2   3
ENDBRANCH   1   2
BRANCH   1  27
ATOM     27  C   UNL A   1      38.112  19.883  24.862  1.00  0.00     0.023 C 
BRANCH  27  28
ATOM     28  C   UNL A   1      39.197  20.271  25.848  1.00  0.00     0.116 C 
BRANCH  28  29
ATOM     29  N   UNL A   1      40.233  19.239  26.038  1.00  0.00    -0.352 N 
ATOM     30  C   UNL A   1      41.613  19.425  26.040  1.00  0.00     0.251 C 
ATOM     31  H   UNL A   1      39.914  18.318  26.178  1.00  0.00     0.163 HD
ATOM     32  O   UNL A   1      42.401  18.507  25.860  1.00  0.00    -0.269 OA
BRANCH  30  33
ATOM     33  C   UNL A   1      42.094  20.763  26.403  1.00  0.00     0.039 A 
ATOM     34  C   UNL A   1      42.569  21.754  25.533  1.00  0.00     0.014 A 
ATOM     35  C   UNL A   1      41.956  21.026  27.746  1.00  0.00     0.014 A 
ATOM     36  C   UNL A   1      42.866  23.010  26.078  1.00  0.00     0.010 A 
ATOM     37  C   UNL A   1      41.683  22.314  28.012  1.00  0.00     0.010 A 
ATOM     38  C   UNL A   1      42.466  23.245  27.388  1.00  0.00    -0.014 A 
BRANCH  38  39
ATOM     39  C   UNL A   1      42.569  24.454  28.174  1.00  0.00     0.031 A 
ATOM     40  C   UNL A   1      41.385  25.334  28.000  1.00  0.00     0.074 A 
ATOM     41  C   UNL A   1      43.467  24.502  29.195  1.00  0.00     0.049 A 
ATOM     42  N   UNL A   1      41.307  26.381  27.244  1.00  0.00    -0.248 NA
ATOM     43  C   UNL A   1      40.065  24.858  28.464  1.00  0.00     0.031 C 
ATOM     44  C   UNL A   1      44.427  23.478  29.659  1.00  0.00     0.029 A 
ATOM     45  N   UNL A   1      43.647  25.463  30.130  1.00  0.00    -0.354 N 
ATOM     46  C   UNL A   1      40.015  26.860  27.440  1.00  0.00     0.074 A 
ATOM     47  C   UNL A   1      39.245  25.732  27.876  1.00  0.00     0.031 C 
ATOM     48  C   UNL A   1      44.877  23.786  30.901  1.00  0.00     0.029 A 
ATOM     49  C   UNL A   1      44.372  25.096  31.262  1.00  0.00     0.049 A 
ATOM     50  H   UNL A   1      43.286  26.372  30.017  1.00  0.00     0.167 HD
ATOM     51  C   UNL A   1      39.790  28.192  27.622  1.00  0.00     0.034 A 
ATOM     52  C   UNL A   1      44.494  25.819  32.411  1.00  0.00     0.034 A 
ATOM     53  C   UNL A   1      40.980  28.946  27.296  1.00  0.00     0.049 A 
ATOM     54  C   UNL A   1      44.111  27.214  32.067  1.00  0.00     0.074 A 
ATOM     55  C   UNL A   1      41.773  29.084  26.176  1.00  0.00     0.029 A 
ATOM     56  N   UNL A   1      41.760  29.323  28.366  1.00  0.00    -0.354 N 
ATOM     57  N   UNL A   1      44.789  27.934  31.213  1.00  0.00    -0.248 NA
ATOM     58  C   UNL A   1      42.709  27.572  32.223  1.00  0.00     0.031 C 
ATOM     59  C   UNL A   1      43.111  29.064  26.674  1.00  0.00     0.029 A 
ATOM     60  C   UNL A   1      43.067  29.037  28.069  1.00  0.00     0.049 A 
ATOM     61  H   UNL A   1      41.434  29.729  29.201  1.00  0.00     0.167 HD
ATOM     62  C   UNL A   1      43.818  28.501  30.395  1.00  0.00     0.074 A 
ATOM     63  C   UNL A   1      42.551  28.293  31.107  1.00  0.00     0.031 C 
ATOM     64  C   UNL A   1      44.070  28.758  29.075  1.00  0.00     0.034 A 
BRANCH  51  65
ATOM     65  C   UNL A   1      38.715  28.802  28.506  1.00  0.00     0.023 A 
ATOM     66  C   UNL A   1      37.834  29.712  27.879  1.00  0.00     0.012 A 
ATOM     67  C   UNL A   1      38.688  28.766  29.920  1.00  0.00     0.148 A 
ATOM     68  C   UNL A   1      37.038  30.595  28.615  1.00  0.00     0.002 A 
ATOM     69  C   UNL A   1      37.851  29.604  30.649  1.00  0.00     0.091 A 
ATOM     70  F   UNL A   1      39.552  28.010  30.596  1.00  0.00    -0.205 F 
ATOM     71  C   UNL A   1      37.049  30.544  30.002  1.00  0.00     0.022 A 
BRANCH  69  72
ATOM     72  S   UNL A   1      37.806  29.572  32.448  1.00  0.00     0.127 S 
ATOM     73  O   UNL A   1      39.186  29.915  32.777  1.00  0.00    -0.237 OA
ATOM     74  O   UNL A   1      36.821  30.615  32.735  1.00  0.00    -0.237 OA
ATOM     75  O   UNL A   1      37.378  28.227  32.810  1.00  0.00    -0.744 OA
ENDBRANCH  69  72
ENDBRANCH  51  65
BRANCH  52  76
ATOM     76  C   UNL A   1      44.509  25.342  33.823  1.00  0.00     0.023 A 
ATOM     77  C   UNL A   1      43.308  25.096  34.524  1.00  0.00     0.012 A 
ATOM     78  C   UNL A   1      45.706  24.842  34.380  1.00  0.00     0.148 A 
ATOM     79  C   UNL A   1      43.303  24.370  35.729  1.00  0.00     0.002 A 
ATOM     80  C   UNL A   1      45.697  24.121  35.573  1.00  0.00     0.091 A 
ATOM     81  F   UNL A   1      46.843  24.991  33.688  1.00  0.00    -0.205 F 
ATOM     82  C   UNL A   1      44.496  23.876  36.250  1.00  0.00     0.022 A 
BRANCH  80  83
ATOM     83  S   UNL A   1      47.201  23.428  36.276  1.00  0.00     0.127 S 
ATOM     84  O   UNL A   1      47.464  22.317  35.363  1.00  0.00    -0.237 OA
ATOM     85  O   UNL A   1      48.126  24.552  36.161  1.00  0.00    -0.237 OA
ATOM     86  O   UNL A   1      46.845  23.032  37.634  1.00  0.00    -0.744 OA
ENDBRANCH  80  83
ENDBRANCH  52  76
BRANCH  64  87
ATOM     87  C   UNL A   1      45.483  28.565  28.570  1.00  0.00     0.023 A 
ATOM     88  C   UNL A   1      46.568  29.397  28.933  1.00  0.00     0.012 A 
ATOM     89  C   UNL A   1      45.750  27.392  27.853  1.00  0.00     0.148 A 
ATOM     90  C   UNL A   1      47.881  29.074  28.568  1.00  0.00     0.002 A 
ATOM     91  C   UNL A   1      47.057  27.053  27.528  1.00  0.00     0.091 A 
ATOM     92  F   UNL A   1      44.714  26.602  27.538  1.00  0.00    -0.205 F 
ATOM     93  C   UNL A   1      48.126  27.894  27.873  1.00  0.00     0.022 A 
BRANCH  91  94
ATOM     94  S   UNL A   1      47.445  25.490  26.744  1.00  0.00     0.127 S 
ATOM     95  O   UNL A   1      46.982  24.528  27.742  1.00  0.00    -0.237 OA
ATOM     96  O   UNL A   1      46.637  25.547  25.524  1.00  0.00    -0.237 OA
ATOM     97  O   UNL A   1      48.883  25.501  26.508  1.00  0.00    -0.744 OA
ENDBRANCH  91  94
ENDBRANCH  64  87
ENDBRANCH  38  39
ENDBRANCH  30  33
ENDBRANCH  28  29
ENDBRANCH  27  28
ENDBRANCH   1  27
TORSDOF 17
ENDMDL
MODEL 3
REMARK VINA RESULT:     -12.4      1.458      2.979
REMARK SMILES Cc1sc(NC(=O)[C@@H]2[C@@H](C(=O)NCCCCNC(=O)c3ccc(-c4c5nc(c(-c6cccc(S(=O)(=O)[O-])c6F)c6ccc([nH]6)c(-c6cccc(S(=O)(=O)[O-])c6F)c6nc(c(-c7cccc(S(=O)(=O)[O-])c7F)c7ccc4[nH]7)C=C6)C=C5)cc3)[C@@H]3C=C[C@H]2C3)c(C#N)c1C
REMARK SMILES IDX 14 1 13 2 12 3 10 4 11 5 9 7 8 8 86 9 83 10 85 11 87 12
REMARK SMILES IDX 84 13 6 14 5 15 7 17 4 18 1 19 2 20 3 21 91 22 88 23 92 24
REMARK SMILES IDX 89 25 90 26 15 27 16 28 17 29 18 30 19 32 20 33 21 34 82 35
REMARK SMILES IDX 22 36 81 37 23 38 24 39 25 40 75 41 26 42 80 43 74 44 76 45
REMARK SMILES IDX 27 46 79 47 73 48 72 49 28 51 60 52 40 53 59 54 41 55 44 56
REMARK SMILES IDX 58 57 77 58 42 59 43 60 57 62 78 63 45 64 29 65 30 66 38 67
REMARK SMILES IDX 31 68 33 69 39 70 32 71 34 72 35 73 36 74 37 75 61 76 62 77
REMARK SMILES IDX 70 78 63 79 65 80 71 81 64 82 66 83 67 84 68 85 69 86 46 87
REMARK SMILES IDX 47 88 55 89 48 90 50 91 56 92 49 93 51 94 52 95 53 96 54 97
REMARK H PARENT 12 6 5 16 17 31 76 50 44 61
REMARK Flexibility Score: inf
ROOT
ATOM      1  C   UNL A   1      34.112  29.529  27.189  1.00  0.00     0.023 C 
ENDROOT
BRANCH   1   2
ATOM      2  C   UNL A   1      34.030  28.165  26.486  1.00  0.00     0.116 C 
BRANCH   2   3
ATOM      3  N   UNL A   1      32.803  27.447  26.788  1.00  0.00    -0.356 N 
ATOM      4  C   UNL A   1      32.166  26.353  26.290  1.00  0.00     0.224 C 
ATOM      5  O   UNL A   1      30.999  26.208  26.680  1.00  0.00    -0.275 OA
ATOM      6  H   UNL A   1      32.311  27.851  27.538  1.00  0.00     0.163 HD
BRANCH   4   7
ATOM      7  C   UNL A   1      32.681  25.415  25.190  1.00  0.00     0.098 C 
ATOM      8  C   UNL A   1      32.042  23.986  25.030  1.00  0.00     0.099 C 
ATOM      9  C   UNL A   1      33.264  23.109  25.445  1.00  0.00     0.025 C 
ATOM     10  C   UNL A   1      34.192  25.122  25.438  1.00  0.00     0.025 C 
ATOM     11  C   UNL A   1      34.248  23.105  24.311  1.00  0.00    -0.027 C 
ATOM     12  C   UNL A   1      34.088  23.966  26.405  1.00  0.00     0.017 C 
ATOM     13  C   UNL A   1      34.791  24.332  24.286  1.00  0.00    -0.027 C 
BRANCH   8  14
ATOM     14  C   UNL A   1      31.426  23.778  23.631  1.00  0.00     0.229 C 
ATOM     15  N   UNL A   1      31.400  24.684  22.607  1.00  0.00    -0.316 N 
ATOM     16  H   UNL A   1      31.246  24.282  21.722  1.00  0.00     0.170 HD
ATOM     17  O   UNL A   1      30.917  22.691  23.331  1.00  0.00    -0.274 OA
BRANCH  15  18
ATOM     18  C   UNL A   1      31.549  26.051  22.580  1.00  0.00     0.113 A 
ATOM     19  C   UNL A   1      33.982  28.900  23.142  1.00  0.00     0.057 C 
ATOM     20  C   UNL A   1      32.751  28.115  22.848  1.00  0.00     0.008 A 
ATOM     21  S   UNL A   1      32.769  26.834  21.704  1.00  0.00    -0.122 S 
ATOM     22  C   UNL A   1      31.457  28.257  23.328  1.00  0.00    -0.017 A 
ATOM     23  C   UNL A   1      30.720  27.027  23.110  1.00  0.00     0.090 A 
ATOM     24  C   UNL A   1      30.939  29.445  24.070  1.00  0.00     0.047 C 
BRANCH  23  25
ATOM     25  C   UNL A   1      29.393  26.788  23.575  1.00  0.00     0.103 C 
ATOM     26  N   UNL A   1      28.316  26.550  23.964  1.00  0.00    -0.192 NA
ENDBRANCH  23  25
ENDBRANCH  15  18
ENDBRANCH   8  14
ENDBRANCH   4   7
ENDBRANCH   2   3
ENDBRANCH   1   2
BRANCH   1  27
ATOM     27  C   UNL A   1      33.385  30.691  26.522  1.00  0.00     0.023 C 
BRANCH  27  28
ATOM     28  C   UNL A   1      32.371  31.369  27.424  1.00  0.00     0.116 C 
BRANCH  28  29
ATOM     29  N   UNL A   1      32.281  32.829  27.236  1.00  0.00    -0.352 N 
ATOM     30  C   UNL A   1      32.876  33.815  28.020  1.00  0.00     0.251 C 
ATOM     31  H   UNL A   1      31.742  33.140  26.474  1.00  0.00     0.163 HD
ATOM     32  O   UNL A   1      32.491  34.976  28.020  1.00  0.00    -0.269 OA
BRANCH  30  33
ATOM     33  C   UNL A   1      34.084  33.427  28.757  1.00  0.00     0.039 A 
ATOM     34  C   UNL A   1      34.147  32.876  30.044  1.00  0.00     0.014 A 
ATOM     35  C   UNL A   1      35.228  33.574  28.008  1.00  0.00     0.014 A 
ATOM     36  C   UNL A   1      35.400  32.463  30.514  1.00  0.00     0.010 A 
ATOM     37  C   UNL A   1      36.165  32.649  28.277  1.00  0.00     0.010 A 
ATOM     38  C   UNL A   1      36.445  32.431  29.598  1.00  0.00    -0.014 A 
BRANCH  38  39
ATOM     39  C   UNL A   1      37.807  31.984  29.777  1.00  0.00     0.031 A 
ATOM     40  C   UNL A   1      38.009  30.598  29.280  1.00  0.00     0.074 A 
ATOM     41  C   UNL A   1      38.779  32.907  30.009  1.00  0.00     0.049 A 
ATOM     42  N   UNL A   1      38.048  29.521  29.993  1.00  0.00    -0.248 NA
ATOM     43  C   UNL A   1      37.856  30.328  27.834  1.00  0.00     0.031 C 
ATOM     44  C   UNL A   1      38.676  34.376  30.136  1.00  0.00     0.029 A 
ATOM     45  N   UNL A   1      40.119  32.738  30.080  1.00  0.00    -0.354 N 
ATOM     46  C   UNL A   1      38.275  28.499  29.075  1.00  0.00     0.074 A 
ATOM     47  C   UNL A   1      37.796  28.994  27.818  1.00  0.00     0.031 C 
ATOM     48  C   UNL A   1      39.902  34.944  30.014  1.00  0.00     0.029 A 
ATOM     49  C   UNL A   1      40.895  33.889  29.960  1.00  0.00     0.049 A 
ATOM     50  H   UNL A   1      40.524  31.850  30.209  1.00  0.00     0.167 HD
ATOM     51  C   UNL A   1      39.189  27.523  29.336  1.00  0.00     0.034 A 
ATOM     52  C   UNL A   1      42.246  33.937  29.789  1.00  0.00     0.034 A 
ATOM     53  C   UNL A   1      39.597  27.581  30.723  1.00  0.00     0.049 A 
ATOM     54  C   UNL A   1      42.765  32.607  30.204  1.00  0.00     0.074 A 
ATOM     55  C   UNL A   1      38.947  27.500  31.937  1.00  0.00     0.029 A 
ATOM     56  N   UNL A   1      40.787  28.228  30.969  1.00  0.00    -0.354 N 
ATOM     57  N   UNL A   1      42.657  32.165  31.428  1.00  0.00    -0.248 NA
ATOM     58  C   UNL A   1      42.868  31.586  29.170  1.00  0.00     0.031 C 
ATOM     59  C   UNL A   1      39.545  28.518  32.738  1.00  0.00     0.029 A 
ATOM     60  C   UNL A   1      40.603  29.084  32.022  1.00  0.00     0.049 A 
ATOM     61  H   UNL A   1      41.627  28.097  30.472  1.00  0.00     0.167 HD
ATOM     62  C   UNL A   1      42.205  30.859  31.284  1.00  0.00     0.074 A 
ATOM     63  C   UNL A   1      42.416  30.537  29.867  1.00  0.00     0.031 C 
ATOM     64  C   UNL A   1      41.381  30.290  32.216  1.00  0.00     0.034 A 
BRANCH  51  65
ATOM     65  C   UNL A   1      40.064  26.824  28.309  1.00  0.00     0.023 A 
ATOM     66  C   UNL A   1      40.163  25.419  28.427  1.00  0.00     0.012 A 
ATOM     67  C   UNL A   1      40.992  27.455  27.446  1.00  0.00     0.148 A 
ATOM     68  C   UNL A   1      41.177  24.695  27.793  1.00  0.00     0.002 A 
ATOM     69  C   UNL A   1      41.963  26.723  26.770  1.00  0.00     0.091 A 
ATOM     70  F   UNL A   1      41.035  28.783  27.352  1.00  0.00    -0.205 F 
ATOM     71  C   UNL A   1      42.081  25.348  26.966  1.00  0.00     0.022 A 
BRANCH  69  72
ATOM     72  S   UNL A   1      43.150  27.511  25.670  1.00  0.00     0.127 S 
ATOM     73  O   UNL A   1      43.894  28.351  26.604  1.00  0.00    -0.237 OA
ATOM     74  O   UNL A   1      43.883  26.354  25.155  1.00  0.00    -0.237 OA
ATOM     75  O   UNL A   1      42.358  28.213  24.669  1.00  0.00    -0.744 OA
ENDBRANCH  69  72
ENDBRANCH  51  65
BRANCH  52  76
ATOM     76  C   UNL A   1      43.052  34.855  28.935  1.00  0.00     0.023 A 
ATOM     77  C   UNL A   1      43.108  34.689  27.534  1.00  0.00     0.012 A 
ATOM     78  C   UNL A   1      43.524  36.075  29.468  1.00  0.00     0.148 A 
ATOM     79  C   UNL A   1      43.605  35.706  26.698  1.00  0.00     0.002 A 
ATOM     80  C   UNL A   1      44.014  37.080  28.638  1.00  0.00     0.091 A 
ATOM     81  F   UNL A   1      43.401  36.284  30.785  1.00  0.00    -0.205 F 
ATOM     82  C   UNL A   1      44.051  36.904  27.249  1.00  0.00     0.022 A 
BRANCH  80  83
ATOM     83  S   UNL A   1      44.571  38.663  29.287  1.00  0.00     0.127 S 
ATOM     84  O   UNL A   1      45.683  38.250  30.143  1.00  0.00    -0.237 OA
ATOM     85  O   UNL A   1      44.960  39.363  28.066  1.00  0.00    -0.237 OA
ATOM     86  O   UNL A   1      43.424  39.214  29.999  1.00  0.00    -0.744 OA
ENDBRANCH  80  83
ENDBRANCH  52  76
BRANCH  64  87
ATOM     87  C   UNL A   1      41.110  31.059  33.490  1.00  0.00     0.023 A 
ATOM     88  C   UNL A   1      42.097  31.340  34.464  1.00  0.00     0.012 A 
ATOM     89  C   UNL A   1      39.857  31.674  33.611  1.00  0.00     0.148 A 
ATOM     90  C   UNL A   1      41.829  32.196  35.540  1.00  0.00     0.002 A 
ATOM     91  C   UNL A   1      39.607  32.554  34.656  1.00  0.00     0.091 A 
ATOM     92  F   UNL A   1      38.941  31.417  32.666  1.00  0.00    -0.205 F 
ATOM     93  C   UNL A   1      40.585  32.812  35.630  1.00  0.00     0.022 A 
BRANCH  91  94
ATOM     94  S   UNL A   1      38.071  33.469  34.753  1.00  0.00     0.127 S 
ATOM     95  O   UNL A   1      38.281  34.287  35.946  1.00  0.00    -0.237 OA
ATOM     96  O   UNL A   1      38.071  34.210  33.491  1.00  0.00    -0.237 OA
ATOM     97  O   UNL A   1      37.012  32.472  34.860  1.00  0.00    -0.744 OA
ENDBRANCH  91  94
ENDBRANCH  64  87
ENDBRANCH  38  39
ENDBRANCH  30  33
ENDBRANCH  28  29
ENDBRANCH  27  28
ENDBRANCH   1  27
TORSDOF 17
ENDMDL
