MODEL 1
REMARK VINA RESULT:     -12.4      0.000      0.000
REMARK SMILES C=CCn1nc(C(=O)NCCCCNC(=O)c2ccc(-c3c4nc(c(-c5cccc(S(=O)(=O)[O-])c5F)c5ccc([nH]5)c(-c5cccc(S(=O)(=O)[O-])c5F)c5nc(c(-c6cccc(S(=O)(=O)[O-])c6F)c6ccc3[nH]6)C=C5)C=C4)cc2)c2c1CC[C@@H]([NH+]1CCC(C(C)(C)O)CC1)C2
REMARK SMILES IDX 11 1 10 2 9 3 7 4 8 5 6 7 4 8 5 9 81 10 80 11 82 12 95 13
REMARK SMILES IDX 83 14 84 15 3 16 2 17 1 18 85 19 86 20 94 21 87 23 93 24
REMARK SMILES IDX 88 25 89 26 90 27 91 28 92 29 12 31 13 32 14 33 15 34 16 36
REMARK SMILES IDX 17 37 18 38 79 39 19 40 78 41 20 42 21 43 22 44 72 45 23 46
REMARK SMILES IDX 77 47 71 48 73 49 24 50 76 51 70 52 69 53 25 55 57 56 37 57
REMARK SMILES IDX 56 58 38 59 41 60 55 61 74 62 39 63 40 64 54 66 75 67 42 68
REMARK SMILES IDX 26 69 27 70 35 71 28 72 30 73 36 74 29 75 31 76 32 77 33 78
REMARK SMILES IDX 34 79 58 80 59 81 67 82 60 83 62 84 68 85 61 86 63 87 64 88
REMARK SMILES IDX 65 89 66 90 43 91 44 92 52 93 45 94 47 95 53 96 46 97 48 98
REMARK SMILES IDX 49 99 50 100 51 101
REMARK H PARENT 9 6 85 22 92 30 14 35 73 54 41 65
REMARK Flexibility Score: inf
ROOT
ATOM      1  C   UNL A   1      32.159  30.339  26.745  1.00  0.00     0.023 C 
ENDROOT
BRANCH   1   2
ATOM      2  C   UNL A   1      33.661  29.989  26.719  1.00  0.00     0.116 C 
BRANCH   2   3
ATOM      3  N   UNL A   1      34.090  29.462  25.431  1.00  0.00    -0.351 N 
ATOM      4  C   UNL A   1      33.599  28.569  24.496  1.00  0.00     0.272 C 
ATOM      5  O   UNL A   1      34.300  28.487  23.480  1.00  0.00    -0.267 OA
ATOM      6  H   UNL A   1      34.955  29.841  25.153  1.00  0.00     0.163 HD
BRANCH   4   7
ATOM      7  C   UNL A   1      32.361  27.750  24.634  1.00  0.00     0.153 A 
ATOM      8  N   UNL A   1      30.278  27.269  24.287  1.00  0.00    -0.265 N 
ATOM      9  N   UNL A   1      31.211  28.219  24.083  1.00  0.00    -0.167 NA
ATOM     10  C   UNL A   1      30.732  26.267  25.088  1.00  0.00     0.043 A 
ATOM     11  C   UNL A   1      32.096  26.456  25.162  1.00  0.00     0.012 A 
ATOM     12  C   UNL A   1      29.979  25.098  25.606  1.00  0.00     0.062 C 
ATOM     13  C   UNL A   1      32.985  25.374  25.620  1.00  0.00     0.105 C 
ATOM     14  C   UNL A   1      30.949  24.030  26.156  1.00  0.00     0.072 C 
ATOM     15  C   UNL A   1      32.368  23.962  25.534  1.00  0.00     0.189 C 
BRANCH   8  16
ATOM     16  C   UNL A   1      29.021  27.332  23.536  1.00  0.00     0.171 C 
BRANCH  16  17
ATOM     17  C   UNL A   1      28.883  28.627  22.767  1.00  0.00    -0.011 C 
ATOM     18  C   UNL A   1      28.069  29.642  23.088  1.00  0.00     0.006 C 
ENDBRANCH  16  17
ENDBRANCH   8  16
BRANCH  15  19
ATOM     19  N   UNL A   1      32.693  23.342  24.229  1.00  0.00    -0.332 N 
ATOM     20  C   UNL A   1      32.870  21.908  24.115  1.00  0.00     0.262 C 
ATOM     21  C   UNL A   1      33.673  24.032  23.409  1.00  0.00     0.262 C 
ATOM     22  H   UNL A   1      31.760  23.499  23.845  1.00  0.00     0.348 HD
ATOM     23  C   UNL A   1      34.246  21.422  24.543  1.00  0.00     0.068 C 
ATOM     24  C   UNL A   1      35.096  23.801  23.882  1.00  0.00     0.068 C 
ATOM     25  C   UNL A   1      35.456  22.330  24.218  1.00  0.00     0.031 C 
BRANCH  25  26
ATOM     26  C   UNL A   1      36.586  22.261  25.310  1.00  0.00     0.062 C 
ATOM     27  C   UNL A   1      37.634  21.178  25.043  1.00  0.00     0.042 C 
ATOM     28  C   UNL A   1      37.270  23.623  25.466  1.00  0.00     0.042 C 
BRANCH  26  29
ATOM     29  O   UNL A   1      36.014  21.953  26.583  1.00  0.00    -0.390 OA
ATOM     30  H   UNL A   1      35.158  21.514  26.455  1.00  0.00     0.211 HD
ENDBRANCH  26  29
ENDBRANCH  25  26
ENDBRANCH  15  19
ENDBRANCH   4   7
ENDBRANCH   2   3
ENDBRANCH   1   2
BRANCH   1  31
ATOM     31  C   UNL A   1      31.785  31.779  27.095  1.00  0.00     0.023 C 
BRANCH  31  32
ATOM     32  C   UNL A   1      32.990  32.670  27.385  1.00  0.00     0.116 C 
BRANCH  32  33
ATOM     33  N   UNL A   1      32.621  33.979  27.926  1.00  0.00    -0.352 N 
ATOM     34  C   UNL A   1      33.159  34.598  29.043  1.00  0.00     0.251 C 
ATOM     35  H   UNL A   1      31.917  34.472  27.447  1.00  0.00     0.163 HD
ATOM     36  O   UNL A   1      32.541  35.446  29.660  1.00  0.00    -0.269 OA
BRANCH  34  37
ATOM     37  C   UNL A   1      34.515  34.197  29.463  1.00  0.00     0.039 A 
ATOM     38  C   UNL A   1      34.690  33.257  30.477  1.00  0.00     0.014 A 
ATOM     39  C   UNL A   1      35.604  34.714  28.758  1.00  0.00     0.014 A 
ATOM     40  C   UNL A   1      35.968  32.755  30.705  1.00  0.00     0.010 A 
ATOM     41  C   UNL A   1      36.855  34.154  28.927  1.00  0.00     0.010 A 
ATOM     42  C   UNL A   1      37.045  33.170  29.896  1.00  0.00    -0.014 A 
BRANCH  42  43
ATOM     43  C   UNL A   1      38.287  32.386  29.907  1.00  0.00     0.031 A 
ATOM     44  C   UNL A   1      38.113  31.014  29.353  1.00  0.00     0.074 A 
ATOM     45  C   UNL A   1      39.519  32.866  30.195  1.00  0.00     0.049 A 
ATOM     46  N   UNL A   1      38.087  29.906  30.018  1.00  0.00    -0.248 NA
ATOM     47  C   UNL A   1      37.744  30.861  27.936  1.00  0.00     0.031 C 
ATOM     48  C   UNL A   1      39.882  34.262  30.463  1.00  0.00     0.029 A 
ATOM     49  N   UNL A   1      40.735  32.235  30.193  1.00  0.00    -0.354 N 
ATOM     50  C   UNL A   1      38.018  28.905  29.052  1.00  0.00     0.074 A 
ATOM     51  C   UNL A   1      37.562  29.541  27.846  1.00  0.00     0.031 C 
ATOM     52  C   UNL A   1      41.220  34.412  30.356  1.00  0.00     0.029 A 
ATOM     53  C   UNL A   1      41.826  33.104  30.193  1.00  0.00     0.049 A 
ATOM     54  H   UNL A   1      40.830  31.255  30.192  1.00  0.00     0.167 HD
ATOM     55  C   UNL A   1      38.693  27.737  29.234  1.00  0.00     0.034 A 
ATOM     56  C   UNL A   1      43.139  32.786  30.076  1.00  0.00     0.034 A 
ATOM     57  C   UNL A   1      39.129  27.603  30.600  1.00  0.00     0.049 A 
ATOM     58  C   UNL A   1      43.293  31.386  30.511  1.00  0.00     0.074 A 
ATOM     59  C   UNL A   1      38.560  27.385  31.834  1.00  0.00     0.029 A 
ATOM     60  N   UNL A   1      40.378  28.122  30.809  1.00  0.00    -0.354 N 
ATOM     61  N   UNL A   1      43.160  31.011  31.752  1.00  0.00    -0.248 NA
ATOM     62  C   UNL A   1      43.341  30.312  29.528  1.00  0.00     0.031 C 
ATOM     63  C   UNL A   1      39.463  27.941  32.792  1.00  0.00     0.029 A 
ATOM     64  C   UNL A   1      40.577  28.442  32.121  1.00  0.00     0.049 A 
ATOM     65  H   UNL A   1      41.049  28.249  30.100  1.00  0.00     0.167 HD
ATOM     66  C   UNL A   1      42.625  29.745  31.645  1.00  0.00     0.074 A 
ATOM     67  C   UNL A   1      42.967  29.293  30.304  1.00  0.00     0.031 C 
ATOM     68  C   UNL A   1      41.645  29.337  32.502  1.00  0.00     0.034 A 
BRANCH  55  69
ATOM     69  C   UNL A   1      39.431  26.978  28.140  1.00  0.00     0.023 A 
ATOM     70  C   UNL A   1      39.239  25.578  28.081  1.00  0.00     0.012 A 
ATOM     71  C   UNL A   1      40.515  27.497  27.393  1.00  0.00     0.148 A 
ATOM     72  C   UNL A   1      40.095  24.743  27.351  1.00  0.00     0.002 A 
ATOM     73  C   UNL A   1      41.309  26.676  26.599  1.00  0.00     0.091 A 
ATOM     74  F   UNL A   1      40.894  28.766  27.553  1.00  0.00    -0.205 F 
ATOM     75  C   UNL A   1      41.124  25.293  26.598  1.00  0.00     0.022 A 
BRANCH  73  76
ATOM     76  S   UNL A   1      42.621  27.351  25.573  1.00  0.00     0.127 S 
ATOM     77  O   UNL A   1      42.969  26.197  24.750  1.00  0.00    -0.237 OA
ATOM     78  O   UNL A   1      41.924  28.431  24.874  1.00  0.00    -0.237 OA
ATOM     79  O   UNL A   1      43.645  27.809  26.505  1.00  0.00    -0.744 OA
ENDBRANCH  73  76
ENDBRANCH  55  69
BRANCH  56  80
ATOM     80  C   UNL A   1      44.322  33.543  29.605  1.00  0.00     0.023 A 
ATOM     81  C   UNL A   1      45.373  33.815  30.508  1.00  0.00     0.012 A 
ATOM     82  C   UNL A   1      44.566  33.703  28.227  1.00  0.00     0.148 A 
ATOM     83  C   UNL A   1      46.649  34.159  30.052  1.00  0.00     0.002 A 
ATOM     84  C   UNL A   1      45.842  34.042  27.778  1.00  0.00     0.091 A 
ATOM     85  F   UNL A   1      43.579  33.429  27.365  1.00  0.00    -0.205 F 
ATOM     86  C   UNL A   1      46.888  34.254  28.687  1.00  0.00     0.022 A 
BRANCH  84  87
ATOM     87  S   UNL A   1      46.252  34.140  26.030  1.00  0.00     0.127 S 
ATOM     88  O   UNL A   1      47.663  33.750  26.029  1.00  0.00    -0.237 OA
ATOM     89  O   UNL A   1      45.345  33.153  25.454  1.00  0.00    -0.237 OA
ATOM     90  O   UNL A   1      46.011  35.525  25.647  1.00  0.00    -0.744 OA
ENDBRANCH  84  87
ENDBRANCH  56  80
BRANCH  68  91
ATOM     91  C   UNL A   1      41.588  29.996  33.849  1.00  0.00     0.023 A 
ATOM     92  C   UNL A   1      42.443  29.655  34.917  1.00  0.00     0.012 A 
ATOM     93  C   UNL A   1      40.658  31.032  34.025  1.00  0.00     0.148 A 
ATOM     94  C   UNL A   1      42.342  30.313  36.146  1.00  0.00     0.002 A 
ATOM     95  C   UNL A   1      40.593  31.714  35.230  1.00  0.00     0.091 A 
ATOM     96  F   UNL A   1      39.840  31.332  33.004  1.00  0.00    -0.205 F 
ATOM     97  C   UNL A   1      41.424  31.350  36.299  1.00  0.00     0.022 A 
BRANCH  95  98
ATOM     98  S   UNL A   1      39.501  33.121  35.436  1.00  0.00     0.127 S 
ATOM     99  O   UNL A   1      39.802  33.920  34.252  1.00  0.00    -0.237 OA
ATOM    100  O   UNL A   1      38.176  32.497  35.434  1.00  0.00    -0.237 OA
ATOM    101  O   UNL A   1      39.867  33.721  36.714  1.00  0.00    -0.744 OA
ENDBRANCH  95  98
ENDBRANCH  68  91
ENDBRANCH  42  43
ENDBRANCH  34  37
ENDBRANCH  32  33
ENDBRANCH  31  32
ENDBRANCH   1  31
TORSDOF 19
ENDMDL
MODEL 2
REMARK VINA RESULT:     -12.4      3.634      9.265
REMARK SMILES C=CCn1nc(C(=O)NCCCCNC(=O)c2ccc(-c3c4nc(c(-c5cccc(S(=O)(=O)[O-])c5F)c5ccc([nH]5)c(-c5cccc(S(=O)(=O)[O-])c5F)c5nc(c(-c6cccc(S(=O)(=O)[O-])c6F)c6ccc3[nH]6)C=C5)C=C4)cc2)c2c1CC[C@@H]([NH+]1CCC(C(C)(C)O)CC1)C2
REMARK SMILES IDX 11 1 10 2 9 3 7 4 8 5 6 7 4 8 5 9 81 10 80 11 82 12 95 13
REMARK SMILES IDX 83 14 84 15 3 16 2 17 1 18 85 19 86 20 94 21 87 23 93 24
REMARK SMILES IDX 88 25 89 26 90 27 91 28 92 29 12 31 13 32 14 33 15 34 16 36
REMARK SMILES IDX 17 37 18 38 79 39 19 40 78 41 20 42 21 43 22 44 72 45 23 46
REMARK SMILES IDX 77 47 71 48 73 49 24 50 76 51 70 52 69 53 25 55 57 56 37 57
REMARK SMILES IDX 56 58 38 59 41 60 55 61 74 62 39 63 40 64 54 66 75 67 42 68
REMARK SMILES IDX 26 69 27 70 35 71 28 72 30 73 36 74 29 75 31 76 32 77 33 78
REMARK SMILES IDX 34 79 58 80 59 81 67 82 60 83 62 84 68 85 61 86 63 87 64 88
REMARK SMILES IDX 65 89 66 90 43 91 44 92 52 93 45 94 47 95 53 96 46 97 48 98
REMARK SMILES IDX 49 99 50 100 51 101
REMARK H PARENT 9 6 85 22 92 30 14 35 73 54 41 65
REMARK Flexibility Score: inf
ROOT
ATOM      1  C   UNL A   1      37.086  21.183  24.874  1.00  0.00     0.023 C 
ENDROOT
BRANCH   1   2
ATOM      2  C   UNL A   1      37.255  22.391  25.818  1.00  0.00     0.116 C 
BRANCH   2   3
ATOM      3  N   UNL A   1      36.054  22.665  26.595  1.00  0.00    -0.351 N 
ATOM      4  C   UNL A   1      34.703  22.812  26.339  1.00  0.00     0.272 C 
ATOM      5  O   UNL A   1      34.024  22.971  27.361  1.00  0.00    -0.267 OA
ATOM      6  H   UNL A   1      36.257  22.774  27.552  1.00  0.00     0.163 HD
BRANCH   4   7
ATOM      7  C   UNL A   1      34.060  22.795  24.994  1.00  0.00     0.153 A 
ATOM      8  N   UNL A   1      33.008  21.886  23.334  1.00  0.00    -0.265 N 
ATOM      9  N   UNL A   1      33.596  21.612  24.514  1.00  0.00    -0.167 NA
ATOM     10  C   UNL A   1      33.208  23.176  22.948  1.00  0.00     0.043 A 
ATOM     11  C   UNL A   1      33.705  23.813  24.065  1.00  0.00     0.012 A 
ATOM     12  C   UNL A   1      32.795  23.826  21.679  1.00  0.00     0.062 C 
ATOM     13  C   UNL A   1      33.695  25.282  24.166  1.00  0.00     0.105 C 
ATOM     14  C   UNL A   1      32.886  25.361  21.803  1.00  0.00     0.072 C 
ATOM     15  C   UNL A   1      32.699  25.979  23.213  1.00  0.00     0.189 C 
BRANCH   8  16
ATOM     16  C   UNL A   1      32.135  20.881  22.722  1.00  0.00     0.171 C 
BRANCH  16  17
ATOM     17  C   UNL A   1      32.326  19.512  23.337  1.00  0.00    -0.011 C 
ATOM     18  C   UNL A   1      32.374  18.354  22.664  1.00  0.00     0.006 C 
ENDBRANCH  16  17
ENDBRANCH   8  16
BRANCH  15  19
ATOM     19  N   UNL A   1      31.396  26.169  23.890  1.00  0.00    -0.332 N 
ATOM     20  C   UNL A   1      30.561  27.313  23.580  1.00  0.00     0.262 C 
ATOM     21  C   UNL A   1      31.358  25.899  25.317  1.00  0.00     0.262 C 
ATOM     22  H   UNL A   1      30.946  25.402  23.388  1.00  0.00     0.348 HD
ATOM     23  C   UNL A   1      30.973  28.589  24.296  1.00  0.00     0.068 C 
ATOM     24  C   UNL A   1      31.959  27.023  26.139  1.00  0.00     0.068 C 
ATOM     25  C   UNL A   1      31.508  28.453  25.742  1.00  0.00     0.031 C 
BRANCH  25  26
ATOM     26  C   UNL A   1      32.620  29.511  26.087  1.00  0.00     0.062 C 
ATOM     27  C   UNL A   1      32.088  30.752  26.806  1.00  0.00     0.042 C 
ATOM     28  C   UNL A   1      33.739  28.869  26.912  1.00  0.00     0.042 C 
BRANCH  26  29
ATOM     29  O   UNL A   1      33.232  29.983  24.883  1.00  0.00    -0.390 OA
ATOM     30  H   UNL A   1      32.977  29.408  24.145  1.00  0.00     0.211 HD
ENDBRANCH  26  29
ENDBRANCH  25  26
ENDBRANCH  15  19
ENDBRANCH   4   7
ENDBRANCH   2   3
ENDBRANCH   1   2
BRANCH   1  31
ATOM     31  C   UNL A   1      38.085  20.036  25.025  1.00  0.00     0.023 C 
BRANCH  31  32
ATOM     32  C   UNL A   1      39.329  20.410  25.825  1.00  0.00     0.116 C 
BRANCH  32  33
ATOM     33  N   UNL A   1      40.355  19.366  25.816  1.00  0.00    -0.352 N 
ATOM     34  C   UNL A   1      41.726  19.547  25.904  1.00  0.00     0.251 C 
ATOM     35  H   UNL A   1      40.039  18.437  25.739  1.00  0.00     0.163 HD
ATOM     36  O   UNL A   1      42.506  18.717  25.477  1.00  0.00    -0.269 OA
BRANCH  34  37
ATOM     37  C   UNL A   1      42.214  20.786  26.539  1.00  0.00     0.039 A 
ATOM     38  C   UNL A   1      42.470  21.920  25.769  1.00  0.00     0.014 A 
ATOM     39  C   UNL A   1      42.324  20.815  27.931  1.00  0.00     0.014 A 
ATOM     40  C   UNL A   1      42.731  23.121  26.422  1.00  0.00     0.010 A 
ATOM     41  C   UNL A   1      42.499  22.022  28.577  1.00  0.00     0.010 A 
ATOM     42  C   UNL A   1      42.698  23.182  27.830  1.00  0.00    -0.014 A 
BRANCH  42  43
ATOM     43  C   UNL A   1      42.621  24.495  28.484  1.00  0.00     0.031 A 
ATOM     44  C   UNL A   1      41.345  25.210  28.201  1.00  0.00     0.074 A 
ATOM     45  C   UNL A   1      43.491  24.970  29.404  1.00  0.00     0.049 A 
ATOM     46  N   UNL A   1      41.182  26.230  27.424  1.00  0.00    -0.248 NA
ATOM     47  C   UNL A   1      40.081  24.626  28.681  1.00  0.00     0.031 C 
ATOM     48  C   UNL A   1      44.625  24.253  29.999  1.00  0.00     0.029 A 
ATOM     49  N   UNL A   1      43.486  26.151  30.098  1.00  0.00    -0.354 N 
ATOM     50  C   UNL A   1      39.847  26.596  27.581  1.00  0.00     0.074 A 
ATOM     51  C   UNL A   1      39.181  25.455  28.145  1.00  0.00     0.031 C 
ATOM     52  C   UNL A   1      45.038  24.900  31.111  1.00  0.00     0.029 A 
ATOM     53  C   UNL A   1      44.328  26.161  31.210  1.00  0.00     0.049 A 
ATOM     54  H   UNL A   1      42.936  26.925  29.835  1.00  0.00     0.167 HD
ATOM     55  C   UNL A   1      39.499  27.913  27.583  1.00  0.00     0.034 A 
ATOM     56  C   UNL A   1      44.450  27.132  32.149  1.00  0.00     0.034 A 
ATOM     57  C   UNL A   1      40.576  28.729  27.083  1.00  0.00     0.049 A 
ATOM     58  C   UNL A   1      43.998  28.394  31.537  1.00  0.00     0.074 A 
ATOM     59  C   UNL A   1      41.200  28.968  25.881  1.00  0.00     0.029 A 
ATOM     60  N   UNL A   1      41.415  29.159  28.074  1.00  0.00    -0.354 N 
ATOM     61  N   UNL A   1      44.665  29.008  30.603  1.00  0.00    -0.248 NA
ATOM     62  C   UNL A   1      42.642  28.878  31.767  1.00  0.00     0.031 C 
ATOM     63  C   UNL A   1      42.517  29.418  26.199  1.00  0.00     0.029 A 
ATOM     64  C   UNL A   1      42.647  29.484  27.585  1.00  0.00     0.049 A 
ATOM     65  H   UNL A   1      41.162  29.224  29.024  1.00  0.00     0.167 HD
ATOM     66  C   UNL A   1      43.678  29.582  29.831  1.00  0.00     0.074 A 
ATOM     67  C   UNL A   1      42.510  29.664  30.697  1.00  0.00     0.031 C 
ATOM     68  C   UNL A   1      43.784  29.590  28.471  1.00  0.00     0.034 A 
BRANCH  55  69
ATOM     69  C   UNL A   1      38.455  28.536  28.499  1.00  0.00     0.023 A 
ATOM     70  C   UNL A   1      37.465  29.345  27.895  1.00  0.00     0.012 A 
ATOM     71  C   UNL A   1      38.575  28.631  29.905  1.00  0.00     0.148 A 
ATOM     72  C   UNL A   1      36.666  30.221  28.642  1.00  0.00     0.002 A 
ATOM     73  C   UNL A   1      37.721  29.436  30.653  1.00  0.00     0.091 A 
ATOM     74  F   UNL A   1      39.609  28.068  30.531  1.00  0.00    -0.205 F 
ATOM     75  C   UNL A   1      36.785  30.258  30.025  1.00  0.00     0.022 A 
BRANCH  73  76
ATOM     76  S   UNL A   1      37.809  29.479  32.448  1.00  0.00     0.127 S 
ATOM     77  O   UNL A   1      37.535  28.086  32.786  1.00  0.00    -0.237 OA
ATOM     78  O   UNL A   1      39.189  29.916  32.666  1.00  0.00    -0.237 OA
ATOM     79  O   UNL A   1      36.805  30.452  32.863  1.00  0.00    -0.744 OA
ENDBRANCH  73  76
ENDBRANCH  55  69
BRANCH  56  80
ATOM     80  C   UNL A   1      44.900  27.119  33.560  1.00  0.00     0.023 A 
ATOM     81  C   UNL A   1      45.795  28.116  34.009  1.00  0.00     0.012 A 
ATOM     82  C   UNL A   1      44.214  26.354  34.523  1.00  0.00     0.148 A 
ATOM     83  C   UNL A   1      45.944  28.395  35.370  1.00  0.00     0.002 A 
ATOM     84  C   UNL A   1      44.362  26.641  35.879  1.00  0.00     0.091 A 
ATOM     85  F   UNL A   1      43.351  25.420  34.104  1.00  0.00    -0.205 F 
ATOM     86  C   UNL A   1      45.213  27.672  36.304  1.00  0.00     0.022 A 
BRANCH  84  87
ATOM     87  S   UNL A   1      43.423  25.787  37.152  1.00  0.00     0.127 S 
ATOM     88  O   UNL A   1      44.104  24.494  37.214  1.00  0.00    -0.237 OA
ATOM     89  O   UNL A   1      43.639  26.648  38.311  1.00  0.00    -0.237 OA
ATOM     90  O   UNL A   1      42.055  25.723  36.655  1.00  0.00    -0.744 OA
ENDBRANCH  84  87
ENDBRANCH  56  80
BRANCH  68  91
ATOM     91  C   UNL A   1      45.163  29.528  27.885  1.00  0.00     0.023 A 
ATOM     92  C   UNL A   1      46.026  30.640  27.810  1.00  0.00     0.012 A 
ATOM     93  C   UNL A   1      45.619  28.280  27.433  1.00  0.00     0.148 A 
ATOM     94  C   UNL A   1      47.303  30.513  27.258  1.00  0.00     0.002 A 
ATOM     95  C   UNL A   1      46.905  28.148  26.929  1.00  0.00     0.091 A 
ATOM     96  F   UNL A   1      44.780  27.235  27.496  1.00  0.00    -0.205 F 
ATOM     97  C   UNL A   1      47.747  29.264  26.827  1.00  0.00     0.022 A 
BRANCH  95  98
ATOM     98  S   UNL A   1      47.551  26.542  26.462  1.00  0.00     0.127 S 
ATOM     99  O   UNL A   1      47.363  25.767  27.684  1.00  0.00    -0.237 OA
ATOM    100  O   UNL A   1      46.677  26.160  25.351  1.00  0.00    -0.237 OA
ATOM    101  O   UNL A   1      48.936  26.775  26.067  1.00  0.00    -0.744 OA
ENDBRANCH  95  98
ENDBRANCH  68  91
ENDBRANCH  42  43
ENDBRANCH  34  37
ENDBRANCH  32  33
ENDBRANCH  31  32
ENDBRANCH   1  31
TORSDOF 19
ENDMDL
MODEL 3
REMARK VINA RESULT:     -11.9      4.490      9.634
REMARK SMILES C=CCn1nc(C(=O)NCCCCNC(=O)c2ccc(-c3c4nc(c(-c5cccc(S(=O)(=O)[O-])c5F)c5ccc([nH]5)c(-c5cccc(S(=O)(=O)[O-])c5F)c5nc(c(-c6cccc(S(=O)(=O)[O-])c6F)c6ccc3[nH]6)C=C5)C=C4)cc2)c2c1CC[C@@H]([NH+]1CCC(C(C)(C)O)CC1)C2
REMARK SMILES IDX 11 1 10 2 9 3 7 4 8 5 6 7 4 8 5 9 81 10 80 11 82 12 95 13
REMARK SMILES IDX 83 14 84 15 3 16 2 17 1 18 85 19 86 20 94 21 87 23 93 24
REMARK SMILES IDX 88 25 89 26 90 27 91 28 92 29 12 31 13 32 14 33 15 34 16 36
REMARK SMILES IDX 17 37 18 38 79 39 19 40 78 41 20 42 21 43 22 44 72 45 23 46
REMARK SMILES IDX 77 47 71 48 73 49 24 50 76 51 70 52 69 53 25 55 57 56 37 57
REMARK SMILES IDX 56 58 38 59 41 60 55 61 74 62 39 63 40 64 54 66 75 67 42 68
REMARK SMILES IDX 26 69 27 70 35 71 28 72 30 73 36 74 29 75 31 76 32 77 33 78
REMARK SMILES IDX 34 79 58 80 59 81 67 82 60 83 62 84 68 85 61 86 63 87 64 88
REMARK SMILES IDX 65 89 66 90 43 91 44 92 52 93 45 94 47 95 53 96 46 97 48 98
REMARK SMILES IDX 49 99 50 100 51 101
REMARK H PARENT 9 6 85 22 92 30 14 35 73 54 41 65
REMARK Flexibility Score: inf
ROOT
ATOM      1  C   UNL A   1      40.497  20.891  26.313  1.00  0.00     0.023 C 
ENDROOT
BRANCH   1   2
ATOM      2  C   UNL A   1      39.084  21.118  25.736  1.00  0.00     0.116 C 
BRANCH   2   3
ATOM      3  N   UNL A   1      38.561  22.442  26.046  1.00  0.00    -0.351 N 
ATOM      4  C   UNL A   1      37.343  23.088  25.952  1.00  0.00     0.272 C 
ATOM      5  O   UNL A   1      37.357  24.233  26.423  1.00  0.00    -0.267 OA
ATOM      6  H   UNL A   1      39.257  23.028  26.420  1.00  0.00     0.163 HD
BRANCH   4   7
ATOM      7  C   UNL A   1      36.098  22.528  25.353  1.00  0.00     0.153 A 
ATOM      8  N   UNL A   1      34.585  21.012  25.030  1.00  0.00    -0.265 N 
ATOM      9  N   UNL A   1      35.771  21.239  25.628  1.00  0.00    -0.167 NA
ATOM     10  C   UNL A   1      34.200  22.054  24.243  1.00  0.00     0.043 A 
ATOM     11  C   UNL A   1      35.043  23.091  24.581  1.00  0.00     0.012 A 
ATOM     12  C   UNL A   1      33.008  22.144  23.364  1.00  0.00     0.062 C 
ATOM     13  C   UNL A   1      34.710  24.482  24.228  1.00  0.00     0.105 C 
ATOM     14  C   UNL A   1      32.751  23.607  22.948  1.00  0.00     0.072 C 
ATOM     15  C   UNL A   1      33.216  24.721  23.922  1.00  0.00     0.189 C 
BRANCH   8  16
ATOM     16  C   UNL A   1      33.815  19.823  25.403  1.00  0.00     0.171 C 
BRANCH  16  17
ATOM     17  C   UNL A   1      33.822  18.776  24.310  1.00  0.00    -0.011 C 
ATOM     18  C   UNL A   1      34.492  17.616  24.346  1.00  0.00     0.006 C 
ENDBRANCH  16  17
ENDBRANCH   8  16
BRANCH  15  19
ATOM     19  N   UNL A   1      32.502  25.123  25.155  1.00  0.00    -0.332 N 
ATOM     20  C   UNL A   1      31.053  25.137  25.199  1.00  0.00     0.262 C 
ATOM     21  C   UNL A   1      33.032  26.271  25.869  1.00  0.00     0.262 C 
ATOM     22  H   UNL A   1      32.748  24.269  25.657  1.00  0.00     0.348 HD
ATOM     23  C   UNL A   1      30.430  26.381  24.587  1.00  0.00     0.068 C 
ATOM     24  C   UNL A   1      32.659  27.588  25.214  1.00  0.00     0.068 C 
ATOM     25  C   UNL A   1      31.174  27.723  24.788  1.00  0.00     0.031 C 
BRANCH  25  26
ATOM     26  C   UNL A   1      31.026  28.697  23.561  1.00  0.00     0.062 C 
ATOM     27  C   UNL A   1      30.489  28.020  22.298  1.00  0.00     0.042 C 
ATOM     28  C   UNL A   1      30.144  29.894  23.927  1.00  0.00     0.042 C 
BRANCH  26  29
ATOM     29  O   UNL A   1      32.303  29.234  23.209  1.00  0.00    -0.390 OA
ATOM     30  H   UNL A   1      32.931  28.508  23.071  1.00  0.00     0.211 HD
ENDBRANCH  26  29
ENDBRANCH  25  26
ENDBRANCH  15  19
ENDBRANCH   4   7
ENDBRANCH   2   3
ENDBRANCH   1   2
BRANCH   1  31
ATOM     31  C   UNL A   1      41.118  19.509  26.110  1.00  0.00     0.023 C 
BRANCH  31  32
ATOM     32  C   UNL A   1      42.589  19.436  26.510  1.00  0.00     0.116 C 
BRANCH  32  33
ATOM     33  N   UNL A   1      43.459  18.975  25.426  1.00  0.00    -0.352 N 
ATOM     34  C   UNL A   1      44.127  19.764  24.504  1.00  0.00     0.251 C 
ATOM     35  H   UNL A   1      43.582  18.002  25.343  1.00  0.00     0.163 HD
ATOM     36  O   UNL A   1      44.467  19.328  23.421  1.00  0.00    -0.269 OA
BRANCH  34  37
ATOM     37  C   UNL A   1      44.417  21.161  24.880  1.00  0.00     0.039 A 
ATOM     38  C   UNL A   1      43.540  22.184  24.524  1.00  0.00     0.014 A 
ATOM     39  C   UNL A   1      45.539  21.411  25.674  1.00  0.00     0.014 A 
ATOM     40  C   UNL A   1      43.741  23.450  25.068  1.00  0.00     0.010 A 
ATOM     41  C   UNL A   1      45.687  22.643  26.279  1.00  0.00     0.010 A 
ATOM     42  C   UNL A   1      44.789  23.668  25.985  1.00  0.00    -0.014 A 
BRANCH  42  43
ATOM     43  C   UNL A   1      44.773  24.884  26.808  1.00  0.00     0.031 A 
ATOM     44  C   UNL A   1      45.947  25.768  26.561  1.00  0.00     0.074 A 
ATOM     45  C   UNL A   1      43.742  25.303  27.577  1.00  0.00     0.049 A 
ATOM     46  N   UNL A   1      46.962  25.947  27.341  1.00  0.00    -0.248 NA
ATOM     47  C   UNL A   1      46.110  26.378  25.230  1.00  0.00     0.031 C 
ATOM     48  C   UNL A   1      42.412  24.690  27.680  1.00  0.00     0.029 A 
ATOM     49  N   UNL A   1      43.611  26.432  28.342  1.00  0.00    -0.354 N 
ATOM     50  C   UNL A   1      47.723  26.938  26.724  1.00  0.00     0.074 A 
ATOM     51  C   UNL A   1      47.299  26.975  25.352  1.00  0.00     0.031 C 
ATOM     52  C   UNL A   1      41.553  25.562  28.250  1.00  0.00     0.029 A 
ATOM     53  C   UNL A   1      42.298  26.717  28.714  1.00  0.00     0.049 A 
ATOM     54  H   UNL A   1      44.377  26.992  28.605  1.00  0.00     0.167 HD
ATOM     55  C   UNL A   1      48.353  27.879  27.481  1.00  0.00     0.034 A 
ATOM     56  C   UNL A   1      41.840  27.815  29.366  1.00  0.00     0.034 A 
ATOM     57  C   UNL A   1      48.388  27.486  28.866  1.00  0.00     0.049 A 
ATOM     58  C   UNL A   1      42.975  28.387  30.112  1.00  0.00     0.074 A 
ATOM     59  C   UNL A   1      49.019  26.541  29.641  1.00  0.00     0.029 A 
ATOM     60  N   UNL A   1      47.305  27.939  29.570  1.00  0.00    -0.354 N 
ATOM     61  N   UNL A   1      43.503  27.808  31.153  1.00  0.00    -0.248 NA
ATOM     62  C   UNL A   1      43.731  29.504  29.559  1.00  0.00     0.031 C 
ATOM     63  C   UNL A   1      48.179  26.334  30.778  1.00  0.00     0.029 A 
ATOM     64  C   UNL A   1      47.083  27.189  30.688  1.00  0.00     0.049 A 
ATOM     65  H   UNL A   1      46.755  28.710  29.301  1.00  0.00     0.167 HD
ATOM     66  C   UNL A   1      44.835  28.152  31.066  1.00  0.00     0.074 A 
ATOM     67  C   UNL A   1      44.873  29.345  30.232  1.00  0.00     0.031 C 
ATOM     68  C   UNL A   1      45.803  27.236  31.359  1.00  0.00     0.034 A 
BRANCH  55  69
ATOM     69  C   UNL A   1      48.460  29.355  27.122  1.00  0.00     0.023 A 
ATOM     70  C   UNL A   1      49.725  29.969  27.284  1.00  0.00     0.012 A 
ATOM     71  C   UNL A   1      47.357  30.221  26.947  1.00  0.00     0.148 A 
ATOM     72  C   UNL A   1      49.874  31.362  27.305  1.00  0.00     0.002 A 
ATOM     73  C   UNL A   1      47.521  31.602  26.880  1.00  0.00     0.091 A 
ATOM     74  F   UNL A   1      46.113  29.743  26.995  1.00  0.00    -0.205 F 
ATOM     75  C   UNL A   1      48.773  32.180  27.090  1.00  0.00     0.022 A 
BRANCH  73  76
ATOM     76  S   UNL A   1      46.131  32.695  26.558  1.00  0.00     0.127 S 
ATOM     77  O   UNL A   1      46.798  33.841  25.949  1.00  0.00    -0.237 OA
ATOM     78  O   UNL A   1      45.323  31.885  25.646  1.00  0.00    -0.237 OA
ATOM     79  O   UNL A   1      45.510  32.927  27.857  1.00  0.00    -0.744 OA
ENDBRANCH  73  76
ENDBRANCH  55  69
BRANCH  56  80
ATOM     80  C   UNL A   1      40.517  28.477  29.420  1.00  0.00     0.023 A 
ATOM     81  C   UNL A   1      39.733  28.551  28.247  1.00  0.00     0.012 A 
ATOM     82  C   UNL A   1      39.893  28.731  30.657  1.00  0.00     0.148 A 
ATOM     83  C   UNL A   1      38.358  28.793  28.309  1.00  0.00     0.002 A 
ATOM     84  C   UNL A   1      38.521  28.968  30.713  1.00  0.00     0.091 A 
ATOM     85  F   UNL A   1      40.627  28.646  31.774  1.00  0.00    -0.205 F 
ATOM     86  C   UNL A   1      37.748  28.982  29.543  1.00  0.00     0.022 A 
BRANCH  84  87
ATOM     87  S   UNL A   1      37.643  29.176  32.268  1.00  0.00     0.127 S 
ATOM     88  O   UNL A   1      36.290  29.495  31.810  1.00  0.00    -0.237 OA
ATOM     89  O   UNL A   1      37.788  27.855  32.873  1.00  0.00    -0.237 OA
ATOM     90  O   UNL A   1      38.317  30.268  32.958  1.00  0.00    -0.744 OA
ENDBRANCH  84  87
ENDBRANCH  56  80
BRANCH  68  91
ATOM     91  C   UNL A   1      45.441  26.125  32.300  1.00  0.00     0.023 A 
ATOM     92  C   UNL A   1      44.929  24.883  31.874  1.00  0.00     0.012 A 
ATOM     93  C   UNL A   1      45.671  26.335  33.669  1.00  0.00     0.148 A 
ATOM     94  C   UNL A   1      44.618  23.886  32.804  1.00  0.00     0.002 A 
ATOM     95  C   UNL A   1      45.405  25.327  34.583  1.00  0.00     0.091 A 
ATOM     96  F   UNL A   1      46.142  27.529  34.059  1.00  0.00    -0.205 F 
ATOM     97  C   UNL A   1      44.866  24.104  34.157  1.00  0.00     0.022 A 
BRANCH  95  98
ATOM     98  S   UNL A   1      45.807  25.527  36.319  1.00  0.00     0.127 S 
ATOM     99  O   UNL A   1      47.240  25.801  36.273  1.00  0.00    -0.237 OA
ATOM    100  O   UNL A   1      44.975  26.668  36.707  1.00  0.00    -0.237 OA
ATOM    101  O   UNL A   1      45.423  24.273  36.959  1.00  0.00    -0.744 OA
ENDBRANCH  95  98
ENDBRANCH  68  91
ENDBRANCH  42  43
ENDBRANCH  34  37
ENDBRANCH  32  33
ENDBRANCH  31  32
ENDBRANCH   1  31
TORSDOF 19
ENDMDL
