MODEL 1
REMARK VINA RESULT:     -11.1      0.000      0.000
REMARK SMILES CCOc1cc(CO)cc(Br)c1OCC(C)(C)C(=O)NCCCCNC(=O)c1ccc(-c2c3nc(c(-c4cccc(S(=O)(=O)[O-])c4F)c4ccc([nH]4)c(-c4cccc(S(=O)(=O)[O-])c4F)c4nc(c(-c5cccc(S(=O)(=O)[O-])c5F)c5ccc2[nH]5)C=C4)C=C3)cc1
REMARK SMILES IDX 21 1 20 2 18 3 19 4 15 6 16 7 17 8 14 9 13 10 12 11 4 12
REMARK SMILES IDX 5 13 6 14 10 15 9 16 11 17 3 18 2 19 1 20 7 21 8 22 22 24
REMARK SMILES IDX 23 25 24 26 25 27 26 28 27 30 28 31 29 32 90 33 30 34 89 35
REMARK SMILES IDX 31 36 32 37 33 38 83 39 34 40 88 41 82 42 84 43 35 44 87 45
REMARK SMILES IDX 81 46 80 47 36 49 68 50 48 51 67 52 49 53 52 54 66 55 85 56
REMARK SMILES IDX 50 57 51 58 65 60 86 61 53 62 37 63 38 64 46 65 39 66 41 67
REMARK SMILES IDX 47 68 40 69 42 70 43 71 44 72 45 73 69 74 70 75 78 76 71 77
REMARK SMILES IDX 73 78 79 79 72 80 74 81 75 82 76 83 77 84 54 85 55 86 63 87
REMARK SMILES IDX 56 88 58 89 64 90 57 91 59 92 60 93 61 94 62 95
REMARK H PARENT 20 5 8 23 25 29 84 48 52 59
REMARK Flexibility Score: inf
ROOT
ATOM      1  C   UNL A   1      30.937  27.690  24.326  1.00  0.00     0.116 C 
ENDROOT
BRANCH   1   2
ATOM      2  N   UNL A   1      32.026  26.923  24.916  1.00  0.00    -0.356 N 
ATOM      3  C   UNL A   1      32.168  25.594  25.212  1.00  0.00     0.229 C 
ATOM      4  O   UNL A   1      33.276  25.242  25.621  1.00  0.00    -0.274 OA
ATOM      5  H   UNL A   1      32.813  27.467  25.149  1.00  0.00     0.163 HD
BRANCH   3   6
ATOM      6  C   UNL A   1      31.006  24.589  25.054  1.00  0.00     0.077 C 
ATOM      7  C   UNL A   1      30.503  24.628  23.607  1.00  0.00     0.025 C 
ATOM      8  C   UNL A   1      29.886  24.973  26.052  1.00  0.00     0.025 C 
BRANCH   6   9
ATOM      9  C   UNL A   1      31.450  23.145  25.524  1.00  0.00     0.246 C 
BRANCH   9  10
ATOM     10  O   UNL A   1      31.989  22.180  24.616  1.00  0.00    -0.487 OA
BRANCH  10  11
ATOM     11  C   UNL A   1      33.329  21.994  24.429  1.00  0.00     0.175 A 
ATOM     12  C   UNL A   1      33.875  20.973  25.233  1.00  0.00     0.162 A 
ATOM     13  C   UNL A   1      35.256  20.869  25.400  1.00  0.00     0.056 A 
ATOM     14  C   UNL A   1      36.120  21.760  24.754  1.00  0.00    -0.018 A 
ATOM     15  C   UNL A   1      34.196  22.713  23.599  1.00  0.00     0.064 A 
ATOM     16  C   UNL A   1      35.583  22.627  23.798  1.00  0.00     0.026 A 
ATOM     17  Br  UNL A   1      33.647  23.754  22.104  1.00  0.00    -0.047 Br
BRANCH  12  18
ATOM     18  O   UNL A   1      32.996  20.036  25.715  1.00  0.00    -0.490 OA
BRANCH  18  19
ATOM     19  C   UNL A   1      32.984  18.742  25.118  1.00  0.00     0.226 C 
ATOM     20  C   UNL A   1      32.435  18.765  23.698  1.00  0.00     0.049 C 
ENDBRANCH  18  19
ENDBRANCH  12  18
BRANCH  14  21
ATOM     21  C   UNL A   1      37.604  21.715  25.000  1.00  0.00     0.191 C 
BRANCH  21  22
ATOM     22  O   UNL A   1      37.944  22.309  26.246  1.00  0.00    -0.392 OA
ATOM     23  H   UNL A   1      37.188  22.819  26.579  1.00  0.00     0.211 HD
ENDBRANCH  21  22
ENDBRANCH  14  21
ENDBRANCH  10  11
ENDBRANCH   9  10
ENDBRANCH   6   9
ENDBRANCH   3   6
ENDBRANCH   1   2
BRANCH   1  24
ATOM     24  C   UNL A   1      31.079  29.194  24.529  1.00  0.00     0.023 C 
BRANCH  24  25
ATOM     25  C   UNL A   1      32.404  29.643  25.136  1.00  0.00     0.023 C 
BRANCH  25  26
ATOM     26  C   UNL A   1      32.354  30.028  26.611  1.00  0.00     0.116 C 
BRANCH  26  27
ATOM     27  N   UNL A   1      32.310  31.469  26.838  1.00  0.00    -0.352 N 
ATOM     28  C   UNL A   1      33.264  32.275  27.415  1.00  0.00     0.251 C 
ATOM     29  H   UNL A   1      31.489  31.924  26.539  1.00  0.00     0.163 HD
ATOM     30  O   UNL A   1      33.039  33.465  27.615  1.00  0.00    -0.269 OA
BRANCH  28  31
ATOM     31  C   UNL A   1      34.548  31.676  27.826  1.00  0.00     0.039 A 
ATOM     32  C   UNL A   1      35.660  32.503  27.999  1.00  0.00     0.014 A 
ATOM     33  C   UNL A   1      34.619  30.315  28.130  1.00  0.00     0.014 A 
ATOM     34  C   UNL A   1      36.821  31.982  28.572  1.00  0.00     0.010 A 
ATOM     35  C   UNL A   1      35.750  29.815  28.766  1.00  0.00     0.010 A 
ATOM     36  C   UNL A   1      36.855  30.646  29.007  1.00  0.00    -0.014 A 
BRANCH  36  37
ATOM     37  C   UNL A   1      38.016  30.103  29.756  1.00  0.00     0.031 A 
ATOM     38  C   UNL A   1      38.298  30.574  31.155  1.00  0.00     0.074 A 
ATOM     39  C   UNL A   1      38.883  29.279  29.132  1.00  0.00     0.049 A 
ATOM     40  N   UNL A   1      39.312  30.293  31.930  1.00  0.00    -0.248 NA
ATOM     41  C   UNL A   1      37.327  31.508  31.750  1.00  0.00     0.031 C 
ATOM     42  C   UNL A   1      38.766  28.818  27.746  1.00  0.00     0.029 A 
ATOM     43  N   UNL A   1      40.052  28.708  29.572  1.00  0.00    -0.354 N 
ATOM     44  C   UNL A   1      39.126  31.043  33.085  1.00  0.00     0.074 A 
ATOM     45  C   UNL A   1      37.917  31.814  32.897  1.00  0.00     0.031 C 
ATOM     46  C   UNL A   1      39.817  28.037  27.451  1.00  0.00     0.029 A 
ATOM     47  C   UNL A   1      40.698  27.963  28.613  1.00  0.00     0.049 A 
ATOM     48  H   UNL A   1      40.395  28.822  30.488  1.00  0.00     0.167 HD
ATOM     49  C   UNL A   1      39.873  31.061  34.213  1.00  0.00     0.034 A 
ATOM     50  C   UNL A   1      41.870  27.299  28.661  1.00  0.00     0.034 A 
ATOM     51  C   UNL A   1      41.042  30.250  34.417  1.00  0.00     0.049 A 
ATOM     52  C   UNL A   1      42.656  27.300  29.944  1.00  0.00     0.074 A 
ATOM     53  C   UNL A   1      41.810  30.122  35.561  1.00  0.00     0.029 A 
ATOM     54  N   UNL A   1      41.614  29.430  33.456  1.00  0.00    -0.354 N 
ATOM     55  N   UNL A   1      42.374  27.881  31.083  1.00  0.00    -0.248 NA
ATOM     56  C   UNL A   1      43.908  26.527  29.958  1.00  0.00     0.031 C 
ATOM     57  C   UNL A   1      42.854  29.231  35.287  1.00  0.00     0.029 A 
ATOM     58  C   UNL A   1      42.728  28.797  33.978  1.00  0.00     0.049 A 
ATOM     59  H   UNL A   1      41.276  29.315  32.539  1.00  0.00     0.167 HD
ATOM     60  C   UNL A   1      43.391  27.520  31.959  1.00  0.00     0.074 A 
ATOM     61  C   UNL A   1      44.287  26.651  31.223  1.00  0.00     0.031 C 
ATOM     62  C   UNL A   1      43.577  27.889  33.250  1.00  0.00     0.034 A 
BRANCH  49  63
ATOM     63  C   UNL A   1      39.406  31.938  35.343  1.00  0.00     0.023 A 
ATOM     64  C   UNL A   1      39.703  33.316  35.315  1.00  0.00     0.012 A 
ATOM     65  C   UNL A   1      38.632  31.418  36.399  1.00  0.00     0.148 A 
ATOM     66  C   UNL A   1      39.266  34.158  36.335  1.00  0.00     0.002 A 
ATOM     67  C   UNL A   1      38.166  32.272  37.392  1.00  0.00     0.091 A 
ATOM     68  F   UNL A   1      38.380  30.102  36.421  1.00  0.00    -0.205 F 
ATOM     69  C   UNL A   1      38.489  33.639  37.366  1.00  0.00     0.022 A 
BRANCH  67  70
ATOM     70  S   UNL A   1      37.098  31.713  38.725  1.00  0.00     0.127 S 
ATOM     71  O   UNL A   1      37.961  31.898  39.890  1.00  0.00    -0.237 OA
ATOM     72  O   UNL A   1      35.979  32.651  38.640  1.00  0.00    -0.237 OA
ATOM     73  O   UNL A   1      36.756  30.333  38.408  1.00  0.00    -0.744 OA
ENDBRANCH  67  70
ENDBRANCH  49  63
BRANCH  50  74
ATOM     74  C   UNL A   1      42.330  26.515  27.480  1.00  0.00     0.023 A 
ATOM     75  C   UNL A   1      43.088  27.160  26.483  1.00  0.00     0.012 A 
ATOM     76  C   UNL A   1      42.057  25.140  27.352  1.00  0.00     0.148 A 
ATOM     77  C   UNL A   1      43.543  26.456  25.367  1.00  0.00     0.002 A 
ATOM     78  C   UNL A   1      42.558  24.433  26.264  1.00  0.00     0.091 A 
ATOM     79  F   UNL A   1      41.321  24.546  28.302  1.00  0.00    -0.205 F 
ATOM     80  C   UNL A   1      43.287  25.092  25.263  1.00  0.00     0.022 A 
BRANCH  78  81
ATOM     81  S   UNL A   1      42.389  22.650  26.119  1.00  0.00     0.127 S 
ATOM     82  O   UNL A   1      40.938  22.491  26.052  1.00  0.00    -0.237 OA
ATOM     83  O   UNL A   1      43.098  22.377  24.869  1.00  0.00    -0.237 OA
ATOM     84  O   UNL A   1      43.035  22.102  27.303  1.00  0.00    -0.744 OA
ENDBRANCH  78  81
ENDBRANCH  50  74
BRANCH  62  85
ATOM     85  C   UNL A   1      44.782  27.341  33.967  1.00  0.00     0.023 A 
ATOM     86  C   UNL A   1      46.011  28.023  33.881  1.00  0.00     0.012 A 
ATOM     87  C   UNL A   1      44.674  26.206  34.796  1.00  0.00     0.148 A 
ATOM     88  C   UNL A   1      47.123  27.571  34.590  1.00  0.00     0.002 A 
ATOM     89  C   UNL A   1      45.775  25.788  35.534  1.00  0.00     0.091 A 
ATOM     90  F   UNL A   1      43.500  25.561  34.847  1.00  0.00    -0.205 F 
ATOM     91  C   UNL A   1      47.002  26.463  35.425  1.00  0.00     0.022 A 
BRANCH  89  92
ATOM     92  S   UNL A   1      45.686  24.426  36.704  1.00  0.00     0.127 S 
ATOM     93  O   UNL A   1      44.638  24.883  37.614  1.00  0.00    -0.237 OA
ATOM     94  O   UNL A   1      45.301  23.304  35.846  1.00  0.00    -0.237 OA
ATOM     95  O   UNL A   1      47.016  24.311  37.284  1.00  0.00    -0.744 OA
ENDBRANCH  89  92
ENDBRANCH  62  85
ENDBRANCH  36  37
ENDBRANCH  28  31
ENDBRANCH  26  27
ENDBRANCH  25  26
ENDBRANCH  24  25
ENDBRANCH   1  24
TORSDOF 21
ENDMDL
MODEL 2
REMARK VINA RESULT:     -10.9      5.078      9.914
REMARK SMILES CCOc1cc(CO)cc(Br)c1OCC(C)(C)C(=O)NCCCCNC(=O)c1ccc(-c2c3nc(c(-c4cccc(S(=O)(=O)[O-])c4F)c4ccc([nH]4)c(-c4cccc(S(=O)(=O)[O-])c4F)c4nc(c(-c5cccc(S(=O)(=O)[O-])c5F)c5ccc2[nH]5)C=C4)C=C3)cc1
REMARK SMILES IDX 21 1 20 2 18 3 19 4 15 6 16 7 17 8 14 9 13 10 12 11 4 12
REMARK SMILES IDX 5 13 6 14 10 15 9 16 11 17 3 18 2 19 1 20 7 21 8 22 22 24
REMARK SMILES IDX 23 25 24 26 25 27 26 28 27 30 28 31 29 32 90 33 30 34 89 35
REMARK SMILES IDX 31 36 32 37 33 38 83 39 34 40 88 41 82 42 84 43 35 44 87 45
REMARK SMILES IDX 81 46 80 47 36 49 68 50 48 51 67 52 49 53 52 54 66 55 85 56
REMARK SMILES IDX 50 57 51 58 65 60 86 61 53 62 37 63 38 64 46 65 39 66 41 67
REMARK SMILES IDX 47 68 40 69 42 70 43 71 44 72 45 73 69 74 70 75 78 76 71 77
REMARK SMILES IDX 73 78 79 79 72 80 74 81 75 82 76 83 77 84 54 85 55 86 63 87
REMARK SMILES IDX 56 88 58 89 64 90 57 91 59 92 60 93 61 94 62 95
REMARK H PARENT 20 5 8 23 25 29 84 48 52 59
REMARK Flexibility Score: inf
ROOT
ATOM      1  C   UNL A   1      34.463  22.953  23.169  1.00  0.00     0.116 C 
ENDROOT
BRANCH   1   2
ATOM      2  N   UNL A   1      33.880  21.935  24.031  1.00  0.00    -0.356 N 
ATOM      3  C   UNL A   1      33.141  22.007  25.182  1.00  0.00     0.229 C 
ATOM      4  O   UNL A   1      32.706  20.940  25.618  1.00  0.00    -0.274 OA
ATOM      5  H   UNL A   1      34.051  21.014  23.728  1.00  0.00     0.163 HD
BRANCH   3   6
ATOM      6  C   UNL A   1      32.873  23.345  25.903  1.00  0.00     0.077 C 
ATOM      7  C   UNL A   1      34.172  23.832  26.556  1.00  0.00     0.025 C 
ATOM      8  C   UNL A   1      31.761  23.120  26.957  1.00  0.00     0.025 C 
BRANCH   6   9
ATOM      9  C   UNL A   1      32.240  24.398  24.907  1.00  0.00     0.246 C 
BRANCH   9  10
ATOM     10  O   UNL A   1      32.922  25.598  24.532  1.00  0.00    -0.487 OA
BRANCH  10  11
ATOM     11  C   UNL A   1      32.301  26.656  23.932  1.00  0.00     0.175 A 
ATOM     12  C   UNL A   1      32.045  27.732  24.807  1.00  0.00     0.162 A 
ATOM     13  C   UNL A   1      31.150  28.739  24.445  1.00  0.00     0.056 A 
ATOM     14  C   UNL A   1      30.513  28.710  23.200  1.00  0.00    -0.018 A 
ATOM     15  C   UNL A   1      31.859  26.765  22.609  1.00  0.00     0.064 A 
ATOM     16  C   UNL A   1      30.933  27.761  22.263  1.00  0.00     0.026 A 
ATOM     17  Br  UNL A   1      32.503  25.709  21.163  1.00  0.00    -0.047 Br
BRANCH  12  18
ATOM     18  O   UNL A   1      32.812  27.793  25.943  1.00  0.00    -0.490 OA
BRANCH  18  19
ATOM     19  C   UNL A   1      33.966  28.629  25.943  1.00  0.00     0.226 C 
ATOM     20  C   UNL A   1      34.341  29.096  27.342  1.00  0.00     0.049 C 
ENDBRANCH  18  19
ENDBRANCH  12  18
BRANCH  14  21
ATOM     21  C   UNL A   1      29.478  29.740  22.837  1.00  0.00     0.191 C 
BRANCH  21  22
ATOM     22  O   UNL A   1      30.057  30.840  22.146  1.00  0.00    -0.392 OA
ATOM     23  H   UNL A   1      30.573  30.512  21.392  1.00  0.00     0.211 HD
ENDBRANCH  21  22
ENDBRANCH  14  21
ENDBRANCH  10  11
ENDBRANCH   9  10
ENDBRANCH   6   9
ENDBRANCH   3   6
ENDBRANCH   1   2
BRANCH   1  24
ATOM     24  C   UNL A   1      35.985  22.989  23.220  1.00  0.00     0.023 C 
BRANCH  24  25
ATOM     25  C   UNL A   1      36.617  22.117  24.300  1.00  0.00     0.023 C 
BRANCH  25  26
ATOM     26  C   UNL A   1      37.389  22.868  25.381  1.00  0.00     0.116 C 
BRANCH  26  27
ATOM     27  N   UNL A   1      38.482  22.096  25.962  1.00  0.00    -0.352 N 
ATOM     28  C   UNL A   1      39.558  22.548  26.690  1.00  0.00     0.251 C 
ATOM     29  H   UNL A   1      38.444  21.123  25.813  1.00  0.00     0.163 HD
ATOM     30  O   UNL A   1      40.447  21.775  27.038  1.00  0.00    -0.269 OA
BRANCH  28  31
ATOM     31  C   UNL A   1      39.648  23.986  27.011  1.00  0.00     0.039 A 
ATOM     32  C   UNL A   1      39.329  24.415  28.300  1.00  0.00     0.014 A 
ATOM     33  C   UNL A   1      40.137  24.885  26.061  1.00  0.00     0.014 A 
ATOM     34  C   UNL A   1      39.594  25.735  28.669  1.00  0.00     0.010 A 
ATOM     35  C   UNL A   1      40.467  26.178  26.451  1.00  0.00     0.010 A 
ATOM     36  C   UNL A   1      40.213  26.611  27.761  1.00  0.00    -0.014 A 
BRANCH  36  37
ATOM     37  C   UNL A   1      40.648  27.971  28.168  1.00  0.00     0.031 A 
ATOM     38  C   UNL A   1      42.110  28.318  28.199  1.00  0.00     0.074 A 
ATOM     39  C   UNL A   1      39.733  28.851  28.625  1.00  0.00     0.049 A 
ATOM     40  N   UNL A   1      42.687  29.413  28.618  1.00  0.00    -0.248 NA
ATOM     41  C   UNL A   1      43.048  27.287  27.726  1.00  0.00     0.031 C 
ATOM     42  C   UNL A   1      38.293  28.601  28.727  1.00  0.00     0.029 A 
ATOM     43  N   UNL A   1      39.883  30.123  29.121  1.00  0.00    -0.354 N 
ATOM     44  C   UNL A   1      44.053  29.191  28.497  1.00  0.00     0.074 A 
ATOM     45  C   UNL A   1      44.220  27.845  27.995  1.00  0.00     0.031 C 
ATOM     46  C   UNL A   1      37.694  29.682  29.250  1.00  0.00     0.029 A 
ATOM     47  C   UNL A   1      38.705  30.691  29.549  1.00  0.00     0.049 A 
ATOM     48  H   UNL A   1      40.752  30.584  29.167  1.00  0.00     0.167 HD
ATOM     49  C   UNL A   1      45.076  30.042  28.749  1.00  0.00     0.034 A 
ATOM     50  C   UNL A   1      38.468  31.888  30.122  1.00  0.00     0.034 A 
ATOM     51  C   UNL A   1      44.903  31.397  29.193  1.00  0.00     0.049 A 
ATOM     52  C   UNL A   1      39.618  32.831  30.346  1.00  0.00     0.074 A 
ATOM     53  C   UNL A   1      45.870  32.370  29.381  1.00  0.00     0.029 A 
ATOM     54  N   UNL A   1      43.686  31.973  29.524  1.00  0.00    -0.354 N 
ATOM     55  N   UNL A   1      40.887  32.665  30.066  1.00  0.00    -0.248 NA
ATOM     56  C   UNL A   1      39.300  34.141  30.936  1.00  0.00     0.031 C 
ATOM     57  C   UNL A   1      45.236  33.532  29.834  1.00  0.00     0.029 A 
ATOM     58  C   UNL A   1      43.876  33.286  29.918  1.00  0.00     0.049 A 
ATOM     59  H   UNL A   1      42.816  31.516  29.482  1.00  0.00     0.167 HD
ATOM     60  C   UNL A   1      41.515  33.854  30.415  1.00  0.00     0.074 A 
ATOM     61  C   UNL A   1      40.481  34.743  30.906  1.00  0.00     0.031 C 
ATOM     62  C   UNL A   1      42.830  34.177  30.350  1.00  0.00     0.034 A 
BRANCH  49  63
ATOM     63  C   UNL A   1      46.472  29.551  28.478  1.00  0.00     0.023 A 
ATOM     64  C   UNL A   1      47.054  29.790  27.216  1.00  0.00     0.012 A 
ATOM     65  C   UNL A   1      47.227  28.906  29.477  1.00  0.00     0.148 A 
ATOM     66  C   UNL A   1      48.352  29.368  26.941  1.00  0.00     0.002 A 
ATOM     67  C   UNL A   1      48.536  28.524  29.207  1.00  0.00     0.091 A 
ATOM     68  F   UNL A   1      46.649  28.666  30.662  1.00  0.00    -0.205 F 
ATOM     69  C   UNL A   1      49.096  28.745  27.938  1.00  0.00     0.022 A 
BRANCH  67  70
ATOM     70  S   UNL A   1      49.600  27.779  30.449  1.00  0.00     0.127 S 
ATOM     71  O   UNL A   1      49.544  28.772  31.519  1.00  0.00    -0.237 OA
ATOM     72  O   UNL A   1      48.903  26.526  30.744  1.00  0.00    -0.237 OA
ATOM     73  O   UNL A   1      50.900  27.612  29.813  1.00  0.00    -0.744 OA
ENDBRANCH  67  70
ENDBRANCH  49  63
BRANCH  50  74
ATOM     74  C   UNL A   1      37.070  32.291  30.450  1.00  0.00     0.023 A 
ATOM     75  C   UNL A   1      36.605  32.133  31.771  1.00  0.00     0.012 A 
ATOM     76  C   UNL A   1      36.216  32.857  29.485  1.00  0.00     0.148 A 
ATOM     77  C   UNL A   1      35.306  32.506  32.117  1.00  0.00     0.002 A 
ATOM     78  C   UNL A   1      34.941  33.276  29.849  1.00  0.00     0.091 A 
ATOM     79  F   UNL A   1      36.671  32.985  28.230  1.00  0.00    -0.205 F 
ATOM     80  C   UNL A   1      34.478  33.087  31.160  1.00  0.00     0.022 A 
BRANCH  78  81
ATOM     81  S   UNL A   1      33.860  34.152  28.713  1.00  0.00     0.127 S 
ATOM     82  O   UNL A   1      33.486  33.094  27.778  1.00  0.00    -0.237 OA
ATOM     83  O   UNL A   1      32.785  34.600  29.600  1.00  0.00    -0.237 OA
ATOM     84  O   UNL A   1      34.668  35.232  28.164  1.00  0.00    -0.744 OA
ENDBRANCH  78  81
ENDBRANCH  50  74
BRANCH  62  85
ATOM     85  C   UNL A   1      43.235  35.555  30.799  1.00  0.00     0.023 A 
ATOM     86  C   UNL A   1      43.570  35.775  32.150  1.00  0.00     0.012 A 
ATOM     87  C   UNL A   1      43.370  36.606  29.871  1.00  0.00     0.148 A 
ATOM     88  C   UNL A   1      44.011  37.026  32.575  1.00  0.00     0.002 A 
ATOM     89  C   UNL A   1      43.853  37.839  30.294  1.00  0.00     0.091 A 
ATOM     90  F   UNL A   1      43.027  36.381  28.595  1.00  0.00    -0.205 F 
ATOM     91  C   UNL A   1      44.164  38.054  31.647  1.00  0.00     0.022 A 
BRANCH  89  92
ATOM     92  S   UNL A   1      44.168  39.191  29.152  1.00  0.00     0.127 S 
ATOM     93  O   UNL A   1      42.854  39.825  29.071  1.00  0.00    -0.237 OA
ATOM     94  O   UNL A   1      45.179  39.972  29.867  1.00  0.00    -0.237 OA
ATOM     95  O   UNL A   1      44.644  38.573  27.923  1.00  0.00    -0.744 OA
ENDBRANCH  89  92
ENDBRANCH  62  85
ENDBRANCH  36  37
ENDBRANCH  28  31
ENDBRANCH  26  27
ENDBRANCH  25  26
ENDBRANCH  24  25
ENDBRANCH   1  24
TORSDOF 21
ENDMDL
MODEL 3
REMARK VINA RESULT:     -10.9      1.581      2.414
REMARK SMILES CCOc1cc(CO)cc(Br)c1OCC(C)(C)C(=O)NCCCCNC(=O)c1ccc(-c2c3nc(c(-c4cccc(S(=O)(=O)[O-])c4F)c4ccc([nH]4)c(-c4cccc(S(=O)(=O)[O-])c4F)c4nc(c(-c5cccc(S(=O)(=O)[O-])c5F)c5ccc2[nH]5)C=C4)C=C3)cc1
REMARK SMILES IDX 21 1 20 2 18 3 19 4 15 6 16 7 17 8 14 9 13 10 12 11 4 12
REMARK SMILES IDX 5 13 6 14 10 15 9 16 11 17 3 18 2 19 1 20 7 21 8 22 22 24
REMARK SMILES IDX 23 25 24 26 25 27 26 28 27 30 28 31 29 32 90 33 30 34 89 35
REMARK SMILES IDX 31 36 32 37 33 38 83 39 34 40 88 41 82 42 84 43 35 44 87 45
REMARK SMILES IDX 81 46 80 47 36 49 68 50 48 51 67 52 49 53 52 54 66 55 85 56
REMARK SMILES IDX 50 57 51 58 65 60 86 61 53 62 37 63 38 64 46 65 39 66 41 67
REMARK SMILES IDX 47 68 40 69 42 70 43 71 44 72 45 73 69 74 70 75 78 76 71 77
REMARK SMILES IDX 73 78 79 79 72 80 74 81 75 82 76 83 77 84 54 85 55 86 63 87
REMARK SMILES IDX 56 88 58 89 64 90 57 91 59 92 60 93 61 94 62 95
REMARK H PARENT 20 5 8 23 25 29 84 48 52 59
REMARK Flexibility Score: inf
ROOT
ATOM      1  C   UNL A   1      31.366  28.410  24.148  1.00  0.00     0.116 C 
ENDROOT
BRANCH   1   2
ATOM      2  N   UNL A   1      31.187  27.441  25.220  1.00  0.00    -0.356 N 
ATOM      3  C   UNL A   1      32.055  26.598  25.861  1.00  0.00     0.229 C 
ATOM      4  O   UNL A   1      31.597  25.966  26.814  1.00  0.00    -0.274 OA
ATOM      5  H   UNL A   1      30.261  27.379  25.547  1.00  0.00     0.163 HD
BRANCH   3   6
ATOM      6  C   UNL A   1      33.524  26.438  25.414  1.00  0.00     0.077 C 
ATOM      7  C   UNL A   1      34.375  27.517  26.093  1.00  0.00     0.025 C 
ATOM      8  C   UNL A   1      33.583  26.559  23.871  1.00  0.00     0.025 C 
BRANCH   6   9
ATOM      9  C   UNL A   1      34.035  24.968  25.696  1.00  0.00     0.246 C 
BRANCH   9  10
ATOM     10  O   UNL A   1      34.645  24.166  24.681  1.00  0.00    -0.487 OA
BRANCH  10  11
ATOM     11  C   UNL A   1      34.524  22.806  24.627  1.00  0.00     0.175 A 
ATOM     12  C   UNL A   1      33.348  22.370  23.981  1.00  0.00     0.162 A 
ATOM     13  C   UNL A   1      32.916  21.051  24.118  1.00  0.00     0.056 A 
ATOM     14  C   UNL A   1      33.654  20.136  24.875  1.00  0.00    -0.018 A 
ATOM     15  C   UNL A   1      35.376  21.838  25.167  1.00  0.00     0.064 A 
ATOM     16  C   UNL A   1      34.919  20.520  25.331  1.00  0.00     0.026 A 
ATOM     17  Br  UNL A   1      37.200  22.134  25.620  1.00  0.00    -0.047 Br
BRANCH  12  18
ATOM     18  O   UNL A   1      32.750  23.262  23.127  1.00  0.00    -0.490 OA
BRANCH  18  19
ATOM     19  C   UNL A   1      31.331  23.243  23.005  1.00  0.00     0.226 C 
ATOM     20  C   UNL A   1      30.639  23.908  24.187  1.00  0.00     0.049 C 
ENDBRANCH  18  19
ENDBRANCH  12  18
BRANCH  14  21
ATOM     21  C   UNL A   1      33.150  18.736  25.105  1.00  0.00     0.191 C 
BRANCH  21  22
ATOM     22  O   UNL A   1      32.876  18.500  26.480  1.00  0.00    -0.392 OA
ATOM     23  H   UNL A   1      32.705  17.555  26.619  1.00  0.00     0.211 HD
ENDBRANCH  21  22
ENDBRANCH  14  21
ENDBRANCH  10  11
ENDBRANCH   9  10
ENDBRANCH   6   9
ENDBRANCH   3   6
ENDBRANCH   1   2
BRANCH   1  24
ATOM     24  C   UNL A   1      31.976  29.726  24.617  1.00  0.00     0.023 C 
BRANCH  24  25
ATOM     25  C   UNL A   1      31.349  30.315  25.877  1.00  0.00     0.023 C 
BRANCH  25  26
ATOM     26  C   UNL A   1      32.335  30.757  26.955  1.00  0.00     0.116 C 
BRANCH  26  27
ATOM     27  N   UNL A   1      32.432  32.205  27.101  1.00  0.00    -0.352 N 
ATOM     28  C   UNL A   1      33.478  32.948  27.599  1.00  0.00     0.251 C 
ATOM     29  H   UNL A   1      31.646  32.718  26.804  1.00  0.00     0.163 HD
ATOM     30  O   UNL A   1      33.371  34.163  27.738  1.00  0.00    -0.269 OA
BRANCH  28  31
ATOM     31  C   UNL A   1      34.716  32.254  28.002  1.00  0.00     0.039 A 
ATOM     32  C   UNL A   1      35.884  32.998  28.182  1.00  0.00     0.014 A 
ATOM     33  C   UNL A   1      34.689  30.887  28.290  1.00  0.00     0.014 A 
ATOM     34  C   UNL A   1      37.005  32.388  28.747  1.00  0.00     0.010 A 
ATOM     35  C   UNL A   1      35.782  30.301  28.918  1.00  0.00     0.010 A 
ATOM     36  C   UNL A   1      36.944  31.048  29.166  1.00  0.00    -0.014 A 
BRANCH  36  37
ATOM     37  C   UNL A   1      38.063  30.415  29.908  1.00  0.00     0.031 A 
ATOM     38  C   UNL A   1      38.351  30.817  31.327  1.00  0.00     0.074 A 
ATOM     39  C   UNL A   1      38.894  29.570  29.262  1.00  0.00     0.049 A 
ATOM     40  N   UNL A   1      39.338  30.452  32.102  1.00  0.00    -0.248 NA
ATOM     41  C   UNL A   1      37.424  31.778  31.947  1.00  0.00     0.031 C 
ATOM     42  C   UNL A   1      38.772  29.169  27.858  1.00  0.00     0.029 A 
ATOM     43  N   UNL A   1      40.024  28.920  29.694  1.00  0.00    -0.354 N 
ATOM     44  C   UNL A   1      39.176  31.166  33.283  1.00  0.00     0.074 A 
ATOM     45  C   UNL A   1      38.013  32.008  33.112  1.00  0.00     0.031 C 
ATOM     46  C   UNL A   1      39.783  28.345  27.546  1.00  0.00     0.029 A 
ATOM     47  C   UNL A   1      40.643  28.178  28.714  1.00  0.00     0.049 A 
ATOM     48  H   UNL A   1      40.361  28.981  30.617  1.00  0.00     0.167 HD
ATOM     49  C   UNL A   1      39.908  31.101  34.420  1.00  0.00     0.034 A 
ATOM     50  C   UNL A   1      41.777  27.451  28.750  1.00  0.00     0.034 A 
ATOM     51  C   UNL A   1      41.028  30.221  34.606  1.00  0.00     0.049 A 
ATOM     52  C   UNL A   1      42.544  27.360  30.041  1.00  0.00     0.074 A 
ATOM     53  C   UNL A   1      41.773  30.008  35.753  1.00  0.00     0.029 A 
ATOM     54  N   UNL A   1      41.569  29.408  33.621  1.00  0.00    -0.354 N 
ATOM     55  N   UNL A   1      42.278  27.912  31.199  1.00  0.00    -0.248 NA
ATOM     56  C   UNL A   1      43.752  26.521  30.040  1.00  0.00     0.031 C 
ATOM     57  C   UNL A   1      42.771  29.073  35.457  1.00  0.00     0.029 A 
ATOM     58  C   UNL A   1      42.641  28.696  34.131  1.00  0.00     0.049 A 
ATOM     59  H   UNL A   1      41.238  29.347  32.696  1.00  0.00     0.167 HD
ATOM     60  C   UNL A   1      43.262  27.464  32.072  1.00  0.00     0.074 A 
ATOM     61  C   UNL A   1      44.120  26.577  31.313  1.00  0.00     0.031 C 
ATOM     62  C   UNL A   1      43.449  27.772  33.379  1.00  0.00     0.034 A 
BRANCH  49  63
ATOM     63  C   UNL A   1      39.472  31.958  35.578  1.00  0.00     0.023 A 
ATOM     64  C   UNL A   1      38.461  31.487  36.440  1.00  0.00     0.012 A 
ATOM     65  C   UNL A   1      40.093  33.193  35.847  1.00  0.00     0.148 A 
ATOM     66  C   UNL A   1      38.050  32.246  37.534  1.00  0.00     0.002 A 
ATOM     67  C   UNL A   1      39.704  33.926  36.963  1.00  0.00     0.091 A 
ATOM     68  F   UNL A   1      41.035  33.634  35.003  1.00  0.00    -0.205 F 
ATOM     69  C   UNL A   1      38.678  33.459  37.801  1.00  0.00     0.022 A 
BRANCH  67  70
ATOM     70  S   UNL A   1      40.503  35.465  37.433  1.00  0.00     0.127 S 
ATOM     71  O   UNL A   1      40.267  35.491  38.875  1.00  0.00    -0.237 OA
ATOM     72  O   UNL A   1      41.894  35.224  37.048  1.00  0.00    -0.237 OA
ATOM     73  O   UNL A   1      39.836  36.510  36.668  1.00  0.00    -0.744 OA
ENDBRANCH  67  70
ENDBRANCH  49  63
BRANCH  50  74
ATOM     74  C   UNL A   1      42.211  26.688  27.545  1.00  0.00     0.023 A 
ATOM     75  C   UNL A   1      42.942  27.354  26.541  1.00  0.00     0.012 A 
ATOM     76  C   UNL A   1      41.940  25.315  27.400  1.00  0.00     0.148 A 
ATOM     77  C   UNL A   1      43.371  26.671  25.403  1.00  0.00     0.002 A 
ATOM     78  C   UNL A   1      42.417  24.628  26.289  1.00  0.00     0.091 A 
ATOM     79  F   UNL A   1      41.230  24.702  28.359  1.00  0.00    -0.205 F 
ATOM     80  C   UNL A   1      43.118  25.308  25.281  1.00  0.00     0.022 A 
BRANCH  78  81
ATOM     81  S   UNL A   1      42.251  22.848  26.118  1.00  0.00     0.127 S 
ATOM     82  O   UNL A   1      42.860  22.613  24.812  1.00  0.00    -0.237 OA
ATOM     83  O   UNL A   1      43.027  22.358  27.258  1.00  0.00    -0.237 OA
ATOM     84  O   UNL A   1      40.822  22.581  26.212  1.00  0.00    -0.744 OA
ENDBRANCH  78  81
ENDBRANCH  50  74
BRANCH  62  85
ATOM     85  C   UNL A   1      44.613  27.133  34.088  1.00  0.00     0.023 A 
ATOM     86  C   UNL A   1      45.870  27.769  34.073  1.00  0.00     0.012 A 
ATOM     87  C   UNL A   1      44.440  25.955  34.841  1.00  0.00     0.148 A 
ATOM     88  C   UNL A   1      46.944  27.230  34.778  1.00  0.00     0.002 A 
ATOM     89  C   UNL A   1      45.504  25.447  35.577  1.00  0.00     0.091 A 
ATOM     90  F   UNL A   1      43.242  25.356  34.825  1.00  0.00    -0.205 F 
ATOM     91  C   UNL A   1      46.759  26.078  35.539  1.00  0.00     0.022 A 
BRANCH  89  92
ATOM     92  S   UNL A   1      45.333  24.021  36.657  1.00  0.00     0.127 S 
ATOM     93  O   UNL A   1      44.556  23.107  35.821  1.00  0.00    -0.237 OA
ATOM     94  O   UNL A   1      46.725  23.621  36.867  1.00  0.00    -0.237 OA
ATOM     95  O   UNL A   1      44.657  24.504  37.853  1.00  0.00    -0.744 OA
ENDBRANCH  89  92
ENDBRANCH  62  85
ENDBRANCH  36  37
ENDBRANCH  28  31
ENDBRANCH  26  27
ENDBRANCH  25  26
ENDBRANCH  24  25
ENDBRANCH   1  24
TORSDOF 21
ENDMDL
