MODEL 1
REMARK VINA RESULT:     -11.4      0.000      0.000
REMARK SMILES Cn1cccc1C(=O)N[C@](C)(C(=O)NCCCCNC(=O)c1ccc(-c2c3nc(c(-c4cccc(S(=O)(=O)[O-])c4F)c4ccc([nH]4)c(-c4cccc(S(=O)(=O)[O-])c4F)c4nc(c(-c5cccc(S(=O)(=O)[O-])c5F)c5ccc2[nH]5)C=C4)C=C3)cc1)C(F)(F)F
REMARK SMILES IDX 17 1 16 2 15 3 14 4 12 5 13 6 10 8 11 9 9 10 7 11 8 12 6 14
REMARK SMILES IDX 1 15 2 16 3 17 4 18 5 19 85 20 86 21 87 22 88 23 18 24 19 25
REMARK SMILES IDX 20 26 21 28 22 29 23 30 84 31 24 32 83 33 25 34 26 35 27 36
REMARK SMILES IDX 77 37 28 38 82 39 76 40 78 41 29 42 81 43 75 44 74 45 30 47
REMARK SMILES IDX 62 48 42 49 61 50 43 51 46 52 60 53 79 54 44 55 45 56 59 58
REMARK SMILES IDX 80 59 47 60 31 61 32 62 40 63 33 64 35 65 41 66 34 67 36 68
REMARK SMILES IDX 37 69 38 70 39 71 63 72 64 73 72 74 65 75 67 76 73 77 66 78
REMARK SMILES IDX 68 79 69 80 70 81 71 82 48 83 49 84 57 85 50 86 52 87 58 88
REMARK SMILES IDX 51 89 53 90 54 91 55 92 56 93
REMARK H PARENT 14 7 9 13 19 27 78 46 46 57
REMARK Flexibility Score: inf
ROOT
ATOM      1  C   UNL A   1      32.481  29.459  24.928  1.00  0.00     0.023 C 
ENDROOT
BRANCH   1   2
ATOM      2  C   UNL A   1      31.153  29.348  24.190  1.00  0.00     0.023 C 
BRANCH   2   3
ATOM      3  C   UNL A   1      30.444  27.995  24.315  1.00  0.00     0.116 C 
BRANCH   3   4
ATOM      4  N   UNL A   1      30.461  27.307  23.032  1.00  0.00    -0.354 N 
ATOM      5  C   UNL A   1      31.309  26.404  22.472  1.00  0.00     0.254 C 
ATOM      6  O   UNL A   1      31.223  26.308  21.241  1.00  0.00    -0.272 OA
ATOM      7  H   UNL A   1      29.702  27.543  22.452  1.00  0.00     0.163 HD
BRANCH   5   8
ATOM      8  C   UNL A   1      32.243  25.438  23.250  1.00  0.00     0.212 C 
ATOM      9  C   UNL A   1      33.135  24.590  22.317  1.00  0.00     0.056 C 
BRANCH   8  10
ATOM     10  N   UNL A   1      33.066  25.937  24.385  1.00  0.00    -0.329 N 
ATOM     11  C   UNL A   1      33.773  25.539  25.470  1.00  0.00     0.268 C 
ATOM     12  O   UNL A   1      34.052  26.521  26.175  1.00  0.00    -0.268 OA
ATOM     13  H   UNL A   1      33.113  26.919  24.327  1.00  0.00     0.165 HD
BRANCH  11  14
ATOM     14  C   UNL A   1      34.285  24.225  25.839  1.00  0.00     0.106 A 
ATOM     15  C   UNL A   1      32.592  22.862  27.224  1.00  0.00     0.150 C 
ATOM     16  N   UNL A   1      33.836  23.115  26.539  1.00  0.00    -0.347 N 
ATOM     17  C   UNL A   1      34.787  22.111  26.504  1.00  0.00     0.086 A 
ATOM     18  C   UNL A   1      35.872  22.547  25.799  1.00  0.00     0.020 A 
ATOM     19  C   UNL A   1      35.570  23.858  25.405  1.00  0.00     0.033 A 
ENDBRANCH  11  14
ENDBRANCH   8  10
BRANCH   8  20
ATOM     20  C   UNL A   1      31.181  24.440  23.821  1.00  0.00     0.420 C 
ATOM     21  F   UNL A   1      30.119  24.239  23.015  1.00  0.00    -0.168 F 
ATOM     22  F   UNL A   1      31.761  23.217  24.002  1.00  0.00    -0.168 F 
ATOM     23  F   UNL A   1      30.729  24.815  25.040  1.00  0.00    -0.168 F 
ENDBRANCH   8  20
ENDBRANCH   5   8
ENDBRANCH   3   4
ENDBRANCH   2   3
ENDBRANCH   1   2
BRANCH   1  24
ATOM     24  C   UNL A   1      32.340  29.767  26.410  1.00  0.00     0.116 C 
BRANCH  24  25
ATOM     25  N   UNL A   1      32.233  31.192  26.709  1.00  0.00    -0.352 N 
ATOM     26  C   UNL A   1      33.153  32.018  27.317  1.00  0.00     0.251 C 
ATOM     27  H   UNL A   1      31.389  31.623  26.438  1.00  0.00     0.163 HD
ATOM     28  O   UNL A   1      32.877  33.191  27.555  1.00  0.00    -0.269 OA
BRANCH  26  29
ATOM     29  C   UNL A   1      34.458  31.460  27.730  1.00  0.00     0.039 A 
ATOM     30  C   UNL A   1      35.530  32.328  27.951  1.00  0.00     0.014 A 
ATOM     31  C   UNL A   1      34.590  30.096  27.991  1.00  0.00     0.014 A 
ATOM     32  C   UNL A   1      36.701  31.840  28.537  1.00  0.00     0.010 A 
ATOM     33  C   UNL A   1      35.709  29.637  28.672  1.00  0.00     0.010 A 
ATOM     34  C   UNL A   1      36.778  30.501  28.955  1.00  0.00    -0.014 A 
BRANCH  34  35
ATOM     35  C   UNL A   1      37.949  29.975  29.705  1.00  0.00     0.031 A 
ATOM     36  C   UNL A   1      38.204  30.437  31.115  1.00  0.00     0.074 A 
ATOM     37  C   UNL A   1      38.849  29.190  29.079  1.00  0.00     0.049 A 
ATOM     38  N   UNL A   1      39.232  30.200  31.888  1.00  0.00    -0.248 NA
ATOM     39  C   UNL A   1      37.197  31.326  31.719  1.00  0.00     0.031 C 
ATOM     40  C   UNL A   1      38.775  28.759  27.681  1.00  0.00     0.029 A 
ATOM     41  N   UNL A   1      40.025  28.641  29.529  1.00  0.00    -0.354 N 
ATOM     42  C   UNL A   1      39.024  30.953  33.036  1.00  0.00     0.074 A 
ATOM     43  C   UNL A   1      37.793  31.687  32.844  1.00  0.00     0.031 C 
ATOM     44  C   UNL A   1      39.848  28.004  27.393  1.00  0.00     0.029 A 
ATOM     45  C   UNL A   1      40.701  27.918  28.574  1.00  0.00     0.049 A 
ATOM     46  H   UNL A   1      40.353  28.755  30.451  1.00  0.00     0.167 HD
ATOM     47  C   UNL A   1      39.767  31.002  34.167  1.00  0.00     0.034 A 
ATOM     48  C   UNL A   1      41.875  27.260  28.641  1.00  0.00     0.034 A 
ATOM     49  C   UNL A   1      40.937  30.200  34.391  1.00  0.00     0.049 A 
ATOM     50  C   UNL A   1      42.624  27.239  29.947  1.00  0.00     0.074 A 
ATOM     51  C   UNL A   1      41.691  30.080  35.544  1.00  0.00     0.029 A 
ATOM     52  N   UNL A   1      41.515  29.369  33.444  1.00  0.00    -0.354 N 
ATOM     53  N   UNL A   1      42.320  27.824  31.080  1.00  0.00    -0.248 NA
ATOM     54  C   UNL A   1      43.856  26.438  29.995  1.00  0.00     0.031 C 
ATOM     55  C   UNL A   1      42.728  29.175  35.294  1.00  0.00     0.029 A 
ATOM     56  C   UNL A   1      42.614  28.728  33.987  1.00  0.00     0.049 A 
ATOM     57  H   UNL A   1      41.193  29.253  32.522  1.00  0.00     0.167 HD
ATOM     58  C   UNL A   1      43.302  27.436  31.985  1.00  0.00     0.074 A 
ATOM     59  C   UNL A   1      44.199  26.549  31.273  1.00  0.00     0.031 C 
ATOM     60  C   UNL A   1      43.458  27.797  33.283  1.00  0.00     0.034 A 
BRANCH  47  61
ATOM     61  C   UNL A   1      39.283  31.894  35.280  1.00  0.00     0.023 A 
ATOM     62  C   UNL A   1      38.337  31.399  36.202  1.00  0.00     0.012 A 
ATOM     63  C   UNL A   1      39.782  33.201  35.439  1.00  0.00     0.148 A 
ATOM     64  C   UNL A   1      37.865  32.201  37.238  1.00  0.00     0.002 A 
ATOM     65  C   UNL A   1      39.339  33.981  36.502  1.00  0.00     0.091 A 
ATOM     66  F   UNL A   1      40.662  33.666  34.540  1.00  0.00    -0.205 F 
ATOM     67  C   UNL A   1      38.373  33.487  37.393  1.00  0.00     0.022 A 
BRANCH  65  68
ATOM     68  S   UNL A   1      39.992  35.622  36.831  1.00  0.00     0.127 S 
ATOM     69  O   UNL A   1      39.327  35.957  38.089  1.00  0.00    -0.237 OA
ATOM     70  O   UNL A   1      41.428  35.367  36.949  1.00  0.00    -0.237 OA
ATOM     71  O   UNL A   1      39.617  36.436  35.684  1.00  0.00    -0.744 OA
ENDBRANCH  65  68
ENDBRANCH  47  61
BRANCH  48  72
ATOM     72  C   UNL A   1      42.360  26.482  27.465  1.00  0.00     0.023 A 
ATOM     73  C   UNL A   1      43.145  27.132  26.493  1.00  0.00     0.012 A 
ATOM     74  C   UNL A   1      42.089  25.108  27.321  1.00  0.00     0.148 A 
ATOM     75  C   UNL A   1      43.628  26.436  25.385  1.00  0.00     0.002 A 
ATOM     76  C   UNL A   1      42.616  24.409  26.240  1.00  0.00     0.091 A 
ATOM     77  F   UNL A   1      41.330  24.508  28.249  1.00  0.00    -0.205 F 
ATOM     78  C   UNL A   1      43.373  25.074  25.263  1.00  0.00     0.022 A 
BRANCH  76  79
ATOM     79  S   UNL A   1      42.448  22.627  26.075  1.00  0.00     0.127 S 
ATOM     80  O   UNL A   1      43.190  22.367  24.846  1.00  0.00    -0.237 OA
ATOM     81  O   UNL A   1      43.091  22.145  27.298  1.00  0.00    -0.237 OA
ATOM     82  O   UNL A   1      41.013  22.376  26.019  1.00  0.00    -0.744 OA
ENDBRANCH  76  79
ENDBRANCH  48  72
BRANCH  60  83
ATOM     83  C   UNL A   1      44.623  27.215  34.035  1.00  0.00     0.023 A 
ATOM     84  C   UNL A   1      45.859  27.891  34.034  1.00  0.00     0.012 A 
ATOM     85  C   UNL A   1      44.468  26.053  34.816  1.00  0.00     0.148 A 
ATOM     86  C   UNL A   1      46.931  27.406  34.781  1.00  0.00     0.002 A 
ATOM     87  C   UNL A   1      45.528  25.600  35.593  1.00  0.00     0.091 A 
ATOM     88  F   UNL A   1      43.289  25.413  34.788  1.00  0.00    -0.205 F 
ATOM     89  C   UNL A   1      46.762  26.270  35.570  1.00  0.00     0.022 A 
BRANCH  87  90
ATOM     90  S   UNL A   1      45.366  24.202  36.709  1.00  0.00     0.127 S 
ATOM     91  O   UNL A   1      44.395  24.707  37.679  1.00  0.00    -0.237 OA
ATOM     92  O   UNL A   1      44.857  23.152  35.826  1.00  0.00    -0.237 OA
ATOM     93  O   UNL A   1      46.704  23.952  37.229  1.00  0.00    -0.744 OA
ENDBRANCH  87  90
ENDBRANCH  60  83
ENDBRANCH  34  35
ENDBRANCH  26  29
ENDBRANCH  24  25
ENDBRANCH   1  24
TORSDOF 17
ENDMDL
MODEL 2
REMARK VINA RESULT:     -11.4      1.213      2.587
REMARK SMILES Cn1cccc1C(=O)N[C@](C)(C(=O)NCCCCNC(=O)c1ccc(-c2c3nc(c(-c4cccc(S(=O)(=O)[O-])c4F)c4ccc([nH]4)c(-c4cccc(S(=O)(=O)[O-])c4F)c4nc(c(-c5cccc(S(=O)(=O)[O-])c5F)c5ccc2[nH]5)C=C4)C=C3)cc1)C(F)(F)F
REMARK SMILES IDX 17 1 16 2 15 3 14 4 12 5 13 6 10 8 11 9 9 10 7 11 8 12 6 14
REMARK SMILES IDX 1 15 2 16 3 17 4 18 5 19 85 20 86 21 87 22 88 23 18 24 19 25
REMARK SMILES IDX 20 26 21 28 22 29 23 30 84 31 24 32 83 33 25 34 26 35 27 36
REMARK SMILES IDX 77 37 28 38 82 39 76 40 78 41 29 42 81 43 75 44 74 45 30 47
REMARK SMILES IDX 62 48 42 49 61 50 43 51 46 52 60 53 79 54 44 55 45 56 59 58
REMARK SMILES IDX 80 59 47 60 31 61 32 62 40 63 33 64 35 65 41 66 34 67 36 68
REMARK SMILES IDX 37 69 38 70 39 71 63 72 64 73 72 74 65 75 67 76 73 77 66 78
REMARK SMILES IDX 68 79 69 80 70 81 71 82 48 83 49 84 57 85 50 86 52 87 58 88
REMARK SMILES IDX 51 89 53 90 54 91 55 92 56 93
REMARK H PARENT 14 7 9 13 19 27 78 46 46 57
REMARK Flexibility Score: inf
ROOT
ATOM      1  C   UNL A   1      31.539  29.203  26.550  1.00  0.00     0.023 C 
ENDROOT
BRANCH   1   2
ATOM      2  C   UNL A   1      31.958  27.972  27.342  1.00  0.00     0.023 C 
BRANCH   2   3
ATOM      3  C   UNL A   1      32.322  26.743  26.502  1.00  0.00     0.116 C 
BRANCH   3   4
ATOM      4  N   UNL A   1      31.704  25.554  27.070  1.00  0.00    -0.354 N 
ATOM      5  C   UNL A   1      31.463  24.308  26.581  1.00  0.00     0.254 C 
ATOM      6  O   UNL A   1      30.602  23.668  27.198  1.00  0.00    -0.272 OA
ATOM      7  H   UNL A   1      31.398  25.676  27.997  1.00  0.00     0.163 HD
BRANCH   5   8
ATOM      8  C   UNL A   1      32.252  23.619  25.436  1.00  0.00     0.212 C 
ATOM      9  C   UNL A   1      31.653  22.252  25.036  1.00  0.00     0.056 C 
BRANCH   8  10
ATOM     10  N   UNL A   1      32.603  24.373  24.201  1.00  0.00    -0.329 N 
ATOM     11  C   UNL A   1      32.131  25.279  23.312  1.00  0.00     0.268 C 
ATOM     12  O   UNL A   1      32.877  25.327  22.322  1.00  0.00    -0.268 OA
ATOM     13  H   UNL A   1      33.515  24.119  23.932  1.00  0.00     0.165 HD
BRANCH  11  14
ATOM     14  C   UNL A   1      31.000  26.195  23.400  1.00  0.00     0.106 A 
ATOM     15  C   UNL A   1      31.640  28.613  22.780  1.00  0.00     0.150 C 
ATOM     16  N   UNL A   1      30.761  27.544  23.187  1.00  0.00    -0.347 N 
ATOM     17  C   UNL A   1      29.423  27.830  23.391  1.00  0.00     0.086 A 
ATOM     18  C   UNL A   1      28.770  26.687  23.751  1.00  0.00     0.020 A 
ATOM     19  C   UNL A   1      29.747  25.681  23.776  1.00  0.00     0.033 A 
ENDBRANCH  11  14
ENDBRANCH   8  10
BRANCH   8  20
ATOM     20  C   UNL A   1      33.580  23.278  26.191  1.00  0.00     0.420 C 
ATOM     21  F   UNL A   1      34.252  22.225  25.685  1.00  0.00    -0.168 F 
ATOM     22  F   UNL A   1      34.429  24.345  26.117  1.00  0.00    -0.168 F 
ATOM     23  F   UNL A   1      33.377  23.063  27.511  1.00  0.00    -0.168 F 
ENDBRANCH   8  20
ENDBRANCH   5   8
ENDBRANCH   3   4
ENDBRANCH   2   3
ENDBRANCH   1   2
BRANCH   1  24
ATOM     24  C   UNL A   1      32.692  30.124  26.184  1.00  0.00     0.116 C 
BRANCH  24  25
ATOM     25  N   UNL A   1      32.530  31.492  26.669  1.00  0.00    -0.352 N 
ATOM     26  C   UNL A   1      33.383  32.238  27.453  1.00  0.00     0.251 C 
ATOM     27  H   UNL A   1      31.698  31.945  26.399  1.00  0.00     0.163 HD
ATOM     28  O   UNL A   1      33.064  33.362  27.831  1.00  0.00    -0.269 OA
BRANCH  26  29
ATOM     29  C   UNL A   1      34.669  31.644  27.881  1.00  0.00     0.039 A 
ATOM     30  C   UNL A   1      35.784  32.472  28.028  1.00  0.00     0.014 A 
ATOM     31  C   UNL A   1      34.741  30.295  28.229  1.00  0.00     0.014 A 
ATOM     32  C   UNL A   1      36.942  31.967  28.625  1.00  0.00     0.010 A 
ATOM     33  C   UNL A   1      35.850  29.828  28.920  1.00  0.00     0.010 A 
ATOM     34  C   UNL A   1      36.963  30.656  29.129  1.00  0.00    -0.014 A 
BRANCH  34  35
ATOM     35  C   UNL A   1      38.123  30.124  29.893  1.00  0.00     0.031 A 
ATOM     36  C   UNL A   1      38.384  30.611  31.293  1.00  0.00     0.074 A 
ATOM     37  C   UNL A   1      39.009  29.307  29.286  1.00  0.00     0.049 A 
ATOM     38  N   UNL A   1      39.406  30.371  32.073  1.00  0.00    -0.248 NA
ATOM     39  C   UNL A   1      37.393  31.532  31.875  1.00  0.00     0.031 C 
ATOM     40  C   UNL A   1      38.928  28.848  27.898  1.00  0.00     0.029 A 
ATOM     41  N   UNL A   1      40.172  28.746  29.751  1.00  0.00    -0.354 N 
ATOM     42  C   UNL A   1      39.211  31.153  33.205  1.00  0.00     0.074 A 
ATOM     43  C   UNL A   1      37.995  31.907  32.994  1.00  0.00     0.031 C 
ATOM     44  C   UNL A   1      39.987  28.066  27.629  1.00  0.00     0.029 A 
ATOM     45  C   UNL A   1      40.836  27.989  28.813  1.00  0.00     0.049 A 
ATOM     46  H   UNL A   1      40.501  28.873  30.671  1.00  0.00     0.167 HD
ATOM     47  C   UNL A   1      39.952  31.211  34.336  1.00  0.00     0.034 A 
ATOM     48  C   UNL A   1      41.996  27.309  28.898  1.00  0.00     0.034 A 
ATOM     49  C   UNL A   1      41.105  30.392  34.580  1.00  0.00     0.049 A 
ATOM     50  C   UNL A   1      42.743  27.303  30.206  1.00  0.00     0.074 A 
ATOM     51  C   UNL A   1      41.855  30.282  35.737  1.00  0.00     0.029 A 
ATOM     52  N   UNL A   1      41.669  29.529  33.652  1.00  0.00    -0.354 N 
ATOM     53  N   UNL A   1      42.448  27.918  31.325  1.00  0.00    -0.248 NA
ATOM     54  C   UNL A   1      43.959  26.478  30.274  1.00  0.00     0.031 C 
ATOM     55  C   UNL A   1      42.874  29.352  35.509  1.00  0.00     0.029 A 
ATOM     56  C   UNL A   1      42.754  28.879  34.212  1.00  0.00     0.049 A 
ATOM     57  H   UNL A   1      41.346  29.400  32.732  1.00  0.00     0.167 HD
ATOM     58  C   UNL A   1      43.420  27.530  32.240  1.00  0.00     0.074 A 
ATOM     59  C   UNL A   1      44.301  26.610  31.549  1.00  0.00     0.031 C 
ATOM     60  C   UNL A   1      43.580  27.916  33.530  1.00  0.00     0.034 A 
BRANCH  47  61
ATOM     61  C   UNL A   1      39.483  32.136  35.428  1.00  0.00     0.023 A 
ATOM     62  C   UNL A   1      38.585  31.656  36.403  1.00  0.00     0.012 A 
ATOM     63  C   UNL A   1      39.952  33.462  35.515  1.00  0.00     0.148 A 
ATOM     64  C   UNL A   1      38.127  32.489  37.422  1.00  0.00     0.002 A 
ATOM     65  C   UNL A   1      39.526  34.274  36.560  1.00  0.00     0.091 A 
ATOM     66  F   UNL A   1      40.786  33.911  34.566  1.00  0.00    -0.205 F 
ATOM     67  C   UNL A   1      38.605  33.794  37.506  1.00  0.00     0.022 A 
BRANCH  65  68
ATOM     68  S   UNL A   1      40.144  35.944  36.797  1.00  0.00     0.127 S 
ATOM     69  O   UNL A   1      41.581  35.710  36.936  1.00  0.00    -0.237 OA
ATOM     70  O   UNL A   1      39.752  36.600  35.549  1.00  0.00    -0.237 OA
ATOM     71  O   UNL A   1      39.471  36.453  37.983  1.00  0.00    -0.744 OA
ENDBRANCH  65  68
ENDBRANCH  47  61
BRANCH  48  72
ATOM     72  C   UNL A   1      42.468  26.497  27.740  1.00  0.00     0.023 A 
ATOM     73  C   UNL A   1      43.373  27.071  26.826  1.00  0.00     0.012 A 
ATOM     74  C   UNL A   1      42.067  25.159  27.559  1.00  0.00     0.148 A 
ATOM     75  C   UNL A   1      43.846  26.340  25.736  1.00  0.00     0.002 A 
ATOM     76  C   UNL A   1      42.584  24.420  26.500  1.00  0.00     0.091 A 
ATOM     77  F   UNL A   1      41.197  24.632  28.432  1.00  0.00    -0.205 F 
ATOM     78  C   UNL A   1      43.461  25.012  25.579  1.00  0.00     0.022 A 
BRANCH  76  79
ATOM     79  S   UNL A   1      42.243  22.666  26.298  1.00  0.00     0.127 S 
ATOM     80  O   UNL A   1      42.853  22.102  27.498  1.00  0.00    -0.237 OA
ATOM     81  O   UNL A   1      40.780  22.640  26.279  1.00  0.00    -0.237 OA
ATOM     82  O   UNL A   1      42.862  22.294  25.032  1.00  0.00    -0.744 OA
ENDBRANCH  76  79
ENDBRANCH  48  72
BRANCH  60  83
ATOM     83  C   UNL A   1      44.733  27.328  34.298  1.00  0.00     0.023 A 
ATOM     84  C   UNL A   1      45.985  27.972  34.274  1.00  0.00     0.012 A 
ATOM     85  C   UNL A   1      44.550  26.195  35.114  1.00  0.00     0.148 A 
ATOM     86  C   UNL A   1      47.047  27.483  35.034  1.00  0.00     0.002 A 
ATOM     87  C   UNL A   1      45.601  25.739  35.902  1.00  0.00     0.091 A 
ATOM     88  F   UNL A   1      43.356  25.584  35.107  1.00  0.00    -0.205 F 
ATOM     89  C   UNL A   1      46.852  26.376  35.857  1.00  0.00     0.022 A 
BRANCH  87  90
ATOM     90  S   UNL A   1      45.407  24.379  37.061  1.00  0.00     0.127 S 
ATOM     91  O   UNL A   1      46.700  24.381  37.742  1.00  0.00    -0.237 OA
ATOM     92  O   UNL A   1      44.283  24.828  37.884  1.00  0.00    -0.237 OA
ATOM     93  O   UNL A   1      45.124  23.203  36.249  1.00  0.00    -0.744 OA
ENDBRANCH  87  90
ENDBRANCH  60  83
ENDBRANCH  34  35
ENDBRANCH  26  29
ENDBRANCH  24  25
ENDBRANCH   1  24
TORSDOF 17
ENDMDL
MODEL 3
REMARK VINA RESULT:     -11.3      4.650      9.917
REMARK SMILES Cn1cccc1C(=O)N[C@](C)(C(=O)NCCCCNC(=O)c1ccc(-c2c3nc(c(-c4cccc(S(=O)(=O)[O-])c4F)c4ccc([nH]4)c(-c4cccc(S(=O)(=O)[O-])c4F)c4nc(c(-c5cccc(S(=O)(=O)[O-])c5F)c5ccc2[nH]5)C=C4)C=C3)cc1)C(F)(F)F
REMARK SMILES IDX 17 1 16 2 15 3 14 4 12 5 13 6 10 8 11 9 9 10 7 11 8 12 6 14
REMARK SMILES IDX 1 15 2 16 3 17 4 18 5 19 85 20 86 21 87 22 88 23 18 24 19 25
REMARK SMILES IDX 20 26 21 28 22 29 23 30 84 31 24 32 83 33 25 34 26 35 27 36
REMARK SMILES IDX 77 37 28 38 82 39 76 40 78 41 29 42 81 43 75 44 74 45 30 47
REMARK SMILES IDX 62 48 42 49 61 50 43 51 46 52 60 53 79 54 44 55 45 56 59 58
REMARK SMILES IDX 80 59 47 60 31 61 32 62 40 63 33 64 35 65 41 66 34 67 36 68
REMARK SMILES IDX 37 69 38 70 39 71 63 72 64 73 72 74 65 75 67 76 73 77 66 78
REMARK SMILES IDX 68 79 69 80 70 81 71 82 48 83 49 84 57 85 50 86 52 87 58 88
REMARK SMILES IDX 51 89 53 90 54 91 55 92 56 93
REMARK H PARENT 14 7 9 13 19 27 78 46 46 57
REMARK Flexibility Score: inf
ROOT
ATOM      1  C   UNL A   1      35.600  21.780  25.491  1.00  0.00     0.023 C 
ENDROOT
BRANCH   1   2
ATOM      2  C   UNL A   1      34.556  22.766  24.983  1.00  0.00     0.023 C 
BRANCH   2   3
ATOM      3  C   UNL A   1      34.222  23.917  25.938  1.00  0.00     0.116 C 
BRANCH   3   4
ATOM      4  N   UNL A   1      32.870  23.757  26.453  1.00  0.00    -0.354 N 
ATOM      5  C   UNL A   1      31.695  24.391  26.194  1.00  0.00     0.254 C 
ATOM      6  O   UNL A   1      30.828  24.251  27.066  1.00  0.00    -0.272 OA
ATOM      7  H   UNL A   1      32.789  23.044  27.127  1.00  0.00     0.163 HD
BRANCH   5   8
ATOM      8  C   UNL A   1      31.341  25.135  24.878  1.00  0.00     0.212 C 
ATOM      9  C   UNL A   1      30.002  25.901  24.967  1.00  0.00     0.056 C 
BRANCH   8  10
ATOM     10  N   UNL A   1      32.350  25.998  24.205  1.00  0.00    -0.329 N 
ATOM     11  C   UNL A   1      32.972  27.199  24.278  1.00  0.00     0.268 C 
ATOM     12  O   UNL A   1      33.582  27.422  23.221  1.00  0.00    -0.268 OA
ATOM     13  H   UNL A   1      32.690  25.519  23.415  1.00  0.00     0.165 HD
BRANCH  11  14
ATOM     14  C   UNL A   1      33.082  28.145  25.381  1.00  0.00     0.106 A 
ATOM     15  C   UNL A   1      31.394  30.083  25.189  1.00  0.00     0.150 C 
ATOM     16  N   UNL A   1      32.458  29.315  25.787  1.00  0.00    -0.347 N 
ATOM     17  C   UNL A   1      32.982  29.742  26.995  1.00  0.00     0.086 A 
ATOM     18  C   UNL A   1      33.958  28.873  27.391  1.00  0.00     0.020 A 
ATOM     19  C   UNL A   1      34.034  27.899  26.386  1.00  0.00     0.033 A 
ENDBRANCH  11  14
ENDBRANCH   8  10
BRANCH   8  20
ATOM     20  C   UNL A   1      31.051  23.910  23.947  1.00  0.00     0.420 C 
ATOM     21  F   UNL A   1      32.078  23.571  23.142  1.00  0.00    -0.168 F 
ATOM     22  F   UNL A   1      30.787  22.812  24.713  1.00  0.00    -0.168 F 
ATOM     23  F   UNL A   1      29.951  24.098  23.183  1.00  0.00    -0.168 F 
ENDBRANCH   8  20
ENDBRANCH   5   8
ENDBRANCH   3   4
ENDBRANCH   2   3
ENDBRANCH   1   2
BRANCH   1  24
ATOM     24  C   UNL A   1      36.991  22.005  24.921  1.00  0.00     0.116 C 
BRANCH  24  25
ATOM     25  N   UNL A   1      37.939  20.941  25.240  1.00  0.00    -0.352 N 
ATOM     26  C   UNL A   1      39.105  21.013  25.970  1.00  0.00     0.251 C 
ATOM     27  H   UNL A   1      37.714  20.050  24.885  1.00  0.00     0.163 HD
ATOM     28  O   UNL A   1      39.828  20.028  26.090  1.00  0.00    -0.269 OA
BRANCH  26  29
ATOM     29  C   UNL A   1      39.504  22.308  26.562  1.00  0.00     0.039 A 
ATOM     30  C   UNL A   1      40.581  22.346  27.451  1.00  0.00     0.014 A 
ATOM     31  C   UNL A   1      38.878  23.489  26.162  1.00  0.00     0.014 A 
ATOM     32  C   UNL A   1      41.096  23.581  27.855  1.00  0.00     0.010 A 
ATOM     33  C   UNL A   1      39.459  24.709  26.475  1.00  0.00     0.010 A 
ATOM     34  C   UNL A   1      40.575  24.772  27.324  1.00  0.00    -0.014 A 
BRANCH  34  35
ATOM     35  C   UNL A   1      41.180  26.098  27.618  1.00  0.00     0.031 A 
ATOM     36  C   UNL A   1      42.602  26.379  27.208  1.00  0.00     0.074 A 
ATOM     37  C   UNL A   1      40.504  26.994  28.364  1.00  0.00     0.049 A 
ATOM     38  N   UNL A   1      43.350  27.416  27.483  1.00  0.00    -0.248 NA
ATOM     39  C   UNL A   1      43.291  25.336  26.429  1.00  0.00     0.031 C 
ATOM     40  C   UNL A   1      39.161  26.799  28.916  1.00  0.00     0.029 A 
ATOM     41  N   UNL A   1      40.867  28.238  28.817  1.00  0.00    -0.354 N 
ATOM     42  C   UNL A   1      44.606  27.123  26.967  1.00  0.00     0.074 A 
ATOM     43  C   UNL A   1      44.532  25.796  26.397  1.00  0.00     0.031 C 
ATOM     44  C   UNL A   1      38.811  27.889  29.620  1.00  0.00     0.029 A 
ATOM     45  C   UNL A   1      39.909  28.848  29.594  1.00  0.00     0.049 A 
ATOM     46  H   UNL A   1      41.734  28.656  28.604  1.00  0.00     0.167 HD
ATOM     47  C   UNL A   1      45.713  27.901  26.932  1.00  0.00     0.034 A 
ATOM     48  C   UNL A   1      39.915  30.044  30.215  1.00  0.00     0.034 A 
ATOM     49  C   UNL A   1      45.756  29.253  27.414  1.00  0.00     0.049 A 
ATOM     50  C   UNL A   1      41.119  30.936  30.066  1.00  0.00     0.074 A 
ATOM     51  C   UNL A   1      46.787  30.171  27.316  1.00  0.00     0.029 A 
ATOM     52  N   UNL A   1      44.715  29.888  28.075  1.00  0.00    -0.354 N 
ATOM     53  N   UNL A   1      42.240  30.706  29.425  1.00  0.00    -0.248 NA
ATOM     54  C   UNL A   1      41.045  32.265  30.691  1.00  0.00     0.031 C 
ATOM     55  C   UNL A   1      46.369  31.361  27.919  1.00  0.00     0.029 A 
ATOM     56  C   UNL A   1      45.075  31.186  28.386  1.00  0.00     0.049 A 
ATOM     57  H   UNL A   1      43.849  29.475  28.291  1.00  0.00     0.167 HD
ATOM     58  C   UNL A   1      42.990  31.871  29.540  1.00  0.00     0.074 A 
ATOM     59  C   UNL A   1      42.187  32.812  30.294  1.00  0.00     0.031 C 
ATOM     60  C   UNL A   1      44.238  32.131  29.079  1.00  0.00     0.034 A 
BRANCH  47  61
ATOM     61  C   UNL A   1      46.943  27.333  26.275  1.00  0.00     0.023 A 
ATOM     62  C   UNL A   1      47.141  27.528  24.892  1.00  0.00     0.012 A 
ATOM     63  C   UNL A   1      47.917  26.641  27.020  1.00  0.00     0.148 A 
ATOM     64  C   UNL A   1      48.266  27.009  24.253  1.00  0.00     0.002 A 
ATOM     65  C   UNL A   1      49.059  26.165  26.385  1.00  0.00     0.091 A 
ATOM     66  F   UNL A   1      47.702  26.443  28.329  1.00  0.00    -0.205 F 
ATOM     67  C   UNL A   1      49.228  26.337  25.001  1.00  0.00     0.022 A 
BRANCH  65  68
ATOM     68  S   UNL A   1      50.391  25.354  27.276  1.00  0.00     0.127 S 
ATOM     69  O   UNL A   1      50.792  26.396  28.221  1.00  0.00    -0.237 OA
ATOM     70  O   UNL A   1      49.707  24.212  27.883  1.00  0.00    -0.237 OA
ATOM     71  O   UNL A   1      51.383  24.999  26.272  1.00  0.00    -0.744 OA
ENDBRANCH  65  68
ENDBRANCH  47  61
BRANCH  48  72
ATOM     72  C   UNL A   1      38.703  30.507  30.948  1.00  0.00     0.023 A 
ATOM     73  C   UNL A   1      38.621  30.294  32.339  1.00  0.00     0.012 A 
ATOM     74  C   UNL A   1      37.656  31.187  30.296  1.00  0.00     0.148 A 
ATOM     75  C   UNL A   1      37.509  30.723  33.062  1.00  0.00     0.002 A 
ATOM     76  C   UNL A   1      36.573  31.658  31.033  1.00  0.00     0.091 A 
ATOM     77  F   UNL A   1      37.744  31.370  28.971  1.00  0.00    -0.205 F 
ATOM     78  C   UNL A   1      36.490  31.414  32.412  1.00  0.00     0.022 A 
BRANCH  76  79
ATOM     79  S   UNL A   1      35.282  32.670  30.299  1.00  0.00     0.127 S 
ATOM     80  O   UNL A   1      34.754  31.783  29.268  1.00  0.00    -0.237 OA
ATOM     81  O   UNL A   1      34.388  32.896  31.437  1.00  0.00    -0.237 OA
ATOM     82  O   UNL A   1      35.954  33.872  29.823  1.00  0.00    -0.744 OA
ENDBRANCH  76  79
ENDBRANCH  48  72
BRANCH  60  83
ATOM     83  C   UNL A   1      44.812  33.496  29.348  1.00  0.00     0.023 A 
ATOM     84  C   UNL A   1      45.570  33.714  30.515  1.00  0.00     0.012 A 
ATOM     85  C   UNL A   1      44.680  34.531  28.403  1.00  0.00     0.148 A 
ATOM     86  C   UNL A   1      46.170  34.950  30.749  1.00  0.00     0.002 A 
ATOM     87  C   UNL A   1      45.316  35.748  28.622  1.00  0.00     0.091 A 
ATOM     88  F   UNL A   1      43.937  34.310  27.308  1.00  0.00    -0.205 F 
ATOM     89  C   UNL A   1      46.054  35.962  29.798  1.00  0.00     0.022 A 
BRANCH  87  90
ATOM     90  S   UNL A   1      45.298  37.069  27.405  1.00  0.00     0.127 S 
ATOM     91  O   UNL A   1      46.065  38.111  28.084  1.00  0.00    -0.237 OA
ATOM     92  O   UNL A   1      45.979  36.455  26.265  1.00  0.00    -0.237 OA
ATOM     93  O   UNL A   1      43.893  37.374  27.170  1.00  0.00    -0.744 OA
ENDBRANCH  87  90
ENDBRANCH  60  83
ENDBRANCH  34  35
ENDBRANCH  26  29
ENDBRANCH  24  25
ENDBRANCH   1  24
TORSDOF 17
ENDMDL
