MODEL 1
REMARK VINA RESULT:     -12.0      0.000      0.000
REMARK SMILES Cc1nn(C)c2c1nc(SCC(=O)NCCCCNC(=O)c1ccc(-c3c4nc(c(-c5cccc(S(=O)(=O)[O-])c5F)c5ccc([nH]5)c(-c5cccc(S(=O)(=O)[O-])c5F)c5nc(c(-c6cccc(S(=O)(=O)[O-])c6F)c6ccc3[nH]6)C=C5)C=C4)cc1)n2[C@H]1CC[N@@H+](C)C1
REMARK SMILES IDX 16 1 15 2 14 3 12 4 13 5 11 7 10 8 9 9 1 10 2 11 3 12 7 13
REMARK SMILES IDX 4 14 6 15 8 16 5 17 85 18 86 19 87 20 91 21 88 22 89 23
REMARK SMILES IDX 90 24 17 26 18 27 19 28 20 29 21 31 22 32 23 33 84 34 24 35
REMARK SMILES IDX 83 36 25 37 26 38 27 39 77 40 28 41 82 42 76 43 78 44 29 45
REMARK SMILES IDX 81 46 75 47 74 48 30 50 62 51 42 52 61 53 43 54 46 55 60 56
REMARK SMILES IDX 79 57 44 58 45 59 59 61 80 62 47 63 31 64 32 65 40 66 33 67
REMARK SMILES IDX 35 68 41 69 34 70 36 71 37 72 38 73 39 74 63 75 64 76 72 77
REMARK SMILES IDX 65 78 67 79 73 80 66 81 68 82 69 83 70 84 71 85 48 86 49 87
REMARK SMILES IDX 57 88 50 89 52 90 58 91 51 92 53 93 54 94 55 95 56 96
REMARK H PARENT 14 6 89 25 19 30 78 49 46 60
REMARK Flexibility Score: inf
ROOT
ATOM      1  C   UNL A   1      31.981  28.644  26.631  1.00  0.00     0.023 C 
ENDROOT
BRANCH   1   2
ATOM      2  C   UNL A   1      31.329  27.449  25.917  1.00  0.00     0.116 C 
BRANCH   2   3
ATOM      3  N   UNL A   1      31.400  26.240  26.715  1.00  0.00    -0.355 N 
ATOM      4  C   UNL A   1      31.349  24.922  26.358  1.00  0.00     0.230 C 
ATOM      5  O   UNL A   1      31.340  24.091  27.271  1.00  0.00    -0.274 OA
ATOM      6  H   UNL A   1      31.501  26.395  27.682  1.00  0.00     0.163 HD
BRANCH   4   7
ATOM      7  C   UNL A   1      31.432  24.486  24.911  1.00  0.00     0.178 C 
BRANCH   7   8
ATOM      8  S   UNL A   1      31.399  22.706  24.657  1.00  0.00    -0.078 SA
BRANCH   8   9
ATOM      9  C   UNL A   1      33.053  22.192  24.753  1.00  0.00     0.171 A 
ATOM     10  C   UNL A   1      37.419  23.346  25.183  1.00  0.00     0.071 C 
ATOM     11  C   UNL A   1      36.520  22.185  25.046  1.00  0.00     0.087 A 
ATOM     12  N   UNL A   1      37.032  20.941  25.003  1.00  0.00    -0.174 NA
ATOM     13  C   UNL A   1      35.132  22.123  24.925  1.00  0.00     0.132 A 
ATOM     14  N   UNL A   1      35.950  20.128  24.899  1.00  0.00    -0.250 N 
ATOM     15  C   UNL A   1      34.779  20.822  24.799  1.00  0.00     0.159 A 
ATOM     16  N   UNL A   1      34.098  22.984  24.890  1.00  0.00    -0.219 NA
ATOM     17  C   UNL A   1      36.218  18.710  24.914  1.00  0.00     0.176 C 
ATOM     18  N   UNL A   1      33.415  20.842  24.631  1.00  0.00    -0.295 N 
BRANCH  18  19
ATOM     19  C   UNL A   1      32.471  19.753  24.406  1.00  0.00     0.152 C 
ATOM     20  C   UNL A   1      32.531  19.126  22.996  1.00  0.00     0.093 C 
ATOM     21  C   UNL A   1      32.619  18.538  25.319  1.00  0.00     0.288 C 
ATOM     22  C   UNL A   1      32.907  17.671  23.202  1.00  0.00     0.264 C 
ATOM     23  N   UNL A   1      32.319  17.356  24.504  1.00  0.00    -0.336 N 
ATOM     24  C   UNL A   1      32.930  16.161  25.084  1.00  0.00     0.332 C 
ATOM     25  H   UNL A   1      31.320  17.158  24.444  1.00  0.00     0.347 HD
ENDBRANCH  18  19
ENDBRANCH   8   9
ENDBRANCH   7   8
ENDBRANCH   4   7
ENDBRANCH   2   3
ENDBRANCH   1   2
BRANCH   1  26
ATOM     26  C   UNL A   1      33.403  28.408  27.167  1.00  0.00     0.023 C 
BRANCH  26  27
ATOM     27  C   UNL A   1      34.428  29.445  26.729  1.00  0.00     0.116 C 
BRANCH  27  28
ATOM     28  N   UNL A   1      34.178  30.767  27.305  1.00  0.00    -0.352 N 
ATOM     29  C   UNL A   1      34.789  31.340  28.408  1.00  0.00     0.251 C 
ATOM     30  H   UNL A   1      33.493  31.314  26.856  1.00  0.00     0.163 HD
ATOM     31  O   UNL A   1      34.254  32.248  29.020  1.00  0.00    -0.269 OA
BRANCH  29  32
ATOM     32  C   UNL A   1      36.108  30.823  28.824  1.00  0.00     0.039 A 
ATOM     33  C   UNL A   1      36.261  29.513  29.284  1.00  0.00     0.014 A 
ATOM     34  C   UNL A   1      37.208  31.668  28.699  1.00  0.00     0.014 A 
ATOM     35  C   UNL A   1      37.546  29.033  29.529  1.00  0.00     0.010 A 
ATOM     36  C   UNL A   1      38.477  31.151  28.797  1.00  0.00     0.010 A 
ATOM     37  C   UNL A   1      38.655  29.850  29.255  1.00  0.00    -0.014 A 
BRANCH  37  38
ATOM     38  C   UNL A   1      40.012  29.309  29.316  1.00  0.00     0.031 A 
ATOM     39  C   UNL A   1      40.553  29.150  30.695  1.00  0.00     0.074 A 
ATOM     40  C   UNL A   1      40.653  28.787  28.246  1.00  0.00     0.049 A 
ATOM     41  N   UNL A   1      41.509  29.822  31.245  1.00  0.00    -0.248 NA
ATOM     42  C   UNL A   1      39.856  28.245  31.621  1.00  0.00     0.031 C 
ATOM     43  C   UNL A   1      40.126  28.579  26.890  1.00  0.00     0.029 A 
ATOM     44  N   UNL A   1      41.876  28.192  28.182  1.00  0.00    -0.354 N 
ATOM     45  C   UNL A   1      41.702  29.246  32.500  1.00  0.00     0.074 A 
ATOM     46  C   UNL A   1      40.533  28.449  32.753  1.00  0.00     0.031 C 
ATOM     47  C   UNL A   1      40.899  27.685  26.237  1.00  0.00     0.029 A 
ATOM     48  C   UNL A   1      42.067  27.407  27.048  1.00  0.00     0.049 A 
ATOM     49  H   UNL A   1      42.565  28.307  28.876  1.00  0.00     0.167 HD
ATOM     50  C   UNL A   1      42.927  29.262  33.100  1.00  0.00     0.034 A 
ATOM     51  C   UNL A   1      43.097  26.560  26.806  1.00  0.00     0.034 A 
ATOM     52  C   UNL A   1      43.810  30.198  32.447  1.00  0.00     0.049 A 
ATOM     53  C   UNL A   1      44.212  26.978  27.683  1.00  0.00     0.074 A 
ATOM     54  C   UNL A   1      43.792  31.551  32.180  1.00  0.00     0.029 A 
ATOM     55  N   UNL A   1      44.758  29.659  31.613  1.00  0.00    -0.354 N 
ATOM     56  N   UNL A   1      44.847  28.108  27.550  1.00  0.00    -0.248 NA
ATOM     57  C   UNL A   1      44.358  26.321  28.969  1.00  0.00     0.031 C 
ATOM     58  C   UNL A   1      44.383  31.676  30.887  1.00  0.00     0.029 A 
ATOM     59  C   UNL A   1      44.790  30.407  30.470  1.00  0.00     0.049 A 
ATOM     60  H   UNL A   1      45.318  28.871  31.805  1.00  0.00     0.167 HD
ATOM     61  C   UNL A   1      45.063  28.529  28.854  1.00  0.00     0.074 A 
ATOM     62  C   UNL A   1      44.866  27.335  29.674  1.00  0.00     0.031 C 
ATOM     63  C   UNL A   1      45.087  29.859  29.164  1.00  0.00     0.034 A 
BRANCH  50  64
ATOM     64  C   UNL A   1      43.489  28.170  33.994  1.00  0.00     0.023 A 
ATOM     65  C   UNL A   1      44.031  28.579  35.237  1.00  0.00     0.012 A 
ATOM     66  C   UNL A   1      43.788  26.852  33.578  1.00  0.00     0.148 A 
ATOM     67  C   UNL A   1      44.894  27.761  35.975  1.00  0.00     0.002 A 
ATOM     68  C   UNL A   1      44.584  26.014  34.353  1.00  0.00     0.091 A 
ATOM     69  F   UNL A   1      43.417  26.427  32.370  1.00  0.00    -0.205 F 
ATOM     70  C   UNL A   1      45.170  26.476  35.533  1.00  0.00     0.022 A 
BRANCH  68  71
ATOM     71  S   UNL A   1      44.939  24.324  33.855  1.00  0.00     0.127 S 
ATOM     72  O   UNL A   1      45.777  24.537  32.679  1.00  0.00    -0.237 OA
ATOM     73  O   UNL A   1      45.640  23.809  35.032  1.00  0.00    -0.237 OA
ATOM     74  O   UNL A   1      43.641  23.704  33.615  1.00  0.00    -0.744 OA
ENDBRANCH  68  71
ENDBRANCH  50  64
BRANCH  51  75
ATOM     75  C   UNL A   1      43.148  25.297  26.038  1.00  0.00     0.023 A 
ATOM     76  C   UNL A   1      44.178  25.099  25.096  1.00  0.00     0.012 A 
ATOM     77  C   UNL A   1      42.386  24.178  26.438  1.00  0.00     0.148 A 
ATOM     78  C   UNL A   1      44.473  23.822  24.605  1.00  0.00     0.002 A 
ATOM     79  C   UNL A   1      42.682  22.910  25.946  1.00  0.00     0.091 A 
ATOM     80  F   UNL A   1      41.437  24.346  27.369  1.00  0.00    -0.205 F 
ATOM     81  C   UNL A   1      43.735  22.726  25.040  1.00  0.00     0.022 A 
BRANCH  79  82
ATOM     82  S   UNL A   1      41.794  21.441  26.482  1.00  0.00     0.127 S 
ATOM     83  O   UNL A   1      40.414  21.774  26.124  1.00  0.00    -0.237 OA
ATOM     84  O   UNL A   1      42.407  20.403  25.660  1.00  0.00    -0.237 OA
ATOM     85  O   UNL A   1      42.030  21.339  27.917  1.00  0.00    -0.744 OA
ENDBRANCH  79  82
ENDBRANCH  51  75
BRANCH  63  86
ATOM     86  C   UNL A   1      45.183  30.851  28.032  1.00  0.00     0.023 A 
ATOM     87  C   UNL A   1      44.055  31.305  27.317  1.00  0.00     0.012 A 
ATOM     88  C   UNL A   1      46.425  31.462  27.798  1.00  0.00     0.148 A 
ATOM     89  C   UNL A   1      44.172  32.330  26.372  1.00  0.00     0.002 A 
ATOM     90  C   UNL A   1      46.529  32.512  26.896  1.00  0.00     0.091 A 
ATOM     91  F   UNL A   1      47.488  31.020  28.488  1.00  0.00    -0.205 F 
ATOM     92  C   UNL A   1      45.406  32.942  26.172  1.00  0.00     0.022 A 
BRANCH  90  93
ATOM     93  S   UNL A   1      48.061  33.422  26.693  1.00  0.00     0.127 S 
ATOM     94  O   UNL A   1      49.011  32.356  26.387  1.00  0.00    -0.237 OA
ATOM     95  O   UNL A   1      47.755  34.311  25.571  1.00  0.00    -0.237 OA
ATOM     96  O   UNL A   1      48.283  34.117  27.956  1.00  0.00    -0.744 OA
ENDBRANCH  90  93
ENDBRANCH  63  86
ENDBRANCH  37  38
ENDBRANCH  29  32
ENDBRANCH  27  28
ENDBRANCH  26  27
ENDBRANCH   1  26
TORSDOF 17
ENDMDL
MODEL 2
REMARK VINA RESULT:     -11.6      1.414      1.743
REMARK SMILES Cc1nn(C)c2c1nc(SCC(=O)NCCCCNC(=O)c1ccc(-c3c4nc(c(-c5cccc(S(=O)(=O)[O-])c5F)c5ccc([nH]5)c(-c5cccc(S(=O)(=O)[O-])c5F)c5nc(c(-c6cccc(S(=O)(=O)[O-])c6F)c6ccc3[nH]6)C=C5)C=C4)cc1)n2[C@H]1CC[N@@H+](C)C1
REMARK SMILES IDX 16 1 15 2 14 3 12 4 13 5 11 7 10 8 9 9 1 10 2 11 3 12 7 13
REMARK SMILES IDX 4 14 6 15 8 16 5 17 85 18 86 19 87 20 91 21 88 22 89 23
REMARK SMILES IDX 90 24 17 26 18 27 19 28 20 29 21 31 22 32 23 33 84 34 24 35
REMARK SMILES IDX 83 36 25 37 26 38 27 39 77 40 28 41 82 42 76 43 78 44 29 45
REMARK SMILES IDX 81 46 75 47 74 48 30 50 62 51 42 52 61 53 43 54 46 55 60 56
REMARK SMILES IDX 79 57 44 58 45 59 59 61 80 62 47 63 31 64 32 65 40 66 33 67
REMARK SMILES IDX 35 68 41 69 34 70 36 71 37 72 38 73 39 74 63 75 64 76 72 77
REMARK SMILES IDX 65 78 67 79 73 80 66 81 68 82 69 83 70 84 71 85 48 86 49 87
REMARK SMILES IDX 57 88 50 89 52 90 58 91 51 92 53 93 54 94 55 95 56 96
REMARK H PARENT 14 6 89 25 19 30 78 49 46 60
REMARK Flexibility Score: inf
ROOT
ATOM      1  C   UNL A   1      32.056  28.852  26.540  1.00  0.00     0.023 C 
ENDROOT
BRANCH   1   2
ATOM      2  C   UNL A   1      31.624  27.954  25.371  1.00  0.00     0.116 C 
BRANCH   2   3
ATOM      3  N   UNL A   1      30.621  26.988  25.775  1.00  0.00    -0.355 N 
ATOM      4  C   UNL A   1      30.733  25.684  26.168  1.00  0.00     0.230 C 
ATOM      5  O   UNL A   1      29.685  25.064  26.368  1.00  0.00    -0.274 OA
ATOM      6  H   UNL A   1      29.698  27.330  25.762  1.00  0.00     0.163 HD
BRANCH   4   7
ATOM      7  C   UNL A   1      32.077  25.059  26.473  1.00  0.00     0.178 C 
BRANCH   7   8
ATOM      8  S   UNL A   1      32.039  23.278  26.727  1.00  0.00    -0.078 SA
BRANCH   8   9
ATOM      9  C   UNL A   1      33.621  22.714  26.297  1.00  0.00     0.171 A 
ATOM     10  C   UNL A   1      38.072  23.557  26.058  1.00  0.00     0.071 C 
ATOM     11  C   UNL A   1      37.058  22.519  25.793  1.00  0.00     0.087 A 
ATOM     12  N   UNL A   1      37.430  21.334  25.274  1.00  0.00    -0.174 NA
ATOM     13  C   UNL A   1      35.675  22.536  25.972  1.00  0.00     0.132 A 
ATOM     14  N   UNL A   1      36.278  20.622  25.181  1.00  0.00    -0.250 N 
ATOM     15  C   UNL A   1      35.182  21.347  25.552  1.00  0.00     0.159 A 
ATOM     16  N   UNL A   1      34.742  23.395  26.422  1.00  0.00    -0.219 NA
ATOM     17  C   UNL A   1      36.408  19.262  24.720  1.00  0.00     0.176 C 
ATOM     18  N   UNL A   1      33.821  21.456  25.707  1.00  0.00    -0.295 N 
BRANCH  18  19
ATOM     19  C   UNL A   1      32.752  20.515  25.390  1.00  0.00     0.152 C 
ATOM     20  C   UNL A   1      32.531  20.273  23.881  1.00  0.00     0.093 C 
ATOM     21  C   UNL A   1      32.922  19.099  25.935  1.00  0.00     0.288 C 
ATOM     22  C   UNL A   1      32.791  18.796  23.652  1.00  0.00     0.264 C 
ATOM     23  N   UNL A   1      32.385  18.187  24.920  1.00  0.00    -0.336 N 
ATOM     24  C   UNL A   1      32.960  16.851  25.071  1.00  0.00     0.332 C 
ATOM     25  H   UNL A   1      31.375  18.065  24.989  1.00  0.00     0.347 HD
ENDBRANCH  18  19
ENDBRANCH   8   9
ENDBRANCH   7   8
ENDBRANCH   4   7
ENDBRANCH   2   3
ENDBRANCH   1   2
BRANCH   1  26
ATOM     26  C   UNL A   1      33.406  28.502  27.190  1.00  0.00     0.023 C 
BRANCH  26  27
ATOM     27  C   UNL A   1      34.563  29.398  26.772  1.00  0.00     0.116 C 
BRANCH  27  28
ATOM     28  N   UNL A   1      34.386  30.788  27.196  1.00  0.00    -0.352 N 
ATOM     29  C   UNL A   1      34.956  31.419  28.290  1.00  0.00     0.251 C 
ATOM     30  H   UNL A   1      33.792  31.339  26.638  1.00  0.00     0.163 HD
ATOM     31  O   UNL A   1      34.457  32.425  28.763  1.00  0.00    -0.269 OA
BRANCH  29  32
ATOM     32  C   UNL A   1      36.186  30.842  28.868  1.00  0.00     0.039 A 
ATOM     33  C   UNL A   1      36.194  29.560  29.422  1.00  0.00     0.014 A 
ATOM     34  C   UNL A   1      37.353  31.598  28.802  1.00  0.00     0.014 A 
ATOM     35  C   UNL A   1      37.411  29.011  29.825  1.00  0.00     0.010 A 
ATOM     36  C   UNL A   1      38.564  31.003  29.059  1.00  0.00     0.010 A 
ATOM     37  C   UNL A   1      38.600  29.728  29.613  1.00  0.00    -0.014 A 
BRANCH  37  38
ATOM     38  C   UNL A   1      39.900  29.100  29.844  1.00  0.00     0.031 A 
ATOM     39  C   UNL A   1      40.348  29.114  31.264  1.00  0.00     0.074 A 
ATOM     40  C   UNL A   1      40.550  28.373  28.909  1.00  0.00     0.049 A 
ATOM     41  N   UNL A   1      41.328  29.787  31.772  1.00  0.00    -0.248 NA
ATOM     42  C   UNL A   1      39.527  28.418  32.266  1.00  0.00     0.031 C 
ATOM     43  C   UNL A   1      40.081  28.001  27.567  1.00  0.00     0.029 A 
ATOM     44  N   UNL A   1      41.719  27.683  29.016  1.00  0.00    -0.354 N 
ATOM     45  C   UNL A   1      41.402  29.397  33.108  1.00  0.00     0.074 A 
ATOM     46  C   UNL A   1      40.157  28.740  33.398  1.00  0.00     0.031 C 
ATOM     47  C   UNL A   1      40.810  26.960  27.107  1.00  0.00     0.029 A 
ATOM     48  C   UNL A   1      41.904  26.721  28.026  1.00  0.00     0.049 A 
ATOM     49  H   UNL A   1      42.376  27.850  29.729  1.00  0.00     0.167 HD
ATOM     50  C   UNL A   1      42.589  29.411  33.779  1.00  0.00     0.034 A 
ATOM     51  C   UNL A   1      42.869  25.771  27.982  1.00  0.00     0.034 A 
ATOM     52  C   UNL A   1      43.584  30.165  33.055  1.00  0.00     0.049 A 
ATOM     53  C   UNL A   1      43.966  26.231  28.860  1.00  0.00     0.074 A 
ATOM     54  C   UNL A   1      43.697  31.459  32.589  1.00  0.00     0.029 A 
ATOM     55  N   UNL A   1      44.526  29.433  32.375  1.00  0.00    -0.354 N 
ATOM     56  N   UNL A   1      44.702  27.275  28.603  1.00  0.00    -0.248 NA
ATOM     57  C   UNL A   1      43.985  25.770  30.236  1.00  0.00     0.031 C 
ATOM     58  C   UNL A   1      44.366  31.338  31.334  1.00  0.00     0.029 A 
ATOM     59  C   UNL A   1      44.684  29.993  31.139  1.00  0.00     0.049 A 
ATOM     60  H   UNL A   1      45.005  28.643  32.719  1.00  0.00     0.167 HD
ATOM     61  C   UNL A   1      44.882  27.873  29.841  1.00  0.00     0.074 A 
ATOM     62  C   UNL A   1      44.539  26.838  30.814  1.00  0.00     0.031 C 
ATOM     63  C   UNL A   1      45.004  29.230  29.952  1.00  0.00     0.034 A 
BRANCH  50  64
ATOM     64  C   UNL A   1      43.006  28.429  34.861  1.00  0.00     0.023 A 
ATOM     65  C   UNL A   1      43.592  28.977  36.028  1.00  0.00     0.012 A 
ATOM     66  C   UNL A   1      43.137  27.032  34.684  1.00  0.00     0.148 A 
ATOM     67  C   UNL A   1      44.342  28.198  36.917  1.00  0.00     0.002 A 
ATOM     68  C   UNL A   1      43.819  26.249  35.611  1.00  0.00     0.091 A 
ATOM     69  F   UNL A   1      42.720  26.454  33.558  1.00  0.00    -0.205 F 
ATOM     70  C   UNL A   1      44.455  26.832  36.709  1.00  0.00     0.022 A 
BRANCH  68  71
ATOM     71  S   UNL A   1      43.959  24.467  35.419  1.00  0.00     0.127 S 
ATOM     72  O   UNL A   1      42.557  24.076  35.310  1.00  0.00    -0.237 OA
ATOM     73  O   UNL A   1      44.732  24.362  34.181  1.00  0.00    -0.237 OA
ATOM     74  O   UNL A   1      44.666  24.000  36.605  1.00  0.00    -0.744 OA
ENDBRANCH  68  71
ENDBRANCH  50  64
BRANCH  51  75
ATOM     75  C   UNL A   1      42.852  24.404  27.415  1.00  0.00     0.023 A 
ATOM     76  C   UNL A   1      41.651  23.666  27.418  1.00  0.00     0.012 A 
ATOM     77  C   UNL A   1      43.915  23.946  26.607  1.00  0.00     0.148 A 
ATOM     78  C   UNL A   1      41.494  22.538  26.604  1.00  0.00     0.002 A 
ATOM     79  C   UNL A   1      43.755  22.822  25.801  1.00  0.00     0.091 A 
ATOM     80  F   UNL A   1      45.044  24.667  26.559  1.00  0.00    -0.205 F 
ATOM     81  C   UNL A   1      42.541  22.124  25.787  1.00  0.00     0.022 A 
BRANCH  79  82
ATOM     82  S   UNL A   1      45.049  22.243  24.695  1.00  0.00     0.127 S 
ATOM     83  O   UNL A   1      45.315  23.436  23.890  1.00  0.00    -0.237 OA
ATOM     84  O   UNL A   1      46.110  21.889  25.633  1.00  0.00    -0.237 OA
ATOM     85  O   UNL A   1      44.464  21.136  23.948  1.00  0.00    -0.744 OA
ENDBRANCH  79  82
ENDBRANCH  51  75
BRANCH  63  86
ATOM     86  C   UNL A   1      45.245  30.026  28.694  1.00  0.00     0.023 A 
ATOM     87  C   UNL A   1      44.198  30.505  27.879  1.00  0.00     0.012 A 
ATOM     88  C   UNL A   1      46.560  30.439  28.421  1.00  0.00     0.148 A 
ATOM     89  C   UNL A   1      44.462  31.358  26.803  1.00  0.00     0.002 A 
ATOM     90  C   UNL A   1      46.813  31.325  27.382  1.00  0.00     0.091 A 
ATOM     91  F   UNL A   1      47.545  29.975  29.205  1.00  0.00    -0.205 F 
ATOM     92  C   UNL A   1      45.768  31.779  26.563  1.00  0.00     0.022 A 
BRANCH  90  93
ATOM     93  S   UNL A   1      48.452  32.000  27.108  1.00  0.00     0.127 S 
ATOM     94  O   UNL A   1      48.781  32.546  28.422  1.00  0.00    -0.237 OA
ATOM     95  O   UNL A   1      49.222  30.814  26.727  1.00  0.00    -0.237 OA
ATOM     96  O   UNL A   1      48.306  32.980  26.039  1.00  0.00    -0.744 OA
ENDBRANCH  90  93
ENDBRANCH  63  86
ENDBRANCH  37  38
ENDBRANCH  29  32
ENDBRANCH  27  28
ENDBRANCH  26  27
ENDBRANCH   1  26
TORSDOF 17
ENDMDL
MODEL 3
REMARK VINA RESULT:     -11.5      1.768      2.576
REMARK SMILES Cc1nn(C)c2c1nc(SCC(=O)NCCCCNC(=O)c1ccc(-c3c4nc(c(-c5cccc(S(=O)(=O)[O-])c5F)c5ccc([nH]5)c(-c5cccc(S(=O)(=O)[O-])c5F)c5nc(c(-c6cccc(S(=O)(=O)[O-])c6F)c6ccc3[nH]6)C=C5)C=C4)cc1)n2[C@H]1CC[N@@H+](C)C1
REMARK SMILES IDX 16 1 15 2 14 3 12 4 13 5 11 7 10 8 9 9 1 10 2 11 3 12 7 13
REMARK SMILES IDX 4 14 6 15 8 16 5 17 85 18 86 19 87 20 91 21 88 22 89 23
REMARK SMILES IDX 90 24 17 26 18 27 19 28 20 29 21 31 22 32 23 33 84 34 24 35
REMARK SMILES IDX 83 36 25 37 26 38 27 39 77 40 28 41 82 42 76 43 78 44 29 45
REMARK SMILES IDX 81 46 75 47 74 48 30 50 62 51 42 52 61 53 43 54 46 55 60 56
REMARK SMILES IDX 79 57 44 58 45 59 59 61 80 62 47 63 31 64 32 65 40 66 33 67
REMARK SMILES IDX 35 68 41 69 34 70 36 71 37 72 38 73 39 74 63 75 64 76 72 77
REMARK SMILES IDX 65 78 67 79 73 80 66 81 68 82 69 83 70 84 71 85 48 86 49 87
REMARK SMILES IDX 57 88 50 89 52 90 58 91 51 92 53 93 54 94 55 95 56 96
REMARK H PARENT 14 6 89 25 19 30 78 49 46 60
REMARK Flexibility Score: inf
ROOT
ATOM      1  C   UNL A   1      33.001  28.310  26.953  1.00  0.00     0.023 C 
ENDROOT
BRANCH   1   2
ATOM      2  C   UNL A   1      33.122  27.436  25.696  1.00  0.00     0.116 C 
BRANCH   2   3
ATOM      3  N   UNL A   1      32.047  27.690  24.755  1.00  0.00    -0.355 N 
ATOM      4  C   UNL A   1      31.966  27.496  23.406  1.00  0.00     0.230 C 
ATOM      5  O   UNL A   1      30.946  27.896  22.839  1.00  0.00    -0.274 OA
ATOM      6  H   UNL A   1      31.234  28.071  25.160  1.00  0.00     0.163 HD
BRANCH   4   7
ATOM      7  C   UNL A   1      33.018  26.709  22.652  1.00  0.00     0.178 C 
BRANCH   7   8
ATOM      8  S   UNL A   1      32.584  24.995  22.325  1.00  0.00    -0.078 SA
BRANCH   8   9
ATOM      9  C   UNL A   1      32.335  24.273  23.883  1.00  0.00     0.171 A 
ATOM     10  C   UNL A   1      29.424  23.124  27.166  1.00  0.00     0.071 C 
ATOM     11  C   UNL A   1      30.849  23.068  26.788  1.00  0.00     0.087 A 
ATOM     12  N   UNL A   1      31.745  22.516  27.627  1.00  0.00    -0.174 NA
ATOM     13  C   UNL A   1      31.502  23.530  25.646  1.00  0.00     0.132 A 
ATOM     14  N   UNL A   1      32.931  22.607  26.972  1.00  0.00    -0.250 N 
ATOM     15  C   UNL A   1      32.823  23.266  25.782  1.00  0.00     0.159 A 
ATOM     16  N   UNL A   1      31.176  24.155  24.499  1.00  0.00    -0.219 NA
ATOM     17  C   UNL A   1      34.066  22.006  27.628  1.00  0.00     0.176 C 
ATOM     18  N   UNL A   1      33.404  23.794  24.654  1.00  0.00    -0.295 N 
BRANCH  18  19
ATOM     19  C   UNL A   1      34.805  23.855  24.249  1.00  0.00     0.152 C 
ATOM     20  C   UNL A   1      35.757  24.454  25.306  1.00  0.00     0.093 C 
ATOM     21  C   UNL A   1      35.467  22.519  23.921  1.00  0.00     0.288 C 
ATOM     22  C   UNL A   1      36.749  23.357  25.645  1.00  0.00     0.264 C 
ATOM     23  N   UNL A   1      36.853  22.605  24.394  1.00  0.00    -0.336 N 
ATOM     24  C   UNL A   1      37.403  21.270  24.625  1.00  0.00     0.332 C 
ATOM     25  H   UNL A   1      37.476  23.051  23.721  1.00  0.00     0.347 HD
ENDBRANCH  18  19
ENDBRANCH   8   9
ENDBRANCH   7   8
ENDBRANCH   4   7
ENDBRANCH   2   3
ENDBRANCH   1   2
BRANCH   1  26
ATOM     26  C   UNL A   1      33.163  29.824  26.734  1.00  0.00     0.023 C 
BRANCH  26  27
ATOM     27  C   UNL A   1      34.482  30.400  27.229  1.00  0.00     0.116 C 
BRANCH  27  28
ATOM     28  N   UNL A   1      34.305  31.594  28.056  1.00  0.00    -0.352 N 
ATOM     29  C   UNL A   1      34.921  31.889  29.262  1.00  0.00     0.251 C 
ATOM     30  H   UNL A   1      33.672  32.267  27.716  1.00  0.00     0.163 HD
ATOM     31  O   UNL A   1      34.430  32.693  30.036  1.00  0.00    -0.269 OA
BRANCH  29  32
ATOM     32  C   UNL A   1      36.189  31.206  29.584  1.00  0.00     0.039 A 
ATOM     33  C   UNL A   1      36.246  29.819  29.743  1.00  0.00     0.014 A 
ATOM     34  C   UNL A   1      37.340  31.982  29.682  1.00  0.00     0.014 A 
ATOM     35  C   UNL A   1      37.490  29.213  29.907  1.00  0.00     0.010 A 
ATOM     36  C   UNL A   1      38.572  31.374  29.694  1.00  0.00     0.010 A 
ATOM     37  C   UNL A   1      38.655  29.994  29.852  1.00  0.00    -0.014 A 
BRANCH  37  38
ATOM     38  C   UNL A   1      39.974  29.365  29.825  1.00  0.00     0.031 A 
ATOM     39  C   UNL A   1      40.574  29.130  31.168  1.00  0.00     0.074 A 
ATOM     40  C   UNL A   1      40.522  28.834  28.709  1.00  0.00     0.049 A 
ATOM     41  N   UNL A   1      41.601  29.722  31.683  1.00  0.00    -0.248 NA
ATOM     42  C   UNL A   1      39.868  28.245  32.107  1.00  0.00     0.031 C 
ATOM     43  C   UNL A   1      39.912  28.701  27.379  1.00  0.00     0.029 A 
ATOM     44  N   UNL A   1      41.698  28.162  28.563  1.00  0.00    -0.354 N 
ATOM     45  C   UNL A   1      41.821  29.097  32.911  1.00  0.00     0.074 A 
ATOM     46  C   UNL A   1      40.616  28.371  33.205  1.00  0.00     0.031 C 
ATOM     47  C   UNL A   1      40.589  27.778  26.661  1.00  0.00     0.029 A 
ATOM     48  C   UNL A   1      41.776  27.400  27.400  1.00  0.00     0.049 A 
ATOM     49  H   UNL A   1      42.428  28.212  29.222  1.00  0.00     0.167 HD
ATOM     50  C   UNL A   1      43.074  29.015  33.443  1.00  0.00     0.034 A 
ATOM     51  C   UNL A   1      42.733  26.496  27.081  1.00  0.00     0.034 A 
ATOM     52  C   UNL A   1      43.982  29.911  32.768  1.00  0.00     0.049 A 
ATOM     53  C   UNL A   1      43.918  26.814  27.907  1.00  0.00     0.074 A 
ATOM     54  C   UNL A   1      44.040  31.270  32.537  1.00  0.00     0.029 A 
ATOM     55  N   UNL A   1      44.847  29.336  31.870  1.00  0.00    -0.354 N 
ATOM     56  N   UNL A   1      44.619  27.904  27.769  1.00  0.00    -0.248 NA
ATOM     57  C   UNL A   1      44.087  26.111  29.165  1.00  0.00     0.031 C 
ATOM     58  C   UNL A   1      44.569  31.395  31.218  1.00  0.00     0.029 A 
ATOM     59  C   UNL A   1      44.868  30.114  30.747  1.00  0.00     0.049 A 
ATOM     60  H   UNL A   1      45.362  28.508  32.010  1.00  0.00     0.167 HD
ATOM     61  C   UNL A   1      44.931  28.271  29.070  1.00  0.00     0.074 A 
ATOM     62  C   UNL A   1      44.698  27.068  29.868  1.00  0.00     0.031 C 
ATOM     63  C   UNL A   1      45.060  29.588  29.413  1.00  0.00     0.034 A 
BRANCH  50  64
ATOM     64  C   UNL A   1      43.608  27.863  34.277  1.00  0.00     0.023 A 
ATOM     65  C   UNL A   1      44.325  28.204  35.449  1.00  0.00     0.012 A 
ATOM     66  C   UNL A   1      43.712  26.523  33.838  1.00  0.00     0.148 A 
ATOM     67  C   UNL A   1      45.169  27.291  36.093  1.00  0.00     0.002 A 
ATOM     68  C   UNL A   1      44.493  25.598  34.526  1.00  0.00     0.091 A 
ATOM     69  F   UNL A   1      43.167  26.149  32.681  1.00  0.00    -0.205 F 
ATOM     70  C   UNL A   1      45.253  25.986  35.631  1.00  0.00     0.022 A 
BRANCH  68  71
ATOM     71  S   UNL A   1      44.603  23.882  34.002  1.00  0.00     0.127 S 
ATOM     72  O   UNL A   1      45.018  24.029  32.611  1.00  0.00    -0.237 OA
ATOM     73  O   UNL A   1      45.630  23.363  34.906  1.00  0.00    -0.237 OA
ATOM     74  O   UNL A   1      43.276  23.319  34.222  1.00  0.00    -0.744 OA
ENDBRANCH  68  71
ENDBRANCH  50  64
BRANCH  51  75
ATOM     75  C   UNL A   1      42.660  25.255  26.279  1.00  0.00     0.023 A 
ATOM     76  C   UNL A   1      43.539  25.080  25.190  1.00  0.00     0.012 A 
ATOM     77  C   UNL A   1      41.954  24.130  26.754  1.00  0.00     0.148 A 
ATOM     78  C   UNL A   1      43.747  23.816  24.626  1.00  0.00     0.002 A 
ATOM     79  C   UNL A   1      42.163  22.875  26.189  1.00  0.00     0.091 A 
ATOM     80  F   UNL A   1      41.153  24.274  27.819  1.00  0.00    -0.205 F 
ATOM     81  C   UNL A   1      43.070  22.712  25.134  1.00  0.00     0.022 A 
BRANCH  79  82
ATOM     82  S   UNL A   1      41.350  21.396  26.808  1.00  0.00     0.127 S 
ATOM     83  O   UNL A   1      39.952  21.824  26.876  1.00  0.00    -0.237 OA
ATOM     84  O   UNL A   1      41.642  20.428  25.755  1.00  0.00    -0.237 OA
ATOM     85  O   UNL A   1      41.956  21.126  28.106  1.00  0.00    -0.744 OA
ENDBRANCH  79  82
ENDBRANCH  51  75
BRANCH  63  86
ATOM     86  C   UNL A   1      45.162  30.604  28.304  1.00  0.00     0.023 A 
ATOM     87  C   UNL A   1      44.031  31.163  27.673  1.00  0.00     0.012 A 
ATOM     88  C   UNL A   1      46.431  31.127  28.007  1.00  0.00     0.148 A 
ATOM     89  C   UNL A   1      44.168  32.205  26.750  1.00  0.00     0.002 A 
ATOM     90  C   UNL A   1      46.560  32.194  27.128  1.00  0.00     0.091 A 
ATOM     91  F   UNL A   1      47.497  30.584  28.616  1.00  0.00    -0.205 F 
ATOM     92  C   UNL A   1      45.431  32.729  26.489  1.00  0.00     0.022 A 
BRANCH  90  93
ATOM     93  S   UNL A   1      48.142  32.991  26.852  1.00  0.00     0.127 S 
ATOM     94  O   UNL A   1      47.828  33.930  25.779  1.00  0.00    -0.237 OA
ATOM     95  O   UNL A   1      48.414  33.612  28.150  1.00  0.00    -0.237 OA
ATOM     96  O   UNL A   1      49.071  31.923  26.501  1.00  0.00    -0.744 OA
ENDBRANCH  90  93
ENDBRANCH  63  86
ENDBRANCH  37  38
ENDBRANCH  29  32
ENDBRANCH  27  28
ENDBRANCH  26  27
ENDBRANCH   1  26
TORSDOF 17
ENDMDL
