MODEL 1
REMARK VINA RESULT:     -11.4      0.000      0.000
REMARK SMILES Cc1n[nH]c(C(=O)N[C@@H](CC(C)C)C(=O)NCCCCNC(=O)c2ccc(-c3c4nc(c(-c5cccc(S(=O)(=O)[O-])c5F)c5ccc([nH]5)c(-c5cccc(S(=O)(=O)[O-])c5F)c5nc(c(-c6cccc(S(=O)(=O)[O-])c6F)c6ccc3[nH]6)C=C5)C=C4)cc2)n1
REMARK SMILES IDX 19 1 18 2 17 3 16 4 14 5 15 6 9 8 8 9 6 10 7 11 5 13 1 14
REMARK SMILES IDX 2 15 3 16 87 17 4 18 10 20 11 21 12 22 13 23 20 24 21 25
REMARK SMILES IDX 22 26 23 28 24 29 25 30 86 31 26 32 85 33 27 34 28 35 29 36
REMARK SMILES IDX 79 37 30 38 84 39 78 40 80 41 31 42 83 43 77 44 76 45 32 47
REMARK SMILES IDX 64 48 44 49 63 50 45 51 48 52 62 53 81 54 46 55 47 56 61 58
REMARK SMILES IDX 82 59 49 60 33 61 34 62 42 63 35 64 37 65 43 66 36 67 38 68
REMARK SMILES IDX 39 69 40 70 41 71 65 72 66 73 74 74 67 75 69 76 75 77 68 78
REMARK SMILES IDX 70 79 71 80 72 81 73 82 50 83 51 84 59 85 52 86 54 87 60 88
REMARK SMILES IDX 53 89 55 90 56 91 57 92 58 93
REMARK H PARENT 16 7 8 12 4 19 21 27 80 46 48 57
REMARK Flexibility Score: inf
ROOT
ATOM      1  C   UNL A   1      38.221  19.808  24.990  1.00  0.00     0.023 C 
ENDROOT
BRANCH   1   2
ATOM      2  C   UNL A   1      37.282  20.997  24.744  1.00  0.00     0.023 C 
BRANCH   2   3
ATOM      3  C   UNL A   1      35.818  20.778  25.125  1.00  0.00     0.116 C 
BRANCH   3   4
ATOM      4  N   UNL A   1      35.447  21.346  26.406  1.00  0.00    -0.354 N 
ATOM      5  C   UNL A   1      34.576  22.340  26.740  1.00  0.00     0.242 C 
ATOM      6  O   UNL A   1      34.348  22.503  27.944  1.00  0.00    -0.273 OA
ATOM      7  H   UNL A   1      35.907  20.939  27.175  1.00  0.00     0.163 HD
BRANCH   5   8
ATOM      8  C   UNL A   1      33.886  23.274  25.719  1.00  0.00     0.172 C 
BRANCH   8   9
ATOM      9  N   UNL A   1      32.442  23.040  25.703  1.00  0.00    -0.338 N 
ATOM     10  C   UNL A   1      31.663  21.922  25.511  1.00  0.00     0.289 C 
ATOM     11  O   UNL A   1      30.488  22.085  25.866  1.00  0.00    -0.266 OA
ATOM     12  H   UNL A   1      31.917  23.856  25.866  1.00  0.00     0.164 HD
BRANCH  10  13
ATOM     13  C   UNL A   1      32.115  20.685  24.892  1.00  0.00     0.214 A 
ATOM     14  C   UNL A   1      33.107  17.277  25.095  1.00  0.00     0.092 C 
ATOM     15  C   UNL A   1      32.725  18.648  24.711  1.00  0.00     0.148 A 
ATOM     16  N   UNL A   1      32.602  19.032  23.441  1.00  0.00    -0.159 NA
ATOM     17  N   UNL A   1      32.443  19.624  25.623  1.00  0.00    -0.207 NA
ATOM     18  N   UNL A   1      32.252  20.323  23.580  1.00  0.00    -0.255 N 
ATOM     19  H   UNL A   1      32.109  20.938  22.824  1.00  0.00     0.192 HD
ENDBRANCH  10  13
ENDBRANCH   8   9
BRANCH   8  20
ATOM     20  C   UNL A   1      34.256  24.770  25.646  1.00  0.00     0.038 C 
BRANCH  20  21
ATOM     21  C   UNL A   1      33.961  25.570  24.370  1.00  0.00    -0.015 C 
ATOM     22  C   UNL A   1      34.091  24.703  23.113  1.00  0.00     0.007 C 
ATOM     23  C   UNL A   1      32.539  26.146  24.403  1.00  0.00     0.007 C 
ENDBRANCH  20  21
ENDBRANCH   8  20
ENDBRANCH   5   8
ENDBRANCH   3   4
ENDBRANCH   2   3
ENDBRANCH   1   2
BRANCH   1  24
ATOM     24  C   UNL A   1      39.348  20.065  25.986  1.00  0.00     0.116 C 
BRANCH  24  25
ATOM     25  N   UNL A   1      40.523  19.240  25.741  1.00  0.00    -0.352 N 
ATOM     26  C   UNL A   1      41.849  19.631  25.784  1.00  0.00     0.251 C 
ATOM     27  H   UNL A   1      40.355  18.294  25.521  1.00  0.00     0.163 HD
ATOM     28  O   UNL A   1      42.712  18.947  25.259  1.00  0.00    -0.269 OA
BRANCH  26  29
ATOM     29  C   UNL A   1      42.203  20.893  26.467  1.00  0.00     0.039 A 
ATOM     30  C   UNL A   1      42.502  22.031  25.714  1.00  0.00     0.014 A 
ATOM     31  C   UNL A   1      42.234  20.935  27.863  1.00  0.00     0.014 A 
ATOM     32  C   UNL A   1      42.753  23.230  26.375  1.00  0.00     0.010 A 
ATOM     33  C   UNL A   1      42.409  22.138  28.517  1.00  0.00     0.010 A 
ATOM     34  C   UNL A   1      42.679  23.288  27.778  1.00  0.00    -0.014 A 
BRANCH  34  35
ATOM     35  C   UNL A   1      42.658  24.595  28.438  1.00  0.00     0.031 A 
ATOM     36  C   UNL A   1      41.401  25.355  28.191  1.00  0.00     0.074 A 
ATOM     37  C   UNL A   1      43.568  25.012  29.346  1.00  0.00     0.049 A 
ATOM     38  N   UNL A   1      41.263  26.437  27.499  1.00  0.00    -0.248 NA
ATOM     39  C   UNL A   1      40.124  24.751  28.612  1.00  0.00     0.031 C 
ATOM     40  C   UNL A   1      44.682  24.235  29.896  1.00  0.00     0.029 A 
ATOM     41  N   UNL A   1      43.611  26.168  30.078  1.00  0.00    -0.354 N 
ATOM     42  C   UNL A   1      39.925  26.797  27.644  1.00  0.00     0.074 A 
ATOM     43  C   UNL A   1      39.243  25.625  28.121  1.00  0.00     0.031 C 
ATOM     44  C   UNL A   1      45.122  24.824  31.030  1.00  0.00     0.029 A 
ATOM     45  C   UNL A   1      44.431  26.087  31.204  1.00  0.00     0.049 A 
ATOM     46  H   UNL A   1      43.112  26.980  29.833  1.00  0.00     0.167 HD
ATOM     47  C   UNL A   1      39.561  28.109  27.671  1.00  0.00     0.034 A 
ATOM     48  C   UNL A   1      44.503  26.967  32.235  1.00  0.00     0.034 A 
ATOM     49  C   UNL A   1      40.621  28.951  27.171  1.00  0.00     0.049 A 
ATOM     50  C   UNL A   1      43.983  28.258  31.747  1.00  0.00     0.074 A 
ATOM     51  C   UNL A   1      41.338  29.060  25.999  1.00  0.00     0.029 A 
ATOM     52  N   UNL A   1      41.336  29.617  28.133  1.00  0.00    -0.354 N 
ATOM     53  N   UNL A   1      44.594  28.991  30.862  1.00  0.00    -0.248 NA
ATOM     54  C   UNL A   1      42.590  28.596  31.989  1.00  0.00     0.031 C 
ATOM     55  C   UNL A   1      42.650  29.456  26.398  1.00  0.00     0.029 A 
ATOM     56  C   UNL A   1      42.655  29.638  27.782  1.00  0.00     0.049 A 
ATOM     57  H   UNL A   1      40.958  30.016  28.949  1.00  0.00     0.167 HD
ATOM     58  C   UNL A   1      43.563  29.516  30.099  1.00  0.00     0.074 A 
ATOM     59  C   UNL A   1      42.377  29.393  30.939  1.00  0.00     0.031 C 
ATOM     60  C   UNL A   1      43.725  29.696  28.755  1.00  0.00     0.034 A 
BRANCH  47  61
ATOM     61  C   UNL A   1      38.478  28.688  28.569  1.00  0.00     0.023 A 
ATOM     62  C   UNL A   1      37.493  29.493  27.947  1.00  0.00     0.012 A 
ATOM     63  C   UNL A   1      38.549  28.754  29.981  1.00  0.00     0.148 A 
ATOM     64  C   UNL A   1      36.680  30.366  28.682  1.00  0.00     0.002 A 
ATOM     65  C   UNL A   1      37.680  29.556  30.712  1.00  0.00     0.091 A 
ATOM     66  F   UNL A   1      39.543  28.153  30.634  1.00  0.00    -0.205 F 
ATOM     67  C   UNL A   1      36.769  30.393  30.066  1.00  0.00     0.022 A 
BRANCH  65  68
ATOM     68  S   UNL A   1      37.720  29.592  32.510  1.00  0.00     0.127 S 
ATOM     69  O   UNL A   1      36.659  30.551  32.805  1.00  0.00    -0.237 OA
ATOM     70  O   UNL A   1      37.412  28.201  32.839  1.00  0.00    -0.237 OA
ATOM     71  O   UNL A   1      39.073  30.003  32.864  1.00  0.00    -0.744 OA
ENDBRANCH  65  68
ENDBRANCH  47  61
BRANCH  48  72
ATOM     72  C   UNL A   1      44.815  26.762  33.670  1.00  0.00     0.023 A 
ATOM     73  C   UNL A   1      46.062  27.185  34.178  1.00  0.00     0.012 A 
ATOM     74  C   UNL A   1      43.796  26.445  34.591  1.00  0.00     0.148 A 
ATOM     75  C   UNL A   1      46.267  27.341  35.554  1.00  0.00     0.002 A 
ATOM     76  C   UNL A   1      44.006  26.598  35.959  1.00  0.00     0.091 A 
ATOM     77  F   UNL A   1      42.591  26.089  34.125  1.00  0.00    -0.205 F 
ATOM     78  C   UNL A   1      45.235  27.061  36.444  1.00  0.00     0.022 A 
BRANCH  76  79
ATOM     79  S   UNL A   1      42.707  26.286  37.163  1.00  0.00     0.127 S 
ATOM     80  O   UNL A   1      43.430  26.417  38.429  1.00  0.00    -0.237 OA
ATOM     81  O   UNL A   1      41.767  27.366  36.880  1.00  0.00    -0.237 OA
ATOM     82  O   UNL A   1      42.225  24.938  36.888  1.00  0.00    -0.744 OA
ENDBRANCH  76  79
ENDBRANCH  48  72
BRANCH  60  83
ATOM     83  C   UNL A   1      45.133  29.746  28.219  1.00  0.00     0.023 A 
ATOM     84  C   UNL A   1      45.930  30.909  28.236  1.00  0.00     0.012 A 
ATOM     85  C   UNL A   1      45.701  28.542  27.768  1.00  0.00     0.148 A 
ATOM     86  C   UNL A   1      47.248  30.878  27.773  1.00  0.00     0.002 A 
ATOM     87  C   UNL A   1      47.026  28.505  27.359  1.00  0.00     0.091 A 
ATOM     88  F   UNL A   1      44.931  27.443  27.753  1.00  0.00    -0.205 F 
ATOM     89  C   UNL A   1      47.801  29.673  27.346  1.00  0.00     0.022 A 
BRANCH  87  90
ATOM     90  S   UNL A   1      47.809  26.955  26.912  1.00  0.00     0.127 S 
ATOM     91  O   UNL A   1      47.062  26.568  25.718  1.00  0.00    -0.237 OA
ATOM     92  O   UNL A   1      49.195  27.358  26.664  1.00  0.00    -0.237 OA
ATOM     93  O   UNL A   1      47.647  26.083  28.070  1.00  0.00    -0.744 OA
ENDBRANCH  87  90
ENDBRANCH  60  83
ENDBRANCH  34  35
ENDBRANCH  26  29
ENDBRANCH  24  25
ENDBRANCH   1  24
TORSDOF 18
ENDMDL
MODEL 2
REMARK VINA RESULT:     -11.2      4.048      9.312
REMARK SMILES Cc1n[nH]c(C(=O)N[C@@H](CC(C)C)C(=O)NCCCCNC(=O)c2ccc(-c3c4nc(c(-c5cccc(S(=O)(=O)[O-])c5F)c5ccc([nH]5)c(-c5cccc(S(=O)(=O)[O-])c5F)c5nc(c(-c6cccc(S(=O)(=O)[O-])c6F)c6ccc3[nH]6)C=C5)C=C4)cc2)n1
REMARK SMILES IDX 19 1 18 2 17 3 16 4 14 5 15 6 9 8 8 9 6 10 7 11 5 13 1 14
REMARK SMILES IDX 2 15 3 16 87 17 4 18 10 20 11 21 12 22 13 23 20 24 21 25
REMARK SMILES IDX 22 26 23 28 24 29 25 30 86 31 26 32 85 33 27 34 28 35 29 36
REMARK SMILES IDX 79 37 30 38 84 39 78 40 80 41 31 42 83 43 77 44 76 45 32 47
REMARK SMILES IDX 64 48 44 49 63 50 45 51 48 52 62 53 81 54 46 55 47 56 61 58
REMARK SMILES IDX 82 59 49 60 33 61 34 62 42 63 35 64 37 65 43 66 36 67 38 68
REMARK SMILES IDX 39 69 40 70 41 71 65 72 66 73 74 74 67 75 69 76 75 77 68 78
REMARK SMILES IDX 70 79 71 80 72 81 73 82 50 83 51 84 59 85 52 86 54 87 60 88
REMARK SMILES IDX 53 89 55 90 56 91 57 92 58 93
REMARK H PARENT 16 7 8 12 4 19 21 27 80 46 48 57
REMARK Flexibility Score: inf
ROOT
ATOM      1  C   UNL A   1      31.493  31.675  26.318  1.00  0.00     0.023 C 
ENDROOT
BRANCH   1   2
ATOM      2  C   UNL A   1      31.585  30.162  26.077  1.00  0.00     0.023 C 
BRANCH   2   3
ATOM      3  C   UNL A   1      32.287  29.735  24.788  1.00  0.00     0.116 C 
BRANCH   3   4
ATOM      4  N   UNL A   1      31.400  29.579  23.653  1.00  0.00    -0.354 N 
ATOM      5  C   UNL A   1      31.057  28.488  22.911  1.00  0.00     0.242 C 
ATOM      6  O   UNL A   1      30.144  28.632  22.091  1.00  0.00    -0.273 OA
ATOM      7  H   UNL A   1      30.963  30.414  23.365  1.00  0.00     0.163 HD
BRANCH   5   8
ATOM      8  C   UNL A   1      31.748  27.109  23.020  1.00  0.00     0.172 C 
BRANCH   8   9
ATOM      9  N   UNL A   1      32.362  26.740  21.744  1.00  0.00    -0.338 N 
ATOM     10  C   UNL A   1      32.793  25.550  21.205  1.00  0.00     0.289 C 
ATOM     11  O   UNL A   1      32.985  25.614  19.984  1.00  0.00    -0.266 OA
ATOM     12  H   UNL A   1      32.495  27.509  21.143  1.00  0.00     0.164 HD
BRANCH  10  13
ATOM     13  C   UNL A   1      33.075  24.342  21.967  1.00  0.00     0.214 A 
ATOM     14  C   UNL A   1      35.226  22.359  23.988  1.00  0.00     0.092 C 
ATOM     15  C   UNL A   1      34.132  22.959  23.202  1.00  0.00     0.148 A 
ATOM     16  N   UNL A   1      32.915  22.422  23.134  1.00  0.00    -0.159 NA
ATOM     17  N   UNL A   1      34.273  24.124  22.503  1.00  0.00    -0.207 NA
ATOM     18  N   UNL A   1      32.280  23.289  22.326  1.00  0.00    -0.255 N 
ATOM     19  H   UNL A   1      31.348  23.179  22.027  1.00  0.00     0.192 HD
ENDBRANCH  10  13
ENDBRANCH   8   9
BRANCH   8  20
ATOM     20  C   UNL A   1      32.631  26.765  24.237  1.00  0.00     0.038 C 
BRANCH  20  21
ATOM     21  C   UNL A   1      32.128  25.769  25.291  1.00  0.00    -0.015 C 
ATOM     22  C   UNL A   1      33.285  25.086  26.027  1.00  0.00     0.007 C 
ATOM     23  C   UNL A   1      31.253  26.475  26.335  1.00  0.00     0.007 C 
ENDBRANCH  20  21
ENDBRANCH   8  20
ENDBRANCH   5   8
ENDBRANCH   3   4
ENDBRANCH   2   3
ENDBRANCH   1   2
BRANCH   1  24
ATOM     24  C   UNL A   1      32.599  32.263  27.191  1.00  0.00     0.116 C 
BRANCH  24  25
ATOM     25  N   UNL A   1      32.337  33.638  27.591  1.00  0.00    -0.352 N 
ATOM     26  C   UNL A   1      33.031  34.389  28.522  1.00  0.00     0.251 C 
ATOM     27  H   UNL A   1      31.579  34.085  27.149  1.00  0.00     0.163 HD
ATOM     28  O   UNL A   1      32.535  35.397  28.998  1.00  0.00    -0.269 OA
BRANCH  26  29
ATOM     29  C   UNL A   1      34.379  33.948  28.939  1.00  0.00     0.039 A 
ATOM     30  C   UNL A   1      34.526  33.112  30.048  1.00  0.00     0.014 A 
ATOM     31  C   UNL A   1      35.496  34.373  28.215  1.00  0.00     0.014 A 
ATOM     32  C   UNL A   1      35.795  32.642  30.375  1.00  0.00     0.010 A 
ATOM     33  C   UNL A   1      36.743  33.849  28.493  1.00  0.00     0.010 A 
ATOM     34  C   UNL A   1      36.900  32.990  29.580  1.00  0.00    -0.014 A 
BRANCH  34  35
ATOM     35  C   UNL A   1      38.162  32.268  29.756  1.00  0.00     0.031 A 
ATOM     36  C   UNL A   1      38.119  30.876  29.229  1.00  0.00     0.074 A 
ATOM     37  C   UNL A   1      39.321  32.834  30.158  1.00  0.00     0.049 A 
ATOM     38  N   UNL A   1      38.158  29.779  29.911  1.00  0.00    -0.248 NA
ATOM     39  C   UNL A   1      37.822  30.677  27.800  1.00  0.00     0.031 C 
ATOM     40  C   UNL A   1      39.563  34.257  30.416  1.00  0.00     0.029 A 
ATOM     41  N   UNL A   1      40.568  32.286  30.287  1.00  0.00    -0.354 N 
ATOM     42  C   UNL A   1      38.178  28.759  28.962  1.00  0.00     0.074 A 
ATOM     43  C   UNL A   1      37.734  29.347  27.729  1.00  0.00     0.031 C 
ATOM     44  C   UNL A   1      40.893  34.493  30.415  1.00  0.00     0.029 A 
ATOM     45  C   UNL A   1      41.596  33.229  30.309  1.00  0.00     0.049 A 
ATOM     46  H   UNL A   1      40.725  31.317  30.358  1.00  0.00     0.167 HD
ATOM     47  C   UNL A   1      38.865  27.607  29.201  1.00  0.00     0.034 A 
ATOM     48  C   UNL A   1      42.928  32.997  30.197  1.00  0.00     0.034 A 
ATOM     49  C   UNL A   1      39.187  27.476  30.601  1.00  0.00     0.049 A 
ATOM     50  C   UNL A   1      43.162  31.590  30.568  1.00  0.00     0.074 A 
ATOM     51  C   UNL A   1      38.483  27.431  31.785  1.00  0.00     0.029 A 
ATOM     52  N   UNL A   1      40.486  27.765  30.928  1.00  0.00    -0.354 N 
ATOM     53  N   UNL A   1      43.017  31.131  31.778  1.00  0.00    -0.248 NA
ATOM     54  C   UNL A   1      43.235  30.585  29.520  1.00  0.00     0.031 C 
ATOM     55  C   UNL A   1      39.317  28.081  32.743  1.00  0.00     0.029 A 
ATOM     56  C   UNL A   1      40.516  28.430  32.119  1.00  0.00     0.049 A 
ATOM     57  H   UNL A   1      41.274  27.530  30.388  1.00  0.00     0.167 HD
ATOM     58  C   UNL A   1      42.482  29.867  31.590  1.00  0.00     0.074 A 
ATOM     59  C   UNL A   1      42.811  29.523  30.211  1.00  0.00     0.031 C 
ATOM     60  C   UNL A   1      41.558  29.374  32.466  1.00  0.00     0.034 A 
BRANCH  47  61
ATOM     61  C   UNL A   1      39.663  26.844  28.154  1.00  0.00     0.023 A 
ATOM     62  C   UNL A   1      39.536  25.434  28.155  1.00  0.00     0.012 A 
ATOM     63  C   UNL A   1      40.739  27.381  27.408  1.00  0.00     0.148 A 
ATOM     64  C   UNL A   1      40.467  24.608  27.512  1.00  0.00     0.002 A 
ATOM     65  C   UNL A   1      41.610  26.560  26.700  1.00  0.00     0.091 A 
ATOM     66  F   UNL A   1      41.026  28.681  27.480  1.00  0.00    -0.205 F 
ATOM     67  C   UNL A   1      41.502  25.171  26.780  1.00  0.00     0.022 A 
BRANCH  65  68
ATOM     68  S   UNL A   1      42.937  27.240  25.696  1.00  0.00     0.127 S 
ATOM     69  O   UNL A   1      43.765  27.888  26.710  1.00  0.00    -0.237 OA
ATOM     70  O   UNL A   1      43.509  26.031  25.105  1.00  0.00    -0.237 OA
ATOM     71  O   UNL A   1      42.289  28.125  24.737  1.00  0.00    -0.744 OA
ENDBRANCH  65  68
ENDBRANCH  47  61
BRANCH  48  72
ATOM     72  C   UNL A   1      44.016  33.828  29.626  1.00  0.00     0.023 A 
ATOM     73  C   UNL A   1      44.925  34.474  30.491  1.00  0.00     0.012 A 
ATOM     74  C   UNL A   1      44.349  33.738  28.259  1.00  0.00     0.148 A 
ATOM     75  C   UNL A   1      46.151  34.962  30.019  1.00  0.00     0.002 A 
ATOM     76  C   UNL A   1      45.566  34.229  27.793  1.00  0.00     0.091 A 
ATOM     77  F   UNL A   1      43.520  33.086  27.433  1.00  0.00    -0.205 F 
ATOM     78  C   UNL A   1      46.476  34.827  28.673  1.00  0.00     0.022 A 
BRANCH  76  79
ATOM     79  S   UNL A   1      46.066  34.060  26.074  1.00  0.00     0.127 S 
ATOM     80  O   UNL A   1      44.971  34.732  25.373  1.00  0.00    -0.237 OA
ATOM     81  O   UNL A   1      47.336  34.779  26.057  1.00  0.00    -0.237 OA
ATOM     82  O   UNL A   1      46.146  32.627  25.821  1.00  0.00    -0.744 OA
ENDBRANCH  76  79
ENDBRANCH  48  72
BRANCH  60  83
ATOM     83  C   UNL A   1      41.477  30.009  33.831  1.00  0.00     0.023 A 
ATOM     84  C   UNL A   1      42.338  29.672  34.896  1.00  0.00     0.012 A 
ATOM     85  C   UNL A   1      40.555  31.053  34.009  1.00  0.00     0.148 A 
ATOM     86  C   UNL A   1      42.249  30.336  36.123  1.00  0.00     0.002 A 
ATOM     87  C   UNL A   1      40.505  31.744  35.211  1.00  0.00     0.091 A 
ATOM     88  F   UNL A   1      39.739  31.362  32.989  1.00  0.00    -0.205 F 
ATOM     89  C   UNL A   1      41.341  31.380  36.277  1.00  0.00     0.022 A 
BRANCH  87  90
ATOM     90  S   UNL A   1      39.435  33.169  35.412  1.00  0.00     0.127 S 
ATOM     91  O   UNL A   1      38.112  32.589  35.190  1.00  0.00    -0.237 OA
ATOM     92  O   UNL A   1      39.702  33.575  36.793  1.00  0.00    -0.237 OA
ATOM     93  O   UNL A   1      39.876  34.138  34.416  1.00  0.00    -0.744 OA
ENDBRANCH  87  90
ENDBRANCH  60  83
ENDBRANCH  34  35
ENDBRANCH  26  29
ENDBRANCH  24  25
ENDBRANCH   1  24
TORSDOF 18
ENDMDL
MODEL 3
REMARK VINA RESULT:     -10.9      1.075      2.201
REMARK SMILES Cc1n[nH]c(C(=O)N[C@@H](CC(C)C)C(=O)NCCCCNC(=O)c2ccc(-c3c4nc(c(-c5cccc(S(=O)(=O)[O-])c5F)c5ccc([nH]5)c(-c5cccc(S(=O)(=O)[O-])c5F)c5nc(c(-c6cccc(S(=O)(=O)[O-])c6F)c6ccc3[nH]6)C=C5)C=C4)cc2)n1
REMARK SMILES IDX 19 1 18 2 17 3 16 4 14 5 15 6 9 8 8 9 6 10 7 11 5 13 1 14
REMARK SMILES IDX 2 15 3 16 87 17 4 18 10 20 11 21 12 22 13 23 20 24 21 25
REMARK SMILES IDX 22 26 23 28 24 29 25 30 86 31 26 32 85 33 27 34 28 35 29 36
REMARK SMILES IDX 79 37 30 38 84 39 78 40 80 41 31 42 83 43 77 44 76 45 32 47
REMARK SMILES IDX 64 48 44 49 63 50 45 51 48 52 62 53 81 54 46 55 47 56 61 58
REMARK SMILES IDX 82 59 49 60 33 61 34 62 42 63 35 64 37 65 43 66 36 67 38 68
REMARK SMILES IDX 39 69 40 70 41 71 65 72 66 73 74 74 67 75 69 76 75 77 68 78
REMARK SMILES IDX 70 79 71 80 72 81 73 82 50 83 51 84 59 85 52 86 54 87 60 88
REMARK SMILES IDX 53 89 55 90 56 91 57 92 58 93
REMARK H PARENT 16 7 8 12 4 19 21 27 80 46 48 57
REMARK Flexibility Score: inf
ROOT
ATOM      1  C   UNL A   1      37.838  20.235  24.624  1.00  0.00     0.023 C 
ENDROOT
BRANCH   1   2
ATOM      2  C   UNL A   1      36.617  19.353  24.917  1.00  0.00     0.023 C 
BRANCH   2   3
ATOM      3  C   UNL A   1      35.273  20.077  24.980  1.00  0.00     0.116 C 
BRANCH   3   4
ATOM      4  N   UNL A   1      35.160  21.027  26.068  1.00  0.00    -0.354 N 
ATOM      5  C   UNL A   1      34.133  21.828  26.471  1.00  0.00     0.242 C 
ATOM      6  O   UNL A   1      34.277  22.425  27.544  1.00  0.00    -0.273 OA
ATOM      7  H   UNL A   1      35.973  21.108  26.618  1.00  0.00     0.163 HD
BRANCH   5   8
ATOM      8  C   UNL A   1      32.830  22.044  25.668  1.00  0.00     0.172 C 
BRANCH   8   9
ATOM      9  N   UNL A   1      31.696  22.236  26.572  1.00  0.00    -0.338 N 
ATOM     10  C   UNL A   1      30.887  23.309  26.869  1.00  0.00     0.289 C 
ATOM     11  O   UNL A   1      29.855  22.985  27.469  1.00  0.00    -0.266 OA
ATOM     12  H   UNL A   1      31.461  21.423  27.075  1.00  0.00     0.164 HD
BRANCH  10  13
ATOM     13  C   UNL A   1      31.209  24.700  26.587  1.00  0.00     0.214 A 
ATOM     14  C   UNL A   1      33.563  27.315  26.074  1.00  0.00     0.092 C 
ATOM     15  C   UNL A   1      32.381  26.445  26.218  1.00  0.00     0.148 A 
ATOM     16  N   UNL A   1      31.144  26.860  25.949  1.00  0.00    -0.159 NA
ATOM     17  N   UNL A   1      32.464  25.140  26.613  1.00  0.00    -0.207 NA
ATOM     18  N   UNL A   1      30.423  25.758  26.221  1.00  0.00    -0.255 N 
ATOM     19  H   UNL A   1      29.440  25.717  26.163  1.00  0.00     0.192 HD
ENDBRANCH  10  13
ENDBRANCH   8   9
BRANCH   8  20
ATOM     20  C   UNL A   1      32.803  22.997  24.455  1.00  0.00     0.038 C 
BRANCH  20  21
ATOM     21  C   UNL A   1      33.801  22.800  23.305  1.00  0.00    -0.015 C 
ATOM     22  C   UNL A   1      33.192  23.179  21.951  1.00  0.00     0.007 C 
ATOM     23  C   UNL A   1      35.055  23.658  23.518  1.00  0.00     0.007 C 
ENDBRANCH  20  21
ENDBRANCH   8  20
ENDBRANCH   5   8
ENDBRANCH   3   4
ENDBRANCH   2   3
ENDBRANCH   1   2
BRANCH   1  24
ATOM     24  C   UNL A   1      38.837  20.365  25.771  1.00  0.00     0.116 C 
BRANCH  24  25
ATOM     25  N   UNL A   1      39.900  19.371  25.715  1.00  0.00    -0.352 N 
ATOM     26  C   UNL A   1      41.254  19.576  25.908  1.00  0.00     0.251 C 
ATOM     27  H   UNL A   1      39.623  18.446  25.517  1.00  0.00     0.163 HD
ATOM     28  O   UNL A   1      42.065  18.748  25.528  1.00  0.00    -0.269 OA
BRANCH  26  29
ATOM     29  C   UNL A   1      41.704  20.817  26.573  1.00  0.00     0.039 A 
ATOM     30  C   UNL A   1      42.099  21.915  25.804  1.00  0.00     0.014 A 
ATOM     31  C   UNL A   1      41.728  20.880  27.969  1.00  0.00     0.014 A 
ATOM     32  C   UNL A   1      42.441  23.101  26.448  1.00  0.00     0.010 A 
ATOM     33  C   UNL A   1      41.995  22.076  28.604  1.00  0.00     0.010 A 
ATOM     34  C   UNL A   1      42.363  23.188  27.848  1.00  0.00    -0.014 A 
BRANCH  34  35
ATOM     35  C   UNL A   1      42.442  24.504  28.487  1.00  0.00     0.031 A 
ATOM     36  C   UNL A   1      41.242  25.350  28.234  1.00  0.00     0.074 A 
ATOM     37  C   UNL A   1      43.386  24.867  29.382  1.00  0.00     0.049 A 
ATOM     38  N   UNL A   1      41.180  26.428  27.525  1.00  0.00    -0.248 NA
ATOM     39  C   UNL A   1      39.928  24.849  28.672  1.00  0.00     0.031 C 
ATOM     40  C   UNL A   1      44.444  24.019  29.940  1.00  0.00     0.029 A 
ATOM     41  N   UNL A   1      43.519  26.028  30.095  1.00  0.00    -0.354 N 
ATOM     42  C   UNL A   1      39.873  26.888  27.672  1.00  0.00     0.074 A 
ATOM     43  C   UNL A   1      39.110  25.778  28.171  1.00  0.00     0.031 C 
ATOM     44  C   UNL A   1      44.933  24.592  31.061  1.00  0.00     0.029 A 
ATOM     45  C   UNL A   1      44.339  25.906  31.218  1.00  0.00     0.049 A 
ATOM     46  H   UNL A   1      43.080  26.871  29.839  1.00  0.00     0.167 HD
ATOM     47  C   UNL A   1      39.607  28.224  27.678  1.00  0.00     0.034 A 
ATOM     48  C   UNL A   1      44.482  26.794  32.233  1.00  0.00     0.034 A 
ATOM     49  C   UNL A   1      40.723  28.977  27.159  1.00  0.00     0.049 A 
ATOM     50  C   UNL A   1      44.055  28.112  31.727  1.00  0.00     0.074 A 
ATOM     51  C   UNL A   1      41.438  29.013  25.981  1.00  0.00     0.029 A 
ATOM     52  N   UNL A   1      41.491  29.604  28.105  1.00  0.00    -0.354 N 
ATOM     53  N   UNL A   1      44.713  28.784  30.827  1.00  0.00    -0.248 NA
ATOM     54  C   UNL A   1      42.693  28.556  31.971  1.00  0.00     0.031 C 
ATOM     55  C   UNL A   1      42.778  29.318  26.366  1.00  0.00     0.029 A 
ATOM     56  C   UNL A   1      42.806  29.521  27.747  1.00  0.00     0.049 A 
ATOM     57  H   UNL A   1      41.149  30.043  28.916  1.00  0.00     0.167 HD
ATOM     58  C   UNL A   1      43.718  29.370  30.061  1.00  0.00     0.074 A 
ATOM     59  C   UNL A   1      42.532  29.349  30.909  1.00  0.00     0.031 C 
ATOM     60  C   UNL A   1      43.884  29.516  28.713  1.00  0.00     0.034 A 
BRANCH  47  61
ATOM     61  C   UNL A   1      38.576  28.896  28.572  1.00  0.00     0.023 A 
ATOM     62  C   UNL A   1      37.727  29.852  27.964  1.00  0.00     0.012 A 
ATOM     63  C   UNL A   1      38.602  28.883  29.987  1.00  0.00     0.148 A 
ATOM     64  C   UNL A   1      37.006  30.786  28.719  1.00  0.00     0.002 A 
ATOM     65  C   UNL A   1      37.818  29.757  30.733  1.00  0.00     0.091 A 
ATOM     66  F   UNL A   1      39.486  28.127  30.638  1.00  0.00    -0.205 F 
ATOM     67  C   UNL A   1      37.047  30.735  30.105  1.00  0.00     0.022 A 
BRANCH  65  68
ATOM     68  S   UNL A   1      37.797  29.700  32.530  1.00  0.00     0.127 S 
ATOM     69  O   UNL A   1      39.172  30.073  32.849  1.00  0.00    -0.237 OA
ATOM     70  O   UNL A   1      36.788  30.710  32.846  1.00  0.00    -0.237 OA
ATOM     71  O   UNL A   1      37.406  28.339  32.876  1.00  0.00    -0.744 OA
ENDBRANCH  65  68
ENDBRANCH  47  61
BRANCH  48  72
ATOM     72  C   UNL A   1      44.787  26.590  33.670  1.00  0.00     0.023 A 
ATOM     73  C   UNL A   1      46.066  26.926  34.163  1.00  0.00     0.012 A 
ATOM     74  C   UNL A   1      43.754  26.366  34.602  1.00  0.00     0.148 A 
ATOM     75  C   UNL A   1      46.292  27.090  35.536  1.00  0.00     0.002 A 
ATOM     76  C   UNL A   1      43.984  26.525  35.966  1.00  0.00     0.091 A 
ATOM     77  F   UNL A   1      42.523  26.093  34.149  1.00  0.00    -0.205 F 
ATOM     78  C   UNL A   1      45.247  26.903  36.436  1.00  0.00     0.022 A 
BRANCH  76  79
ATOM     79  S   UNL A   1      42.674  26.331  37.182  1.00  0.00     0.127 S 
ATOM     80  O   UNL A   1      42.208  24.970  36.911  1.00  0.00    -0.237 OA
ATOM     81  O   UNL A   1      43.401  26.491  38.437  1.00  0.00    -0.237 OA
ATOM     82  O   UNL A   1      41.694  27.368  36.882  1.00  0.00    -0.744 OA
ENDBRANCH  76  79
ENDBRANCH  48  72
BRANCH  60  83
ATOM     83  C   UNL A   1      45.288  29.453  28.169  1.00  0.00     0.023 A 
ATOM     84  C   UNL A   1      46.162  30.560  28.144  1.00  0.00     0.012 A 
ATOM     85  C   UNL A   1      45.770  28.201  27.754  1.00  0.00     0.148 A 
ATOM     86  C   UNL A   1      47.472  30.425  27.676  1.00  0.00     0.002 A 
ATOM     87  C   UNL A   1      47.086  28.060  27.339  1.00  0.00     0.091 A 
ATOM     88  F   UNL A   1      44.927  27.156  27.778  1.00  0.00    -0.205 F 
ATOM     89  C   UNL A   1      47.938  29.173  27.285  1.00  0.00     0.022 A 
BRANCH  87  90
ATOM     90  S   UNL A   1      47.759  26.447  26.939  1.00  0.00     0.127 S 
ATOM     91  O   UNL A   1      47.052  26.120  25.703  1.00  0.00    -0.237 OA
ATOM     92  O   UNL A   1      49.186  26.731  26.771  1.00  0.00    -0.237 OA
ATOM     93  O   UNL A   1      47.458  25.598  28.085  1.00  0.00    -0.744 OA
ENDBRANCH  87  90
ENDBRANCH  60  83
ENDBRANCH  34  35
ENDBRANCH  26  29
ENDBRANCH  24  25
ENDBRANCH   1  24
TORSDOF 18
ENDMDL
