MODEL 1
REMARK VINA RESULT:     -11.7      0.000      0.000
REMARK SMILES CCN1C(=O)N/C(=C/c2cc(Cl)c(OCc3cccc(C(=O)NCCCCNC(=O)c4ccc(-c5c6nc(c(-c7cccc(S(=O)(=O)[O-])c7F)c7ccc([nH]7)c(-c7cccc(S(=O)(=O)[O-])c7F)c7nc(c(-c8cccc(S(=O)(=O)[O-])c8F)c8ccc5[nH]8)C=C7)C=C6)cc4)c3)c(OC)c2)C1=O
REMARK SMILES IDX 24 1 23 2 21 3 22 4 20 6 16 7 17 8 94 9 18 10 19 11 15 12
REMARK SMILES IDX 14 13 13 14 9 15 10 16 98 17 11 18 95 19 12 20 8 21 3 22
REMARK SMILES IDX 4 23 99 24 5 25 6 26 7 27 100 28 2 30 1 31 96 32 97 33 25 34
REMARK SMILES IDX 26 35 27 36 28 37 29 38 30 40 31 41 32 42 93 43 33 44 92 45
REMARK SMILES IDX 34 46 35 47 36 48 86 49 37 50 91 51 85 52 87 53 38 54 90 55
REMARK SMILES IDX 84 56 83 57 39 59 71 60 51 61 70 62 52 63 55 64 69 65 88 66
REMARK SMILES IDX 53 67 54 68 68 70 89 71 56 72 40 73 41 74 49 75 42 76 44 77
REMARK SMILES IDX 50 78 43 79 45 80 46 81 47 82 48 83 72 84 73 85 81 86 74 87
REMARK SMILES IDX 76 88 82 89 75 90 77 91 78 92 79 93 80 94 57 95 58 96 66 97
REMARK SMILES IDX 59 98 61 99 67 100 60 101 62 102 63 103 64 104 65 105
REMARK H PARENT 23 5 6 29 28 39 87 58 55 69
REMARK Flexibility Score: inf
ROOT
ATOM      1  C   UNL A   1      33.946  29.593  27.078  1.00  0.00     0.116 C 
ENDROOT
BRANCH   1   2
ATOM      2  N   UNL A   1      32.894  28.824  27.729  1.00  0.00    -0.352 N 
ATOM      3  C   UNL A   1      31.780  28.183  27.225  1.00  0.00     0.251 C 
ATOM      4  O   UNL A   1      31.047  27.569  27.999  1.00  0.00    -0.269 OA
ATOM      5  H   UNL A   1      32.996  28.748  28.704  1.00  0.00     0.163 HD
BRANCH   3   6
ATOM      6  C   UNL A   1      31.390  28.296  25.795  1.00  0.00     0.040 A 
ATOM      7  C   UNL A   1      31.234  27.271  23.586  1.00  0.00    -0.010 A 
ATOM      8  C   UNL A   1      31.218  28.553  23.029  1.00  0.00     0.007 A 
ATOM      9  C   UNL A   1      31.172  27.180  24.986  1.00  0.00     0.021 A 
ATOM     10  C   UNL A   1      31.197  29.691  23.842  1.00  0.00     0.001 A 
ATOM     11  C   UNL A   1      31.325  29.567  25.222  1.00  0.00     0.014 A 
BRANCH   7  12
ATOM     12  C   UNL A   1      31.354  25.951  22.833  1.00  0.00     0.265 C 
BRANCH  12  13
ATOM     13  O   UNL A   1      30.928  24.720  23.419  1.00  0.00    -0.483 OA
BRANCH  13  14
ATOM     14  C   UNL A   1      31.790  23.668  23.541  1.00  0.00     0.180 A 
ATOM     15  C   UNL A   1      33.658  21.701  24.243  1.00  0.00    -0.018 A 
ATOM     16  C   UNL A   1      33.758  22.363  23.018  1.00  0.00     0.033 A 
ATOM     17  C   UNL A   1      32.556  21.931  25.068  1.00  0.00     0.058 A 
ATOM     18  C   UNL A   1      32.818  23.326  22.652  1.00  0.00     0.087 A 
ATOM     19  C   UNL A   1      31.610  22.898  24.715  1.00  0.00     0.162 A 
ATOM     20  Cl  UNL A   1      33.018  23.997  21.073  1.00  0.00    -0.080 Cl
BRANCH  15  21
ATOM     21  C   UNL A   1      34.719  20.787  24.657  1.00  0.00     0.040 C 
ATOM     22  N   UNL A   1      33.867  17.308  24.395  1.00  0.00    -0.259 N 
ATOM     23  C   UNL A   1      35.130  17.284  24.941  1.00  0.00     0.328 C 
ATOM     24  C   UNL A   1      33.447  18.598  24.167  1.00  0.00     0.278 C 
ATOM     25  O   UNL A   1      35.784  16.308  25.269  1.00  0.00    -0.248 OA
ATOM     26  N   UNL A   1      35.560  18.593  25.073  1.00  0.00    -0.303 N 
ATOM     27  C   UNL A   1      34.597  19.455  24.635  1.00  0.00     0.109 C 
ATOM     28  O   UNL A   1      32.400  18.975  23.686  1.00  0.00    -0.267 OA
ATOM     29  H   UNL A   1      36.435  18.865  25.432  1.00  0.00     0.172 HD
BRANCH  22  30
ATOM     30  C   UNL A   1      33.088  16.125  24.094  1.00  0.00     0.127 C 
ATOM     31  C   UNL A   1      32.585  15.446  25.358  1.00  0.00     0.028 C 
ENDBRANCH  22  30
ENDBRANCH  15  21
BRANCH  19  32
ATOM     32  O   UNL A   1      30.515  23.204  25.491  1.00  0.00    -0.493 OA
ATOM     33  C   UNL A   1      30.661  23.066  26.901  1.00  0.00     0.278 C 
ENDBRANCH  19  32
ENDBRANCH  13  14
ENDBRANCH  12  13
ENDBRANCH   7  12
ENDBRANCH   3   6
ENDBRANCH   1   2
BRANCH   1  34
ATOM     34  C   UNL A   1      34.157  30.995  27.625  1.00  0.00     0.023 C 
BRANCH  34  35
ATOM     35  C   UNL A   1      32.947  31.911  27.594  1.00  0.00     0.023 C 
BRANCH  35  36
ATOM     36  C   UNL A   1      33.186  33.289  26.999  1.00  0.00     0.116 C 
BRANCH  36  37
ATOM     37  N   UNL A   1      32.694  34.381  27.830  1.00  0.00    -0.352 N 
ATOM     38  C   UNL A   1      33.128  34.778  29.074  1.00  0.00     0.251 C 
ATOM     39  H   UNL A   1      31.953  34.907  27.449  1.00  0.00     0.163 HD
ATOM     40  O   UNL A   1      32.533  35.663  29.682  1.00  0.00    -0.269 OA
BRANCH  38  41
ATOM     41  C   UNL A   1      34.295  34.106  29.682  1.00  0.00     0.039 A 
ATOM     42  C   UNL A   1      35.580  34.466  29.269  1.00  0.00     0.014 A 
ATOM     43  C   UNL A   1      34.119  33.154  30.688  1.00  0.00     0.014 A 
ATOM     44  C   UNL A   1      36.689  33.907  29.908  1.00  0.00     0.010 A 
ATOM     45  C   UNL A   1      35.219  32.684  31.393  1.00  0.00     0.010 A 
ATOM     46  C   UNL A   1      36.518  33.033  30.993  1.00  0.00    -0.014 A 
BRANCH  46  47
ATOM     47  C   UNL A   1      37.680  32.431  31.696  1.00  0.00     0.031 A 
ATOM     48  C   UNL A   1      38.443  31.306  31.045  1.00  0.00     0.074 A 
ATOM     49  C   UNL A   1      38.007  32.841  32.938  1.00  0.00     0.049 A 
ATOM     50  N   UNL A   1      39.451  30.615  31.510  1.00  0.00    -0.248 NA
ATOM     51  C   UNL A   1      37.992  30.878  29.709  1.00  0.00     0.031 C 
ATOM     52  C   UNL A   1      37.300  33.867  33.708  1.00  0.00     0.029 A 
ATOM     53  N   UNL A   1      39.008  32.426  33.781  1.00  0.00    -0.354 N 
ATOM     54  C   UNL A   1      39.725  29.650  30.547  1.00  0.00     0.074 A 
ATOM     55  C   UNL A   1      38.748  29.812  29.494  1.00  0.00     0.031 C 
ATOM     56  C   UNL A   1      37.896  34.010  34.902  1.00  0.00     0.029 A 
ATOM     57  C   UNL A   1      39.005  33.065  34.999  1.00  0.00     0.049 A 
ATOM     58  H   UNL A   1      39.666  31.735  33.537  1.00  0.00     0.167 HD
ATOM     59  C   UNL A   1      40.720  28.734  30.520  1.00  0.00     0.034 A 
ATOM     60  C   UNL A   1      39.802  32.903  36.074  1.00  0.00     0.034 A 
ATOM     61  C   UNL A   1      41.716  28.605  31.548  1.00  0.00     0.049 A 
ATOM     62  C   UNL A   1      40.925  31.903  36.004  1.00  0.00     0.074 A 
ATOM     63  C   UNL A   1      42.815  27.767  31.579  1.00  0.00     0.029 A 
ATOM     64  N   UNL A   1      41.728  29.327  32.731  1.00  0.00    -0.354 N 
ATOM     65  N   UNL A   1      41.259  31.101  35.022  1.00  0.00    -0.248 NA
ATOM     66  C   UNL A   1      41.808  31.813  37.176  1.00  0.00     0.031 C 
ATOM     67  C   UNL A   1      43.473  27.957  32.798  1.00  0.00     0.029 A 
ATOM     68  C   UNL A   1      42.811  28.949  33.504  1.00  0.00     0.049 A 
ATOM     69  H   UNL A   1      41.063  30.008  32.983  1.00  0.00     0.167 HD
ATOM     70  C   UNL A   1      42.414  30.449  35.436  1.00  0.00     0.074 A 
ATOM     71  C   UNL A   1      42.730  30.960  36.754  1.00  0.00     0.031 C 
ATOM     72  C   UNL A   1      43.143  29.507  34.789  1.00  0.00     0.034 A 
BRANCH  59  73
ATOM     73  C   UNL A   1      40.805  27.827  29.320  1.00  0.00     0.023 A 
ATOM     74  C   UNL A   1      40.010  26.664  29.261  1.00  0.00     0.012 A 
ATOM     75  C   UNL A   1      41.636  28.149  28.229  1.00  0.00     0.148 A 
ATOM     76  C   UNL A   1      40.073  25.812  28.159  1.00  0.00     0.002 A 
ATOM     77  C   UNL A   1      41.654  27.325  27.111  1.00  0.00     0.091 A 
ATOM     78  F   UNL A   1      42.400  29.248  28.311  1.00  0.00    -0.205 F 
ATOM     79  C   UNL A   1      40.885  26.149  27.080  1.00  0.00     0.022 A 
BRANCH  77  80
ATOM     80  S   UNL A   1      42.599  27.714  25.634  1.00  0.00     0.127 S 
ATOM     81  O   UNL A   1      43.964  27.753  26.160  1.00  0.00    -0.237 OA
ATOM     82  O   UNL A   1      42.310  26.564  24.776  1.00  0.00    -0.237 OA
ATOM     83  O   UNL A   1      42.082  28.983  25.146  1.00  0.00    -0.744 OA
ENDBRANCH  77  80
ENDBRANCH  59  73
BRANCH  60  84
ATOM     84  C   UNL A   1      39.608  33.750  37.286  1.00  0.00     0.023 A 
ATOM     85  C   UNL A   1      40.158  35.046  37.324  1.00  0.00     0.012 A 
ATOM     86  C   UNL A   1      38.877  33.283  38.395  1.00  0.00     0.148 A 
ATOM     87  C   UNL A   1      40.020  35.846  38.459  1.00  0.00     0.002 A 
ATOM     88  C   UNL A   1      38.694  34.106  39.500  1.00  0.00     0.091 A 
ATOM     89  F   UNL A   1      38.366  32.044  38.342  1.00  0.00    -0.205 F 
ATOM     90  C   UNL A   1      39.281  35.380  39.543  1.00  0.00     0.022 A 
BRANCH  88  91
ATOM     91  S   UNL A   1      37.655  33.640  40.888  1.00  0.00     0.127 S 
ATOM     92  O   UNL A   1      36.443  33.182  40.213  1.00  0.00    -0.237 OA
ATOM     93  O   UNL A   1      38.448  32.582  41.515  1.00  0.00    -0.237 OA
ATOM     94  O   UNL A   1      37.512  34.843  41.697  1.00  0.00    -0.744 OA
ENDBRANCH  88  91
ENDBRANCH  60  84
BRANCH  72  95
ATOM     95  C   UNL A   1      44.399  29.009  35.458  1.00  0.00     0.023 A 
ATOM     96  C   UNL A   1      45.640  29.613  35.183  1.00  0.00     0.012 A 
ATOM     97  C   UNL A   1      44.327  27.981  36.420  1.00  0.00     0.148 A 
ATOM     98  C   UNL A   1      46.798  29.177  35.826  1.00  0.00     0.002 A 
ATOM     99  C   UNL A   1      45.475  27.591  37.098  1.00  0.00     0.091 A 
ATOM    100  F   UNL A   1      43.139  27.407  36.655  1.00  0.00    -0.205 F 
ATOM    101  C   UNL A   1      46.713  28.176  36.791  1.00  0.00     0.022 A 
BRANCH  99 102
ATOM    102  S   UNL A   1      45.442  26.385  38.429  1.00  0.00     0.127 S 
ATOM    103  O   UNL A   1      44.476  26.984  39.349  1.00  0.00    -0.237 OA
ATOM    104  O   UNL A   1      44.968  25.182  37.744  1.00  0.00    -0.237 OA
ATOM    105  O   UNL A   1      46.807  26.298  38.928  1.00  0.00    -0.744 OA
ENDBRANCH  99 102
ENDBRANCH  72  95
ENDBRANCH  46  47
ENDBRANCH  38  41
ENDBRANCH  36  37
ENDBRANCH  35  36
ENDBRANCH  34  35
ENDBRANCH   1  34
TORSDOF 20
ENDMDL
MODEL 2
REMARK VINA RESULT:     -11.7      0.898      7.386
REMARK SMILES CCN1C(=O)N/C(=C/c2cc(Cl)c(OCc3cccc(C(=O)NCCCCNC(=O)c4ccc(-c5c6nc(c(-c7cccc(S(=O)(=O)[O-])c7F)c7ccc([nH]7)c(-c7cccc(S(=O)(=O)[O-])c7F)c7nc(c(-c8cccc(S(=O)(=O)[O-])c8F)c8ccc5[nH]8)C=C7)C=C6)cc4)c3)c(OC)c2)C1=O
REMARK SMILES IDX 24 1 23 2 21 3 22 4 20 6 16 7 17 8 94 9 18 10 19 11 15 12
REMARK SMILES IDX 14 13 13 14 9 15 10 16 98 17 11 18 95 19 12 20 8 21 3 22
REMARK SMILES IDX 4 23 99 24 5 25 6 26 7 27 100 28 2 30 1 31 96 32 97 33 25 34
REMARK SMILES IDX 26 35 27 36 28 37 29 38 30 40 31 41 32 42 93 43 33 44 92 45
REMARK SMILES IDX 34 46 35 47 36 48 86 49 37 50 91 51 85 52 87 53 38 54 90 55
REMARK SMILES IDX 84 56 83 57 39 59 71 60 51 61 70 62 52 63 55 64 69 65 88 66
REMARK SMILES IDX 53 67 54 68 68 70 89 71 56 72 40 73 41 74 49 75 42 76 44 77
REMARK SMILES IDX 50 78 43 79 45 80 46 81 47 82 48 83 72 84 73 85 81 86 74 87
REMARK SMILES IDX 76 88 82 89 75 90 77 91 78 92 79 93 80 94 57 95 58 96 66 97
REMARK SMILES IDX 59 98 61 99 67 100 60 101 62 102 63 103 64 104 65 105
REMARK H PARENT 23 5 6 29 28 39 87 58 55 69
REMARK Flexibility Score: inf
ROOT
ATOM      1  C   UNL A   1      34.140  29.525  27.009  1.00  0.00     0.116 C 
ENDROOT
BRANCH   1   2
ATOM      2  N   UNL A   1      33.029  28.891  27.706  1.00  0.00    -0.352 N 
ATOM      3  C   UNL A   1      31.852  28.336  27.246  1.00  0.00     0.251 C 
ATOM      4  O   UNL A   1      31.076  27.832  28.056  1.00  0.00    -0.269 OA
ATOM      5  H   UNL A   1      33.138  28.850  28.683  1.00  0.00     0.163 HD
BRANCH   3   6
ATOM      6  C   UNL A   1      31.452  28.419  25.816  1.00  0.00     0.040 A 
ATOM      7  C   UNL A   1      31.366  27.384  23.609  1.00  0.00    -0.010 A 
ATOM      8  C   UNL A   1      31.257  28.660  23.050  1.00  0.00     0.007 A 
ATOM      9  C   UNL A   1      31.313  27.290  25.009  1.00  0.00     0.021 A 
ATOM     10  C   UNL A   1      31.156  29.795  23.862  1.00  0.00     0.001 A 
ATOM     11  C   UNL A   1      31.296  29.682  25.242  1.00  0.00     0.014 A 
BRANCH   7  12
ATOM     12  C   UNL A   1      31.579  26.075  22.857  1.00  0.00     0.265 C 
BRANCH  12  13
ATOM     13  O   UNL A   1      31.084  24.836  23.369  1.00  0.00    -0.483 OA
BRANCH  13  14
ATOM     14  C   UNL A   1      31.911  23.758  23.510  1.00  0.00     0.180 A 
ATOM     15  C   UNL A   1      33.750  21.769  24.228  1.00  0.00    -0.018 A 
ATOM     16  C   UNL A   1      33.779  22.328  22.949  1.00  0.00     0.033 A 
ATOM     17  C   UNL A   1      32.727  22.114  25.113  1.00  0.00     0.058 A 
ATOM     18  C   UNL A   1      32.851  23.300  22.577  1.00  0.00     0.087 A 
ATOM     19  C   UNL A   1      31.795  23.092  24.754  1.00  0.00     0.162 A 
ATOM     20  Cl  UNL A   1      32.952  23.835  20.938  1.00  0.00    -0.080 Cl
BRANCH  15  21
ATOM     21  C   UNL A   1      34.805  20.843  24.634  1.00  0.00     0.040 C 
ATOM     22  N   UNL A   1      33.899  17.375  24.411  1.00  0.00    -0.259 N 
ATOM     23  C   UNL A   1      35.170  17.337  24.939  1.00  0.00     0.328 C 
ATOM     24  C   UNL A   1      33.495  18.669  24.179  1.00  0.00     0.278 C 
ATOM     25  O   UNL A   1      35.814  16.354  25.265  1.00  0.00    -0.248 OA
ATOM     26  N   UNL A   1      35.620  18.641  25.055  1.00  0.00    -0.303 N 
ATOM     27  C   UNL A   1      34.663  19.513  24.624  1.00  0.00     0.109 C 
ATOM     28  O   UNL A   1      32.446  19.058  23.710  1.00  0.00    -0.267 OA
ATOM     29  H   UNL A   1      36.504  18.903  25.400  1.00  0.00     0.172 HD
BRANCH  22  30
ATOM     30  C   UNL A   1      33.099  16.201  24.130  1.00  0.00     0.127 C 
ATOM     31  C   UNL A   1      32.528  15.592  25.401  1.00  0.00     0.028 C 
ENDBRANCH  22  30
ENDBRANCH  15  21
BRANCH  19  32
ATOM     32  O   UNL A   1      30.778  23.508  25.583  1.00  0.00    -0.493 OA
ATOM     33  C   UNL A   1      30.648  22.840  26.834  1.00  0.00     0.278 C 
ENDBRANCH  19  32
ENDBRANCH  13  14
ENDBRANCH  12  13
ENDBRANCH   7  12
ENDBRANCH   3   6
ENDBRANCH   1   2
BRANCH   1  34
ATOM     34  C   UNL A   1      34.486  30.928  27.480  1.00  0.00     0.023 C 
BRANCH  34  35
ATOM     35  C   UNL A   1      33.314  31.876  27.664  1.00  0.00     0.023 C 
BRANCH  35  36
ATOM     36  C   UNL A   1      33.578  33.322  27.274  1.00  0.00     0.116 C 
BRANCH  36  37
ATOM     37  N   UNL A   1      32.955  34.293  28.165  1.00  0.00    -0.352 N 
ATOM     38  C   UNL A   1      33.293  34.613  29.460  1.00  0.00     0.251 C 
ATOM     39  H   UNL A   1      32.190  34.787  27.790  1.00  0.00     0.163 HD
ATOM     40  O   UNL A   1      32.596  35.390  30.107  1.00  0.00    -0.269 OA
BRANCH  38  41
ATOM     41  C   UNL A   1      34.484  33.989  30.072  1.00  0.00     0.039 A 
ATOM     42  C   UNL A   1      34.311  32.993  31.037  1.00  0.00     0.014 A 
ATOM     43  C   UNL A   1      35.767  34.356  29.660  1.00  0.00     0.014 A 
ATOM     44  C   UNL A   1      35.429  32.330  31.548  1.00  0.00     0.010 A 
ATOM     45  C   UNL A   1      36.865  33.622  30.089  1.00  0.00     0.010 A 
ATOM     46  C   UNL A   1      36.713  32.619  31.058  1.00  0.00    -0.014 A 
BRANCH  46  47
ATOM     47  C   UNL A   1      37.917  31.922  31.577  1.00  0.00     0.031 A 
ATOM     48  C   UNL A   1      38.574  32.412  32.842  1.00  0.00     0.074 A 
ATOM     49  C   UNL A   1      38.461  30.902  30.884  1.00  0.00     0.049 A 
ATOM     50  N   UNL A   1      39.656  31.977  33.432  1.00  0.00    -0.248 NA
ATOM     51  C   UNL A   1      37.951  33.566  33.515  1.00  0.00     0.031 C 
ATOM     52  C   UNL A   1      37.967  30.384  29.606  1.00  0.00     0.029 A 
ATOM     53  N   UNL A   1      39.567  30.131  31.148  1.00  0.00    -0.354 N 
ATOM     54  C   UNL A   1      39.864  32.824  34.515  1.00  0.00     0.074 A 
ATOM     55  C   UNL A   1      38.826  33.829  34.473  1.00  0.00     0.031 C 
ATOM     56  C   UNL A   1      38.756  29.375  29.205  1.00  0.00     0.029 A 
ATOM     57  C   UNL A   1      39.832  29.194  30.176  1.00  0.00     0.049 A 
ATOM     58  H   UNL A   1      40.118  30.239  31.956  1.00  0.00     0.167 HD
ATOM     59  C   UNL A   1      40.811  32.756  35.479  1.00  0.00     0.034 A 
ATOM     60  C   UNL A   1      40.833  28.297  30.076  1.00  0.00     0.034 A 
ATOM     61  C   UNL A   1      41.815  31.730  35.542  1.00  0.00     0.049 A 
ATOM     62  C   UNL A   1      41.852  28.217  31.181  1.00  0.00     0.074 A 
ATOM     63  C   UNL A   1      42.769  31.520  36.521  1.00  0.00     0.029 A 
ATOM     64  N   UNL A   1      42.002  30.748  34.582  1.00  0.00    -0.354 N 
ATOM     65  N   UNL A   1      41.945  28.934  32.275  1.00  0.00    -0.248 NA
ATOM     66  C   UNL A   1      42.883  27.175  31.059  1.00  0.00     0.031 C 
ATOM     67  C   UNL A   1      43.557  30.431  36.134  1.00  0.00     0.029 A 
ATOM     68  C   UNL A   1      43.061  29.933  34.940  1.00  0.00     0.049 A 
ATOM     69  H   UNL A   1      41.461  30.646  33.765  1.00  0.00     0.167 HD
ATOM     70  C   UNL A   1      43.010  28.402  32.992  1.00  0.00     0.074 A 
ATOM     71  C   UNL A   1      43.522  27.292  32.215  1.00  0.00     0.031 C 
ATOM     72  C   UNL A   1      43.523  28.799  34.182  1.00  0.00     0.034 A 
BRANCH  59  73
ATOM     73  C   UNL A   1      40.778  33.797  36.568  1.00  0.00     0.023 A 
ATOM     74  C   UNL A   1      41.470  35.014  36.397  1.00  0.00     0.012 A 
ATOM     75  C   UNL A   1      40.025  33.591  37.741  1.00  0.00     0.148 A 
ATOM     76  C   UNL A   1      41.451  35.990  37.392  1.00  0.00     0.002 A 
ATOM     77  C   UNL A   1      39.967  34.590  38.704  1.00  0.00     0.091 A 
ATOM     78  F   UNL A   1      39.391  32.421  37.895  1.00  0.00    -0.205 F 
ATOM     79  C   UNL A   1      40.691  35.783  38.540  1.00  0.00     0.022 A 
BRANCH  77  80
ATOM     80  S   UNL A   1      38.948  34.458  40.178  1.00  0.00     0.127 S 
ATOM     81  O   UNL A   1      39.917  33.983  41.164  1.00  0.00    -0.237 OA
ATOM     82  O   UNL A   1      38.511  35.842  40.370  1.00  0.00    -0.237 OA
ATOM     83  O   UNL A   1      37.883  33.523  39.849  1.00  0.00    -0.744 OA
ENDBRANCH  77  80
ENDBRANCH  59  73
BRANCH  60  84
ATOM     84  C   UNL A   1      40.886  27.359  28.918  1.00  0.00     0.023 A 
ATOM     85  C   UNL A   1      39.978  26.283  28.853  1.00  0.00     0.012 A 
ATOM     86  C   UNL A   1      41.823  27.529  27.882  1.00  0.00     0.148 A 
ATOM     87  C   UNL A   1      40.029  25.372  27.798  1.00  0.00     0.002 A 
ATOM     88  C   UNL A   1      41.831  26.651  26.805  1.00  0.00     0.091 A 
ATOM     89  F   UNL A   1      42.682  28.555  27.966  1.00  0.00    -0.205 F 
ATOM     90  C   UNL A   1      40.948  25.560  26.770  1.00  0.00     0.022 A 
BRANCH  88  91
ATOM     91  S   UNL A   1      42.893  26.886  25.376  1.00  0.00     0.127 S 
ATOM     92  O   UNL A   1      42.279  28.046  24.735  1.00  0.00    -0.237 OA
ATOM     93  O   UNL A   1      44.189  27.144  26.006  1.00  0.00    -0.237 OA
ATOM     94  O   UNL A   1      42.828  25.640  24.625  1.00  0.00    -0.744 OA
ENDBRANCH  88  91
ENDBRANCH  60  84
BRANCH  72  95
ATOM     95  C   UNL A   1      44.657  27.993  34.762  1.00  0.00     0.023 A 
ATOM     96  C   UNL A   1      45.981  28.462  34.673  1.00  0.00     0.012 A 
ATOM     97  C   UNL A   1      44.391  26.800  35.465  1.00  0.00     0.148 A 
ATOM     98  C   UNL A   1      47.029  27.736  35.239  1.00  0.00     0.002 A 
ATOM     99  C   UNL A   1      45.432  26.113  36.074  1.00  0.00     0.091 A 
ATOM    100  F   UNL A   1      43.125  26.362  35.523  1.00  0.00    -0.205 F 
ATOM    101  C   UNL A   1      46.753  26.570  35.949  1.00  0.00     0.022 A 
BRANCH  99 102
ATOM    102  S   UNL A   1      45.156  24.661  37.096  1.00  0.00     0.127 S 
ATOM    103  O   UNL A   1      46.523  24.290  37.460  1.00  0.00    -0.237 OA
ATOM    104  O   UNL A   1      44.357  25.205  38.195  1.00  0.00    -0.237 OA
ATOM    105  O   UNL A   1      44.453  23.703  36.255  1.00  0.00    -0.744 OA
ENDBRANCH  99 102
ENDBRANCH  72  95
ENDBRANCH  46  47
ENDBRANCH  38  41
ENDBRANCH  36  37
ENDBRANCH  35  36
ENDBRANCH  34  35
ENDBRANCH   1  34
TORSDOF 20
ENDMDL
MODEL 3
REMARK VINA RESULT:     -11.7      3.511      8.123
REMARK SMILES CCN1C(=O)N/C(=C/c2cc(Cl)c(OCc3cccc(C(=O)NCCCCNC(=O)c4ccc(-c5c6nc(c(-c7cccc(S(=O)(=O)[O-])c7F)c7ccc([nH]7)c(-c7cccc(S(=O)(=O)[O-])c7F)c7nc(c(-c8cccc(S(=O)(=O)[O-])c8F)c8ccc5[nH]8)C=C7)C=C6)cc4)c3)c(OC)c2)C1=O
REMARK SMILES IDX 24 1 23 2 21 3 22 4 20 6 16 7 17 8 94 9 18 10 19 11 15 12
REMARK SMILES IDX 14 13 13 14 9 15 10 16 98 17 11 18 95 19 12 20 8 21 3 22
REMARK SMILES IDX 4 23 99 24 5 25 6 26 7 27 100 28 2 30 1 31 96 32 97 33 25 34
REMARK SMILES IDX 26 35 27 36 28 37 29 38 30 40 31 41 32 42 93 43 33 44 92 45
REMARK SMILES IDX 34 46 35 47 36 48 86 49 37 50 91 51 85 52 87 53 38 54 90 55
REMARK SMILES IDX 84 56 83 57 39 59 71 60 51 61 70 62 52 63 55 64 69 65 88 66
REMARK SMILES IDX 53 67 54 68 68 70 89 71 56 72 40 73 41 74 49 75 42 76 44 77
REMARK SMILES IDX 50 78 43 79 45 80 46 81 47 82 48 83 72 84 73 85 81 86 74 87
REMARK SMILES IDX 76 88 82 89 75 90 77 91 78 92 79 93 80 94 57 95 58 96 66 97
REMARK SMILES IDX 59 98 61 99 67 100 60 101 62 102 63 103 64 104 65 105
REMARK H PARENT 23 5 6 29 28 39 87 58 55 69
REMARK Flexibility Score: inf
ROOT
ATOM      1  C   UNL A   1      33.702  28.753  23.651  1.00  0.00     0.116 C 
ENDROOT
BRANCH   1   2
ATOM      2  N   UNL A   1      32.538  29.626  23.675  1.00  0.00    -0.352 N 
ATOM      3  C   UNL A   1      31.197  29.365  23.876  1.00  0.00     0.251 C 
ATOM      4  O   UNL A   1      30.401  30.303  23.873  1.00  0.00    -0.269 OA
ATOM      5  H   UNL A   1      32.743  30.576  23.520  1.00  0.00     0.163 HD
BRANCH   3   6
ATOM      6  C   UNL A   1      30.678  27.977  23.997  1.00  0.00     0.040 A 
ATOM      7  C   UNL A   1      30.326  25.992  25.371  1.00  0.00    -0.010 A 
ATOM      8  C   UNL A   1      30.255  25.234  24.199  1.00  0.00     0.007 A 
ATOM      9  C   UNL A   1      30.392  27.387  25.228  1.00  0.00     0.021 A 
ATOM     10  C   UNL A   1      30.303  25.845  22.941  1.00  0.00     0.001 A 
ATOM     11  C   UNL A   1      30.557  27.210  22.837  1.00  0.00     0.014 A 
BRANCH   7  12
ATOM     12  C   UNL A   1      30.382  25.460  26.798  1.00  0.00     0.265 C 
BRANCH  12  13
ATOM     13  O   UNL A   1      31.399  24.544  27.210  1.00  0.00    -0.483 OA
BRANCH  13  14
ATOM     14  C   UNL A   1      31.654  23.413  26.489  1.00  0.00     0.180 A 
ATOM     15  C   UNL A   1      32.325  21.410  24.648  1.00  0.00    -0.018 A 
ATOM     16  C   UNL A   1      31.086  21.390  25.291  1.00  0.00     0.033 A 
ATOM     17  C   UNL A   1      33.281  22.359  25.012  1.00  0.00     0.058 A 
ATOM     18  C   UNL A   1      30.756  22.371  26.227  1.00  0.00     0.087 A 
ATOM     19  C   UNL A   1      32.959  23.351  25.944  1.00  0.00     0.162 A 
ATOM     20  Cl  UNL A   1      29.227  22.169  27.005  1.00  0.00    -0.080 Cl
BRANCH  15  21
ATOM     21  C   UNL A   1      32.600  20.445  23.586  1.00  0.00     0.040 C 
ATOM     22  N   UNL A   1      33.455  17.158  24.753  1.00  0.00    -0.259 N 
ATOM     23  C   UNL A   1      33.577  17.050  23.385  1.00  0.00     0.328 C 
ATOM     24  C   UNL A   1      33.065  18.425  25.119  1.00  0.00     0.278 C 
ATOM     25  O   UNL A   1      33.914  16.071  22.740  1.00  0.00    -0.248 OA
ATOM     26  N   UNL A   1      33.253  18.277  22.833  1.00  0.00    -0.303 N 
ATOM     27  C   UNL A   1      32.938  19.171  23.815  1.00  0.00     0.109 C 
ATOM     28  O   UNL A   1      32.852  18.854  26.234  1.00  0.00    -0.267 OA
ATOM     29  H   UNL A   1      33.251  18.478  21.869  1.00  0.00     0.172 HD
BRANCH  22  30
ATOM     30  C   UNL A   1      33.701  16.073  25.679  1.00  0.00     0.127 C 
ATOM     31  C   UNL A   1      32.484  15.172  25.825  1.00  0.00     0.028 C 
ENDBRANCH  22  30
ENDBRANCH  15  21
BRANCH  19  32
ATOM     32  O   UNL A   1      33.837  24.339  26.328  1.00  0.00    -0.493 OA
ATOM     33  C   UNL A   1      35.170  24.251  25.837  1.00  0.00     0.278 C 
ENDBRANCH  19  32
ENDBRANCH  13  14
ENDBRANCH  12  13
ENDBRANCH   7  12
ENDBRANCH   3   6
ENDBRANCH   1   2
BRANCH   1  34
ATOM     34  C   UNL A   1      33.792  27.760  24.799  1.00  0.00     0.023 C 
BRANCH  34  35
ATOM     35  C   UNL A   1      34.552  28.230  26.026  1.00  0.00     0.023 C 
BRANCH  35  36
ATOM     36  C   UNL A   1      33.690  28.687  27.193  1.00  0.00     0.116 C 
BRANCH  36  37
ATOM     37  N   UNL A   1      33.557  30.135  27.293  1.00  0.00    -0.352 N 
ATOM     38  C   UNL A   1      34.407  31.037  27.892  1.00  0.00     0.251 C 
ATOM     39  H   UNL A   1      32.753  30.520  26.876  1.00  0.00     0.163 HD
ATOM     40  O   UNL A   1      34.093  32.222  27.973  1.00  0.00    -0.269 OA
BRANCH  38  41
ATOM     41  C   UNL A   1      35.683  30.560  28.463  1.00  0.00     0.039 A 
ATOM     42  C   UNL A   1      35.663  29.797  29.633  1.00  0.00     0.014 A 
ATOM     43  C   UNL A   1      36.893  30.829  27.818  1.00  0.00     0.014 A 
ATOM     44  C   UNL A   1      36.855  29.260  30.124  1.00  0.00     0.010 A 
ATOM     45  C   UNL A   1      38.057  30.205  28.246  1.00  0.00     0.010 A 
ATOM     46  C   UNL A   1      38.057  29.436  29.420  1.00  0.00    -0.014 A 
BRANCH  46  47
ATOM     47  C   UNL A   1      39.337  28.867  29.915  1.00  0.00     0.031 A 
ATOM     48  C   UNL A   1      39.994  29.463  31.134  1.00  0.00     0.074 A 
ATOM     49  C   UNL A   1      39.943  27.873  29.237  1.00  0.00     0.049 A 
ATOM     50  N   UNL A   1      41.132  29.147  31.695  1.00  0.00    -0.248 NA
ATOM     51  C   UNL A   1      39.296  30.583  31.790  1.00  0.00     0.031 C 
ATOM     52  C   UNL A   1      39.451  27.263  28.000  1.00  0.00     0.029 A 
ATOM     53  N   UNL A   1      41.122  27.212  29.484  1.00  0.00    -0.354 N 
ATOM     54  C   UNL A   1      41.303  30.051  32.738  1.00  0.00     0.074 A 
ATOM     55  C   UNL A   1      40.179  30.959  32.701  1.00  0.00     0.031 C 
ATOM     56  C   UNL A   1      40.311  26.312  27.604  1.00  0.00     0.029 A 
ATOM     57  C   UNL A   1      41.434  26.265  28.537  1.00  0.00     0.049 A 
ATOM     58  H   UNL A   1      41.692  27.400  30.265  1.00  0.00     0.167 HD
ATOM     59  C   UNL A   1      42.288  30.104  33.664  1.00  0.00     0.034 A 
ATOM     60  C   UNL A   1      42.505  25.455  28.429  1.00  0.00     0.034 A 
ATOM     61  C   UNL A   1      43.381  29.174  33.724  1.00  0.00     0.049 A 
ATOM     62  C   UNL A   1      43.569  25.508  29.494  1.00  0.00     0.074 A 
ATOM     63  C   UNL A   1      44.385  29.086  34.670  1.00  0.00     0.029 A 
ATOM     64  N   UNL A   1      43.618  28.175  32.793  1.00  0.00    -0.354 N 
ATOM     65  N   UNL A   1      43.637  26.273  30.557  1.00  0.00    -0.248 NA
ATOM     66  C   UNL A   1      44.682  24.556  29.369  1.00  0.00     0.031 C 
ATOM     67  C   UNL A   1      45.251  28.056  34.291  1.00  0.00     0.029 A 
ATOM     68  C   UNL A   1      44.758  27.470  33.137  1.00  0.00     0.049 A 
ATOM     69  H   UNL A   1      43.058  27.993  32.003  1.00  0.00     0.167 HD
ATOM     70  C   UNL A   1      44.771  25.864  31.249  1.00  0.00     0.074 A 
ATOM     71  C   UNL A   1      45.351  24.774  30.492  1.00  0.00     0.031 C 
ATOM     72  C   UNL A   1      45.291  26.351  32.403  1.00  0.00     0.034 A 
BRANCH  59  73
ATOM     73  C   UNL A   1      42.203  31.181  34.716  1.00  0.00     0.023 A 
ATOM     74  C   UNL A   1      41.463  30.954  35.895  1.00  0.00     0.012 A 
ATOM     75  C   UNL A   1      42.893  32.399  34.559  1.00  0.00     0.148 A 
ATOM     76  C   UNL A   1      41.373  31.937  36.880  1.00  0.00     0.002 A 
ATOM     77  C   UNL A   1      42.843  33.352  35.568  1.00  0.00     0.091 A 
ATOM     78  F   UNL A   1      43.574  32.605  33.423  1.00  0.00    -0.205 F 
ATOM     79  C   UNL A   1      42.072  33.130  36.721  1.00  0.00     0.022 A 
BRANCH  77  80
ATOM     80  S   UNL A   1      43.777  34.885  35.500  1.00  0.00     0.127 S 
ATOM     81  O   UNL A   1      43.378  35.529  36.752  1.00  0.00    -0.237 OA
ATOM     82  O   UNL A   1      45.157  34.400  35.479  1.00  0.00    -0.237 OA
ATOM     83  O   UNL A   1      43.350  35.564  34.286  1.00  0.00    -0.744 OA
ENDBRANCH  77  80
ENDBRANCH  59  73
BRANCH  60  84
ATOM     84  C   UNL A   1      42.599  24.480  27.304  1.00  0.00     0.023 A 
ATOM     85  C   UNL A   1      43.251  24.854  26.113  1.00  0.00     0.012 A 
ATOM     86  C   UNL A   1      42.054  23.187  27.411  1.00  0.00     0.148 A 
ATOM     87  C   UNL A   1      43.323  23.973  25.033  1.00  0.00     0.002 A 
ATOM     88  C   UNL A   1      42.178  22.294  26.354  1.00  0.00     0.091 A 
ATOM     89  F   UNL A   1      41.431  22.853  28.551  1.00  0.00    -0.205 F 
ATOM     90  C   UNL A   1      42.795  22.691  25.156  1.00  0.00     0.022 A 
BRANCH  88  91
ATOM     91  S   UNL A   1      41.641  20.584  26.466  1.00  0.00     0.127 S 
ATOM     92  O   UNL A   1      42.415  19.957  25.398  1.00  0.00    -0.237 OA
ATOM     93  O   UNL A   1      42.059  20.227  27.822  1.00  0.00    -0.237 OA
ATOM     94  O   UNL A   1      40.198  20.609  26.270  1.00  0.00    -0.744 OA
ENDBRANCH  88  91
ENDBRANCH  60  84
BRANCH  72  95
ATOM     95  C   UNL A   1      46.512  25.671  32.965  1.00  0.00     0.023 A 
ATOM     96  C   UNL A   1      47.798  26.166  32.677  1.00  0.00     0.012 A 
ATOM     97  C   UNL A   1      46.372  24.579  33.845  1.00  0.00     0.148 A 
ATOM     98  C   UNL A   1      48.929  25.560  33.223  1.00  0.00     0.002 A 
ATOM     99  C   UNL A   1      47.499  24.017  34.431  1.00  0.00     0.091 A 
ATOM    100  F   UNL A   1      45.140  24.112  34.094  1.00  0.00    -0.205 F 
ATOM    101  C   UNL A   1      48.779  24.495  34.109  1.00  0.00     0.022 A 
BRANCH  99 102
ATOM    102  S   UNL A   1      47.393  22.713  35.662  1.00  0.00     0.127 S 
ATOM    103  O   UNL A   1      46.858  21.604  34.875  1.00  0.00    -0.237 OA
ATOM    104  O   UNL A   1      48.790  22.557  36.067  1.00  0.00    -0.237 OA
ATOM    105  O   UNL A   1      46.514  23.217  36.708  1.00  0.00    -0.744 OA
ENDBRANCH  99 102
ENDBRANCH  72  95
ENDBRANCH  46  47
ENDBRANCH  38  41
ENDBRANCH  36  37
ENDBRANCH  35  36
ENDBRANCH  34  35
ENDBRANCH   1  34
TORSDOF 20
ENDMDL
