MODEL 1
REMARK VINA RESULT:     -11.4      0.000      0.000
REMARK SMILES O=C(NCc1ccsc1)NC[C@H]1CC[C@@H](C(=O)NCCCCNC(=O)c2ccc(-c3c4nc(c(-c5cccc(S(=O)(=O)[O-])c5F)c5ccc([nH]5)c(-c5cccc(S(=O)(=O)[O-])c5F)c5nc(c(-c6cccc(S(=O)(=O)[O-])c6F)c6ccc3[nH]6)C=C5)C=C4)cc2)CC1
REMARK SMILES IDX 20 1 19 2 18 3 16 4 17 5 15 7 12 8 13 9 90 10 14 11 89 12
REMARK SMILES IDX 11 13 10 14 1 15 2 16 3 17 4 20 5 21 6 22 9 23 7 24 8 25
REMARK SMILES IDX 21 26 22 27 23 28 24 29 25 31 26 32 27 33 88 34 28 35 87 36
REMARK SMILES IDX 29 37 30 38 31 39 81 40 32 41 86 42 80 43 82 44 33 45 85 46
REMARK SMILES IDX 79 47 78 48 34 50 66 51 46 52 65 53 47 54 50 55 64 56 83 57
REMARK SMILES IDX 48 58 49 59 63 61 84 62 51 63 35 64 36 65 44 66 37 67 39 68
REMARK SMILES IDX 45 69 38 70 40 71 41 72 42 73 43 74 67 75 68 76 76 77 69 78
REMARK SMILES IDX 71 79 77 80 70 81 72 82 73 83 74 84 75 85 52 86 53 87 61 88
REMARK SMILES IDX 54 89 56 90 62 91 55 92 57 93 58 94 59 95 60 96
REMARK H PARENT 18 6 3 18 10 19 23 30 82 49 50 60
REMARK Flexibility Score: inf
ROOT
ATOM      1  C   UNL A   1      31.896  29.672  25.870  1.00  0.00     0.023 C 
ENDROOT
BRANCH   1   2
ATOM      2  C   UNL A   1      32.354  29.114  24.525  1.00  0.00     0.116 C 
BRANCH   2   3
ATOM      3  N   UNL A   1      31.512  29.520  23.422  1.00  0.00    -0.356 N 
ATOM      4  C   UNL A   1      30.642  28.845  22.634  1.00  0.00     0.223 C 
ATOM      5  O   UNL A   1      29.979  29.533  21.847  1.00  0.00    -0.275 OA
ATOM      6  H   UNL A   1      31.587  30.476  23.200  1.00  0.00     0.163 HD
BRANCH   4   7
ATOM      7  C   UNL A   1      30.416  27.325  22.658  1.00  0.00     0.078 C 
ATOM      8  C   UNL A   1      31.456  25.410  24.754  1.00  0.00     0.008 C 
ATOM      9  C   UNL A   1      30.209  26.277  25.008  1.00  0.00     0.006 C 
ATOM     10  C   UNL A   1      32.348  25.877  23.593  1.00  0.00     0.006 C 
ATOM     11  C   UNL A   1      29.509  26.797  23.764  1.00  0.00     0.014 C 
ATOM     12  C   UNL A   1      31.628  26.444  22.378  1.00  0.00     0.014 C 
BRANCH   8  13
ATOM     13  C   UNL A   1      32.254  25.334  26.075  1.00  0.00     0.121 C 
BRANCH  13  14
ATOM     14  N   UNL A   1      32.761  24.017  26.384  1.00  0.00    -0.338 N 
ATOM     15  O   UNL A   1      30.923  23.327  27.545  1.00  0.00    -0.249 OA
ATOM     16  C   UNL A   1      32.010  23.084  27.030  1.00  0.00     0.315 C 
ATOM     17  N   UNL A   1      32.505  21.826  27.075  1.00  0.00    -0.334 N 
ATOM     18  H   UNL A   1      32.010  21.207  27.660  1.00  0.00     0.165 HD
ATOM     19  H   UNL A   1      33.682  23.787  26.119  1.00  0.00     0.165 HD
BRANCH  17  20
ATOM     20  C   UNL A   1      33.642  21.247  26.401  1.00  0.00     0.154 C 
BRANCH  20  21
ATOM     21  C   UNL A   1      33.156  20.475  25.218  1.00  0.00    -0.018 A 
ATOM     22  C   UNL A   1      32.639  21.070  24.018  1.00  0.00     0.017 A 
ATOM     23  C   UNL A   1      33.138  19.094  25.121  1.00  0.00     0.070 A 
ATOM     24  C   UNL A   1      32.264  20.136  23.079  1.00  0.00     0.065 A 
ATOM     25  S   UNL A   1      32.528  18.539  23.623  1.00  0.00    -0.152 S 
ENDBRANCH  20  21
ENDBRANCH  17  20
ENDBRANCH  13  14
ENDBRANCH   8  13
ENDBRANCH   4   7
ENDBRANCH   2   3
ENDBRANCH   1   2
BRANCH   1  26
ATOM     26  C   UNL A   1      32.893  29.512  27.012  1.00  0.00     0.023 C 
BRANCH  26  27
ATOM     27  C   UNL A   1      33.966  30.593  27.118  1.00  0.00     0.116 C 
BRANCH  27  28
ATOM     28  N   UNL A   1      33.826  31.518  28.238  1.00  0.00    -0.352 N 
ATOM     29  C   UNL A   1      34.744  31.745  29.247  1.00  0.00     0.251 C 
ATOM     30  H   UNL A   1      32.989  32.034  28.279  1.00  0.00     0.163 HD
ATOM     31  O   UNL A   1      34.533  32.558  30.136  1.00  0.00    -0.269 OA
BRANCH  29  32
ATOM     32  C   UNL A   1      35.972  30.917  29.276  1.00  0.00     0.039 A 
ATOM     33  C   UNL A   1      37.128  31.419  28.672  1.00  0.00     0.014 A 
ATOM     34  C   UNL A   1      36.016  29.732  30.015  1.00  0.00     0.014 A 
ATOM     35  C   UNL A   1      38.354  30.791  28.901  1.00  0.00     0.010 A 
ATOM     36  C   UNL A   1      37.250  29.152  30.302  1.00  0.00     0.010 A 
ATOM     37  C   UNL A   1      38.434  29.688  29.769  1.00  0.00    -0.014 A 
BRANCH  37  38
ATOM     38  C   UNL A   1      39.745  29.123  30.187  1.00  0.00     0.031 A 
ATOM     39  C   UNL A   1      40.530  29.762  31.299  1.00  0.00     0.074 A 
ATOM     40  C   UNL A   1      40.289  28.111  29.478  1.00  0.00     0.049 A 
ATOM     41  N   UNL A   1      41.726  29.467  31.738  1.00  0.00    -0.248 NA
ATOM     42  C   UNL A   1      39.905  30.905  31.987  1.00  0.00     0.031 C 
ATOM     43  C   UNL A   1      39.684  27.474  28.306  1.00  0.00     0.029 A 
ATOM     44  N   UNL A   1      41.494  27.465  29.616  1.00  0.00    -0.354 N 
ATOM     45  C   UNL A   1      42.020  30.416  32.709  1.00  0.00     0.074 A 
ATOM     46  C   UNL A   1      40.883  31.308  32.786  1.00  0.00     0.031 C 
ATOM     47  C   UNL A   1      40.519  26.534  27.833  1.00  0.00     0.029 A 
ATOM     48  C   UNL A   1      41.727  26.511  28.650  1.00  0.00     0.049 A 
ATOM     49  H   UNL A   1      42.132  27.666  30.338  1.00  0.00     0.167 HD
ATOM     50  C   UNL A   1      43.122  30.518  33.488  1.00  0.00     0.034 A 
ATOM     51  C   UNL A   1      42.791  25.710  28.446  1.00  0.00     0.034 A 
ATOM     52  C   UNL A   1      44.211  29.581  33.474  1.00  0.00     0.049 A 
ATOM     53  C   UNL A   1      43.954  25.776  29.399  1.00  0.00     0.074 A 
ATOM     54  C   UNL A   1      45.305  29.523  34.319  1.00  0.00     0.029 A 
ATOM     55  N   UNL A   1      44.344  28.536  32.575  1.00  0.00    -0.354 N 
ATOM     56  N   UNL A   1      44.120  26.552  30.442  1.00  0.00    -0.248 NA
ATOM     57  C   UNL A   1      45.058  24.831  29.174  1.00  0.00     0.031 C 
ATOM     58  C   UNL A   1      46.102  28.442  33.930  1.00  0.00     0.029 A 
ATOM     59  C   UNL A   1      45.502  27.827  32.844  1.00  0.00     0.049 A 
ATOM     60  H   UNL A   1      43.710  28.328  31.852  1.00  0.00     0.167 HD
ATOM     61  C   UNL A   1      45.327  26.168  31.014  1.00  0.00     0.074 A 
ATOM     62  C   UNL A   1      45.840  25.073  30.217  1.00  0.00     0.031 C 
ATOM     63  C   UNL A   1      45.965  26.692  32.090  1.00  0.00     0.034 A 
BRANCH  50  64
ATOM     64  C   UNL A   1      43.175  31.641  34.487  1.00  0.00     0.023 A 
ATOM     65  C   UNL A   1      43.790  32.856  34.125  1.00  0.00     0.012 A 
ATOM     66  C   UNL A   1      42.551  31.526  35.745  1.00  0.00     0.148 A 
ATOM     67  C   UNL A   1      43.804  33.934  35.007  1.00  0.00     0.002 A 
ATOM     68  C   UNL A   1      42.538  32.618  36.605  1.00  0.00     0.091 A 
ATOM     69  F   UNL A   1      41.990  30.354  36.076  1.00  0.00    -0.205 F 
ATOM     70  C   UNL A   1      43.169  33.819  36.241  1.00  0.00     0.022 A 
BRANCH  68  71
ATOM     71  S   UNL A   1      41.689  32.595  38.188  1.00  0.00     0.127 S 
ATOM     72  O   UNL A   1      42.423  31.551  38.901  1.00  0.00    -0.237 OA
ATOM     73  O   UNL A   1      41.925  33.952  38.684  1.00  0.00    -0.237 OA
ATOM     74  O   UNL A   1      40.295  32.291  37.894  1.00  0.00    -0.744 OA
ENDBRANCH  68  71
ENDBRANCH  50  64
BRANCH  51  75
ATOM     75  C   UNL A   1      42.777  24.713  27.338  1.00  0.00     0.023 A 
ATOM     76  C   UNL A   1      43.380  25.043  26.108  1.00  0.00     0.012 A 
ATOM     77  C   UNL A   1      42.187  23.443  27.492  1.00  0.00     0.148 A 
ATOM     78  C   UNL A   1      43.367  24.142  25.043  1.00  0.00     0.002 A 
ATOM     79  C   UNL A   1      42.223  22.532  26.441  1.00  0.00     0.091 A 
ATOM     80  F   UNL A   1      41.600  23.149  28.660  1.00  0.00    -0.205 F 
ATOM     81  C   UNL A   1      42.797  22.884  25.211  1.00  0.00     0.022 A 
BRANCH  79  82
ATOM     82  S   UNL A   1      41.621  20.849  26.639  1.00  0.00     0.127 S 
ATOM     83  O   UNL A   1      40.177  21.031  26.534  1.00  0.00    -0.237 OA
ATOM     84  O   UNL A   1      42.239  20.159  25.504  1.00  0.00    -0.237 OA
ATOM     85  O   UNL A   1      42.127  20.422  27.936  1.00  0.00    -0.744 OA
ENDBRANCH  79  82
ENDBRANCH  51  75
BRANCH  63  86
ATOM     86  C   UNL A   1      47.276  26.078  32.497  1.00  0.00     0.023 A 
ATOM     87  C   UNL A   1      47.302  25.128  33.536  1.00  0.00     0.012 A 
ATOM     88  C   UNL A   1      48.461  26.367  31.792  1.00  0.00     0.148 A 
ATOM     89  C   UNL A   1      48.492  24.490  33.882  1.00  0.00     0.002 A 
ATOM     90  C   UNL A   1      49.636  25.697  32.115  1.00  0.00     0.091 A 
ATOM     91  F   UNL A   1      48.420  27.291  30.821  1.00  0.00    -0.205 F 
ATOM     92  C   UNL A   1      49.654  24.763  33.164  1.00  0.00     0.022 A 
BRANCH  90  93
ATOM     93  S   UNL A   1      51.151  25.926  31.178  1.00  0.00     0.127 S 
ATOM     94  O   UNL A   1      50.733  25.533  29.833  1.00  0.00    -0.237 OA
ATOM     95  O   UNL A   1      51.412  27.357  31.342  1.00  0.00    -0.237 OA
ATOM     96  O   UNL A   1      52.139  25.062  31.809  1.00  0.00    -0.744 OA
ENDBRANCH  90  93
ENDBRANCH  63  86
ENDBRANCH  37  38
ENDBRANCH  29  32
ENDBRANCH  27  28
ENDBRANCH  26  27
ENDBRANCH   1  26
TORSDOF 18
ENDMDL
MODEL 2
REMARK VINA RESULT:     -11.4      3.359      9.048
REMARK SMILES O=C(NCc1ccsc1)NC[C@H]1CC[C@@H](C(=O)NCCCCNC(=O)c2ccc(-c3c4nc(c(-c5cccc(S(=O)(=O)[O-])c5F)c5ccc([nH]5)c(-c5cccc(S(=O)(=O)[O-])c5F)c5nc(c(-c6cccc(S(=O)(=O)[O-])c6F)c6ccc3[nH]6)C=C5)C=C4)cc2)CC1
REMARK SMILES IDX 20 1 19 2 18 3 16 4 17 5 15 7 12 8 13 9 90 10 14 11 89 12
REMARK SMILES IDX 11 13 10 14 1 15 2 16 3 17 4 20 5 21 6 22 9 23 7 24 8 25
REMARK SMILES IDX 21 26 22 27 23 28 24 29 25 31 26 32 27 33 88 34 28 35 87 36
REMARK SMILES IDX 29 37 30 38 31 39 81 40 32 41 86 42 80 43 82 44 33 45 85 46
REMARK SMILES IDX 79 47 78 48 34 50 66 51 46 52 65 53 47 54 50 55 64 56 83 57
REMARK SMILES IDX 48 58 49 59 63 61 84 62 51 63 35 64 36 65 44 66 37 67 39 68
REMARK SMILES IDX 45 69 38 70 40 71 41 72 42 73 43 74 67 75 68 76 76 77 69 78
REMARK SMILES IDX 71 79 77 80 70 81 72 82 73 83 74 84 75 85 52 86 53 87 61 88
REMARK SMILES IDX 54 89 56 90 62 91 55 92 57 93 58 94 59 95 60 96
REMARK H PARENT 18 6 3 18 10 19 23 30 82 49 50 60
REMARK Flexibility Score: inf
ROOT
ATOM      1  C   UNL A   1      32.463  27.911  27.117  1.00  0.00     0.023 C 
ENDROOT
BRANCH   1   2
ATOM      2  C   UNL A   1      31.976  26.809  26.180  1.00  0.00     0.116 C 
BRANCH   2   3
ATOM      3  N   UNL A   1      31.548  25.616  26.875  1.00  0.00    -0.356 N 
ATOM      4  C   UNL A   1      31.846  24.304  26.717  1.00  0.00     0.223 C 
ATOM      5  O   UNL A   1      31.394  23.539  27.579  1.00  0.00    -0.275 OA
ATOM      6  H   UNL A   1      30.915  25.793  27.609  1.00  0.00     0.163 HD
BRANCH   4   7
ATOM      7  C   UNL A   1      32.696  23.717  25.580  1.00  0.00     0.078 C 
ATOM      8  C   UNL A   1      33.584  25.183  23.089  1.00  0.00     0.008 C 
ATOM      9  C   UNL A   1      34.306  25.378  24.435  1.00  0.00     0.006 C 
ATOM     10  C   UNL A   1      32.181  24.562  23.188  1.00  0.00     0.006 C 
ATOM     11  C   UNL A   1      34.114  24.263  25.448  1.00  0.00     0.014 C 
ATOM     12  C   UNL A   1      31.996  23.485  24.246  1.00  0.00     0.014 C 
BRANCH   8  13
ATOM     13  C   UNL A   1      33.538  26.553  22.376  1.00  0.00     0.121 C 
BRANCH  13  14
ATOM     14  N   UNL A   1      32.368  27.343  22.686  1.00  0.00    -0.338 N 
ATOM     15  O   UNL A   1      33.511  29.205  23.340  1.00  0.00    -0.249 OA
ATOM     16  C   UNL A   1      32.454  28.646  23.067  1.00  0.00     0.315 C 
ATOM     17  N   UNL A   1      31.296  29.343  23.122  1.00  0.00    -0.334 N 
ATOM     18  H   UNL A   1      31.370  30.238  23.528  1.00  0.00     0.165 HD
ATOM     19  H   UNL A   1      31.480  26.923  22.618  1.00  0.00     0.165 HD
BRANCH  17  20
ATOM     20  C   UNL A   1      29.970  28.984  22.680  1.00  0.00     0.154 C 
BRANCH  20  21
ATOM     21  C   UNL A   1      29.185  30.236  22.457  1.00  0.00    -0.018 A 
ATOM     22  C   UNL A   1      28.550  30.992  23.500  1.00  0.00     0.017 A 
ATOM     23  C   UNL A   1      28.966  30.831  21.226  1.00  0.00     0.070 A 
ATOM     24  C   UNL A   1      27.894  32.106  23.028  1.00  0.00     0.065 A 
ATOM     25  S   UNL A   1      28.033  32.261  21.333  1.00  0.00    -0.152 S 
ENDBRANCH  20  21
ENDBRANCH  17  20
ENDBRANCH  13  14
ENDBRANCH   8  13
ENDBRANCH   4   7
ENDBRANCH   2   3
ENDBRANCH   1   2
BRANCH   1  26
ATOM     26  C   UNL A   1      31.921  29.304  26.817  1.00  0.00     0.023 C 
BRANCH  26  27
ATOM     27  C   UNL A   1      32.881  30.463  27.070  1.00  0.00     0.116 C 
BRANCH  27  28
ATOM     28  N   UNL A   1      32.286  31.795  27.057  1.00  0.00    -0.352 N 
ATOM     29  C   UNL A   1      32.822  32.949  27.601  1.00  0.00     0.251 C 
ATOM     30  H   UNL A   1      31.411  31.881  26.617  1.00  0.00     0.163 HD
ATOM     31  O   UNL A   1      32.243  34.024  27.522  1.00  0.00    -0.269 OA
BRANCH  29  32
ATOM     32  C   UNL A   1      34.090  32.844  28.359  1.00  0.00     0.039 A 
ATOM     33  C   UNL A   1      34.025  32.643  29.740  1.00  0.00     0.014 A 
ATOM     34  C   UNL A   1      35.318  32.799  27.694  1.00  0.00     0.014 A 
ATOM     35  C   UNL A   1      35.180  32.286  30.440  1.00  0.00     0.010 A 
ATOM     36  C   UNL A   1      36.451  32.371  28.381  1.00  0.00     0.010 A 
ATOM     37  C   UNL A   1      36.390  32.086  29.755  1.00  0.00    -0.014 A 
BRANCH  37  38
ATOM     38  C   UNL A   1      37.583  31.518  30.437  1.00  0.00     0.031 A 
ATOM     39  C   UNL A   1      38.414  30.460  29.764  1.00  0.00     0.074 A 
ATOM     40  C   UNL A   1      37.844  31.861  31.717  1.00  0.00     0.049 A 
ATOM     41  N   UNL A   1      39.430  29.786  30.237  1.00  0.00    -0.248 NA
ATOM     42  C   UNL A   1      38.034  30.086  28.391  1.00  0.00     0.031 C 
ATOM     43  C   UNL A   1      37.051  32.790  32.525  1.00  0.00     0.029 A 
ATOM     44  N   UNL A   1      38.829  31.437  32.577  1.00  0.00    -0.354 N 
ATOM     45  C   UNL A   1      39.774  28.873  29.248  1.00  0.00     0.074 A 
ATOM     46  C   UNL A   1      38.848  29.067  28.153  1.00  0.00     0.031 C 
ATOM     47  C   UNL A   1      37.578  32.864  33.759  1.00  0.00     0.029 A 
ATOM     48  C   UNL A   1      38.731  31.975  33.841  1.00  0.00     0.049 A 
ATOM     49  H   UNL A   1      39.538  30.807  32.314  1.00  0.00     0.167 HD
ATOM     50  C   UNL A   1      40.786  27.975  29.239  1.00  0.00     0.034 A 
ATOM     51  C   UNL A   1      39.484  31.775  34.941  1.00  0.00     0.034 A 
ATOM     52  C   UNL A   1      41.760  27.843  30.287  1.00  0.00     0.049 A 
ATOM     53  C   UNL A   1      40.670  30.851  34.861  1.00  0.00     0.074 A 
ATOM     54  C   UNL A   1      42.900  27.060  30.308  1.00  0.00     0.029 A 
ATOM     55  N   UNL A   1      41.712  28.514  31.499  1.00  0.00    -0.354 N 
ATOM     56  N   UNL A   1      41.097  30.146  33.842  1.00  0.00    -0.248 NA
ATOM     57  C   UNL A   1      41.501  30.724  36.068  1.00  0.00     0.031 C 
ATOM     58  C   UNL A   1      43.543  27.255  31.535  1.00  0.00     0.029 A 
ATOM     59  C   UNL A   1      42.803  28.162  32.275  1.00  0.00     0.049 A 
ATOM     60  H   UNL A   1      41.008  29.146  31.768  1.00  0.00     0.167 HD
ATOM     61  C   UNL A   1      42.260  29.520  34.273  1.00  0.00     0.074 A 
ATOM     62  C   UNL A   1      42.486  29.947  35.638  1.00  0.00     0.031 C 
ATOM     63  C   UNL A   1      43.057  28.650  33.604  1.00  0.00     0.034 A 
BRANCH  50  64
ATOM     64  C   UNL A   1      40.951  27.113  28.017  1.00  0.00     0.023 A 
ATOM     65  C   UNL A   1      41.599  27.644  26.884  1.00  0.00     0.012 A 
ATOM     66  C   UNL A   1      40.542  25.766  28.016  1.00  0.00     0.148 A 
ATOM     67  C   UNL A   1      41.818  26.853  25.757  1.00  0.00     0.002 A 
ATOM     68  C   UNL A   1      40.797  24.973  26.902  1.00  0.00     0.091 A 
ATOM     69  F   UNL A   1      39.910  25.288  29.098  1.00  0.00    -0.205 F 
ATOM     70  C   UNL A   1      41.427  25.517  25.771  1.00  0.00     0.022 A 
BRANCH  68  71
ATOM     71  S   UNL A   1      40.396  23.223  26.846  1.00  0.00     0.127 S 
ATOM     72  O   UNL A   1      38.968  23.258  26.534  1.00  0.00    -0.237 OA
ATOM     73  O   UNL A   1      41.246  22.748  25.753  1.00  0.00    -0.237 OA
ATOM     74  O   UNL A   1      40.737  22.688  28.156  1.00  0.00    -0.744 OA
ENDBRANCH  68  71
ENDBRANCH  50  64
BRANCH  51  75
ATOM     75  C   UNL A   1      39.194  32.528  36.195  1.00  0.00     0.023 A 
ATOM     76  C   UNL A   1      39.773  33.798  36.383  1.00  0.00     0.012 A 
ATOM     77  C   UNL A   1      38.344  32.008  37.190  1.00  0.00     0.148 A 
ATOM     78  C   UNL A   1      39.540  34.522  37.553  1.00  0.00     0.002 A 
ATOM     79  C   UNL A   1      38.077  32.758  38.331  1.00  0.00     0.091 A 
ATOM     80  F   UNL A   1      37.815  30.790  37.007  1.00  0.00    -0.205 F 
ATOM     81  C   UNL A   1      38.685  34.007  38.523  1.00  0.00     0.022 A 
BRANCH  79  82
ATOM     82  S   UNL A   1      36.883  32.207  39.557  1.00  0.00     0.127 S 
ATOM     83  O   UNL A   1      35.625  32.325  38.827  1.00  0.00    -0.237 OA
ATOM     84  O   UNL A   1      37.314  30.832  39.820  1.00  0.00    -0.237 OA
ATOM     85  O   UNL A   1      37.063  33.109  40.686  1.00  0.00    -0.744 OA
ENDBRANCH  79  82
ENDBRANCH  51  75
BRANCH  63  86
ATOM     86  C   UNL A   1      44.269  28.117  34.319  1.00  0.00     0.023 A 
ATOM     87  C   UNL A   1      45.464  28.860  34.305  1.00  0.00     0.012 A 
ATOM     88  C   UNL A   1      44.197  26.933  35.080  1.00  0.00     0.148 A 
ATOM     89  C   UNL A   1      46.578  28.423  35.020  1.00  0.00     0.002 A 
ATOM     90  C   UNL A   1      45.299  26.525  35.824  1.00  0.00     0.091 A 
ATOM     91  F   UNL A   1      43.056  26.227  35.062  1.00  0.00    -0.205 F 
ATOM     92  C   UNL A   1      46.491  27.265  35.790  1.00  0.00     0.022 A 
BRANCH  90  93
ATOM     93  S   UNL A   1      45.236  25.097  36.912  1.00  0.00     0.127 S 
ATOM     94  O   UNL A   1      45.090  24.000  35.956  1.00  0.00    -0.237 OA
ATOM     95  O   UNL A   1      46.536  25.152  37.582  1.00  0.00    -0.237 OA
ATOM     96  O   UNL A   1      44.099  25.321  37.793  1.00  0.00    -0.744 OA
ENDBRANCH  90  93
ENDBRANCH  63  86
ENDBRANCH  37  38
ENDBRANCH  29  32
ENDBRANCH  27  28
ENDBRANCH  26  27
ENDBRANCH   1  26
TORSDOF 18
ENDMDL
MODEL 3
REMARK VINA RESULT:     -11.4      3.537      8.624
REMARK SMILES O=C(NCc1ccsc1)NC[C@H]1CC[C@@H](C(=O)NCCCCNC(=O)c2ccc(-c3c4nc(c(-c5cccc(S(=O)(=O)[O-])c5F)c5ccc([nH]5)c(-c5cccc(S(=O)(=O)[O-])c5F)c5nc(c(-c6cccc(S(=O)(=O)[O-])c6F)c6ccc3[nH]6)C=C5)C=C4)cc2)CC1
REMARK SMILES IDX 20 1 19 2 18 3 16 4 17 5 15 7 12 8 13 9 90 10 14 11 89 12
REMARK SMILES IDX 11 13 10 14 1 15 2 16 3 17 4 20 5 21 6 22 9 23 7 24 8 25
REMARK SMILES IDX 21 26 22 27 23 28 24 29 25 31 26 32 27 33 88 34 28 35 87 36
REMARK SMILES IDX 29 37 30 38 31 39 81 40 32 41 86 42 80 43 82 44 33 45 85 46
REMARK SMILES IDX 79 47 78 48 34 50 66 51 46 52 65 53 47 54 50 55 64 56 83 57
REMARK SMILES IDX 48 58 49 59 63 61 84 62 51 63 35 64 36 65 44 66 37 67 39 68
REMARK SMILES IDX 45 69 38 70 40 71 41 72 42 73 43 74 67 75 68 76 76 77 69 78
REMARK SMILES IDX 71 79 77 80 70 81 72 82 73 83 74 84 75 85 52 86 53 87 61 88
REMARK SMILES IDX 54 89 56 90 62 91 55 92 57 93 58 94 59 95 60 96
REMARK H PARENT 18 6 3 18 10 19 23 30 82 49 50 60
REMARK Flexibility Score: inf
ROOT
ATOM      1  C   UNL A   1      31.707  30.528  25.999  1.00  0.00     0.023 C 
ENDROOT
BRANCH   1   2
ATOM      2  C   UNL A   1      31.475  29.350  25.056  1.00  0.00     0.116 C 
BRANCH   2   3
ATOM      3  N   UNL A   1      30.954  29.745  23.767  1.00  0.00    -0.356 N 
ATOM      4  C   UNL A   1      30.388  29.050  22.752  1.00  0.00     0.223 C 
ATOM      5  O   UNL A   1      29.930  29.725  21.821  1.00  0.00    -0.275 OA
ATOM      6  H   UNL A   1      31.026  30.712  23.592  1.00  0.00     0.163 HD
BRANCH   4   7
ATOM      7  C   UNL A   1      30.265  27.520  22.685  1.00  0.00     0.078 C 
ATOM      8  C   UNL A   1      31.335  25.562  24.724  1.00  0.00     0.008 C 
ATOM      9  C   UNL A   1      30.022  26.330  24.962  1.00  0.00     0.006 C 
ATOM     10  C   UNL A   1      32.245  26.150  23.636  1.00  0.00     0.006 C 
ATOM     11  C   UNL A   1      29.346  26.872  23.715  1.00  0.00     0.014 C 
ATOM     12  C   UNL A   1      31.546  26.736  22.419  1.00  0.00     0.014 C 
BRANCH   8  13
ATOM     13  C   UNL A   1      32.075  25.463  26.078  1.00  0.00     0.121 C 
BRANCH  13  14
ATOM     14  N   UNL A   1      32.581  24.144  26.381  1.00  0.00    -0.338 N 
ATOM     15  O   UNL A   1      30.682  23.396  27.401  1.00  0.00    -0.249 OA
ATOM     16  C   UNL A   1      31.804  23.183  26.950  1.00  0.00     0.315 C 
ATOM     17  N   UNL A   1      32.313  21.930  26.990  1.00  0.00    -0.334 N 
ATOM     18  H   UNL A   1      31.790  21.288  27.523  1.00  0.00     0.165 HD
ATOM     19  H   UNL A   1      33.520  23.934  26.169  1.00  0.00     0.165 HD
BRANCH  17  20
ATOM     20  C   UNL A   1      33.499  21.387  26.375  1.00  0.00     0.154 C 
BRANCH  20  21
ATOM     21  C   UNL A   1      33.089  20.490  25.253  1.00  0.00    -0.018 A 
ATOM     22  C   UNL A   1      32.506  20.945  24.022  1.00  0.00     0.017 A 
ATOM     23  C   UNL A   1      33.213  19.111  25.249  1.00  0.00     0.070 A 
ATOM     24  C   UNL A   1      32.223  19.916  23.153  1.00  0.00     0.065 A 
ATOM     25  S   UNL A   1      32.655  18.395  23.799  1.00  0.00    -0.152 S 
ENDBRANCH  20  21
ENDBRANCH  17  20
ENDBRANCH  13  14
ENDBRANCH   8  13
ENDBRANCH   4   7
ENDBRANCH   2   3
ENDBRANCH   1   2
BRANCH   1  26
ATOM     26  C   UNL A   1      33.166  30.796  26.355  1.00  0.00     0.023 C 
BRANCH  26  27
ATOM     27  C   UNL A   1      33.404  31.627  27.613  1.00  0.00     0.116 C 
BRANCH  27  28
ATOM     28  N   UNL A   1      32.796  32.953  27.622  1.00  0.00    -0.352 N 
ATOM     29  C   UNL A   1      33.237  34.064  28.318  1.00  0.00     0.251 C 
ATOM     30  H   UNL A   1      31.986  33.068  27.076  1.00  0.00     0.163 HD
ATOM     31  O   UNL A   1      32.659  35.139  28.244  1.00  0.00    -0.269 OA
BRANCH  29  32
ATOM     32  C   UNL A   1      34.395  33.906  29.229  1.00  0.00     0.039 A 
ATOM     33  C   UNL A   1      34.184  33.320  30.479  1.00  0.00     0.014 A 
ATOM     34  C   UNL A   1      35.690  34.201  28.795  1.00  0.00     0.014 A 
ATOM     35  C   UNL A   1      35.279  32.925  31.250  1.00  0.00     0.010 A 
ATOM     36  C   UNL A   1      36.779  33.740  29.531  1.00  0.00     0.010 A 
ATOM     37  C   UNL A   1      36.586  33.076  30.754  1.00  0.00    -0.014 A 
BRANCH  37  38
ATOM     38  C   UNL A   1      37.756  32.490  31.459  1.00  0.00     0.031 A 
ATOM     39  C   UNL A   1      38.530  31.358  30.841  1.00  0.00     0.074 A 
ATOM     40  C   UNL A   1      38.044  32.891  32.716  1.00  0.00     0.049 A 
ATOM     41  N   UNL A   1      39.516  30.663  31.345  1.00  0.00    -0.248 NA
ATOM     42  C   UNL A   1      38.120  30.926  29.494  1.00  0.00     0.031 C 
ATOM     43  C   UNL A   1      37.304  33.901  33.476  1.00  0.00     0.029 A 
ATOM     44  N   UNL A   1      39.015  32.469  33.593  1.00  0.00    -0.354 N 
ATOM     45  C   UNL A   1      39.808  29.681  30.408  1.00  0.00     0.074 A 
ATOM     46  C   UNL A   1      38.882  29.857  29.309  1.00  0.00     0.031 C 
ATOM     47  C   UNL A   1      37.844  34.018  34.700  1.00  0.00     0.029 A 
ATOM     48  C   UNL A   1      38.955  33.081  34.825  1.00  0.00     0.049 A 
ATOM     49  H   UNL A   1      39.691  31.792  33.361  1.00  0.00     0.167 HD
ATOM     50  C   UNL A   1      40.776  28.736  30.442  1.00  0.00     0.034 A 
ATOM     51  C   UNL A   1      39.707  32.906  35.930  1.00  0.00     0.034 A 
ATOM     52  C   UNL A   1      41.751  28.616  31.491  1.00  0.00     0.049 A 
ATOM     53  C   UNL A   1      40.846  31.923  35.895  1.00  0.00     0.074 A 
ATOM     54  C   UNL A   1      42.853  27.781  31.548  1.00  0.00     0.029 A 
ATOM     55  N   UNL A   1      41.747  29.355  32.663  1.00  0.00    -0.354 N 
ATOM     56  N   UNL A   1      41.230  31.143  34.914  1.00  0.00    -0.248 NA
ATOM     57  C   UNL A   1      41.681  31.824  37.101  1.00  0.00     0.031 C 
ATOM     58  C   UNL A   1      43.515  28.014  32.758  1.00  0.00     0.029 A 
ATOM     59  C   UNL A   1      42.826  28.994  33.451  1.00  0.00     0.049 A 
ATOM     60  H   UNL A   1      41.076  30.034  32.900  1.00  0.00     0.167 HD
ATOM     61  C   UNL A   1      42.366  30.486  35.372  1.00  0.00     0.074 A 
ATOM     62  C   UNL A   1      42.624  30.978  36.710  1.00  0.00     0.031 C 
ATOM     63  C   UNL A   1      43.115  29.544  34.749  1.00  0.00     0.034 A 
BRANCH  50  64
ATOM     64  C   UNL A   1      40.889  27.801  29.270  1.00  0.00     0.023 A 
ATOM     65  C   UNL A   1      40.103  26.631  29.245  1.00  0.00     0.012 A 
ATOM     66  C   UNL A   1      41.702  28.114  28.163  1.00  0.00     0.148 A 
ATOM     67  C   UNL A   1      40.141  25.774  28.147  1.00  0.00     0.002 A 
ATOM     68  C   UNL A   1      41.707  27.272  27.056  1.00  0.00     0.091 A 
ATOM     69  F   UNL A   1      42.456  29.221  28.217  1.00  0.00    -0.205 F 
ATOM     70  C   UNL A   1      40.934  26.100  27.050  1.00  0.00     0.022 A 
BRANCH  68  71
ATOM     71  S   UNL A   1      42.640  27.637  25.565  1.00  0.00     0.127 S 
ATOM     72  O   UNL A   1      42.384  26.445  24.759  1.00  0.00    -0.237 OA
ATOM     73  O   UNL A   1      41.983  28.852  25.080  1.00  0.00    -0.237 OA
ATOM     74  O   UNL A   1      44.021  27.822  25.989  1.00  0.00    -0.744 OA
ENDBRANCH  68  71
ENDBRANCH  50  64
BRANCH  51  75
ATOM     75  C   UNL A   1      39.464  33.741  37.141  1.00  0.00     0.023 A 
ATOM     76  C   UNL A   1      39.927  35.071  37.163  1.00  0.00     0.012 A 
ATOM     77  C   UNL A   1      38.771  33.239  38.259  1.00  0.00     0.148 A 
ATOM     78  C   UNL A   1      39.735  35.874  38.287  1.00  0.00     0.002 A 
ATOM     79  C   UNL A   1      38.539  34.062  39.357  1.00  0.00     0.091 A 
ATOM     80  F   UNL A   1      38.352  31.966  38.233  1.00  0.00    -0.205 F 
ATOM     81  C   UNL A   1      39.034  35.374  39.380  1.00  0.00     0.022 A 
BRANCH  79  82
ATOM     82  S   UNL A   1      37.531  33.518  40.741  1.00  0.00     0.127 S 
ATOM     83  O   UNL A   1      38.384  32.508  41.358  1.00  0.00    -0.237 OA
ATOM     84  O   UNL A   1      37.373  34.749  41.519  1.00  0.00    -0.237 OA
ATOM     85  O   UNL A   1      36.295  33.038  40.137  1.00  0.00    -0.744 OA
ENDBRANCH  79  82
ENDBRANCH  51  75
BRANCH  63  86
ATOM     86  C   UNL A   1      44.306  28.993  35.485  1.00  0.00     0.023 A 
ATOM     87  C   UNL A   1      45.562  29.609  35.329  1.00  0.00     0.012 A 
ATOM     88  C   UNL A   1      44.164  27.931  36.400  1.00  0.00     0.148 A 
ATOM     89  C   UNL A   1      46.665  29.164  36.056  1.00  0.00     0.002 A 
ATOM     90  C   UNL A   1      45.258  27.519  37.152  1.00  0.00     0.091 A 
ATOM     91  F   UNL A   1      42.964  27.342  36.518  1.00  0.00    -0.205 F 
ATOM     92  C   UNL A   1      46.510  28.130  36.976  1.00  0.00     0.022 A 
BRANCH  90  93
ATOM     93  S   UNL A   1      45.118  26.257  38.423  1.00  0.00     0.127 S 
ATOM     94  O   UNL A   1      46.520  25.915  38.659  1.00  0.00    -0.237 OA
ATOM     95  O   UNL A   1      44.474  26.981  39.519  1.00  0.00    -0.237 OA
ATOM     96  O   UNL A   1      44.300  25.201  37.842  1.00  0.00    -0.744 OA
ENDBRANCH  90  93
ENDBRANCH  63  86
ENDBRANCH  37  38
ENDBRANCH  29  32
ENDBRANCH  27  28
ENDBRANCH  26  27
ENDBRANCH   1  26
TORSDOF 18
ENDMDL
