MODEL 1
REMARK VINA RESULT:     -13.0      0.000      0.000
REMARK SMILES O=C(NCCCCNC(=O)c1ccc([C@H]2CCCN(C(=O)c3ccc4[nH]ccc4c3)C2)cc1)c1ccc(-c2c3nc(c(-c4cccc(S(=O)(=O)[O-])c4F)c4ccc([nH]4)c(-c4cccc(S(=O)(=O)[O-])c4F)c4nc(c(-c5cccc(S(=O)(=O)[O-])c5F)c5ccc2[nH]5)C=C4)C=C3)cc1
REMARK SMILES IDX 5 1 4 2 3 3 1 4 2 5 34 7 35 8 96 9 36 10 95 11 37 12 38 13
REMARK SMILES IDX 39 14 89 15 40 16 94 17 88 18 90 19 41 20 93 21 87 22 86 23
REMARK SMILES IDX 42 25 74 26 54 27 73 28 55 29 58 30 72 31 91 32 56 33 57 34
REMARK SMILES IDX 71 36 92 37 59 38 43 39 44 40 52 41 45 42 47 43 53 44 46 45
REMARK SMILES IDX 48 46 49 47 50 48 51 49 75 50 76 51 84 52 77 53 79 54 85 55
REMARK SMILES IDX 78 56 80 57 81 58 82 59 83 60 60 61 61 62 69 63 62 64 64 65
REMARK SMILES IDX 70 66 63 67 65 68 66 69 67 70 68 71 6 72 7 73 8 74 9 75
REMARK SMILES IDX 10 77 11 78 12 79 33 80 13 81 32 82 14 83 15 84 16 85 31 86
REMARK SMILES IDX 17 87 19 88 18 89 20 90 21 91 22 92 23 93 30 94 24 95 29 96
REMARK SMILES IDX 25 97 28 98 26 99 27 100
REMARK H PARENT 3 6 90 24 58 35 8 76 26 101
REMARK Flexibility Score: inf
ROOT
ATOM      1  C   UNL A   1      37.868  19.585  25.334  1.00  0.00     0.023 C 
ENDROOT
BRANCH   1   2
ATOM      2  C   UNL A   1      39.196  20.199  25.756  1.00  0.00     0.116 C 
BRANCH   2   3
ATOM      3  N   UNL A   1      40.232  19.207  26.003  1.00  0.00    -0.352 N 
ATOM      4  O   UNL A   1      42.332  18.445  26.326  1.00  0.00    -0.269 OA
ATOM      5  C   UNL A   1      41.568  19.404  26.280  1.00  0.00     0.251 C 
ATOM      6  H   UNL A   1      39.939  18.267  25.968  1.00  0.00     0.163 HD
BRANCH   5   7
ATOM      7  C   UNL A   1      42.069  20.780  26.483  1.00  0.00     0.039 A 
ATOM      8  C   UNL A   1      42.167  21.307  27.772  1.00  0.00     0.014 A 
ATOM      9  C   UNL A   1      42.398  21.569  25.376  1.00  0.00     0.014 A 
ATOM     10  C   UNL A   1      42.403  22.665  27.942  1.00  0.00     0.010 A 
ATOM     11  C   UNL A   1      42.748  22.911  25.561  1.00  0.00     0.010 A 
ATOM     12  C   UNL A   1      42.713  23.483  26.842  1.00  0.00    -0.014 A 
BRANCH  12  13
ATOM     13  C   UNL A   1      43.063  24.907  27.088  1.00  0.00     0.031 A 
ATOM     14  C   UNL A   1      42.109  25.854  27.764  1.00  0.00     0.074 A 
ATOM     15  C   UNL A   1      44.288  25.332  26.720  1.00  0.00     0.049 A 
ATOM     16  N   UNL A   1      42.298  27.106  28.099  1.00  0.00    -0.248 NA
ATOM     17  C   UNL A   1      40.772  25.343  28.105  1.00  0.00     0.031 C 
ATOM     18  C   UNL A   1      45.281  24.519  26.010  1.00  0.00     0.029 A 
ATOM     19  N   UNL A   1      44.916  26.537  26.898  1.00  0.00    -0.354 N 
ATOM     20  C   UNL A   1      41.102  27.542  28.660  1.00  0.00     0.074 A 
ATOM     21  C   UNL A   1      40.185  26.422  28.606  1.00  0.00     0.031 C 
ATOM     22  C   UNL A   1      46.401  25.233  25.844  1.00  0.00     0.029 A 
ATOM     23  C   UNL A   1      46.191  26.572  26.381  1.00  0.00     0.049 A 
ATOM     24  H   UNL A   1      44.496  27.304  27.350  1.00  0.00     0.167 HD
ATOM     25  C   UNL A   1      40.805  28.752  29.191  1.00  0.00     0.034 A 
ATOM     26  C   UNL A   1      47.088  27.573  26.324  1.00  0.00     0.034 A 
ATOM     27  C   UNL A   1      41.731  29.853  29.265  1.00  0.00     0.049 A 
ATOM     28  C   UNL A   1      46.738  28.894  26.946  1.00  0.00     0.074 A 
ATOM     29  C   UNL A   1      41.533  31.110  29.814  1.00  0.00     0.029 A 
ATOM     30  N   UNL A   1      43.029  29.834  28.776  1.00  0.00    -0.354 N 
ATOM     31  N   UNL A   1      45.642  29.244  27.571  1.00  0.00    -0.248 NA
ATOM     32  C   UNL A   1      47.760  29.947  26.880  1.00  0.00     0.031 C 
ATOM     33  C   UNL A   1      42.706  31.854  29.643  1.00  0.00     0.029 A 
ATOM     34  C   UNL A   1      43.643  31.054  29.010  1.00  0.00     0.049 A 
ATOM     35  H   UNL A   1      43.451  29.066  28.328  1.00  0.00     0.167 HD
ATOM     36  C   UNL A   1      45.848  30.551  27.992  1.00  0.00     0.074 A 
ATOM     37  C   UNL A   1      47.190  30.914  27.583  1.00  0.00     0.031 C 
ATOM     38  C   UNL A   1      44.995  31.385  28.637  1.00  0.00     0.034 A 
BRANCH  25  39
ATOM     39  C   UNL A   1      39.432  28.945  29.787  1.00  0.00     0.023 A 
ATOM     40  C   UNL A   1      39.187  28.523  31.110  1.00  0.00     0.012 A 
ATOM     41  C   UNL A   1      38.414  29.616  29.080  1.00  0.00     0.148 A 
ATOM     42  C   UNL A   1      37.947  28.740  31.709  1.00  0.00     0.002 A 
ATOM     43  C   UNL A   1      37.193  29.865  29.698  1.00  0.00     0.091 A 
ATOM     44  F   UNL A   1      38.657  29.999  27.818  1.00  0.00    -0.205 F 
ATOM     45  C   UNL A   1      36.955  29.419  31.009  1.00  0.00     0.022 A 
BRANCH  43  46
ATOM     46  S   UNL A   1      35.874  30.798  28.910  1.00  0.00     0.127 S 
ATOM     47  O   UNL A   1      35.191  29.755  28.147  1.00  0.00    -0.237 OA
ATOM     48  O   UNL A   1      35.122  31.301  30.061  1.00  0.00    -0.237 OA
ATOM     49  O   UNL A   1      36.528  31.828  28.116  1.00  0.00    -0.744 OA
ENDBRANCH  43  46
ENDBRANCH  25  39
BRANCH  26  50
ATOM     50  C   UNL A   1      48.410  27.345  25.678  1.00  0.00     0.023 A 
ATOM     51  C   UNL A   1      49.499  26.896  26.449  1.00  0.00     0.012 A 
ATOM     52  C   UNL A   1      48.580  27.533  24.292  1.00  0.00     0.148 A 
ATOM     53  C   UNL A   1      50.742  26.670  25.856  1.00  0.00     0.002 A 
ATOM     54  C   UNL A   1      49.801  27.242  23.698  1.00  0.00     0.091 A 
ATOM     55  F   UNL A   1      47.537  27.977  23.576  1.00  0.00    -0.205 F 
ATOM     56  C   UNL A   1      50.889  26.830  24.480  1.00  0.00     0.022 A 
BRANCH  54  57
ATOM     57  S   UNL A   1      50.019  27.275  21.916  1.00  0.00     0.127 S 
ATOM     58  O   UNL A   1      51.393  26.800  21.773  1.00  0.00    -0.237 OA
ATOM     59  O   UNL A   1      48.992  26.334  21.465  1.00  0.00    -0.237 OA
ATOM     60  O   UNL A   1      49.773  28.656  21.522  1.00  0.00    -0.744 OA
ENDBRANCH  54  57
ENDBRANCH  26  50
BRANCH  38  61
ATOM     61  C   UNL A   1      45.499  32.766  28.960  1.00  0.00     0.023 A 
ATOM     62  C   UNL A   1      46.279  32.972  30.117  1.00  0.00     0.012 A 
ATOM     63  C   UNL A   1      45.233  33.852  28.103  1.00  0.00     0.148 A 
ATOM     64  C   UNL A   1      46.751  34.243  30.438  1.00  0.00     0.002 A 
ATOM     65  C   UNL A   1      45.749  35.107  28.404  1.00  0.00     0.091 A 
ATOM     66  F   UNL A   1      44.472  33.641  27.020  1.00  0.00    -0.205 F 
ATOM     67  C   UNL A   1      46.496  35.308  29.576  1.00  0.00     0.022 A 
BRANCH  65  68
ATOM     68  S   UNL A   1      45.544  36.514  27.308  1.00  0.00     0.127 S 
ATOM     69  O   UNL A   1      44.188  36.307  26.805  1.00  0.00    -0.237 OA
ATOM     70  O   UNL A   1      45.687  37.646  28.225  1.00  0.00    -0.237 OA
ATOM     71  O   UNL A   1      46.606  36.406  26.315  1.00  0.00    -0.744 OA
ENDBRANCH  65  68
ENDBRANCH  38  61
ENDBRANCH  12  13
ENDBRANCH   5   7
ENDBRANCH   2   3
ENDBRANCH   1   2
BRANCH   1  72
ATOM     72  C   UNL A   1      36.924  20.534  24.606  1.00  0.00     0.023 C 
BRANCH  72  73
ATOM     73  C   UNL A   1      35.678  20.929  25.390  1.00  0.00     0.116 C 
BRANCH  73  74
ATOM     74  N   UNL A   1      34.650  19.897  25.381  1.00  0.00    -0.352 N 
ATOM     75  C   UNL A   1      33.285  20.042  25.289  1.00  0.00     0.251 C 
ATOM     76  H   UNL A   1      34.977  18.970  25.448  1.00  0.00     0.163 HD
ATOM     77  O   UNL A   1      32.533  19.089  25.427  1.00  0.00    -0.269 OA
BRANCH  75  78
ATOM     78  C   UNL A   1      32.736  21.390  25.058  1.00  0.00     0.039 A 
ATOM     79  C   UNL A   1      32.555  22.245  26.141  1.00  0.00     0.014 A 
ATOM     80  C   UNL A   1      32.461  21.822  23.762  1.00  0.00     0.014 A 
ATOM     81  C   UNL A   1      32.211  23.580  25.909  1.00  0.00     0.005 A 
ATOM     82  C   UNL A   1      32.147  23.160  23.536  1.00  0.00     0.005 A 
ATOM     83  C   UNL A   1      32.069  24.077  24.599  1.00  0.00    -0.043 A 
BRANCH  83  84
ATOM     84  C   UNL A   1      31.821  25.568  24.372  1.00  0.00     0.039 C 
ATOM     85  C   UNL A   1      33.148  26.347  24.171  1.00  0.00     0.012 C 
ATOM     86  C   UNL A   1      30.894  25.873  23.174  1.00  0.00     0.128 C 
ATOM     87  C   UNL A   1      32.911  27.837  23.905  1.00  0.00     0.022 C 
ATOM     88  N   UNL A   1      30.711  27.307  22.986  1.00  0.00    -0.338 N 
ATOM     89  C   UNL A   1      31.939  28.060  22.750  1.00  0.00     0.120 C 
BRANCH  88  90
ATOM     90  C   UNL A   1      29.439  27.837  23.151  1.00  0.00     0.253 C 
ATOM     91  O   UNL A   1      28.470  27.196  23.552  1.00  0.00    -0.269 OA
BRANCH  90  92
ATOM     92  C   UNL A   1      29.216  29.258  22.852  1.00  0.00     0.040 A 
ATOM     93  C   UNL A   1      29.454  30.190  23.864  1.00  0.00     0.016 A 
ATOM     94  C   UNL A   1      28.683  29.630  21.611  1.00  0.00     0.024 A 
ATOM     95  C   UNL A   1      29.186  31.544  23.653  1.00  0.00     0.027 A 
ATOM     96  C   UNL A   1      28.389  30.988  21.394  1.00  0.00     0.000 A 
ATOM     97  C   UNL A   1      28.650  31.909  22.411  1.00  0.00     0.045 A 
ATOM     98  C   UNL A   1      27.821  31.712  20.309  1.00  0.00     0.028 A 
ATOM     99  N   UNL A   1      28.267  33.145  21.944  1.00  0.00    -0.361 N 
ATOM    100  C   UNL A   1      27.751  33.036  20.680  1.00  0.00     0.083 A 
ATOM    101  H   UNL A   1      28.351  33.988  22.446  1.00  0.00     0.166 HD
ENDBRANCH  90  92
ENDBRANCH  88  90
ENDBRANCH  83  84
ENDBRANCH  75  78
ENDBRANCH  73  74
ENDBRANCH  72  73
ENDBRANCH   1  72
TORSDOF 17
ENDMDL
MODEL 2
REMARK VINA RESULT:     -12.8      5.612     11.544
REMARK SMILES O=C(NCCCCNC(=O)c1ccc([C@H]2CCCN(C(=O)c3ccc4[nH]ccc4c3)C2)cc1)c1ccc(-c2c3nc(c(-c4cccc(S(=O)(=O)[O-])c4F)c4ccc([nH]4)c(-c4cccc(S(=O)(=O)[O-])c4F)c4nc(c(-c5cccc(S(=O)(=O)[O-])c5F)c5ccc2[nH]5)C=C4)C=C3)cc1
REMARK SMILES IDX 5 1 4 2 3 3 1 4 2 5 34 7 35 8 96 9 36 10 95 11 37 12 38 13
REMARK SMILES IDX 39 14 89 15 40 16 94 17 88 18 90 19 41 20 93 21 87 22 86 23
REMARK SMILES IDX 42 25 74 26 54 27 73 28 55 29 58 30 72 31 91 32 56 33 57 34
REMARK SMILES IDX 71 36 92 37 59 38 43 39 44 40 52 41 45 42 47 43 53 44 46 45
REMARK SMILES IDX 48 46 49 47 50 48 51 49 75 50 76 51 84 52 77 53 79 54 85 55
REMARK SMILES IDX 78 56 80 57 81 58 82 59 83 60 60 61 61 62 69 63 62 64 64 65
REMARK SMILES IDX 70 66 63 67 65 68 66 69 67 70 68 71 6 72 7 73 8 74 9 75
REMARK SMILES IDX 10 77 11 78 12 79 33 80 13 81 32 82 14 83 15 84 16 85 31 86
REMARK SMILES IDX 17 87 19 88 18 89 20 90 21 91 22 92 23 93 30 94 24 95 29 96
REMARK SMILES IDX 25 97 28 98 26 99 27 100
REMARK H PARENT 3 6 90 24 58 35 8 76 26 101
REMARK Flexibility Score: inf
ROOT
ATOM      1  C   UNL A   1      34.754  33.333  29.852  1.00  0.00     0.023 C 
ENDROOT
BRANCH   1   2
ATOM      2  C   UNL A   1      35.013  32.877  28.424  1.00  0.00     0.116 C 
BRANCH   2   3
ATOM      3  N   UNL A   1      34.126  31.806  27.994  1.00  0.00    -0.352 N 
ATOM      4  O   UNL A   1      33.574  29.736  27.283  1.00  0.00    -0.269 OA
ATOM      5  C   UNL A   1      34.418  30.476  27.778  1.00  0.00     0.251 C 
ATOM      6  H   UNL A   1      33.189  32.067  27.838  1.00  0.00     0.163 HD
BRANCH   5   7
ATOM      7  C   UNL A   1      35.765  29.968  28.115  1.00  0.00     0.039 A 
ATOM      8  C   UNL A   1      35.991  29.340  29.341  1.00  0.00     0.014 A 
ATOM      9  C   UNL A   1      36.823  30.163  27.222  1.00  0.00     0.014 A 
ATOM     10  C   UNL A   1      37.292  29.084  29.752  1.00  0.00     0.010 A 
ATOM     11  C   UNL A   1      38.122  29.798  27.595  1.00  0.00     0.010 A 
ATOM     12  C   UNL A   1      38.375  29.294  28.880  1.00  0.00    -0.014 A 
BRANCH  12  13
ATOM     13  C   UNL A   1      39.738  28.905  29.329  1.00  0.00     0.031 A 
ATOM     14  C   UNL A   1      40.439  29.620  30.452  1.00  0.00     0.074 A 
ATOM     15  C   UNL A   1      40.330  27.856  28.723  1.00  0.00     0.049 A 
ATOM     16  N   UNL A   1      41.602  29.355  30.991  1.00  0.00    -0.248 NA
ATOM     17  C   UNL A   1      39.760  30.782  31.046  1.00  0.00     0.031 C 
ATOM     18  C   UNL A   1      39.770  27.117  27.587  1.00  0.00     0.029 A 
ATOM     19  N   UNL A   1      41.517  27.220  28.977  1.00  0.00    -0.354 N 
ATOM     20  C   UNL A   1      41.810  30.328  31.963  1.00  0.00     0.074 A 
ATOM     21  C   UNL A   1      40.656  31.202  31.929  1.00  0.00     0.031 C 
ATOM     22  C   UNL A   1      40.592  26.111  27.266  1.00  0.00     0.029 A 
ATOM     23  C   UNL A   1      41.765  26.165  28.129  1.00  0.00     0.049 A 
ATOM     24  H   UNL A   1      42.133  27.493  29.694  1.00  0.00     0.167 HD
ATOM     25  C   UNL A   1      42.852  30.465  32.818  1.00  0.00     0.034 A 
ATOM     26  C   UNL A   1      42.825  25.341  28.039  1.00  0.00     0.034 A 
ATOM     27  C   UNL A   1      43.984  29.576  32.864  1.00  0.00     0.049 A 
ATOM     28  C   UNL A   1      43.951  25.503  29.019  1.00  0.00     0.074 A 
ATOM     29  C   UNL A   1      45.075  29.613  33.717  1.00  0.00     0.029 A 
ATOM     30  N   UNL A   1      44.175  28.489  32.024  1.00  0.00    -0.354 N 
ATOM     31  N   UNL A   1      44.069  26.360  30.002  1.00  0.00    -0.248 NA
ATOM     32  C   UNL A   1      45.073  24.564  28.896  1.00  0.00     0.031 C 
ATOM     33  C   UNL A   1      45.932  28.558  33.382  1.00  0.00     0.029 A 
ATOM     34  C   UNL A   1      45.364  27.848  32.337  1.00  0.00     0.049 A 
ATOM     35  H   UNL A   1      43.557  28.213  31.309  1.00  0.00     0.167 HD
ATOM     36  C   UNL A   1      45.270  26.053  30.629  1.00  0.00     0.074 A 
ATOM     37  C   UNL A   1      45.820  24.905  29.937  1.00  0.00     0.031 C 
ATOM     38  C   UNL A   1      45.876  26.680  31.667  1.00  0.00     0.034 A 
BRANCH  25  39
ATOM     39  C   UNL A   1      42.801  31.593  33.819  1.00  0.00     0.023 A 
ATOM     40  C   UNL A   1      43.346  32.848  33.475  1.00  0.00     0.012 A 
ATOM     41  C   UNL A   1      42.145  31.445  35.058  1.00  0.00     0.148 A 
ATOM     42  C   UNL A   1      43.263  33.926  34.354  1.00  0.00     0.002 A 
ATOM     43  C   UNL A   1      42.031  32.537  35.913  1.00  0.00     0.091 A 
ATOM     44  F   UNL A   1      41.646  30.243  35.376  1.00  0.00    -0.205 F 
ATOM     45  C   UNL A   1      42.598  33.774  35.566  1.00  0.00     0.022 A 
BRANCH  43  46
ATOM     46  S   UNL A   1      41.128  32.468  37.465  1.00  0.00     0.127 S 
ATOM     47  O   UNL A   1      39.842  31.920  37.033  1.00  0.00    -0.237 OA
ATOM     48  O   UNL A   1      41.946  31.548  38.257  1.00  0.00    -0.237 OA
ATOM     49  O   UNL A   1      41.088  33.833  37.969  1.00  0.00    -0.744 OA
ENDBRANCH  43  46
ENDBRANCH  25  39
BRANCH  26  50
ATOM     50  C   UNL A   1      42.848  24.277  26.999  1.00  0.00     0.023 A 
ATOM     51  C   UNL A   1      43.619  24.450  25.835  1.00  0.00     0.012 A 
ATOM     52  C   UNL A   1      42.140  23.072  27.181  1.00  0.00     0.148 A 
ATOM     53  C   UNL A   1      43.656  23.458  24.854  1.00  0.00     0.002 A 
ATOM     54  C   UNL A   1      42.235  22.062  26.233  1.00  0.00     0.091 A 
ATOM     55  F   UNL A   1      41.398  22.930  28.289  1.00  0.00    -0.205 F 
ATOM     56  C   UNL A   1      42.976  22.259  25.059  1.00  0.00     0.022 A 
BRANCH  54  57
ATOM     57  S   UNL A   1      41.516  20.439  26.503  1.00  0.00     0.127 S 
ATOM     58  O   UNL A   1      42.094  20.066  27.791  1.00  0.00    -0.237 OA
ATOM     59  O   UNL A   1      40.084  20.739  26.534  1.00  0.00    -0.237 OA
ATOM     60  O   UNL A   1      41.930  19.638  25.358  1.00  0.00    -0.744 OA
ENDBRANCH  54  57
ENDBRANCH  26  50
BRANCH  38  61
ATOM     61  C   UNL A   1      47.194  26.119  32.133  1.00  0.00     0.023 A 
ATOM     62  C   UNL A   1      47.233  25.272  33.259  1.00  0.00     0.012 A 
ATOM     63  C   UNL A   1      48.385  26.401  31.437  1.00  0.00     0.148 A 
ATOM     64  C   UNL A   1      48.443  24.747  33.710  1.00  0.00     0.002 A 
ATOM     65  C   UNL A   1      49.580  25.834  31.862  1.00  0.00     0.091 A 
ATOM     66  F   UNL A   1      48.330  27.226  30.382  1.00  0.00    -0.205 F 
ATOM     67  C   UNL A   1      49.614  25.018  33.006  1.00  0.00     0.022 A 
BRANCH  65  68
ATOM     68  S   UNL A   1      51.120  26.058  30.966  1.00  0.00     0.127 S 
ATOM     69  O   UNL A   1      52.039  25.224  31.738  1.00  0.00    -0.237 OA
ATOM     70  O   UNL A   1      50.787  25.534  29.641  1.00  0.00    -0.237 OA
ATOM     71  O   UNL A   1      51.395  27.489  30.997  1.00  0.00    -0.744 OA
ENDBRANCH  65  68
ENDBRANCH  38  61
ENDBRANCH  12  13
ENDBRANCH   5   7
ENDBRANCH   2   3
ENDBRANCH   1   2
BRANCH   1  72
ATOM     72  C   UNL A   1      34.903  32.248  30.911  1.00  0.00     0.023 C 
BRANCH  72  73
ATOM     73  C   UNL A   1      36.235  32.250  31.653  1.00  0.00     0.116 C 
BRANCH  73  74
ATOM     74  N   UNL A   1      36.211  33.068  32.858  1.00  0.00    -0.352 N 
ATOM     75  C   UNL A   1      37.112  34.025  33.267  1.00  0.00     0.251 C 
ATOM     76  H   UNL A   1      35.448  32.916  33.461  1.00  0.00     0.163 HD
ATOM     77  O   UNL A   1      37.034  34.542  34.371  1.00  0.00    -0.269 OA
BRANCH  75  78
ATOM     78  C   UNL A   1      38.207  34.394  32.352  1.00  0.00     0.039 A 
ATOM     79  C   UNL A   1      39.508  34.464  32.844  1.00  0.00     0.014 A 
ATOM     80  C   UNL A   1      37.951  34.607  31.000  1.00  0.00     0.014 A 
ATOM     81  C   UNL A   1      40.569  34.632  31.950  1.00  0.00     0.005 A 
ATOM     82  C   UNL A   1      39.015  34.745  30.111  1.00  0.00     0.005 A 
ATOM     83  C   UNL A   1      40.346  34.705  30.562  1.00  0.00    -0.043 A 
BRANCH  83  84
ATOM     84  C   UNL A   1      41.533  34.757  29.600  1.00  0.00     0.039 C 
ATOM     85  C   UNL A   1      41.225  35.629  28.354  1.00  0.00     0.012 C 
ATOM     86  C   UNL A   1      42.839  35.274  30.243  1.00  0.00     0.128 C 
ATOM     87  C   UNL A   1      42.421  35.719  27.400  1.00  0.00     0.022 C 
ATOM     88  N   UNL A   1      43.930  35.326  29.279  1.00  0.00    -0.338 N 
ATOM     89  C   UNL A   1      43.687  36.176  28.117  1.00  0.00     0.120 C 
BRANCH  88  90
ATOM     90  C   UNL A   1      45.031  34.505  29.482  1.00  0.00     0.253 C 
ATOM     91  O   UNL A   1      46.139  34.910  29.827  1.00  0.00    -0.269 OA
BRANCH  90  92
ATOM     92  C   UNL A   1      44.881  33.056  29.300  1.00  0.00     0.040 A 
ATOM     93  C   UNL A   1      45.518  32.207  30.207  1.00  0.00     0.016 A 
ATOM     94  C   UNL A   1      44.197  32.566  28.180  1.00  0.00     0.024 A 
ATOM     95  C   UNL A   1      45.466  30.823  30.034  1.00  0.00     0.027 A 
ATOM     96  C   UNL A   1      44.156  31.174  27.982  1.00  0.00     0.000 A 
ATOM     97  C   UNL A   1      44.784  30.339  28.910  1.00  0.00     0.045 A 
ATOM     98  C   UNL A   1      43.607  30.337  26.971  1.00  0.00     0.028 A 
ATOM     99  N   UNL A   1      44.601  29.045  28.477  1.00  0.00    -0.361 N 
ATOM    100  C   UNL A   1      43.903  29.033  27.299  1.00  0.00     0.083 A 
ATOM    101  H   UNL A   1      44.925  28.243  28.947  1.00  0.00     0.166 HD
ENDBRANCH  90  92
ENDBRANCH  88  90
ENDBRANCH  83  84
ENDBRANCH  75  78
ENDBRANCH  73  74
ENDBRANCH  72  73
ENDBRANCH   1  72
TORSDOF 17
ENDMDL
MODEL 3
REMARK VINA RESULT:     -12.7      6.096     11.810
REMARK SMILES O=C(NCCCCNC(=O)c1ccc([C@H]2CCCN(C(=O)c3ccc4[nH]ccc4c3)C2)cc1)c1ccc(-c2c3nc(c(-c4cccc(S(=O)(=O)[O-])c4F)c4ccc([nH]4)c(-c4cccc(S(=O)(=O)[O-])c4F)c4nc(c(-c5cccc(S(=O)(=O)[O-])c5F)c5ccc2[nH]5)C=C4)C=C3)cc1
REMARK SMILES IDX 5 1 4 2 3 3 1 4 2 5 34 7 35 8 96 9 36 10 95 11 37 12 38 13
REMARK SMILES IDX 39 14 89 15 40 16 94 17 88 18 90 19 41 20 93 21 87 22 86 23
REMARK SMILES IDX 42 25 74 26 54 27 73 28 55 29 58 30 72 31 91 32 56 33 57 34
REMARK SMILES IDX 71 36 92 37 59 38 43 39 44 40 52 41 45 42 47 43 53 44 46 45
REMARK SMILES IDX 48 46 49 47 50 48 51 49 75 50 76 51 84 52 77 53 79 54 85 55
REMARK SMILES IDX 78 56 80 57 81 58 82 59 83 60 60 61 61 62 69 63 62 64 64 65
REMARK SMILES IDX 70 66 63 67 65 68 66 69 67 70 68 71 6 72 7 73 8 74 9 75
REMARK SMILES IDX 10 77 11 78 12 79 33 80 13 81 32 82 14 83 15 84 16 85 31 86
REMARK SMILES IDX 17 87 19 88 18 89 20 90 21 91 22 92 23 93 30 94 24 95 29 96
REMARK SMILES IDX 25 97 28 98 26 99 27 100
REMARK H PARENT 3 6 90 24 58 35 8 76 26 101
REMARK Flexibility Score: inf
ROOT
ATOM      1  C   UNL A   1      37.330  34.161  33.824  1.00  0.00     0.023 C 
ENDROOT
BRANCH   1   2
ATOM      2  C   UNL A   1      38.047  34.245  35.163  1.00  0.00     0.116 C 
BRANCH   2   3
ATOM      3  N   UNL A   1      37.602  33.238  36.116  1.00  0.00    -0.352 N 
ATOM      4  O   UNL A   1      37.403  31.170  36.998  1.00  0.00    -0.269 OA
ATOM      5  C   UNL A   1      37.984  31.917  36.218  1.00  0.00     0.251 C 
ATOM      6  H   UNL A   1      36.939  33.541  36.777  1.00  0.00     0.163 HD
BRANCH   5   7
ATOM      7  C   UNL A   1      39.071  31.409  35.354  1.00  0.00     0.039 A 
ATOM      8  C   UNL A   1      40.404  31.575  35.734  1.00  0.00     0.014 A 
ATOM      9  C   UNL A   1      38.761  30.808  34.131  1.00  0.00     0.014 A 
ATOM     10  C   UNL A   1      41.416  31.319  34.819  1.00  0.00     0.010 A 
ATOM     11  C   UNL A   1      39.791  30.444  33.255  1.00  0.00     0.010 A 
ATOM     12  C   UNL A   1      41.126  30.735  33.573  1.00  0.00    -0.014 A 
BRANCH  12  13
ATOM     13  C   UNL A   1      42.255  30.382  32.671  1.00  0.00     0.031 A 
ATOM     14  C   UNL A   1      42.971  29.063  32.774  1.00  0.00     0.074 A 
ATOM     15  C   UNL A   1      42.605  31.268  31.718  1.00  0.00     0.049 A 
ATOM     16  N   UNL A   1      43.932  28.592  32.020  1.00  0.00    -0.248 NA
ATOM     17  C   UNL A   1      42.571  28.155  33.861  1.00  0.00     0.031 C 
ATOM     18  C   UNL A   1      42.018  32.601  31.553  1.00  0.00     0.029 A 
ATOM     19  N   UNL A   1      43.524  31.185  30.704  1.00  0.00    -0.354 N 
ATOM     20  C   UNL A   1      44.272  27.353  32.552  1.00  0.00     0.074 A 
ATOM     21  C   UNL A   1      43.424  27.150  33.707  1.00  0.00     0.031 C 
ATOM     22  C   UNL A   1      42.562  33.195  30.485  1.00  0.00     0.029 A 
ATOM     23  C   UNL A   1      43.578  32.315  29.921  1.00  0.00     0.049 A 
ATOM     24  H   UNL A   1      44.091  30.395  30.551  1.00  0.00     0.167 HD
ATOM     25  C   UNL A   1      45.188  26.460  32.106  1.00  0.00     0.034 A 
ATOM     26  C   UNL A   1      44.369  32.623  28.876  1.00  0.00     0.034 A 
ATOM     27  C   UNL A   1      46.011  26.657  30.940  1.00  0.00     0.049 A 
ATOM     28  C   UNL A   1      45.354  31.601  28.390  1.00  0.00     0.074 A 
ATOM     29  C   UNL A   1      46.946  25.796  30.390  1.00  0.00     0.029 A 
ATOM     30  N   UNL A   1      46.001  27.793  30.144  1.00  0.00    -0.354 N 
ATOM     31  N   UNL A   1      45.575  30.391  28.842  1.00  0.00    -0.248 NA
ATOM     32  C   UNL A   1      46.176  31.974  27.232  1.00  0.00     0.031 C 
ATOM     33  C   UNL A   1      47.511  26.418  29.270  1.00  0.00     0.029 A 
ATOM     34  C   UNL A   1      46.911  27.656  29.108  1.00  0.00     0.049 A 
ATOM     35  H   UNL A   1      45.431  28.581  30.293  1.00  0.00     0.167 HD
ATOM     36  C   UNL A   1      46.548  29.850  28.012  1.00  0.00     0.074 A 
ATOM     37  C   UNL A   1      46.843  30.851  27.007  1.00  0.00     0.031 C 
ATOM     38  C   UNL A   1      47.162  28.643  28.089  1.00  0.00     0.034 A 
BRANCH  25  39
ATOM     39  C   UNL A   1      45.322  25.153  32.850  1.00  0.00     0.023 A 
ATOM     40  C   UNL A   1      44.404  24.115  32.592  1.00  0.00     0.012 A 
ATOM     41  C   UNL A   1      46.395  24.919  33.732  1.00  0.00     0.148 A 
ATOM     42  C   UNL A   1      44.534  22.876  33.218  1.00  0.00     0.002 A 
ATOM     43  C   UNL A   1      46.542  23.668  34.323  1.00  0.00     0.091 A 
ATOM     44  F   UNL A   1      47.251  25.921  33.978  1.00  0.00    -0.205 F 
ATOM     45  C   UNL A   1      45.608  22.649  34.074  1.00  0.00     0.022 A 
BRANCH  43  46
ATOM     46  S   UNL A   1      47.933  23.248  35.382  1.00  0.00     0.127 S 
ATOM     47  O   UNL A   1      47.724  24.150  36.513  1.00  0.00    -0.237 OA
ATOM     48  O   UNL A   1      47.681  21.836  35.675  1.00  0.00    -0.237 OA
ATOM     49  O   UNL A   1      49.130  23.500  34.593  1.00  0.00    -0.744 OA
ENDBRANCH  43  46
ENDBRANCH  25  39
BRANCH  26  50
ATOM     50  C   UNL A   1      44.232  33.947  28.210  1.00  0.00     0.023 A 
ATOM     51  C   UNL A   1      43.405  34.082  27.080  1.00  0.00     0.012 A 
ATOM     52  C   UNL A   1      44.887  35.086  28.721  1.00  0.00     0.148 A 
ATOM     53  C   UNL A   1      43.260  35.318  26.450  1.00  0.00     0.002 A 
ATOM     54  C   UNL A   1      44.686  36.325  28.129  1.00  0.00     0.091 A 
ATOM     55  F   UNL A   1      45.684  34.936  29.789  1.00  0.00    -0.205 F 
ATOM     56  C   UNL A   1      43.889  36.442  26.982  1.00  0.00     0.022 A 
BRANCH  54  57
ATOM     57  S   UNL A   1      45.336  37.836  28.850  1.00  0.00     0.127 S 
ATOM     58  O   UNL A   1      44.755  38.857  27.982  1.00  0.00    -0.237 OA
ATOM     59  O   UNL A   1      44.783  37.791  30.205  1.00  0.00    -0.237 OA
ATOM     60  O   UNL A   1      46.785  37.697  28.796  1.00  0.00    -0.744 OA
ENDBRANCH  54  57
ENDBRANCH  26  50
BRANCH  38  61
ATOM     61  C   UNL A   1      48.197  28.331  27.042  1.00  0.00     0.023 A 
ATOM     62  C   UNL A   1      49.565  28.476  27.347  1.00  0.00     0.012 A 
ATOM     63  C   UNL A   1      47.818  27.861  25.769  1.00  0.00     0.148 A 
ATOM     64  C   UNL A   1      50.540  28.198  26.391  1.00  0.00     0.002 A 
ATOM     65  C   UNL A   1      48.797  27.538  24.837  1.00  0.00     0.091 A 
ATOM     66  F   UNL A   1      46.512  27.751  25.490  1.00  0.00    -0.205 F 
ATOM     67  C   UNL A   1      50.156  27.719  25.140  1.00  0.00     0.022 A 
BRANCH  65  68
ATOM     68  S   UNL A   1      48.398  26.833  23.234  1.00  0.00     0.127 S 
ATOM     69  O   UNL A   1      47.407  27.781  22.729  1.00  0.00    -0.237 OA
ATOM     70  O   UNL A   1      49.689  26.877  22.545  1.00  0.00    -0.237 OA
ATOM     71  O   UNL A   1      47.903  25.489  23.501  1.00  0.00    -0.744 OA
ENDBRANCH  65  68
ENDBRANCH  38  61
ENDBRANCH  12  13
ENDBRANCH   5   7
ENDBRANCH   2   3
ENDBRANCH   1   2
BRANCH   1  72
ATOM     72  C   UNL A   1      35.885  33.685  33.896  1.00  0.00     0.023 C 
BRANCH  72  73
ATOM     73  C   UNL A   1      35.420  32.855  32.705  1.00  0.00     0.116 C 
BRANCH  73  74
ATOM     74  N   UNL A   1      35.391  33.613  31.462  1.00  0.00    -0.352 N 
ATOM     75  C   UNL A   1      36.111  33.402  30.308  1.00  0.00     0.251 C 
ATOM     76  H   UNL A   1      34.773  34.379  31.444  1.00  0.00     0.163 HD
ATOM     77  O   UNL A   1      36.082  34.200  29.384  1.00  0.00    -0.269 OA
BRANCH  75  78
ATOM     78  C   UNL A   1      36.959  32.199  30.220  1.00  0.00     0.039 A 
ATOM     79  C   UNL A   1      36.356  30.946  30.162  1.00  0.00     0.014 A 
ATOM     80  C   UNL A   1      38.344  32.322  30.132  1.00  0.00     0.014 A 
ATOM     81  C   UNL A   1      37.141  29.821  29.894  1.00  0.00     0.005 A 
ATOM     82  C   UNL A   1      39.117  31.201  29.838  1.00  0.00     0.005 A 
ATOM     83  C   UNL A   1      38.525  29.939  29.659  1.00  0.00    -0.043 A 
BRANCH  83  84
ATOM     84  C   UNL A   1      39.335  28.712  29.240  1.00  0.00     0.039 C 
ATOM     85  C   UNL A   1      38.468  27.689  28.460  1.00  0.00     0.012 C 
ATOM     86  C   UNL A   1      40.579  29.045  28.386  1.00  0.00     0.128 C 
ATOM     87  C   UNL A   1      39.278  26.472  28.002  1.00  0.00     0.022 C 
ATOM     88  N   UNL A   1      41.300  27.841  27.994  1.00  0.00    -0.338 N 
ATOM     89  C   UNL A   1      40.522  26.880  27.219  1.00  0.00     0.120 C 
BRANCH  88  90
ATOM     90  C   UNL A   1      42.593  27.662  28.467  1.00  0.00     0.253 C 
ATOM     91  O   UNL A   1      43.224  28.513  29.091  1.00  0.00    -0.269 OA
BRANCH  90  92
ATOM     92  C   UNL A   1      43.263  26.376  28.238  1.00  0.00     0.040 A 
ATOM     93  C   UNL A   1      43.068  25.354  29.169  1.00  0.00     0.016 A 
ATOM     94  C   UNL A   1      44.149  26.239  27.161  1.00  0.00     0.024 A 
ATOM     95  C   UNL A   1      43.741  24.139  29.034  1.00  0.00     0.027 A 
ATOM     96  C   UNL A   1      44.850  25.027  27.027  1.00  0.00     0.000 A 
ATOM     97  C   UNL A   1      44.628  24.009  27.958  1.00  0.00     0.045 A 
ATOM     98  C   UNL A   1      45.830  24.551  26.112  1.00  0.00     0.028 A 
ATOM     99  N   UNL A   1      45.436  22.953  27.602  1.00  0.00    -0.361 N 
ATOM    100  C   UNL A   1      46.178  23.275  26.496  1.00  0.00     0.083 A 
ATOM    101  H   UNL A   1      45.476  22.090  28.074  1.00  0.00     0.166 HD
ENDBRANCH  90  92
ENDBRANCH  88  90
ENDBRANCH  83  84
ENDBRANCH  75  78
ENDBRANCH  73  74
ENDBRANCH  72  73
ENDBRANCH   1  72
TORSDOF 17
ENDMDL
