MODEL 1
REMARK VINA RESULT:     -11.7      0.000      0.000
REMARK SMILES COC(=O)C[C@H](NC(=O)N[C@@H]1CCCCC1(C)C)C(=O)NCCCCNC(=O)c1ccc(-c2c3nc(c(-c4cccc(S(=O)(=O)[O-])c4F)c4ccc([nH]4)c(-c4cccc(S(=O)(=O)[O-])c4F)c4nc(c(-c5cccc(S(=O)(=O)[O-])c5F)c5ccc2[nH]5)C=C4)C=C3)cc1
REMARK SMILES IDX 23 1 22 2 21 3 19 4 20 5 6 7 5 8 3 9 4 10 2 11 1 12 7 13
REMARK SMILES IDX 8 14 9 16 10 17 11 19 12 20 16 21 13 22 15 23 17 24 18 25
REMARK SMILES IDX 14 26 24 27 25 28 26 29 27 30 28 32 29 33 30 34 91 35 31 36
REMARK SMILES IDX 90 37 32 38 33 39 34 40 84 41 35 42 89 43 83 44 85 45 36 46
REMARK SMILES IDX 88 47 82 48 81 49 37 51 69 52 49 53 68 54 50 55 53 56 67 57
REMARK SMILES IDX 86 58 51 59 52 60 66 62 87 63 54 64 38 65 39 66 47 67 40 68
REMARK SMILES IDX 42 69 48 70 41 71 43 72 44 73 45 74 46 75 70 76 71 77 79 78
REMARK SMILES IDX 72 79 74 80 80 81 73 82 75 83 76 84 77 85 78 86 55 87 56 88
REMARK SMILES IDX 64 89 57 90 59 91 65 92 58 93 60 94 61 95 62 96 63 97
REMARK H PARENT 21 6 7 15 10 18 26 31 85 50 53 61
REMARK Flexibility Score: inf
ROOT
ATOM      1  C   UNL A   1      31.041  29.795  24.690  1.00  0.00     0.023 C 
ENDROOT
BRANCH   1   2
ATOM      2  C   UNL A   1      31.043  28.954  23.421  1.00  0.00     0.116 C 
BRANCH   2   3
ATOM      3  N   UNL A   1      32.375  28.691  22.932  1.00  0.00    -0.354 N 
ATOM      4  C   UNL A   1      32.917  27.531  22.468  1.00  0.00     0.243 C 
ATOM      5  O   UNL A   1      33.961  27.624  21.814  1.00  0.00    -0.273 OA
ATOM      6  H   UNL A   1      32.982  29.466  22.934  1.00  0.00     0.163 HD
BRANCH   4   7
ATOM      7  C   UNL A   1      32.179  26.177  22.598  1.00  0.00     0.184 C 
BRANCH   7   8
ATOM      8  C   UNL A   1      31.992  25.865  24.088  1.00  0.00     0.157 C 
BRANCH   8   9
ATOM      9  C   UNL A   1      30.763  25.028  24.316  1.00  0.00     0.308 C 
ATOM     10  O   UNL A   1      30.170  24.434  23.426  1.00  0.00    -0.252 OA
BRANCH   9  11
ATOM     11  O   UNL A   1      30.413  25.024  25.631  1.00  0.00    -0.469 OA
ATOM     12  C   UNL A   1      31.491  24.828  26.553  1.00  0.00     0.282 C 
ENDBRANCH   9  11
ENDBRANCH   8   9
ENDBRANCH   7   8
BRANCH   7  13
ATOM     13  N   UNL A   1      32.847  25.088  21.849  1.00  0.00    -0.326 N 
ATOM     14  C   UNL A   1      33.302  23.857  22.024  1.00  0.00     0.315 C 
ATOM     15  H   UNL A   1      33.003  25.372  20.920  1.00  0.00     0.166 HD
ATOM     16  O   UNL A   1      33.426  23.217  20.968  1.00  0.00    -0.249 OA
ATOM     17  N   UNL A   1      33.637  23.179  23.111  1.00  0.00    -0.335 N 
ATOM     18  H   UNL A   1      33.516  22.228  22.890  1.00  0.00     0.165 HD
BRANCH  17  19
ATOM     19  C   UNL A   1      34.118  23.224  24.530  1.00  0.00     0.089 C 
ATOM     20  C   UNL A   1      35.508  23.902  24.540  1.00  0.00     0.025 C 
ATOM     21  C   UNL A   1      34.156  21.923  25.347  1.00  0.00    -0.015 C 
ATOM     22  C   UNL A   1      36.589  22.998  23.947  1.00  0.00     0.002 C 
ATOM     23  C   UNL A   1      35.202  21.011  24.668  1.00  0.00     0.008 C 
ATOM     24  C   UNL A   1      34.592  22.112  26.824  1.00  0.00     0.013 C 
ATOM     25  C   UNL A   1      32.712  21.404  25.480  1.00  0.00     0.013 C 
ATOM     26  C   UNL A   1      36.609  21.608  24.584  1.00  0.00     0.001 C 
ENDBRANCH  17  19
ENDBRANCH   7  13
ENDBRANCH   4   7
ENDBRANCH   2   3
ENDBRANCH   1   2
BRANCH   1  27
ATOM     27  C   UNL A   1      31.800  29.185  25.872  1.00  0.00     0.023 C 
BRANCH  27  28
ATOM     28  C   UNL A   1      33.103  29.880  26.254  1.00  0.00     0.116 C 
BRANCH  28  29
ATOM     29  N   UNL A   1      32.918  31.229  26.766  1.00  0.00    -0.352 N 
ATOM     30  C   UNL A   1      33.743  31.977  27.570  1.00  0.00     0.251 C 
ATOM     31  H   UNL A   1      32.079  31.671  26.497  1.00  0.00     0.163 HD
ATOM     32  O   UNL A   1      33.403  33.097  27.920  1.00  0.00    -0.269 OA
BRANCH  30  33
ATOM     33  C   UNL A   1      35.010  31.392  28.051  1.00  0.00     0.039 A 
ATOM     34  C   UNL A   1      36.143  32.209  28.060  1.00  0.00     0.014 A 
ATOM     35  C   UNL A   1      35.078  30.079  28.523  1.00  0.00     0.014 A 
ATOM     36  C   UNL A   1      37.333  31.725  28.600  1.00  0.00     0.010 A 
ATOM     37  C   UNL A   1      36.249  29.622  29.124  1.00  0.00     0.010 A 
ATOM     38  C   UNL A   1      37.387  30.440  29.168  1.00  0.00    -0.014 A 
BRANCH  38  39
ATOM     39  C   UNL A   1      38.627  29.973  29.833  1.00  0.00     0.031 A 
ATOM     40  C   UNL A   1      39.010  30.487  31.191  1.00  0.00     0.074 A 
ATOM     41  C   UNL A   1      39.428  29.105  29.183  1.00  0.00     0.049 A 
ATOM     42  N   UNL A   1      40.025  30.145  31.942  1.00  0.00    -0.248 NA
ATOM     43  C   UNL A   1      38.160  31.537  31.776  1.00  0.00     0.031 C 
ATOM     44  C   UNL A   1      39.216  28.617  27.818  1.00  0.00     0.029 A 
ATOM     45  N   UNL A   1      40.587  28.487  29.579  1.00  0.00    -0.354 N 
ATOM     46  C   UNL A   1      39.944  30.942  33.078  1.00  0.00     0.074 A 
ATOM     47  C   UNL A   1      38.810  31.820  32.896  1.00  0.00     0.031 C 
ATOM     48  C   UNL A   1      40.203  27.768  27.495  1.00  0.00     0.029 A 
ATOM     49  C   UNL A   1      41.124  27.658  28.622  1.00  0.00     0.049 A 
ATOM     50  H   UNL A   1      40.996  28.625  30.463  1.00  0.00     0.167 HD
ATOM     51  C   UNL A   1      40.719  30.915  34.187  1.00  0.00     0.034 A 
ATOM     52  C   UNL A   1      42.229  26.888  28.653  1.00  0.00     0.034 A 
ATOM     53  C   UNL A   1      41.828  30.018  34.373  1.00  0.00     0.049 A 
ATOM     54  C   UNL A   1      43.031  26.828  29.924  1.00  0.00     0.074 A 
ATOM     55  C   UNL A   1      42.635  29.863  35.485  1.00  0.00     0.029 A 
ATOM     56  N   UNL A   1      42.286  29.120  33.419  1.00  0.00    -0.354 N 
ATOM     57  N   UNL A   1      42.837  27.464  31.055  1.00  0.00    -0.248 NA
ATOM     58  C   UNL A   1      44.177  25.908  29.943  1.00  0.00     0.031 C 
ATOM     59  C   UNL A   1      43.590  28.881  35.200  1.00  0.00     0.029 A 
ATOM     60  C   UNL A   1      43.364  28.409  33.917  1.00  0.00     0.049 A 
ATOM     61  H   UNL A   1      41.901  29.006  32.521  1.00  0.00     0.167 HD
ATOM     62  C   UNL A   1      43.818  27.005  31.925  1.00  0.00     0.074 A 
ATOM     63  C   UNL A   1      44.581  26.007  31.201  1.00  0.00     0.031 C 
ATOM     64  C   UNL A   1      44.083  27.390  33.197  1.00  0.00     0.034 A 
BRANCH  51  65
ATOM     65  C   UNL A   1      40.348  31.837  35.320  1.00  0.00     0.023 A 
ATOM     66  C   UNL A   1      41.049  33.051  35.474  1.00  0.00     0.012 A 
ATOM     67  C   UNL A   1      39.277  31.543  36.186  1.00  0.00     0.148 A 
ATOM     68  C   UNL A   1      40.712  33.945  36.490  1.00  0.00     0.002 A 
ATOM     69  C   UNL A   1      38.919  32.459  37.170  1.00  0.00     0.091 A 
ATOM     70  F   UNL A   1      38.635  30.376  36.037  1.00  0.00    -0.205 F 
ATOM     71  C   UNL A   1      39.642  33.653  37.329  1.00  0.00     0.022 A 
BRANCH  69  72
ATOM     72  S   UNL A   1      37.510  32.218  38.258  1.00  0.00     0.127 S 
ATOM     73  O   UNL A   1      36.502  33.070  37.629  1.00  0.00    -0.237 OA
ATOM     74  O   UNL A   1      37.264  30.782  38.126  1.00  0.00    -0.237 OA
ATOM     75  O   UNL A   1      37.945  32.643  39.581  1.00  0.00    -0.744 OA
ENDBRANCH  69  72
ENDBRANCH  51  65
BRANCH  52  76
ATOM     76  C   UNL A   1      42.595  26.057  27.471  1.00  0.00     0.023 A 
ATOM     77  C   UNL A   1      43.386  26.610  26.446  1.00  0.00     0.012 A 
ATOM     78  C   UNL A   1      42.182  24.715  27.369  1.00  0.00     0.148 A 
ATOM     79  C   UNL A   1      43.726  25.855  25.323  1.00  0.00     0.002 A 
ATOM     80  C   UNL A   1      42.573  23.950  26.276  1.00  0.00     0.091 A 
ATOM     81  F   UNL A   1      41.417  24.208  28.347  1.00  0.00    -0.205 F 
ATOM     82  C   UNL A   1      43.329  24.524  25.243  1.00  0.00     0.022 A 
BRANCH  80  83
ATOM     83  S   UNL A   1      42.221  22.192  26.169  1.00  0.00     0.127 S 
ATOM     84  O   UNL A   1      42.712  21.709  27.455  1.00  0.00    -0.237 OA
ATOM     85  O   UNL A   1      40.765  22.179  26.019  1.00  0.00    -0.237 OA
ATOM     86  O   UNL A   1      42.944  21.726  24.993  1.00  0.00    -0.744 OA
ENDBRANCH  80  83
ENDBRANCH  52  76
BRANCH  64  87
ATOM     87  C   UNL A   1      45.240  26.720  33.891  1.00  0.00     0.023 A 
ATOM     88  C   UNL A   1      46.532  27.273  33.781  1.00  0.00     0.012 A 
ATOM     89  C   UNL A   1      45.045  25.572  34.683  1.00  0.00     0.148 A 
ATOM     90  C   UNL A   1      47.619  26.668  34.412  1.00  0.00     0.002 A 
ATOM     91  C   UNL A   1      46.124  25.003  35.348  1.00  0.00     0.091 A 
ATOM     92  F   UNL A   1      43.813  25.048  34.761  1.00  0.00    -0.205 F 
ATOM     93  C   UNL A   1      47.413  25.541  35.202  1.00  0.00     0.022 A 
BRANCH  91  94
ATOM     94  S   UNL A   1      45.932  23.606  36.461  1.00  0.00     0.127 S 
ATOM     95  O   UNL A   1      44.930  24.107  37.399  1.00  0.00    -0.237 OA
ATOM     96  O   UNL A   1      45.455  22.553  35.563  1.00  0.00    -0.237 OA
ATOM     97  O   UNL A   1      47.255  23.362  37.021  1.00  0.00    -0.744 OA
ENDBRANCH  91  94
ENDBRANCH  64  87
ENDBRANCH  38  39
ENDBRANCH  30  33
ENDBRANCH  28  29
ENDBRANCH  27  28
ENDBRANCH   1  27
TORSDOF 19
ENDMDL
MODEL 2
REMARK VINA RESULT:     -11.6      2.516      8.297
REMARK SMILES COC(=O)C[C@H](NC(=O)N[C@@H]1CCCCC1(C)C)C(=O)NCCCCNC(=O)c1ccc(-c2c3nc(c(-c4cccc(S(=O)(=O)[O-])c4F)c4ccc([nH]4)c(-c4cccc(S(=O)(=O)[O-])c4F)c4nc(c(-c5cccc(S(=O)(=O)[O-])c5F)c5ccc2[nH]5)C=C4)C=C3)cc1
REMARK SMILES IDX 23 1 22 2 21 3 19 4 20 5 6 7 5 8 3 9 4 10 2 11 1 12 7 13
REMARK SMILES IDX 8 14 9 16 10 17 11 19 12 20 16 21 13 22 15 23 17 24 18 25
REMARK SMILES IDX 14 26 24 27 25 28 26 29 27 30 28 32 29 33 30 34 91 35 31 36
REMARK SMILES IDX 90 37 32 38 33 39 34 40 84 41 35 42 89 43 83 44 85 45 36 46
REMARK SMILES IDX 88 47 82 48 81 49 37 51 69 52 49 53 68 54 50 55 53 56 67 57
REMARK SMILES IDX 86 58 51 59 52 60 66 62 87 63 54 64 38 65 39 66 47 67 40 68
REMARK SMILES IDX 42 69 48 70 41 71 43 72 44 73 45 74 46 75 70 76 71 77 79 78
REMARK SMILES IDX 72 79 74 80 80 81 73 82 75 83 76 84 77 85 78 86 55 87 56 88
REMARK SMILES IDX 64 89 57 90 59 91 65 92 58 93 60 94 61 95 62 96 63 97
REMARK H PARENT 21 6 7 15 10 18 26 31 85 50 53 61
REMARK Flexibility Score: inf
ROOT
ATOM      1  C   UNL A   1      34.595  30.801  27.724  1.00  0.00     0.023 C 
ENDROOT
BRANCH   1   2
ATOM      2  C   UNL A   1      34.124  29.434  27.246  1.00  0.00     0.116 C 
BRANCH   2   3
ATOM      3  N   UNL A   1      32.728  29.198  27.527  1.00  0.00    -0.354 N 
ATOM      4  C   UNL A   1      31.986  28.068  27.359  1.00  0.00     0.243 C 
ATOM      5  O   UNL A   1      30.910  28.012  27.962  1.00  0.00    -0.273 OA
ATOM      6  H   UNL A   1      32.239  29.970  27.895  1.00  0.00     0.163 HD
BRANCH   4   7
ATOM      7  C   UNL A   1      32.535  26.839  26.596  1.00  0.00     0.184 C 
BRANCH   7   8
ATOM      8  C   UNL A   1      32.715  27.222  25.122  1.00  0.00     0.157 C 
BRANCH   8   9
ATOM      9  C   UNL A   1      31.397  27.574  24.488  1.00  0.00     0.308 C 
ATOM     10  O   UNL A   1      30.357  26.964  24.700  1.00  0.00    -0.252 OA
BRANCH   9  11
ATOM     11  O   UNL A   1      31.523  28.649  23.664  1.00  0.00    -0.469 OA
ATOM     12  C   UNL A   1      32.868  29.043  23.370  1.00  0.00     0.282 C 
ENDBRANCH   9  11
ENDBRANCH   8   9
ENDBRANCH   7   8
BRANCH   7  13
ATOM     13  N   UNL A   1      31.705  25.629  26.791  1.00  0.00    -0.326 N 
ATOM     14  C   UNL A   1      31.755  24.316  26.621  1.00  0.00     0.315 C 
ATOM     15  H   UNL A   1      30.833  25.882  27.171  1.00  0.00     0.166 HD
ATOM     16  O   UNL A   1      30.936  23.693  27.315  1.00  0.00    -0.249 OA
ATOM     17  N   UNL A   1      32.520  23.547  25.864  1.00  0.00    -0.335 N 
ATOM     18  H   UNL A   1      32.554  22.669  26.308  1.00  0.00     0.165 HD
BRANCH  17  19
ATOM     19  C   UNL A   1      33.359  23.425  24.627  1.00  0.00     0.089 C 
ATOM     20  C   UNL A   1      32.648  22.443  23.665  1.00  0.00     0.025 C 
ATOM     21  C   UNL A   1      34.843  23.051  24.765  1.00  0.00    -0.015 C 
ATOM     22  C   UNL A   1      32.732  20.999  24.158  1.00  0.00     0.002 C 
ATOM     23  C   UNL A   1      34.882  21.616  25.339  1.00  0.00     0.008 C 
ATOM     24  C   UNL A   1      35.624  23.037  23.424  1.00  0.00     0.013 C 
ATOM     25  C   UNL A   1      35.543  24.171  25.556  1.00  0.00     0.013 C 
ATOM     26  C   UNL A   1      34.164  20.569  24.482  1.00  0.00     0.001 C 
ENDBRANCH  17  19
ENDBRANCH   7  13
ENDBRANCH   4   7
ENDBRANCH   2   3
ENDBRANCH   1   2
BRANCH   1  27
ATOM     27  C   UNL A   1      33.476  31.798  28.036  1.00  0.00     0.023 C 
BRANCH  27  28
ATOM     28  C   UNL A   1      33.328  32.958  27.055  1.00  0.00     0.116 C 
BRANCH  28  29
ATOM     29  N   UNL A   1      32.767  34.161  27.654  1.00  0.00    -0.352 N 
ATOM     30  C   UNL A   1      33.177  34.851  28.768  1.00  0.00     0.251 C 
ATOM     31  H   UNL A   1      31.980  34.534  27.194  1.00  0.00     0.163 HD
ATOM     32  O   UNL A   1      32.559  35.838  29.136  1.00  0.00    -0.269 OA
BRANCH  30  33
ATOM     33  C   UNL A   1      34.330  34.354  29.546  1.00  0.00     0.039 A 
ATOM     34  C   UNL A   1      34.073  33.718  30.761  1.00  0.00     0.014 A 
ATOM     35  C   UNL A   1      35.639  34.475  29.071  1.00  0.00     0.014 A 
ATOM     36  C   UNL A   1      35.125  33.149  31.474  1.00  0.00     0.010 A 
ATOM     37  C   UNL A   1      36.679  33.845  29.750  1.00  0.00     0.010 A 
ATOM     38  C   UNL A   1      36.432  33.177  30.958  1.00  0.00    -0.014 A 
BRANCH  38  39
ATOM     39  C   UNL A   1      37.529  32.478  31.672  1.00  0.00     0.031 A 
ATOM     40  C   UNL A   1      38.244  31.320  31.034  1.00  0.00     0.074 A 
ATOM     41  C   UNL A   1      37.851  32.874  32.919  1.00  0.00     0.049 A 
ATOM     42  N   UNL A   1      39.260  30.634  31.488  1.00  0.00    -0.248 NA
ATOM     43  C   UNL A   1      37.742  30.857  29.731  1.00  0.00     0.031 C 
ATOM     44  C   UNL A   1      37.158  33.915  33.682  1.00  0.00     0.029 A 
ATOM     45  N   UNL A   1      38.837  32.441  33.769  1.00  0.00    -0.354 N 
ATOM     46  C   UNL A   1      39.512  29.653  30.537  1.00  0.00     0.074 A 
ATOM     47  C   UNL A   1      38.511  29.801  29.503  1.00  0.00     0.031 C 
ATOM     48  C   UNL A   1      37.746  34.048  34.881  1.00  0.00     0.029 A 
ATOM     49  C   UNL A   1      38.849  33.098  34.978  1.00  0.00     0.049 A 
ATOM     50  H   UNL A   1      39.474  31.728  33.537  1.00  0.00     0.167 HD
ATOM     51  C   UNL A   1      40.510  28.739  30.507  1.00  0.00     0.034 A 
ATOM     52  C   UNL A   1      39.665  32.956  36.041  1.00  0.00     0.034 A 
ATOM     53  C   UNL A   1      41.520  28.617  31.524  1.00  0.00     0.049 A 
ATOM     54  C   UNL A   1      40.806  31.981  35.950  1.00  0.00     0.074 A 
ATOM     55  C   UNL A   1      42.613  27.770  31.557  1.00  0.00     0.029 A 
ATOM     56  N   UNL A   1      41.560  29.365  32.691  1.00  0.00    -0.354 N 
ATOM     57  N   UNL A   1      41.132  31.180  34.964  1.00  0.00    -0.248 NA
ATOM     58  C   UNL A   1      41.722  31.923  37.098  1.00  0.00     0.031 C 
ATOM     59  C   UNL A   1      43.308  27.998  32.750  1.00  0.00     0.029 A 
ATOM     60  C   UNL A   1      42.658  29.001  33.451  1.00  0.00     0.049 A 
ATOM     61  H   UNL A   1      40.903  30.055  32.943  1.00  0.00     0.167 HD
ATOM     62  C   UNL A   1      42.300  30.541  35.361  1.00  0.00     0.074 A 
ATOM     63  C   UNL A   1      42.647  31.080  36.661  1.00  0.00     0.031 C 
ATOM     64  C   UNL A   1      43.010  29.579  34.723  1.00  0.00     0.034 A 
BRANCH  51  65
ATOM     65  C   UNL A   1      40.603  27.846  29.297  1.00  0.00     0.023 A 
ATOM     66  C   UNL A   1      39.746  26.729  29.202  1.00  0.00     0.012 A 
ATOM     67  C   UNL A   1      41.479  28.137  28.233  1.00  0.00     0.148 A 
ATOM     68  C   UNL A   1      39.779  25.899  28.082  1.00  0.00     0.002 A 
ATOM     69  C   UNL A   1      41.476  27.329  27.101  1.00  0.00     0.091 A 
ATOM     70  F   UNL A   1      42.299  29.190  28.351  1.00  0.00    -0.205 F 
ATOM     71  C   UNL A   1      40.636  26.205  27.029  1.00  0.00     0.022 A 
BRANCH  69  72
ATOM     72  S   UNL A   1      42.486  27.675  25.656  1.00  0.00     0.127 S 
ATOM     73  O   UNL A   1      43.823  27.756  26.243  1.00  0.00    -0.237 OA
ATOM     74  O   UNL A   1      42.254  26.490  24.830  1.00  0.00    -0.237 OA
ATOM     75  O   UNL A   1      41.976  28.919  25.096  1.00  0.00    -0.744 OA
ENDBRANCH  69  72
ENDBRANCH  51  65
BRANCH  52  76
ATOM     76  C   UNL A   1      39.476  33.812  37.247  1.00  0.00     0.023 A 
ATOM     77  C   UNL A   1      39.953  35.136  37.245  1.00  0.00     0.012 A 
ATOM     78  C   UNL A   1      38.805  33.327  38.386  1.00  0.00     0.148 A 
ATOM     79  C   UNL A   1      39.802  35.949  38.369  1.00  0.00     0.002 A 
ATOM     80  C   UNL A   1      38.605  34.160  39.480  1.00  0.00     0.091 A 
ATOM     81  F   UNL A   1      38.369  32.058  38.376  1.00  0.00    -0.205 F 
ATOM     82  C   UNL A   1      39.119  35.466  39.481  1.00  0.00     0.022 A 
BRANCH  80  83
ATOM     83  S   UNL A   1      37.615  33.657  40.892  1.00  0.00     0.127 S 
ATOM     84  O   UNL A   1      36.415  33.136  40.247  1.00  0.00    -0.237 OA
ATOM     85  O   UNL A   1      38.467  32.646  41.520  1.00  0.00    -0.237 OA
ATOM     86  O   UNL A   1      37.439  34.865  41.689  1.00  0.00    -0.744 OA
ENDBRANCH  80  83
ENDBRANCH  52  76
BRANCH  64  87
ATOM     87  C   UNL A   1      44.240  29.056  35.418  1.00  0.00     0.023 A 
ATOM     88  C   UNL A   1      45.478  29.699  35.219  1.00  0.00     0.012 A 
ATOM     89  C   UNL A   1      44.164  27.960  36.299  1.00  0.00     0.148 A 
ATOM     90  C   UNL A   1      46.631  29.231  35.848  1.00  0.00     0.002 A 
ATOM     91  C   UNL A   1      45.308  27.529  36.961  1.00  0.00     0.091 A 
ATOM     92  F   UNL A   1      42.983  27.347  36.462  1.00  0.00    -0.205 F 
ATOM     93  C   UNL A   1      46.544  28.154  36.725  1.00  0.00     0.022 A 
BRANCH  91  94
ATOM     94  S   UNL A   1      45.267  26.209  38.178  1.00  0.00     0.127 S 
ATOM     95  O   UNL A   1      46.658  26.175  38.629  1.00  0.00    -0.237 OA
ATOM     96  O   UNL A   1      44.319  26.723  39.167  1.00  0.00    -0.237 OA
ATOM     97  O   UNL A   1      44.807  25.026  37.464  1.00  0.00    -0.744 OA
ENDBRANCH  91  94
ENDBRANCH  64  87
ENDBRANCH  38  39
ENDBRANCH  30  33
ENDBRANCH  28  29
ENDBRANCH  27  28
ENDBRANCH   1  27
TORSDOF 19
ENDMDL
MODEL 3
REMARK VINA RESULT:     -11.6      4.967      9.983
REMARK SMILES COC(=O)C[C@H](NC(=O)N[C@@H]1CCCCC1(C)C)C(=O)NCCCCNC(=O)c1ccc(-c2c3nc(c(-c4cccc(S(=O)(=O)[O-])c4F)c4ccc([nH]4)c(-c4cccc(S(=O)(=O)[O-])c4F)c4nc(c(-c5cccc(S(=O)(=O)[O-])c5F)c5ccc2[nH]5)C=C4)C=C3)cc1
REMARK SMILES IDX 23 1 22 2 21 3 19 4 20 5 6 7 5 8 3 9 4 10 2 11 1 12 7 13
REMARK SMILES IDX 8 14 9 16 10 17 11 19 12 20 16 21 13 22 15 23 17 24 18 25
REMARK SMILES IDX 14 26 24 27 25 28 26 29 27 30 28 32 29 33 30 34 91 35 31 36
REMARK SMILES IDX 90 37 32 38 33 39 34 40 84 41 35 42 89 43 83 44 85 45 36 46
REMARK SMILES IDX 88 47 82 48 81 49 37 51 69 52 49 53 68 54 50 55 53 56 67 57
REMARK SMILES IDX 86 58 51 59 52 60 66 62 87 63 54 64 38 65 39 66 47 67 40 68
REMARK SMILES IDX 42 69 48 70 41 71 43 72 44 73 45 74 46 75 70 76 71 77 79 78
REMARK SMILES IDX 72 79 74 80 80 81 73 82 75 83 76 84 77 85 78 86 55 87 56 88
REMARK SMILES IDX 64 89 57 90 59 91 65 92 58 93 60 94 61 95 62 96 63 97
REMARK H PARENT 21 6 7 15 10 18 26 31 85 50 53 61
REMARK Flexibility Score: inf
ROOT
ATOM      1  C   UNL A   1      35.223  22.723  23.379  1.00  0.00     0.023 C 
ENDROOT
BRANCH   1   2
ATOM      2  C   UNL A   1      34.328  23.955  23.400  1.00  0.00     0.116 C 
BRANCH   2   3
ATOM      3  N   UNL A   1      32.978  23.668  22.978  1.00  0.00    -0.354 N 
ATOM      4  C   UNL A   1      31.863  23.442  23.726  1.00  0.00     0.243 C 
ATOM      5  O   UNL A   1      30.775  23.536  23.149  1.00  0.00    -0.273 OA
ATOM      6  H   UNL A   1      32.844  23.630  22.003  1.00  0.00     0.163 HD
BRANCH   4   7
ATOM      7  C   UNL A   1      31.935  23.250  25.260  1.00  0.00     0.184 C 
BRANCH   7   8
ATOM      8  C   UNL A   1      31.456  21.833  25.596  1.00  0.00     0.157 C 
BRANCH   8   9
ATOM      9  C   UNL A   1      32.544  20.822  25.356  1.00  0.00     0.308 C 
ATOM     10  O   UNL A   1      33.573  20.762  26.015  1.00  0.00    -0.252 OA
BRANCH   9  11
ATOM     11  O   UNL A   1      32.223  19.995  24.324  1.00  0.00    -0.469 OA
ATOM     12  C   UNL A   1      33.044  18.830  24.191  1.00  0.00     0.282 C 
ENDBRANCH   9  11
ENDBRANCH   8   9
ENDBRANCH   7   8
BRANCH   7  13
ATOM     13  N   UNL A   1      31.210  24.306  26.002  1.00  0.00    -0.326 N 
ATOM     14  C   UNL A   1      30.884  25.586  25.902  1.00  0.00     0.315 C 
ATOM     15  H   UNL A   1      30.856  23.937  26.842  1.00  0.00     0.166 HD
ATOM     16  O   UNL A   1      29.920  25.910  26.614  1.00  0.00    -0.249 OA
ATOM     17  N   UNL A   1      31.382  26.576  25.180  1.00  0.00    -0.335 N 
ATOM     18  H   UNL A   1      30.650  27.222  25.056  1.00  0.00     0.165 HD
BRANCH  17  19
ATOM     19  C   UNL A   1      32.572  27.146  24.467  1.00  0.00     0.089 C 
ATOM     20  C   UNL A   1      33.792  27.030  25.411  1.00  0.00     0.025 C 
ATOM     21  C   UNL A   1      32.484  28.566  23.885  1.00  0.00    -0.015 C 
ATOM     22  C   UNL A   1      33.711  28.018  26.574  1.00  0.00     0.002 C 
ATOM     23  C   UNL A   1      32.325  29.523  25.088  1.00  0.00     0.008 C 
ATOM     24  C   UNL A   1      33.747  29.011  23.100  1.00  0.00     0.013 C 
ATOM     25  C   UNL A   1      31.390  28.568  22.802  1.00  0.00     0.013 C 
ATOM     26  C   UNL A   1      33.462  29.454  26.111  1.00  0.00     0.001 C 
ENDBRANCH  17  19
ENDBRANCH   7  13
ENDBRANCH   4   7
ENDBRANCH   2   3
ENDBRANCH   1   2
BRANCH   1  27
ATOM     27  C   UNL A   1      36.567  22.887  24.093  1.00  0.00     0.023 C 
BRANCH  27  28
ATOM     28  C   UNL A   1      36.682  22.210  25.456  1.00  0.00     0.116 C 
BRANCH  28  29
ATOM     29  N   UNL A   1      37.716  21.188  25.515  1.00  0.00    -0.352 N 
ATOM     30  C   UNL A   1      38.998  21.273  25.998  1.00  0.00     0.251 C 
ATOM     31  H   UNL A   1      37.459  20.307  25.157  1.00  0.00     0.163 HD
ATOM     32  O   UNL A   1      39.738  20.303  25.942  1.00  0.00    -0.269 OA
BRANCH  30  33
ATOM     33  C   UNL A   1      39.488  22.561  26.530  1.00  0.00     0.039 A 
ATOM     34  C   UNL A   1      40.470  22.525  27.523  1.00  0.00     0.014 A 
ATOM     35  C   UNL A   1      39.023  23.782  26.036  1.00  0.00     0.014 A 
ATOM     36  C   UNL A   1      41.029  23.717  27.978  1.00  0.00     0.010 A 
ATOM     37  C   UNL A   1      39.632  24.967  26.442  1.00  0.00     0.010 A 
ATOM     38  C   UNL A   1      40.639  24.946  27.417  1.00  0.00    -0.014 A 
BRANCH  38  39
ATOM     39  C   UNL A   1      41.313  26.200  27.833  1.00  0.00     0.031 A 
ATOM     40  C   UNL A   1      42.746  26.460  27.464  1.00  0.00     0.074 A 
ATOM     41  C   UNL A   1      40.630  27.090  28.581  1.00  0.00     0.049 A 
ATOM     42  N   UNL A   1      43.472  27.523  27.693  1.00  0.00    -0.248 NA
ATOM     43  C   UNL A   1      43.467  25.381  26.769  1.00  0.00     0.031 C 
ATOM     44  C   UNL A   1      39.269  26.900  29.090  1.00  0.00     0.029 A 
ATOM     45  N   UNL A   1      40.991  28.327  29.052  1.00  0.00    -0.354 N 
ATOM     46  C   UNL A   1      44.734  27.240  27.185  1.00  0.00     0.074 A 
ATOM     47  C   UNL A   1      44.689  25.886  26.678  1.00  0.00     0.031 C 
ATOM     48  C   UNL A   1      38.906  27.985  29.791  1.00  0.00     0.029 A 
ATOM     49  C   UNL A   1      40.008  28.942  29.792  1.00  0.00     0.049 A 
ATOM     50  H   UNL A   1      41.869  28.735  28.878  1.00  0.00     0.167 HD
ATOM     51  C   UNL A   1      45.817  28.047  27.109  1.00  0.00     0.034 A 
ATOM     52  C   UNL A   1      39.994  30.146  30.396  1.00  0.00     0.034 A 
ATOM     53  C   UNL A   1      45.845  29.403  27.588  1.00  0.00     0.049 A 
ATOM     54  C   UNL A   1      41.186  31.048  30.235  1.00  0.00     0.074 A 
ATOM     55  C   UNL A   1      46.869  30.329  27.499  1.00  0.00     0.029 A 
ATOM     56  N   UNL A   1      44.797  30.030  28.247  1.00  0.00    -0.354 N 
ATOM     57  N   UNL A   1      42.311  30.826  29.597  1.00  0.00    -0.248 NA
ATOM     58  C   UNL A   1      41.092  32.387  30.835  1.00  0.00     0.031 C 
ATOM     59  C   UNL A   1      46.445  31.511  28.115  1.00  0.00     0.029 A 
ATOM     60  C   UNL A   1      45.150  31.329  28.571  1.00  0.00     0.049 A 
ATOM     61  H   UNL A   1      43.930  29.612  28.454  1.00  0.00     0.167 HD
ATOM     62  C   UNL A   1      43.046  32.000  29.699  1.00  0.00     0.074 A 
ATOM     63  C   UNL A   1      42.222  32.946  30.425  1.00  0.00     0.031 C 
ATOM     64  C   UNL A   1      44.299  32.268  29.256  1.00  0.00     0.034 A 
BRANCH  51  65
ATOM     65  C   UNL A   1      47.042  27.509  26.416  1.00  0.00     0.023 A 
ATOM     66  C   UNL A   1      47.247  27.808  25.053  1.00  0.00     0.012 A 
ATOM     67  C   UNL A   1      48.016  26.768  27.114  1.00  0.00     0.148 A 
ATOM     68  C   UNL A   1      48.384  27.355  24.387  1.00  0.00     0.002 A 
ATOM     69  C   UNL A   1      49.169  26.357  26.454  1.00  0.00     0.091 A 
ATOM     70  F   UNL A   1      47.795  26.477  28.404  1.00  0.00    -0.205 F 
ATOM     71  C   UNL A   1      49.349  26.640  25.090  1.00  0.00     0.022 A 
BRANCH  69  72
ATOM     72  S   UNL A   1      50.509  25.493  27.282  1.00  0.00     0.127 S 
ATOM     73  O   UNL A   1      49.827  24.299  27.781  1.00  0.00    -0.237 OA
ATOM     74  O   UNL A   1      51.441  25.248  26.182  1.00  0.00    -0.237 OA
ATOM     75  O   UNL A   1      51.002  26.402  28.308  1.00  0.00    -0.744 OA
ENDBRANCH  69  72
ENDBRANCH  51  65
BRANCH  52  76
ATOM     76  C   UNL A   1      38.782  30.596  31.138  1.00  0.00     0.023 A 
ATOM     77  C   UNL A   1      38.705  30.403  32.531  1.00  0.00     0.012 A 
ATOM     78  C   UNL A   1      37.716  31.233  30.475  1.00  0.00     0.148 A 
ATOM     79  C   UNL A   1      37.573  30.801  33.243  1.00  0.00     0.002 A 
ATOM     80  C   UNL A   1      36.617  31.680  31.199  1.00  0.00     0.091 A 
ATOM     81  F   UNL A   1      37.799  31.396  29.146  1.00  0.00    -0.205 F 
ATOM     82  C   UNL A   1      36.535  31.449  32.580  1.00  0.00     0.022 A 
BRANCH  80  83
ATOM     83  S   UNL A   1      35.306  32.646  30.441  1.00  0.00     0.127 S 
ATOM     84  O   UNL A   1      36.036  33.810  29.950  1.00  0.00    -0.237 OA
ATOM     85  O   UNL A   1      34.819  31.739  29.400  1.00  0.00    -0.237 OA
ATOM     86  O   UNL A   1      34.346  32.897  31.507  1.00  0.00    -0.744 OA
ENDBRANCH  80  83
ENDBRANCH  52  76
BRANCH  64  87
ATOM     87  C   UNL A   1      44.848  33.642  29.535  1.00  0.00     0.023 A 
ATOM     88  C   UNL A   1      45.521  33.890  30.749  1.00  0.00     0.012 A 
ATOM     89  C   UNL A   1      44.737  34.674  28.584  1.00  0.00     0.148 A 
ATOM     90  C   UNL A   1      46.034  35.155  31.031  1.00  0.00     0.002 A 
ATOM     91  C   UNL A   1      45.294  35.920  28.851  1.00  0.00     0.091 A 
ATOM     92  F   UNL A   1      44.077  34.428  27.443  1.00  0.00    -0.205 F 
ATOM     93  C   UNL A   1      45.929  36.166  30.079  1.00  0.00     0.022 A 
BRANCH  91  94
ATOM     94  S   UNL A   1      45.286  37.249  27.643  1.00  0.00     0.127 S 
ATOM     95  O   UNL A   1      46.005  36.641  26.525  1.00  0.00    -0.237 OA
ATOM     96  O   UNL A   1      43.856  37.453  27.409  1.00  0.00    -0.237 OA
ATOM     97  O   UNL A   1      45.954  38.372  28.286  1.00  0.00    -0.744 OA
ENDBRANCH  91  94
ENDBRANCH  64  87
ENDBRANCH  38  39
ENDBRANCH  30  33
ENDBRANCH  28  29
ENDBRANCH  27  28
ENDBRANCH   1  27
TORSDOF 19
ENDMDL
