MODEL 1
REMARK VINA RESULT:     -12.2      0.000      0.000
REMARK SMILES COc1ccc(-c2cc(C(=O)NCCCCNC(=O)c3ccc(-c4c5nc(c(-c6cccc(S(=O)(=O)[O-])c6F)c6ccc([nH]6)c(-c6cccc(S(=O)(=O)[O-])c6F)c6nc(c(-c7cccc(S(=O)(=O)[O-])c7F)c7ccc4[nH]7)C=C6)C=C5)cc3)nc(=O)n2C)cc1
REMARK SMILES IDX 15 1 14 2 13 3 12 4 10 5 11 6 9 8 7 9 8 10 86 11 84 12 87 13
REMARK SMILES IDX 83 14 85 15 6 16 3 17 4 18 89 19 5 20 88 21 2 22 1 23 16 24
REMARK SMILES IDX 17 25 18 26 19 28 20 29 21 30 82 31 22 32 81 33 23 34 24 35
REMARK SMILES IDX 25 36 75 37 26 38 80 39 74 40 76 41 27 42 79 43 73 44 72 45
REMARK SMILES IDX 28 47 60 48 40 49 59 50 41 51 44 52 58 53 77 54 42 55 43 56
REMARK SMILES IDX 57 58 78 59 45 60 29 61 30 62 38 63 31 64 33 65 39 66 32 67
REMARK SMILES IDX 34 68 35 69 36 70 37 71 61 72 62 73 70 74 63 75 65 76 71 77
REMARK SMILES IDX 64 78 66 79 67 80 68 81 69 82 46 83 47 84 55 85 48 86 50 87
REMARK SMILES IDX 56 88 49 89 51 90 52 91 53 92 54 93
REMARK H PARENT 12 7 17 27 76 46 44 57
REMARK Flexibility Score: inf
ROOT
ATOM      1  C   UNL A   1      31.835  29.263  24.904  1.00  0.00     0.023 C 
ENDROOT
BRANCH   1   2
ATOM      2  C   UNL A   1      32.795  29.280  23.711  1.00  0.00     0.023 C 
BRANCH   2   3
ATOM      3  C   UNL A   1      33.765  28.102  23.680  1.00  0.00     0.116 C 
BRANCH   3   4
ATOM      4  N   UNL A   1      33.708  27.400  22.410  1.00  0.00    -0.351 N 
ATOM      5  C   UNL A   1      33.195  26.170  22.083  1.00  0.00     0.270 C 
ATOM      6  O   UNL A   1      33.278  25.770  20.924  1.00  0.00    -0.268 OA
ATOM      7  H   UNL A   1      34.107  27.890  21.655  1.00  0.00     0.163 HD
BRANCH   5   8
ATOM      8  C   UNL A   1      32.501  25.273  23.113  1.00  0.00     0.136 A 
ATOM      9  C   UNL A   1      32.377  23.093  24.063  1.00  0.00     0.055 A 
ATOM     10  C   UNL A   1      32.964  23.875  23.152  1.00  0.00     0.061 A 
ATOM     11  N   UNL A   1      31.383  23.599  24.886  1.00  0.00    -0.295 N 
ATOM     12  C   UNL A   1      30.949  24.925  24.773  1.00  0.00     0.348 A 
ATOM     13  C   UNL A   1      30.712  22.808  25.904  1.00  0.00     0.155 C 
ATOM     14  N   UNL A   1      31.572  25.742  23.876  1.00  0.00    -0.188 NA
ATOM     15  O   UNL A   1      30.024  25.355  25.461  1.00  0.00    -0.246 OA
BRANCH   9  16
ATOM     16  C   UNL A   1      32.829  21.693  24.141  1.00  0.00    -0.001 A 
ATOM     17  C   UNL A   1      33.665  19.017  24.296  1.00  0.00     0.118 A 
ATOM     18  C   UNL A   1      32.575  19.365  23.501  1.00  0.00     0.047 A 
ATOM     19  C   UNL A   1      34.353  20.006  25.000  1.00  0.00     0.047 A 
ATOM     20  C   UNL A   1      32.153  20.693  23.427  1.00  0.00     0.014 A 
ATOM     21  C   UNL A   1      33.927  21.335  24.936  1.00  0.00     0.014 A 
BRANCH  17  22
ATOM     22  O   UNL A   1      34.018  17.696  24.278  1.00  0.00    -0.497 OA
ATOM     23  C   UNL A   1      33.002  16.813  24.741  1.00  0.00     0.278 C 
ENDBRANCH  17  22
ENDBRANCH   9  16
ENDBRANCH   5   8
ENDBRANCH   3   4
ENDBRANCH   2   3
ENDBRANCH   1   2
BRANCH   1  24
ATOM     24  C   UNL A   1      32.453  29.684  26.235  1.00  0.00     0.116 C 
BRANCH  24  25
ATOM     25  N   UNL A   1      32.312  31.108  26.508  1.00  0.00    -0.352 N 
ATOM     26  C   UNL A   1      33.142  31.928  27.236  1.00  0.00     0.251 C 
ATOM     27  H   UNL A   1      31.517  31.542  26.119  1.00  0.00     0.163 HD
ATOM     28  O   UNL A   1      32.819  33.085  27.481  1.00  0.00    -0.269 OA
BRANCH  26  29
ATOM     29  C   UNL A   1      34.413  31.380  27.750  1.00  0.00     0.039 A 
ATOM     30  C   UNL A   1      35.463  32.257  28.027  1.00  0.00     0.014 A 
ATOM     31  C   UNL A   1      34.536  30.014  28.019  1.00  0.00     0.014 A 
ATOM     32  C   UNL A   1      36.612  31.773  28.654  1.00  0.00     0.010 A 
ATOM     33  C   UNL A   1      35.649  29.551  28.714  1.00  0.00     0.010 A 
ATOM     34  C   UNL A   1      36.695  30.426  29.045  1.00  0.00    -0.014 A 
BRANCH  34  35
ATOM     35  C   UNL A   1      37.847  29.924  29.837  1.00  0.00     0.031 A 
ATOM     36  C   UNL A   1      38.091  30.432  31.231  1.00  0.00     0.074 A 
ATOM     37  C   UNL A   1      38.731  29.082  29.262  1.00  0.00     0.049 A 
ATOM     38  N   UNL A   1      39.079  30.164  32.044  1.00  0.00    -0.248 NA
ATOM     39  C   UNL A   1      37.111  31.389  31.774  1.00  0.00     0.031 C 
ATOM     40  C   UNL A   1      38.651  28.580  27.889  1.00  0.00     0.029 A 
ATOM     41  N   UNL A   1      39.888  28.527  29.749  1.00  0.00    -0.354 N 
ATOM     42  C   UNL A   1      38.864  30.942  33.174  1.00  0.00     0.074 A 
ATOM     43  C   UNL A   1      37.666  31.715  32.933  1.00  0.00     0.031 C 
ATOM     44  C   UNL A   1      39.711  27.794  27.643  1.00  0.00     0.029 A 
ATOM     45  C   UNL A   1      40.568  27.767  28.823  1.00  0.00     0.049 A 
ATOM     46  H   UNL A   1      40.203  28.658  30.673  1.00  0.00     0.167 HD
ATOM     47  C   UNL A   1      39.588  30.993  34.317  1.00  0.00     0.034 A 
ATOM     48  C   UNL A   1      41.757  27.138  28.906  1.00  0.00     0.034 A 
ATOM     49  C   UNL A   1      40.759  30.198  34.566  1.00  0.00     0.049 A 
ATOM     50  C   UNL A   1      42.525  27.192  30.199  1.00  0.00     0.074 A 
ATOM     51  C   UNL A   1      41.500  30.103  35.731  1.00  0.00     0.029 A 
ATOM     52  N   UNL A   1      41.375  29.377  33.634  1.00  0.00    -0.354 N 
ATOM     53  N   UNL A   1      42.214  27.798  31.319  1.00  0.00    -0.248 NA
ATOM     54  C   UNL A   1      43.794  26.450  30.251  1.00  0.00     0.031 C 
ATOM     55  C   UNL A   1      42.588  29.260  35.490  1.00  0.00     0.029 A 
ATOM     56  C   UNL A   1      42.500  28.793  34.188  1.00  0.00     0.049 A 
ATOM     57  H   UNL A   1      41.058  29.232  32.713  1.00  0.00     0.167 HD
ATOM     58  C   UNL A   1      43.228  27.485  32.216  1.00  0.00     0.074 A 
ATOM     59  C   UNL A   1      44.151  26.615  31.517  1.00  0.00     0.031 C 
ATOM     60  C   UNL A   1      43.388  27.892  33.499  1.00  0.00     0.034 A 
BRANCH  47  61
ATOM     61  C   UNL A   1      39.118  31.918  35.409  1.00  0.00     0.023 A 
ATOM     62  C   UNL A   1      38.186  31.461  36.362  1.00  0.00     0.012 A 
ATOM     63  C   UNL A   1      39.662  33.213  35.537  1.00  0.00     0.148 A 
ATOM     64  C   UNL A   1      37.778  32.288  37.410  1.00  0.00     0.002 A 
ATOM     65  C   UNL A   1      39.287  34.012  36.610  1.00  0.00     0.091 A 
ATOM     66  F   UNL A   1      40.532  33.635  34.609  1.00  0.00    -0.205 F 
ATOM     67  C   UNL A   1      38.338  33.556  37.539  1.00  0.00     0.022 A 
BRANCH  65  68
ATOM     68  S   UNL A   1      40.010  35.628  36.915  1.00  0.00     0.127 S 
ATOM     69  O   UNL A   1      39.374  36.001  38.177  1.00  0.00    -0.237 OA
ATOM     70  O   UNL A   1      41.434  35.309  37.020  1.00  0.00    -0.237 OA
ATOM     71  O   UNL A   1      39.653  36.453  35.770  1.00  0.00    -0.744 OA
ENDBRANCH  65  68
ENDBRANCH  47  61
BRANCH  48  72
ATOM     72  C   UNL A   1      42.284  26.377  27.737  1.00  0.00     0.023 A 
ATOM     73  C   UNL A   1      43.132  27.017  26.813  1.00  0.00     0.012 A 
ATOM     74  C   UNL A   1      41.957  25.020  27.545  1.00  0.00     0.148 A 
ATOM     75  C   UNL A   1      43.612  26.331  25.696  1.00  0.00     0.002 A 
ATOM     76  C   UNL A   1      42.487  24.327  26.464  1.00  0.00     0.091 A 
ATOM     77  F   UNL A   1      41.140  24.432  28.430  1.00  0.00    -0.205 F 
ATOM     78  C   UNL A   1      43.299  24.985  25.527  1.00  0.00     0.022 A 
BRANCH  76  79
ATOM     79  S   UNL A   1      42.246  22.561  26.241  1.00  0.00     0.127 S 
ATOM     80  O   UNL A   1      40.792  22.471  26.128  1.00  0.00    -0.237 OA
ATOM     81  O   UNL A   1      42.978  22.312  25.000  1.00  0.00    -0.237 OA
ATOM     82  O   UNL A   1      42.829  21.932  27.418  1.00  0.00    -0.744 OA
ENDBRANCH  76  79
ENDBRANCH  48  72
BRANCH  60  83
ATOM     83  C   UNL A   1      44.584  27.377  34.256  1.00  0.00     0.023 A 
ATOM     84  C   UNL A   1      45.785  28.114  34.261  1.00  0.00     0.012 A 
ATOM     85  C   UNL A   1      44.489  26.204  35.032  1.00  0.00     0.148 A 
ATOM     86  C   UNL A   1      46.883  27.674  35.000  1.00  0.00     0.002 A 
ATOM     87  C   UNL A   1      45.569  25.801  35.807  1.00  0.00     0.091 A 
ATOM     88  F   UNL A   1      43.342  25.510  35.002  1.00  0.00    -0.205 F 
ATOM     89  C   UNL A   1      46.771  26.527  35.782  1.00  0.00     0.022 A 
BRANCH  87  90
ATOM     90  S   UNL A   1      45.486  24.394  36.921  1.00  0.00     0.127 S 
ATOM     91  O   UNL A   1      44.415  24.798  37.831  1.00  0.00    -0.237 OA
ATOM     92  O   UNL A   1      45.135  23.303  36.012  1.00  0.00    -0.237 OA
ATOM     93  O   UNL A   1      46.805  24.279  37.527  1.00  0.00    -0.744 OA
ENDBRANCH  87  90
ENDBRANCH  60  83
ENDBRANCH  34  35
ENDBRANCH  26  29
ENDBRANCH  24  25
ENDBRANCH   1  24
TORSDOF 16
ENDMDL
MODEL 2
REMARK VINA RESULT:     -12.2      2.623      8.074
REMARK SMILES COc1ccc(-c2cc(C(=O)NCCCCNC(=O)c3ccc(-c4c5nc(c(-c6cccc(S(=O)(=O)[O-])c6F)c6ccc([nH]6)c(-c6cccc(S(=O)(=O)[O-])c6F)c6nc(c(-c7cccc(S(=O)(=O)[O-])c7F)c7ccc4[nH]7)C=C6)C=C5)cc3)nc(=O)n2C)cc1
REMARK SMILES IDX 15 1 14 2 13 3 12 4 10 5 11 6 9 8 7 9 8 10 86 11 84 12 87 13
REMARK SMILES IDX 83 14 85 15 6 16 3 17 4 18 89 19 5 20 88 21 2 22 1 23 16 24
REMARK SMILES IDX 17 25 18 26 19 28 20 29 21 30 82 31 22 32 81 33 23 34 24 35
REMARK SMILES IDX 25 36 75 37 26 38 80 39 74 40 76 41 27 42 79 43 73 44 72 45
REMARK SMILES IDX 28 47 60 48 40 49 59 50 41 51 44 52 58 53 77 54 42 55 43 56
REMARK SMILES IDX 57 58 78 59 45 60 29 61 30 62 38 63 31 64 33 65 39 66 32 67
REMARK SMILES IDX 34 68 35 69 36 70 37 71 61 72 62 73 70 74 63 75 65 76 71 77
REMARK SMILES IDX 64 78 66 79 67 80 68 81 69 82 46 83 47 84 55 85 48 86 50 87
REMARK SMILES IDX 56 88 49 89 51 90 52 91 53 92 54 93
REMARK H PARENT 12 7 17 27 76 46 44 57
REMARK Flexibility Score: inf
ROOT
ATOM      1  C   UNL A   1      32.225  31.272  26.597  1.00  0.00     0.023 C 
ENDROOT
BRANCH   1   2
ATOM      2  C   UNL A   1      32.768  29.919  26.128  1.00  0.00     0.023 C 
BRANCH   2   3
ATOM      3  C   UNL A   1      31.704  28.830  26.018  1.00  0.00     0.116 C 
BRANCH   3   4
ATOM      4  N   UNL A   1      31.577  28.346  24.655  1.00  0.00    -0.351 N 
ATOM      5  C   UNL A   1      31.656  27.077  24.138  1.00  0.00     0.270 C 
ATOM      6  O   UNL A   1      31.531  26.908  22.928  1.00  0.00    -0.268 OA
ATOM      7  H   UNL A   1      31.406  29.048  23.986  1.00  0.00     0.163 HD
BRANCH   5   8
ATOM      8  C   UNL A   1      31.880  25.846  25.024  1.00  0.00     0.136 A 
ATOM      9  C   UNL A   1      33.421  24.165  25.709  1.00  0.00     0.055 A 
ATOM     10  C   UNL A   1      33.213  25.227  24.923  1.00  0.00     0.061 A 
ATOM     11  N   UNL A   1      32.413  23.695  26.536  1.00  0.00    -0.295 N 
ATOM     12  C   UNL A   1      31.148  24.297  26.556  1.00  0.00     0.348 A 
ATOM     13  C   UNL A   1      32.576  22.556  27.423  1.00  0.00     0.155 C 
ATOM     14  N   UNL A   1      30.940  25.406  25.790  1.00  0.00    -0.188 NA
ATOM     15  O   UNL A   1      30.236  23.840  27.243  1.00  0.00    -0.246 OA
BRANCH   9  16
ATOM     16  C   UNL A   1      34.749  23.531  25.647  1.00  0.00    -0.001 A 
ATOM     17  C   UNL A   1      37.275  22.307  25.547  1.00  0.00     0.118 A 
ATOM     18  C   UNL A   1      36.118  21.531  25.497  1.00  0.00     0.047 A 
ATOM     19  C   UNL A   1      37.175  23.696  25.628  1.00  0.00     0.047 A 
ATOM     20  C   UNL A   1      34.861  22.136  25.552  1.00  0.00     0.014 A 
ATOM     21  C   UNL A   1      35.918  24.304  25.694  1.00  0.00     0.014 A 
BRANCH  17  22
ATOM     22  O   UNL A   1      38.455  21.622  25.456  1.00  0.00    -0.497 OA
ATOM     23  C   UNL A   1      39.458  22.064  26.365  1.00  0.00     0.278 C 
ENDBRANCH  17  22
ENDBRANCH   9  16
ENDBRANCH   5   8
ENDBRANCH   3   4
ENDBRANCH   2   3
ENDBRANCH   1   2
BRANCH   1  24
ATOM     24  C   UNL A   1      33.224  32.139  27.358  1.00  0.00     0.116 C 
BRANCH  24  25
ATOM     25  N   UNL A   1      32.748  33.497  27.586  1.00  0.00    -0.352 N 
ATOM     26  C   UNL A   1      33.180  34.411  28.518  1.00  0.00     0.251 C 
ATOM     27  H   UNL A   1      32.021  33.801  26.995  1.00  0.00     0.163 HD
ATOM     28  O   UNL A   1      32.590  35.475  28.669  1.00  0.00    -0.269 OA
BRANCH  26  29
ATOM     29  C   UNL A   1      34.344  34.074  29.362  1.00  0.00     0.039 A 
ATOM     30  C   UNL A   1      34.136  33.376  30.553  1.00  0.00     0.014 A 
ATOM     31  C   UNL A   1      35.638  34.390  28.939  1.00  0.00     0.014 A 
ATOM     32  C   UNL A   1      35.235  32.920  31.281  1.00  0.00     0.010 A 
ATOM     33  C   UNL A   1      36.729  33.867  29.626  1.00  0.00     0.010 A 
ATOM     34  C   UNL A   1      36.539  33.121  30.799  1.00  0.00    -0.014 A 
BRANCH  34  35
ATOM     35  C   UNL A   1      37.714  32.523  31.484  1.00  0.00     0.031 A 
ATOM     36  C   UNL A   1      38.454  31.372  30.860  1.00  0.00     0.074 A 
ATOM     37  C   UNL A   1      38.053  32.954  32.717  1.00  0.00     0.049 A 
ATOM     38  N   UNL A   1      39.453  30.679  31.340  1.00  0.00    -0.248 NA
ATOM     39  C   UNL A   1      37.995  30.922  29.535  1.00  0.00     0.031 C 
ATOM     40  C   UNL A   1      37.363  34.007  33.465  1.00  0.00     0.029 A 
ATOM     41  N   UNL A   1      39.042  32.536  33.573  1.00  0.00    -0.354 N 
ATOM     42  C   UNL A   1      39.717  29.691  30.400  1.00  0.00     0.074 A 
ATOM     43  C   UNL A   1      38.757  29.857  29.332  1.00  0.00     0.031 C 
ATOM     44  C   UNL A   1      37.947  34.152  34.664  1.00  0.00     0.029 A 
ATOM     45  C   UNL A   1      39.025  33.177  34.791  1.00  0.00     0.049 A 
ATOM     46  H   UNL A   1      39.702  31.843  33.338  1.00  0.00     0.167 HD
ATOM     47  C   UNL A   1      40.686  28.745  30.415  1.00  0.00     0.034 A 
ATOM     48  C   UNL A   1      39.776  32.989  35.894  1.00  0.00     0.034 A 
ATOM     49  C   UNL A   1      41.661  28.607  31.462  1.00  0.00     0.049 A 
ATOM     50  C   UNL A   1      40.862  31.947  35.870  1.00  0.00     0.074 A 
ATOM     51  C   UNL A   1      42.744  27.747  31.518  1.00  0.00     0.029 A 
ATOM     52  N   UNL A   1      41.663  29.327  32.646  1.00  0.00    -0.354 N 
ATOM     53  N   UNL A   1      41.207  31.138  34.899  1.00  0.00    -0.248 NA
ATOM     54  C   UNL A   1      41.683  31.814  37.083  1.00  0.00     0.031 C 
ATOM     55  C   UNL A   1      43.375  27.917  32.753  1.00  0.00     0.029 A 
ATOM     56  C   UNL A   1      42.712  28.915  33.449  1.00  0.00     0.049 A 
ATOM     57  H   UNL A   1      41.014  30.029  32.881  1.00  0.00     0.167 HD
ATOM     58  C   UNL A   1      42.303  30.423  35.369  1.00  0.00     0.074 A 
ATOM     59  C   UNL A   1      42.580  30.913  36.704  1.00  0.00     0.031 C 
ATOM     60  C   UNL A   1      43.008  29.440  34.757  1.00  0.00     0.034 A 
BRANCH  47  61
ATOM     61  C   UNL A   1      40.767  27.800  29.246  1.00  0.00     0.023 A 
ATOM     62  C   UNL A   1      39.928  26.667  29.201  1.00  0.00     0.012 A 
ATOM     63  C   UNL A   1      41.614  28.078  28.155  1.00  0.00     0.148 A 
ATOM     64  C   UNL A   1      39.953  25.809  28.102  1.00  0.00     0.002 A 
ATOM     65  C   UNL A   1      41.598  27.244  27.043  1.00  0.00     0.091 A 
ATOM     66  F   UNL A   1      42.417  29.148  28.225  1.00  0.00    -0.205 F 
ATOM     67  C   UNL A   1      40.778  26.105  27.019  1.00  0.00     0.022 A 
BRANCH  65  68
ATOM     68  S   UNL A   1      42.559  27.583  25.563  1.00  0.00     0.127 S 
ATOM     69  O   UNL A   1      43.914  27.669  26.107  1.00  0.00    -0.237 OA
ATOM     70  O   UNL A   1      42.301  26.393  24.753  1.00  0.00    -0.237 OA
ATOM     71  O   UNL A   1      42.031  28.822  25.012  1.00  0.00    -0.744 OA
ENDBRANCH  65  68
ENDBRANCH  47  61
BRANCH  48  72
ATOM     72  C   UNL A   1      39.547  33.824  37.107  1.00  0.00     0.023 A 
ATOM     73  C   UNL A   1      40.002  35.156  37.134  1.00  0.00     0.012 A 
ATOM     74  C   UNL A   1      38.871  33.307  38.230  1.00  0.00     0.148 A 
ATOM     75  C   UNL A   1      39.824  35.946  38.271  1.00  0.00     0.002 A 
ATOM     76  C   UNL A   1      38.643  34.117  39.336  1.00  0.00     0.091 A 
ATOM     77  F   UNL A   1      38.455  32.033  38.189  1.00  0.00    -0.205 F 
ATOM     78  C   UNL A   1      39.136  35.431  39.367  1.00  0.00     0.022 A 
BRANCH  76  79
ATOM     79  S   UNL A   1      37.654  33.580  40.735  1.00  0.00     0.127 S 
ATOM     80  O   UNL A   1      38.542  32.613  41.375  1.00  0.00    -0.237 OA
ATOM     81  O   UNL A   1      37.470  34.831  41.471  1.00  0.00    -0.237 OA
ATOM     82  O   UNL A   1      36.430  33.034  40.165  1.00  0.00    -0.744 OA
ENDBRANCH  76  79
ENDBRANCH  48  72
BRANCH  60  83
ATOM     83  C   UNL A   1      44.175  28.846  35.500  1.00  0.00     0.023 A 
ATOM     84  C   UNL A   1      45.464  29.395  35.343  1.00  0.00     0.012 A 
ATOM     85  C   UNL A   1      43.979  27.795  36.418  1.00  0.00     0.148 A 
ATOM     86  C   UNL A   1      46.543  28.886  36.064  1.00  0.00     0.002 A 
ATOM     87  C   UNL A   1      45.049  27.329  37.172  1.00  0.00     0.091 A 
ATOM     88  F   UNL A   1      42.748  27.277  36.542  1.00  0.00    -0.205 F 
ATOM     89  C   UNL A   1      46.334  27.864  36.987  1.00  0.00     0.022 A 
BRANCH  87  90
ATOM     90  S   UNL A   1      44.858  26.085  38.454  1.00  0.00     0.127 S 
ATOM     91  O   UNL A   1      46.199  26.049  39.035  1.00  0.00    -0.237 OA
ATOM     92  O   UNL A   1      43.836  26.684  39.313  1.00  0.00    -0.237 OA
ATOM     93  O   UNL A   1      44.442  24.866  37.776  1.00  0.00    -0.744 OA
ENDBRANCH  87  90
ENDBRANCH  60  83
ENDBRANCH  34  35
ENDBRANCH  26  29
ENDBRANCH  24  25
ENDBRANCH   1  24
TORSDOF 16
ENDMDL
MODEL 3
REMARK VINA RESULT:     -12.1      1.770      7.828
REMARK SMILES COc1ccc(-c2cc(C(=O)NCCCCNC(=O)c3ccc(-c4c5nc(c(-c6cccc(S(=O)(=O)[O-])c6F)c6ccc([nH]6)c(-c6cccc(S(=O)(=O)[O-])c6F)c6nc(c(-c7cccc(S(=O)(=O)[O-])c7F)c7ccc4[nH]7)C=C6)C=C5)cc3)nc(=O)n2C)cc1
REMARK SMILES IDX 15 1 14 2 13 3 12 4 10 5 11 6 9 8 7 9 8 10 86 11 84 12 87 13
REMARK SMILES IDX 83 14 85 15 6 16 3 17 4 18 89 19 5 20 88 21 2 22 1 23 16 24
REMARK SMILES IDX 17 25 18 26 19 28 20 29 21 30 82 31 22 32 81 33 23 34 24 35
REMARK SMILES IDX 25 36 75 37 26 38 80 39 74 40 76 41 27 42 79 43 73 44 72 45
REMARK SMILES IDX 28 47 60 48 40 49 59 50 41 51 44 52 58 53 77 54 42 55 43 56
REMARK SMILES IDX 57 58 78 59 45 60 29 61 30 62 38 63 31 64 33 65 39 66 32 67
REMARK SMILES IDX 34 68 35 69 36 70 37 71 61 72 62 73 70 74 63 75 65 76 71 77
REMARK SMILES IDX 64 78 66 79 67 80 68 81 69 82 46 83 47 84 55 85 48 86 50 87
REMARK SMILES IDX 56 88 49 89 51 90 52 91 53 92 54 93
REMARK H PARENT 12 7 17 27 76 46 44 57
REMARK Flexibility Score: inf
ROOT
ATOM      1  C   UNL A   1      31.850  30.177  26.566  1.00  0.00     0.023 C 
ENDROOT
BRANCH   1   2
ATOM      2  C   UNL A   1      31.791  28.829  27.289  1.00  0.00     0.023 C 
BRANCH   2   3
ATOM      3  C   UNL A   1      31.811  27.623  26.353  1.00  0.00     0.116 C 
BRANCH   3   4
ATOM      4  N   UNL A   1      30.831  26.627  26.749  1.00  0.00    -0.351 N 
ATOM      5  C   UNL A   1      30.515  25.408  26.204  1.00  0.00     0.270 C 
ATOM      6  O   UNL A   1      29.621  24.733  26.710  1.00  0.00    -0.268 OA
ATOM      7  H   UNL A   1      30.302  26.867  27.545  1.00  0.00     0.163 HD
BRANCH   5   8
ATOM      8  C   UNL A   1      31.251  24.842  24.985  1.00  0.00     0.136 A 
ATOM      9  C   UNL A   1      32.425  22.977  24.082  1.00  0.00     0.055 A 
ATOM     10  C   UNL A   1      31.799  23.485  25.150  1.00  0.00     0.061 A 
ATOM     11  N   UNL A   1      32.546  23.722  22.920  1.00  0.00    -0.295 N 
ATOM     12  C   UNL A   1      32.045  25.027  22.836  1.00  0.00     0.348 A 
ATOM     13  C   UNL A   1      33.202  23.227  21.722  1.00  0.00     0.155 C 
ATOM     14  N   UNL A   1      31.368  25.537  23.905  1.00  0.00    -0.188 NA
ATOM     15  O   UNL A   1      32.209  25.709  21.826  1.00  0.00    -0.246 OA
BRANCH   9  16
ATOM     16  C   UNL A   1      32.971  21.615  24.207  1.00  0.00    -0.001 A 
ATOM     17  C   UNL A   1      34.034  19.025  24.430  1.00  0.00     0.118 A 
ATOM     18  C   UNL A   1      34.784  20.127  24.836  1.00  0.00     0.047 A 
ATOM     19  C   UNL A   1      32.744  19.210  23.930  1.00  0.00     0.047 A 
ATOM     20  C   UNL A   1      34.261  21.416  24.720  1.00  0.00     0.014 A 
ATOM     21  C   UNL A   1      32.222  20.500  23.804  1.00  0.00     0.014 A 
BRANCH  17  22
ATOM     22  O   UNL A   1      34.623  17.804  24.611  1.00  0.00    -0.497 OA
ATOM     23  C   UNL A   1      34.184  16.802  23.700  1.00  0.00     0.278 C 
ENDBRANCH  17  22
ENDBRANCH   9  16
ENDBRANCH   5   8
ENDBRANCH   3   4
ENDBRANCH   2   3
ENDBRANCH   1   2
BRANCH   1  24
ATOM     24  C   UNL A   1      33.014  31.077  26.973  1.00  0.00     0.116 C 
BRANCH  24  25
ATOM     25  N   UNL A   1      32.638  32.479  27.100  1.00  0.00    -0.352 N 
ATOM     26  C   UNL A   1      33.211  33.451  27.885  1.00  0.00     0.251 C 
ATOM     27  H   UNL A   1      31.874  32.768  26.551  1.00  0.00     0.163 HD
ATOM     28  O   UNL A   1      32.698  34.562  27.977  1.00  0.00    -0.269 OA
BRANCH  26  29
ATOM     29  C   UNL A   1      34.434  33.126  28.646  1.00  0.00     0.039 A 
ATOM     30  C   UNL A   1      34.308  32.594  29.931  1.00  0.00     0.014 A 
ATOM     31  C   UNL A   1      35.693  33.284  28.061  1.00  0.00     0.014 A 
ATOM     32  C   UNL A   1      35.447  32.143  30.599  1.00  0.00     0.010 A 
ATOM     33  C   UNL A   1      36.814  32.762  28.698  1.00  0.00     0.010 A 
ATOM     34  C   UNL A   1      36.702  32.180  29.969  1.00  0.00    -0.014 A 
BRANCH  34  35
ATOM     35  C   UNL A   1      37.901  31.576  30.606  1.00  0.00     0.031 A 
ATOM     36  C   UNL A   1      38.684  30.508  29.893  1.00  0.00     0.074 A 
ATOM     37  C   UNL A   1      38.226  31.920  31.869  1.00  0.00     0.049 A 
ATOM     38  N   UNL A   1      39.711  29.819  30.318  1.00  0.00    -0.248 NA
ATOM     39  C   UNL A   1      38.241  30.147  28.536  1.00  0.00     0.031 C 
ATOM     40  C   UNL A   1      37.497  32.884  32.697  1.00  0.00     0.029 A 
ATOM     41  N   UNL A   1      39.232  31.476  32.690  1.00  0.00    -0.354 N 
ATOM     42  C   UNL A   1      40.012  28.920  29.303  1.00  0.00     0.074 A 
ATOM     43  C   UNL A   1      39.043  29.131  28.250  1.00  0.00     0.031 C 
ATOM     44  C   UNL A   1      38.077  32.956  33.905  1.00  0.00     0.029 A 
ATOM     45  C   UNL A   1      39.193  32.017  33.955  1.00  0.00     0.049 A 
ATOM     46  H   UNL A   1      39.918  30.831  32.402  1.00  0.00     0.167 HD
ATOM     47  C   UNL A   1      41.018  28.015  29.244  1.00  0.00     0.034 A 
ATOM     48  C   UNL A   1      39.953  31.772  35.040  1.00  0.00     0.034 A 
ATOM     49  C   UNL A   1      41.999  27.833  30.277  1.00  0.00     0.049 A 
ATOM     50  C   UNL A   1      41.079  30.779  34.935  1.00  0.00     0.074 A 
ATOM     51  C   UNL A   1      43.115  27.014  30.265  1.00  0.00     0.029 A 
ATOM     52  N   UNL A   1      41.976  28.456  31.515  1.00  0.00    -0.354 N 
ATOM     53  N   UNL A   1      41.454  30.063  33.903  1.00  0.00    -0.248 NA
ATOM     54  C   UNL A   1      41.908  30.582  36.135  1.00  0.00     0.031 C 
ATOM     55  C   UNL A   1      43.742  27.110  31.511  1.00  0.00     0.029 A 
ATOM     56  C   UNL A   1      43.042  28.023  32.283  1.00  0.00     0.049 A 
ATOM     57  H   UNL A   1      41.300  29.111  31.804  1.00  0.00     0.167 HD
ATOM     58  C   UNL A   1      42.578  29.357  34.316  1.00  0.00     0.074 A 
ATOM     59  C   UNL A   1      42.838  29.751  35.686  1.00  0.00     0.031 C 
ATOM     60  C   UNL A   1      43.319  28.455  33.629  1.00  0.00     0.034 A 
BRANCH  47  61
ATOM     61  C   UNL A   1      41.132  27.169  28.003  1.00  0.00     0.023 A 
ATOM     62  C   UNL A   1      41.761  27.691  26.854  1.00  0.00     0.012 A 
ATOM     63  C   UNL A   1      40.691  25.830  28.003  1.00  0.00     0.148 A 
ATOM     64  C   UNL A   1      41.922  26.904  25.713  1.00  0.00     0.002 A 
ATOM     65  C   UNL A   1      40.898  25.039  26.880  1.00  0.00     0.091 A 
ATOM     66  F   UNL A   1      40.079  25.359  29.099  1.00  0.00    -0.205 F 
ATOM     67  C   UNL A   1      41.502  25.576  25.732  1.00  0.00     0.022 A 
BRANCH  65  68
ATOM     68  S   UNL A   1      40.470  23.295  26.831  1.00  0.00     0.127 S 
ATOM     69  O   UNL A   1      39.045  23.351  26.509  1.00  0.00    -0.237 OA
ATOM     70  O   UNL A   1      41.322  22.802  25.748  1.00  0.00    -0.237 OA
ATOM     71  O   UNL A   1      40.790  22.763  28.148  1.00  0.00    -0.744 OA
ENDBRANCH  65  68
ENDBRANCH  47  61
BRANCH  48  72
ATOM     72  C   UNL A   1      39.694  32.499  36.316  1.00  0.00     0.023 A 
ATOM     73  C   UNL A   1      40.442  33.651  36.627  1.00  0.00     0.012 A 
ATOM     74  C   UNL A   1      38.703  32.059  37.216  1.00  0.00     0.148 A 
ATOM     75  C   UNL A   1      40.236  34.328  37.830  1.00  0.00     0.002 A 
ATOM     76  C   UNL A   1      38.461  32.774  38.383  1.00  0.00     0.091 A 
ATOM     77  F   UNL A   1      38.009  30.955  36.906  1.00  0.00    -0.205 F 
ATOM     78  C   UNL A   1      39.240  33.897  38.702  1.00  0.00     0.022 A 
BRANCH  76  79
ATOM     79  S   UNL A   1      37.113  32.369  39.497  1.00  0.00     0.127 S 
ATOM     80  O   UNL A   1      37.289  33.362  40.554  1.00  0.00    -0.237 OA
ATOM     81  O   UNL A   1      35.944  32.576  38.643  1.00  0.00    -0.237 OA
ATOM     82  O   UNL A   1      37.329  30.983  39.890  1.00  0.00    -0.744 OA
ENDBRANCH  76  79
ENDBRANCH  48  72
BRANCH  60  83
ATOM     83  C   UNL A   1      44.511  27.850  34.323  1.00  0.00     0.023 A 
ATOM     84  C   UNL A   1      45.760  28.501  34.276  1.00  0.00     0.012 A 
ATOM     85  C   UNL A   1      44.372  26.677  35.093  1.00  0.00     0.148 A 
ATOM     86  C   UNL A   1      46.858  27.977  34.958  1.00  0.00     0.002 A 
ATOM     87  C   UNL A   1      45.457  26.191  35.812  1.00  0.00     0.091 A 
ATOM     88  F   UNL A   1      43.179  26.065  35.113  1.00  0.00    -0.205 F 
ATOM     89  C   UNL A   1      46.704  26.832  35.735  1.00  0.00     0.022 A 
BRANCH  87  90
ATOM     90  S   UNL A   1      45.329  24.781  36.918  1.00  0.00     0.127 S 
ATOM     91  O   UNL A   1      44.302  25.232  37.857  1.00  0.00    -0.237 OA
ATOM     92  O   UNL A   1      44.902  23.717  36.010  1.00  0.00    -0.237 OA
ATOM     93  O   UNL A   1      46.655  24.595  37.490  1.00  0.00    -0.744 OA
ENDBRANCH  87  90
ENDBRANCH  60  83
ENDBRANCH  34  35
ENDBRANCH  26  29
ENDBRANCH  24  25
ENDBRANCH   1  24
TORSDOF 16
ENDMDL
