MODEL 1
REMARK VINA RESULT:     -11.7      0.000      0.000
REMARK SMILES COC(=O)C[C@H](c1ccc(C(=O)NCCCCNC(=O)c2ccc(-c3c4nc(c(-c5cccc(S(=O)(=O)[O-])c5F)c5ccc([nH]5)c(-c5cccc(S(=O)(=O)[O-])c5F)c5nc(c(-c6cccc(S(=O)(=O)[O-])c6F)c6ccc3[nH]6)C=C5)C=C4)cc2)cc1)c1c(O)n[nH]c1C
REMARK SMILES IDX 15 1 14 2 13 3 11 4 12 5 10 7 7 8 8 9 85 10 9 11 84 12 6 13
REMARK SMILES IDX 5 14 3 15 4 16 2 17 1 18 86 19 87 20 91 21 89 22 90 23 92 24
REMARK SMILES IDX 88 26 16 28 17 29 18 30 19 31 20 33 21 34 22 35 83 36 23 37
REMARK SMILES IDX 82 38 24 39 25 40 26 41 76 42 27 43 81 44 75 45 77 46 28 47
REMARK SMILES IDX 80 48 74 49 73 50 29 52 61 53 41 54 60 55 42 56 45 57 59 58
REMARK SMILES IDX 78 59 43 60 44 61 58 63 79 64 46 65 30 66 31 67 39 68 32 69
REMARK SMILES IDX 34 70 40 71 33 72 35 73 36 74 37 75 38 76 62 77 63 78 71 79
REMARK SMILES IDX 64 80 66 81 72 82 65 83 67 84 68 85 69 86 70 87 47 88 48 89
REMARK SMILES IDX 56 90 49 91 51 92 57 93 50 94 52 95 53 96 54 97 55 98
REMARK H PARENT 13 6 90 25 88 27 18 32 77 51 45 62
REMARK Flexibility Score: inf
ROOT
ATOM      1  C   UNL A   1      36.682  20.380  25.157  1.00  0.00     0.023 C 
ENDROOT
BRANCH   1   2
ATOM      2  C   UNL A   1      35.292  21.019  25.075  1.00  0.00     0.116 C 
BRANCH   2   3
ATOM      3  N   UNL A   1      34.780  21.293  26.399  1.00  0.00    -0.352 N 
ATOM      4  C   UNL A   1      34.080  22.344  26.931  1.00  0.00     0.251 C 
ATOM      5  O   UNL A   1      33.828  22.285  28.136  1.00  0.00    -0.269 OA
ATOM      6  H   UNL A   1      34.973  20.580  27.050  1.00  0.00     0.163 HD
BRANCH   4   7
ATOM      7  C   UNL A   1      33.567  23.512  26.149  1.00  0.00     0.039 A 
ATOM      8  C   UNL A   1      32.303  25.553  24.626  1.00  0.00    -0.040 A 
ATOM      9  C   UNL A   1      31.609  24.878  25.640  1.00  0.00     0.005 A 
ATOM     10  C   UNL A   1      33.659  25.257  24.450  1.00  0.00     0.005 A 
ATOM     11  C   UNL A   1      32.225  23.859  26.370  1.00  0.00     0.014 A 
ATOM     12  C   UNL A   1      34.285  24.273  25.225  1.00  0.00     0.014 A 
BRANCH   8  13
ATOM     13  C   UNL A   1      31.625  26.557  23.703  1.00  0.00     0.068 C 
BRANCH  13  14
ATOM     14  C   UNL A   1      30.300  27.108  24.250  1.00  0.00     0.136 C 
BRANCH  14  15
ATOM     15  C   UNL A   1      29.386  27.766  23.239  1.00  0.00     0.306 C 
ATOM     16  O   UNL A   1      28.174  27.875  23.346  1.00  0.00    -0.252 OA
BRANCH  15  17
ATOM     17  O   UNL A   1      30.111  28.204  22.168  1.00  0.00    -0.469 OA
ATOM     18  C   UNL A   1      29.957  29.594  21.865  1.00  0.00     0.282 C 
ENDBRANCH  15  17
ENDBRANCH  14  15
ENDBRANCH  13  14
BRANCH  13  19
ATOM     19  C   UNL A   1      32.694  27.526  23.272  1.00  0.00     0.044 A 
ATOM     20  C   UNL A   1      33.506  27.519  22.128  1.00  0.00     0.234 A 
ATOM     21  C   UNL A   1      33.174  28.638  23.963  1.00  0.00     0.040 A 
ATOM     22  N   UNL A   1      34.363  28.523  22.033  1.00  0.00    -0.137 NA
ATOM     23  N   UNL A   1      34.120  29.217  23.157  1.00  0.00    -0.279 N 
ATOM     24  C   UNL A   1      32.818  29.222  25.280  1.00  0.00     0.066 C 
ATOM     25  H   UNL A   1      34.575  30.060  23.380  1.00  0.00     0.190 HD
BRANCH  20  26
ATOM     26  O   UNL A   1      33.573  26.645  21.132  1.00  0.00    -0.492 OA
ATOM     27  H   UNL A   1      34.322  26.089  21.047  1.00  0.00     0.295 HD
ENDBRANCH  20  26
ENDBRANCH  13  19
ENDBRANCH   8  13
ENDBRANCH   4   7
ENDBRANCH   2   3
ENDBRANCH   1   2
BRANCH   1  28
ATOM     28  C   UNL A   1      37.828  21.361  24.898  1.00  0.00     0.023 C 
BRANCH  28  29
ATOM     29  C   UNL A   1      38.960  21.281  25.914  1.00  0.00     0.116 C 
BRANCH  29  30
ATOM     30  N   UNL A   1      39.713  20.035  25.833  1.00  0.00    -0.352 N 
ATOM     31  C   UNL A   1      41.071  19.872  25.990  1.00  0.00     0.251 C 
ATOM     32  H   UNL A   1      39.192  19.220  25.646  1.00  0.00     0.163 HD
ATOM     33  O   UNL A   1      41.603  18.789  25.800  1.00  0.00    -0.269 OA
BRANCH  31  34
ATOM     34  C   UNL A   1      41.871  21.059  26.345  1.00  0.00     0.039 A 
ATOM     35  C   UNL A   1      42.240  21.953  25.337  1.00  0.00     0.014 A 
ATOM     36  C   UNL A   1      42.161  21.327  27.684  1.00  0.00     0.014 A 
ATOM     37  C   UNL A   1      42.847  23.161  25.682  1.00  0.00     0.010 A 
ATOM     38  C   UNL A   1      42.709  22.555  28.029  1.00  0.00     0.010 A 
ATOM     39  C   UNL A   1      43.053  23.483  27.032  1.00  0.00    -0.014 A 
BRANCH  39  40
ATOM     40  C   UNL A   1      43.630  24.783  27.453  1.00  0.00     0.031 A 
ATOM     41  C   UNL A   1      42.714  25.857  27.969  1.00  0.00     0.074 A 
ATOM     42  C   UNL A   1      44.935  25.040  27.241  1.00  0.00     0.049 A 
ATOM     43  N   UNL A   1      42.971  27.115  28.209  1.00  0.00    -0.248 NA
ATOM     44  C   UNL A   1      41.313  25.471  28.209  1.00  0.00     0.031 C 
ATOM     45  C   UNL A   1      45.905  24.095  26.685  1.00  0.00     0.029 A 
ATOM     46  N   UNL A   1      45.660  26.191  27.424  1.00  0.00    -0.354 N 
ATOM     47  C   UNL A   1      41.756  27.684  28.571  1.00  0.00     0.074 A 
ATOM     48  C   UNL A   1      40.760  26.638  28.505  1.00  0.00     0.031 C 
ATOM     49  C   UNL A   1      47.095  24.708  26.560  1.00  0.00     0.029 A 
ATOM     50  C   UNL A   1      46.964  26.095  26.994  1.00  0.00     0.049 A 
ATOM     51  H   UNL A   1      45.283  27.007  27.825  1.00  0.00     0.167 HD
ATOM     52  C   UNL A   1      41.500  28.958  28.949  1.00  0.00     0.034 A 
ATOM     53  C   UNL A   1      47.937  27.026  26.941  1.00  0.00     0.034 A 
ATOM     54  C   UNL A   1      42.510  29.971  29.080  1.00  0.00     0.049 A 
ATOM     55  C   UNL A   1      47.640  28.419  27.431  1.00  0.00     0.074 A 
ATOM     56  C   UNL A   1      42.370  31.268  29.540  1.00  0.00     0.029 A 
ATOM     57  N   UNL A   1      43.846  29.798  28.760  1.00  0.00    -0.354 N 
ATOM     58  N   UNL A   1      46.516  28.904  27.901  1.00  0.00    -0.248 NA
ATOM     59  C   UNL A   1      48.749  29.384  27.414  1.00  0.00     0.031 C 
ATOM     60  C   UNL A   1      43.627  31.880  29.499  1.00  0.00     0.029 A 
ATOM     61  C   UNL A   1      44.548  30.962  29.019  1.00  0.00     0.049 A 
ATOM     62  H   UNL A   1      44.240  28.970  28.401  1.00  0.00     0.167 HD
ATOM     63  C   UNL A   1      46.793  30.213  28.277  1.00  0.00     0.074 A 
ATOM     64  C   UNL A   1      48.193  30.445  27.987  1.00  0.00     0.031 C 
ATOM     65  C   UNL A   1      45.959  31.144  28.801  1.00  0.00     0.034 A 
BRANCH  52  66
ATOM     66  C   UNL A   1      40.084  29.308  29.310  1.00  0.00     0.023 A 
ATOM     67  C   UNL A   1      39.169  29.631  28.288  1.00  0.00     0.012 A 
ATOM     68  C   UNL A   1      39.642  29.268  30.647  1.00  0.00     0.148 A 
ATOM     69  C   UNL A   1      37.845  29.940  28.590  1.00  0.00     0.002 A 
ATOM     70  C   UNL A   1      38.309  29.538  30.938  1.00  0.00     0.091 A 
ATOM     71  F   UNL A   1      40.532  28.985  31.609  1.00  0.00    -0.205 F 
ATOM     72  C   UNL A   1      37.412  29.883  29.913  1.00  0.00     0.022 A 
BRANCH  70  73
ATOM     73  S   UNL A   1      37.644  29.418  32.602  1.00  0.00     0.127 S 
ATOM     74  O   UNL A   1      38.570  30.266  33.351  1.00  0.00    -0.237 OA
ATOM     75  O   UNL A   1      36.301  29.975  32.442  1.00  0.00    -0.237 OA
ATOM     76  O   UNL A   1      37.673  28.002  32.940  1.00  0.00    -0.744 OA
ENDBRANCH  70  73
ENDBRANCH  52  66
BRANCH  53  77
ATOM     77  C   UNL A   1      49.302  26.650  26.476  1.00  0.00     0.023 A 
ATOM     78  C   UNL A   1      50.074  25.771  27.262  1.00  0.00     0.012 A 
ATOM     79  C   UNL A   1      49.826  27.120  25.256  1.00  0.00     0.148 A 
ATOM     80  C   UNL A   1      51.352  25.388  26.855  1.00  0.00     0.002 A 
ATOM     81  C   UNL A   1      51.081  26.693  24.833  1.00  0.00     0.091 A 
ATOM     82  F   UNL A   1      49.084  27.967  24.529  1.00  0.00    -0.205 F 
ATOM     83  C   UNL A   1      51.851  25.840  25.637  1.00  0.00     0.022 A 
BRANCH  81  84
ATOM     84  S   UNL A   1      51.743  27.123  23.218  1.00  0.00     0.127 S 
ATOM     85  O   UNL A   1      52.923  26.268  23.141  1.00  0.00    -0.237 OA
ATOM     86  O   UNL A   1      50.646  26.741  22.326  1.00  0.00    -0.237 OA
ATOM     87  O   UNL A   1      51.992  28.557  23.272  1.00  0.00    -0.744 OA
ENDBRANCH  81  84
ENDBRANCH  53  77
BRANCH  65  88
ATOM     88  C   UNL A   1      46.532  32.488  29.156  1.00  0.00     0.023 A 
ATOM     89  C   UNL A   1      47.164  32.669  30.400  1.00  0.00     0.012 A 
ATOM     90  C   UNL A   1      46.557  33.526  28.204  1.00  0.00     0.148 A 
ATOM     91  C   UNL A   1      47.806  33.872  30.697  1.00  0.00     0.002 A 
ATOM     92  C   UNL A   1      47.234  34.706  28.490  1.00  0.00     0.091 A 
ATOM     93  F   UNL A   1      45.932  33.334  27.033  1.00  0.00    -0.205 F 
ATOM     94  C   UNL A   1      47.852  34.882  29.739  1.00  0.00     0.022 A 
BRANCH  92  95
ATOM     95  S   UNL A   1      47.429  36.022  27.284  1.00  0.00     0.127 S 
ATOM     96  O   UNL A   1      46.128  36.685  27.355  1.00  0.00    -0.237 OA
ATOM     97  O   UNL A   1      48.539  36.793  27.843  1.00  0.00    -0.237 OA
ATOM     98  O   UNL A   1      47.726  35.367  26.016  1.00  0.00    -0.744 OA
ENDBRANCH  92  95
ENDBRANCH  65  88
ENDBRANCH  39  40
ENDBRANCH  31  34
ENDBRANCH  29  30
ENDBRANCH  28  29
ENDBRANCH   1  28
TORSDOF 20
ENDMDL
MODEL 2
REMARK VINA RESULT:     -11.7      2.383      3.487
REMARK SMILES COC(=O)C[C@H](c1ccc(C(=O)NCCCCNC(=O)c2ccc(-c3c4nc(c(-c5cccc(S(=O)(=O)[O-])c5F)c5ccc([nH]5)c(-c5cccc(S(=O)(=O)[O-])c5F)c5nc(c(-c6cccc(S(=O)(=O)[O-])c6F)c6ccc3[nH]6)C=C5)C=C4)cc2)cc1)c1c(O)n[nH]c1C
REMARK SMILES IDX 15 1 14 2 13 3 11 4 12 5 10 7 7 8 8 9 85 10 9 11 84 12 6 13
REMARK SMILES IDX 5 14 3 15 4 16 2 17 1 18 86 19 87 20 91 21 89 22 90 23 92 24
REMARK SMILES IDX 88 26 16 28 17 29 18 30 19 31 20 33 21 34 22 35 83 36 23 37
REMARK SMILES IDX 82 38 24 39 25 40 26 41 76 42 27 43 81 44 75 45 77 46 28 47
REMARK SMILES IDX 80 48 74 49 73 50 29 52 61 53 41 54 60 55 42 56 45 57 59 58
REMARK SMILES IDX 78 59 43 60 44 61 58 63 79 64 46 65 30 66 31 67 39 68 32 69
REMARK SMILES IDX 34 70 40 71 33 72 35 73 36 74 37 75 38 76 62 77 63 78 71 79
REMARK SMILES IDX 64 80 66 81 72 82 65 83 67 84 68 85 69 86 70 87 47 88 48 89
REMARK SMILES IDX 56 90 49 91 51 92 57 93 50 94 52 95 53 96 54 97 55 98
REMARK H PARENT 13 6 90 25 88 27 18 32 77 51 45 62
REMARK Flexibility Score: inf
ROOT
ATOM      1  C   UNL A   1      33.515  23.356  25.809  1.00  0.00     0.023 C 
ENDROOT
BRANCH   1   2
ATOM      2  C   UNL A   1      32.782  22.351  24.915  1.00  0.00     0.116 C 
BRANCH   2   3
ATOM      3  N   UNL A   1      33.144  22.546  23.529  1.00  0.00    -0.352 N 
ATOM      4  C   UNL A   1      32.850  23.522  22.615  1.00  0.00     0.251 C 
ATOM      5  O   UNL A   1      33.294  23.363  21.476  1.00  0.00    -0.269 OA
ATOM      6  H   UNL A   1      33.720  21.832  23.170  1.00  0.00     0.163 HD
BRANCH   4   7
ATOM      7  C   UNL A   1      32.082  24.771  22.915  1.00  0.00     0.039 A 
ATOM      8  C   UNL A   1      30.924  27.284  23.565  1.00  0.00    -0.040 A 
ATOM      9  C   UNL A   1      32.103  27.209  22.811  1.00  0.00     0.005 A 
ATOM     10  C   UNL A   1      30.287  26.087  23.907  1.00  0.00     0.005 A 
ATOM     11  C   UNL A   1      32.683  25.974  22.514  1.00  0.00     0.014 A 
ATOM     12  C   UNL A   1      30.845  24.851  23.557  1.00  0.00     0.014 A 
BRANCH   8  13
ATOM     13  C   UNL A   1      30.345  28.609  24.046  1.00  0.00     0.068 C 
BRANCH  13  14
ATOM     14  C   UNL A   1      31.405  29.611  24.531  1.00  0.00     0.136 C 
BRANCH  14  15
ATOM     15  C   UNL A   1      32.069  29.286  25.851  1.00  0.00     0.306 C 
ATOM     16  O   UNL A   1      33.211  29.588  26.162  1.00  0.00    -0.252 OA
BRANCH  15  17
ATOM     17  O   UNL A   1      31.211  28.582  26.647  1.00  0.00    -0.469 OA
ATOM     18  C   UNL A   1      31.842  27.768  27.639  1.00  0.00     0.282 C 
ENDBRANCH  15  17
ENDBRANCH  14  15
ENDBRANCH  13  14
BRANCH  13  19
ATOM     19  C   UNL A   1      29.357  29.045  22.997  1.00  0.00     0.044 A 
ATOM     20  C   UNL A   1      29.544  29.851  21.864  1.00  0.00     0.234 A 
ATOM     21  C   UNL A   1      27.986  28.793  22.952  1.00  0.00     0.040 A 
ATOM     22  N   UNL A   1      28.464  30.055  21.127  1.00  0.00    -0.137 NA
ATOM     23  N   UNL A   1      27.524  29.369  21.796  1.00  0.00    -0.279 N 
ATOM     24  C   UNL A   1      27.080  28.049  23.861  1.00  0.00     0.066 C 
ATOM     25  H   UNL A   1      26.594  29.286  21.487  1.00  0.00     0.190 HD
BRANCH  20  26
ATOM     26  O   UNL A   1      30.633  30.470  21.425  1.00  0.00    -0.492 OA
ATOM     27  H   UNL A   1      31.238  30.016  20.872  1.00  0.00     0.295 HD
ENDBRANCH  20  26
ENDBRANCH  13  19
ENDBRANCH   8  13
ENDBRANCH   4   7
ENDBRANCH   2   3
ENDBRANCH   1   2
BRANCH   1  28
ATOM     28  C   UNL A   1      34.458  22.707  26.824  1.00  0.00     0.023 C 
BRANCH  28  29
ATOM     29  C   UNL A   1      35.936  22.875  26.499  1.00  0.00     0.116 C 
BRANCH  29  30
ATOM     30  N   UNL A   1      36.569  21.637  26.061  1.00  0.00    -0.352 N 
ATOM     31  C   UNL A   1      37.912  21.416  25.857  1.00  0.00     0.251 C 
ATOM     32  H   UNL A   1      35.969  20.875  25.894  1.00  0.00     0.163 HD
ATOM     33  O   UNL A   1      38.316  20.361  25.392  1.00  0.00    -0.269 OA
BRANCH  31  34
ATOM     34  C   UNL A   1      38.847  22.514  26.170  1.00  0.00     0.039 A 
ATOM     35  C   UNL A   1      38.569  23.796  25.690  1.00  0.00     0.014 A 
ATOM     36  C   UNL A   1      39.932  22.284  27.017  1.00  0.00     0.014 A 
ATOM     37  C   UNL A   1      39.349  24.871  26.119  1.00  0.00     0.010 A 
ATOM     38  C   UNL A   1      40.667  23.361  27.489  1.00  0.00     0.010 A 
ATOM     39  C   UNL A   1      40.381  24.664  27.048  1.00  0.00    -0.014 A 
BRANCH  39  40
ATOM     40  C   UNL A   1      41.191  25.782  27.588  1.00  0.00     0.031 A 
ATOM     41  C   UNL A   1      40.523  26.830  28.433  1.00  0.00     0.074 A 
ATOM     42  C   UNL A   1      42.475  25.927  27.206  1.00  0.00     0.049 A 
ATOM     43  N   UNL A   1      40.988  27.979  28.844  1.00  0.00    -0.248 NA
ATOM     44  C   UNL A   1      39.131  26.564  28.835  1.00  0.00     0.031 C 
ATOM     45  C   UNL A   1      43.210  25.007  26.335  1.00  0.00     0.029 A 
ATOM     46  N   UNL A   1      43.376  26.931  27.463  1.00  0.00    -0.354 N 
ATOM     47  C   UNL A   1      39.933  28.598  29.502  1.00  0.00     0.074 A 
ATOM     48  C   UNL A   1      38.799  27.705  29.423  1.00  0.00     0.031 C 
ATOM     49  C   UNL A   1      44.443  25.495  26.120  1.00  0.00     0.029 A 
ATOM     50  C   UNL A   1      44.576  26.775  26.809  1.00  0.00     0.049 A 
ATOM     51  H   UNL A   1      43.181  27.689  28.060  1.00  0.00     0.167 HD
ATOM     52  C   UNL A   1      39.919  29.793  30.136  1.00  0.00     0.034 A 
ATOM     53  C   UNL A   1      45.654  27.583  26.756  1.00  0.00     0.034 A 
ATOM     54  C   UNL A   1      41.071  30.641  30.271  1.00  0.00     0.049 A 
ATOM     55  C   UNL A   1      45.632  28.877  27.527  1.00  0.00     0.074 A 
ATOM     56  C   UNL A   1      41.186  31.828  30.970  1.00  0.00     0.029 A 
ATOM     57  N   UNL A   1      42.308  30.385  29.703  1.00  0.00    -0.354 N 
ATOM     58  N   UNL A   1      44.670  29.383  28.260  1.00  0.00    -0.248 NA
ATOM     59  C   UNL A   1      46.853  29.695  27.493  1.00  0.00     0.031 C 
ATOM     60  C   UNL A   1      42.497  32.291  30.824  1.00  0.00     0.029 A 
ATOM     61  C   UNL A   1      43.198  31.388  30.041  1.00  0.00     0.049 A 
ATOM     62  H   UNL A   1      42.523  29.605  29.142  1.00  0.00     0.167 HD
ATOM     63  C   UNL A   1      45.182  30.553  28.808  1.00  0.00     0.074 A 
ATOM     64  C   UNL A   1      46.543  30.678  28.330  1.00  0.00     0.031 C 
ATOM     65  C   UNL A   1      44.574  31.450  29.622  1.00  0.00     0.034 A 
BRANCH  52  66
ATOM     66  C   UNL A   1      38.635  30.222  30.789  1.00  0.00     0.023 A 
ATOM     67  C   UNL A   1      38.374  29.840  32.121  1.00  0.00     0.012 A 
ATOM     68  C   UNL A   1      37.711  31.041  30.111  1.00  0.00     0.148 A 
ATOM     69  C   UNL A   1      37.201  30.240  32.758  1.00  0.00     0.002 A 
ATOM     70  C   UNL A   1      36.562  31.468  30.766  1.00  0.00     0.091 A 
ATOM     71  F   UNL A   1      37.962  31.371  28.836  1.00  0.00    -0.205 F 
ATOM     72  C   UNL A   1      36.301  31.062  32.085  1.00  0.00     0.022 A 
BRANCH  70  73
ATOM     73  S   UNL A   1      35.382  32.589  30.006  1.00  0.00     0.127 S 
ATOM     74  O   UNL A   1      34.823  31.754  28.944  1.00  0.00    -0.237 OA
ATOM     75  O   UNL A   1      34.462  32.868  31.109  1.00  0.00    -0.237 OA
ATOM     76  O   UNL A   1      36.156  33.739  29.560  1.00  0.00    -0.744 OA
ENDBRANCH  70  73
ENDBRANCH  52  66
BRANCH  53  77
ATOM     77  C   UNL A   1      46.869  27.155  26.007  1.00  0.00     0.023 A 
ATOM     78  C   UNL A   1      47.740  26.218  26.597  1.00  0.00     0.012 A 
ATOM     79  C   UNL A   1      47.149  27.633  24.713  1.00  0.00     0.148 A 
ATOM     80  C   UNL A   1      48.883  25.786  25.923  1.00  0.00     0.002 A 
ATOM     81  C   UNL A   1      48.263  27.159  24.027  1.00  0.00     0.091 A 
ATOM     82  F   UNL A   1      46.318  28.535  24.173  1.00  0.00    -0.205 F 
ATOM     83  C   UNL A   1      49.138  26.246  24.635  1.00  0.00     0.022 A 
BRANCH  81  84
ATOM     84  S   UNL A   1      48.593  27.601  22.316  1.00  0.00     0.127 S 
ATOM     85  O   UNL A   1      48.672  26.291  21.678  1.00  0.00    -0.237 OA
ATOM     86  O   UNL A   1      47.407  28.386  21.969  1.00  0.00    -0.237 OA
ATOM     87  O   UNL A   1      49.828  28.373  22.349  1.00  0.00    -0.744 OA
ENDBRANCH  81  84
ENDBRANCH  53  77
BRANCH  65  88
ATOM     88  C   UNL A   1      45.378  32.625  30.106  1.00  0.00     0.023 A 
ATOM     89  C   UNL A   1      46.194  32.488  31.245  1.00  0.00     0.012 A 
ATOM     90  C   UNL A   1      45.423  33.816  29.355  1.00  0.00     0.148 A 
ATOM     91  C   UNL A   1      47.037  33.528  31.637  1.00  0.00     0.002 A 
ATOM     92  C   UNL A   1      46.296  34.831  29.728  1.00  0.00     0.091 A 
ATOM     93  F   UNL A   1      44.622  33.927  28.285  1.00  0.00    -0.205 F 
ATOM     94  C   UNL A   1      47.098  34.691  30.872  1.00  0.00     0.022 A 
BRANCH  92  95
ATOM     95  S   UNL A   1      46.512  36.322  28.750  1.00  0.00     0.127 S 
ATOM     96  O   UNL A   1      46.936  35.775  27.463  1.00  0.00    -0.237 OA
ATOM     97  O   UNL A   1      45.166  36.895  28.756  1.00  0.00    -0.237 OA
ATOM     98  O   UNL A   1      47.512  37.121  29.447  1.00  0.00    -0.744 OA
ENDBRANCH  92  95
ENDBRANCH  65  88
ENDBRANCH  39  40
ENDBRANCH  31  34
ENDBRANCH  29  30
ENDBRANCH  28  29
ENDBRANCH   1  28
TORSDOF 20
ENDMDL
MODEL 3
REMARK VINA RESULT:     -11.5      6.433     10.816
REMARK SMILES COC(=O)C[C@H](c1ccc(C(=O)NCCCCNC(=O)c2ccc(-c3c4nc(c(-c5cccc(S(=O)(=O)[O-])c5F)c5ccc([nH]5)c(-c5cccc(S(=O)(=O)[O-])c5F)c5nc(c(-c6cccc(S(=O)(=O)[O-])c6F)c6ccc3[nH]6)C=C5)C=C4)cc2)cc1)c1c(O)n[nH]c1C
REMARK SMILES IDX 15 1 14 2 13 3 11 4 12 5 10 7 7 8 8 9 85 10 9 11 84 12 6 13
REMARK SMILES IDX 5 14 3 15 4 16 2 17 1 18 86 19 87 20 91 21 89 22 90 23 92 24
REMARK SMILES IDX 88 26 16 28 17 29 18 30 19 31 20 33 21 34 22 35 83 36 23 37
REMARK SMILES IDX 82 38 24 39 25 40 26 41 76 42 27 43 81 44 75 45 77 46 28 47
REMARK SMILES IDX 80 48 74 49 73 50 29 52 61 53 41 54 60 55 42 56 45 57 59 58
REMARK SMILES IDX 78 59 43 60 44 61 58 63 79 64 46 65 30 66 31 67 39 68 32 69
REMARK SMILES IDX 34 70 40 71 33 72 35 73 36 74 37 75 38 76 62 77 63 78 71 79
REMARK SMILES IDX 64 80 66 81 72 82 65 83 67 84 68 85 69 86 70 87 47 88 48 89
REMARK SMILES IDX 56 90 49 91 51 92 57 93 50 94 52 95 53 96 54 97 55 98
REMARK H PARENT 13 6 90 25 88 27 18 32 77 51 45 62
REMARK Flexibility Score: inf
ROOT
ATOM      1  C   UNL A   1      35.613  33.939  28.690  1.00  0.00     0.023 C 
ENDROOT
BRANCH   1   2
ATOM      2  C   UNL A   1      35.096  32.740  27.890  1.00  0.00     0.116 C 
BRANCH   2   3
ATOM      3  N   UNL A   1      35.797  31.534  28.273  1.00  0.00    -0.352 N 
ATOM      4  C   UNL A   1      35.530  30.203  28.094  1.00  0.00     0.251 C 
ATOM      5  O   UNL A   1      36.330  29.409  28.592  1.00  0.00    -0.269 OA
ATOM      6  H   UNL A   1      36.635  31.705  28.759  1.00  0.00     0.163 HD
BRANCH   4   7
ATOM      7  C   UNL A   1      34.381  29.659  27.304  1.00  0.00     0.039 A 
ATOM      8  C   UNL A   1      32.425  28.565  25.555  1.00  0.00    -0.040 A 
ATOM      9  C   UNL A   1      33.676  27.951  25.709  1.00  0.00     0.005 A 
ATOM     10  C   UNL A   1      32.137  29.675  26.356  1.00  0.00     0.005 A 
ATOM     11  C   UNL A   1      34.644  28.505  26.550  1.00  0.00     0.014 A 
ATOM     12  C   UNL A   1      33.092  30.191  27.239  1.00  0.00     0.014 A 
BRANCH   8  13
ATOM     13  C   UNL A   1      31.402  28.086  24.533  1.00  0.00     0.068 C 
BRANCH  13  14
ATOM     14  C   UNL A   1      30.510  29.206  23.976  1.00  0.00     0.136 C 
BRANCH  14  15
ATOM     15  C   UNL A   1      29.645  28.836  22.790  1.00  0.00     0.306 C 
ATOM     16  O   UNL A   1      29.979  28.918  21.618  1.00  0.00    -0.252 OA
BRANCH  15  17
ATOM     17  O   UNL A   1      28.418  28.416  23.219  1.00  0.00    -0.469 OA
ATOM     18  C   UNL A   1      28.357  27.041  23.611  1.00  0.00     0.282 C 
ENDBRANCH  15  17
ENDBRANCH  14  15
ENDBRANCH  13  14
BRANCH  13  19
ATOM     19  C   UNL A   1      32.148  27.201  23.570  1.00  0.00     0.044 A 
ATOM     20  C   UNL A   1      32.957  27.542  22.476  1.00  0.00     0.234 A 
ATOM     21  C   UNL A   1      32.147  25.808  23.508  1.00  0.00     0.040 A 
ATOM     22  N   UNL A   1      33.480  26.522  21.816  1.00  0.00    -0.137 NA
ATOM     23  N   UNL A   1      32.995  25.465  22.486  1.00  0.00    -0.279 N 
ATOM     24  C   UNL A   1      31.459  24.775  24.322  1.00  0.00     0.066 C 
ATOM     25  H   UNL A   1      33.225  24.534  22.267  1.00  0.00     0.190 HD
BRANCH  20  26
ATOM     26  O   UNL A   1      33.263  28.733  21.977  1.00  0.00    -0.492 OA
ATOM     27  H   UNL A   1      33.796  29.325  22.472  1.00  0.00     0.295 HD
ENDBRANCH  20  26
ENDBRANCH  13  19
ENDBRANCH   8  13
ENDBRANCH   4   7
ENDBRANCH   2   3
ENDBRANCH   1   2
BRANCH   1  28
ATOM     28  C   UNL A   1      34.559  35.023  28.928  1.00  0.00     0.023 C 
BRANCH  28  29
ATOM     29  C   UNL A   1      33.294  34.524  29.615  1.00  0.00     0.116 C 
BRANCH  29  30
ATOM     30  N   UNL A   1      32.640  35.547  30.420  1.00  0.00    -0.352 N 
ATOM     31  C   UNL A   1      32.882  35.849  31.741  1.00  0.00     0.251 C 
ATOM     32  H   UNL A   1      31.948  36.083  29.968  1.00  0.00     0.163 HD
ATOM     33  O   UNL A   1      32.198  36.664  32.339  1.00  0.00    -0.269 OA
BRANCH  31  34
ATOM     34  C   UNL A   1      33.964  35.117  32.427  1.00  0.00     0.039 A 
ATOM     35  C   UNL A   1      33.677  33.886  33.023  1.00  0.00     0.014 A 
ATOM     36  C   UNL A   1      35.271  35.607  32.385  1.00  0.00     0.014 A 
ATOM     37  C   UNL A   1      34.722  33.108  33.523  1.00  0.00     0.010 A 
ATOM     38  C   UNL A   1      36.313  34.805  32.829  1.00  0.00     0.010 A 
ATOM     39  C   UNL A   1      36.049  33.548  33.398  1.00  0.00    -0.014 A 
BRANCH  39  40
ATOM     40  C   UNL A   1      37.198  32.727  33.849  1.00  0.00     0.031 A 
ATOM     41  C   UNL A   1      37.942  33.130  35.091  1.00  0.00     0.074 A 
ATOM     42  C   UNL A   1      37.650  31.721  33.076  1.00  0.00     0.049 A 
ATOM     43  N   UNL A   1      39.075  32.678  35.557  1.00  0.00    -0.248 NA
ATOM     44  C   UNL A   1      37.349  34.214  35.894  1.00  0.00     0.031 C 
ATOM     45  C   UNL A   1      37.046  31.283  31.816  1.00  0.00     0.029 A 
ATOM     46  N   UNL A   1      38.752  30.914  33.214  1.00  0.00    -0.354 N 
ATOM     47  C   UNL A   1      39.361  33.457  36.671  1.00  0.00     0.074 A 
ATOM     48  C   UNL A   1      38.291  34.420  36.803  1.00  0.00     0.031 C 
ATOM     49  C   UNL A   1      37.792  30.296  31.291  1.00  0.00     0.029 A 
ATOM     50  C   UNL A   1      38.942  30.055  32.156  1.00  0.00     0.049 A 
ATOM     51  H   UNL A   1      39.349  30.947  33.996  1.00  0.00     0.167 HD
ATOM     52  C   UNL A   1      40.409  33.361  37.522  1.00  0.00     0.034 A 
ATOM     53  C   UNL A   1      39.941  29.185  31.906  1.00  0.00     0.034 A 
ATOM     54  C   UNL A   1      41.429  32.355  37.423  1.00  0.00     0.049 A 
ATOM     55  C   UNL A   1      41.060  29.054  32.905  1.00  0.00     0.074 A 
ATOM     56  C   UNL A   1      42.485  32.116  38.284  1.00  0.00     0.029 A 
ATOM     57  N   UNL A   1      41.515  31.417  36.408  1.00  0.00    -0.354 N 
ATOM     58  N   UNL A   1      41.242  29.706  34.028  1.00  0.00    -0.248 NA
ATOM     59  C   UNL A   1      42.094  28.047  32.623  1.00  0.00     0.031 C 
ATOM     60  C   UNL A   1      43.211  31.028  37.787  1.00  0.00     0.029 A 
ATOM     61  C   UNL A   1      42.602  30.588  36.623  1.00  0.00     0.049 A 
ATOM     62  H   UNL A   1      40.895  31.349  35.646  1.00  0.00     0.167 HD
ATOM     63  C   UNL A   1      42.382  29.160  34.606  1.00  0.00     0.074 A 
ATOM     64  C   UNL A   1      42.846  28.118  33.714  1.00  0.00     0.031 C 
ATOM     65  C   UNL A   1      42.998  29.502  35.764  1.00  0.00     0.034 A 
BRANCH  52  66
ATOM     66  C   UNL A   1      40.467  34.330  38.670  1.00  0.00     0.023 A 
ATOM     67  C   UNL A   1      41.260  35.490  38.556  1.00  0.00     0.012 A 
ATOM     68  C   UNL A   1      39.704  34.125  39.836  1.00  0.00     0.148 A 
ATOM     69  C   UNL A   1      41.318  36.416  39.596  1.00  0.00     0.002 A 
ATOM     70  C   UNL A   1      39.736  35.072  40.852  1.00  0.00     0.091 A 
ATOM     71  F   UNL A   1      38.978  33.003  39.937  1.00  0.00    -0.205 F 
ATOM     72  C   UNL A   1      40.548  36.213  40.739  1.00  0.00     0.022 A 
BRANCH  70  73
ATOM     73  S   UNL A   1      38.722  34.933  42.329  1.00  0.00     0.127 S 
ATOM     74  O   UNL A   1      39.077  36.156  43.047  1.00  0.00    -0.237 OA
ATOM     75  O   UNL A   1      37.367  34.922  41.776  1.00  0.00    -0.237 OA
ATOM     76  O   UNL A   1      39.122  33.688  42.970  1.00  0.00    -0.744 OA
ENDBRANCH  70  73
ENDBRANCH  52  66
BRANCH  53  77
ATOM     77  C   UNL A   1      39.886  28.317  30.696  1.00  0.00     0.023 A 
ATOM     78  C   UNL A   1      39.050  27.184  30.705  1.00  0.00     0.012 A 
ATOM     79  C   UNL A   1      40.618  28.621  29.532  1.00  0.00     0.148 A 
ATOM     80  C   UNL A   1      38.964  26.353  29.588  1.00  0.00     0.002 A 
ATOM     81  C   UNL A   1      40.488  27.816  28.404  1.00  0.00     0.091 A 
ATOM     82  F   UNL A   1      41.419  29.695  29.546  1.00  0.00    -0.205 F 
ATOM     83  C   UNL A   1      39.673  26.674  28.434  1.00  0.00     0.022 A 
BRANCH  81  84
ATOM     84  S   UNL A   1      41.264  28.232  26.837  1.00  0.00     0.127 S 
ATOM     85  O   UNL A   1      42.569  28.723  27.271  1.00  0.00    -0.237 OA
ATOM     86  O   UNL A   1      41.290  26.937  26.155  1.00  0.00    -0.237 OA
ATOM     87  O   UNL A   1      40.384  29.212  26.218  1.00  0.00    -0.744 OA
ENDBRANCH  81  84
ENDBRANCH  53  77
BRANCH  65  88
ATOM     88  C   UNL A   1      44.209  28.715  36.181  1.00  0.00     0.023 A 
ATOM     89  C   UNL A   1      45.490  29.159  35.805  1.00  0.00     0.012 A 
ATOM     90  C   UNL A   1      44.080  27.615  37.051  1.00  0.00     0.148 A 
ATOM     91  C   UNL A   1      46.630  28.511  36.282  1.00  0.00     0.002 A 
ATOM     92  C   UNL A   1      45.220  27.000  37.556  1.00  0.00     0.091 A 
ATOM     93  F   UNL A   1      42.847  27.202  37.380  1.00  0.00    -0.205 F 
ATOM     94  C   UNL A   1      46.494  27.442  37.166  1.00  0.00     0.022 A 
BRANCH  92  95
ATOM     95  S   UNL A   1      45.144  25.682  38.773  1.00  0.00     0.127 S 
ATOM     96  O   UNL A   1      46.556  25.504  39.107  1.00  0.00    -0.237 OA
ATOM     97  O   UNL A   1      44.337  26.286  39.834  1.00  0.00    -0.237 OA
ATOM     98  O   UNL A   1      44.514  24.550  38.105  1.00  0.00    -0.744 OA
ENDBRANCH  92  95
ENDBRANCH  65  88
ENDBRANCH  39  40
ENDBRANCH  31  34
ENDBRANCH  29  30
ENDBRANCH  28  29
ENDBRANCH   1  28
TORSDOF 20
ENDMDL
