MODEL 1
REMARK VINA RESULT:     -11.6      0.000      0.000
REMARK SMILES CCc1cccc(-c2ccc([C@@H](C)C(=O)NCCCCNC(=O)c3ccc(-c4c5nc(c(-c6cccc(S(=O)(=O)[O-])c6F)c6ccc([nH]6)c(-c6cccc(S(=O)(=O)[O-])c6F)c6nc(c(-c7cccc(S(=O)(=O)[O-])c7F)c7ccc4[nH]7)C=C6)C=C5)cc3)cc2)c1
REMARK SMILES IDX 18 1 17 2 16 3 14 4 15 5 12 7 13 8 11 9 8 10 9 11 88 12
REMARK SMILES IDX 10 13 87 14 7 15 3 16 4 17 89 18 5 19 6 20 2 21 1 22 19 23
REMARK SMILES IDX 20 24 21 25 22 26 23 28 24 29 25 30 86 31 26 32 85 33 27 34
REMARK SMILES IDX 28 35 29 36 79 37 30 38 84 39 78 40 80 41 31 42 83 43 77 44
REMARK SMILES IDX 76 45 32 47 64 48 44 49 63 50 45 51 48 52 62 53 81 54 46 55
REMARK SMILES IDX 47 56 61 58 82 59 49 60 33 61 34 62 42 63 35 64 37 65 43 66
REMARK SMILES IDX 36 67 38 68 39 69 40 70 41 71 65 72 66 73 74 74 67 75 69 76
REMARK SMILES IDX 75 77 68 78 70 79 71 80 72 81 73 82 50 83 51 84 59 85 52 86
REMARK SMILES IDX 54 87 60 88 53 89 55 90 56 91 57 92 58 93
REMARK H PARENT 16 6 21 27 80 46 48 57
REMARK Flexibility Score: inf
ROOT
ATOM      1  C   UNL A   1      32.016  29.713  25.072  1.00  0.00     0.023 C 
ENDROOT
BRANCH   1   2
ATOM      2  C   UNL A   1      30.568  30.084  24.754  1.00  0.00     0.116 C 
BRANCH   2   3
ATOM      3  N   UNL A   1      30.343  30.262  23.334  1.00  0.00    -0.356 N 
ATOM      4  C   UNL A   1      29.759  29.456  22.406  1.00  0.00     0.227 C 
ATOM      5  O   UNL A   1      29.755  29.863  21.238  1.00  0.00    -0.274 OA
ATOM      6  H   UNL A   1      30.672  31.118  22.976  1.00  0.00     0.163 HD
BRANCH   4   7
ATOM      7  C   UNL A   1      29.100  28.107  22.739  1.00  0.00     0.105 C 
ATOM      8  C   UNL A   1      27.722  28.239  23.390  1.00  0.00     0.023 C 
BRANCH   7   9
ATOM      9  C   UNL A   1      30.052  27.106  23.376  1.00  0.00    -0.036 A 
ATOM     10  C   UNL A   1      31.981  25.384  24.607  1.00  0.00    -0.018 A 
ATOM     11  C   UNL A   1      30.703  25.584  25.157  1.00  0.00     0.009 A 
ATOM     12  C   UNL A   1      32.253  26.044  23.400  1.00  0.00     0.009 A 
ATOM     13  C   UNL A   1      29.747  26.397  24.538  1.00  0.00     0.005 A 
ATOM     14  C   UNL A   1      31.317  26.905  22.807  1.00  0.00     0.005 A 
BRANCH  10  15
ATOM     15  C   UNL A   1      32.985  24.527  25.288  1.00  0.00    -0.018 A 
ATOM     16  C   UNL A   1      35.308  23.726  25.558  1.00  0.00    -0.048 A 
ATOM     17  C   UNL A   1      34.903  22.941  26.640  1.00  0.00     0.004 A 
ATOM     18  C   UNL A   1      34.340  24.514  24.901  1.00  0.00     0.012 A 
ATOM     19  C   UNL A   1      33.572  22.933  27.046  1.00  0.00     0.001 A 
ATOM     20  C   UNL A   1      32.626  23.706  26.372  1.00  0.00     0.009 A 
BRANCH  16  21
ATOM     21  C   UNL A   1      36.731  23.764  25.045  1.00  0.00     0.032 C 
ATOM     22  C   UNL A   1      37.839  23.778  26.092  1.00  0.00     0.009 C 
ENDBRANCH  16  21
ENDBRANCH  10  15
ENDBRANCH   7   9
ENDBRANCH   4   7
ENDBRANCH   2   3
ENDBRANCH   1   2
BRANCH   1  23
ATOM     23  C   UNL A   1      32.199  28.781  26.269  1.00  0.00     0.023 C 
BRANCH  23  24
ATOM     24  C   UNL A   1      33.333  29.149  27.221  1.00  0.00     0.116 C 
BRANCH  24  25
ATOM     25  N   UNL A   1      33.568  30.581  27.342  1.00  0.00    -0.352 N 
ATOM     26  C   UNL A   1      34.696  31.220  27.812  1.00  0.00     0.251 C 
ATOM     27  H   UNL A   1      32.832  31.166  27.053  1.00  0.00     0.163 HD
ATOM     28  O   UNL A   1      34.722  32.438  27.921  1.00  0.00    -0.269 OA
BRANCH  26  29
ATOM     29  C   UNL A   1      35.858  30.404  28.229  1.00  0.00     0.039 A 
ATOM     30  C   UNL A   1      36.988  30.366  27.407  1.00  0.00     0.014 A 
ATOM     31  C   UNL A   1      35.856  29.743  29.459  1.00  0.00     0.014 A 
ATOM     32  C   UNL A   1      38.147  29.731  27.860  1.00  0.00     0.010 A 
ATOM     33  C   UNL A   1      37.033  29.178  29.937  1.00  0.00     0.010 A 
ATOM     34  C   UNL A   1      38.192  29.170  29.147  1.00  0.00    -0.014 A 
BRANCH  34  35
ATOM     35  C   UNL A   1      39.442  28.589  29.700  1.00  0.00     0.031 A 
ATOM     36  C   UNL A   1      40.085  29.202  30.914  1.00  0.00     0.074 A 
ATOM     37  C   UNL A   1      40.057  27.584  29.043  1.00  0.00     0.049 A 
ATOM     38  N   UNL A   1      41.213  28.888  31.495  1.00  0.00    -0.248 NA
ATOM     39  C   UNL A   1      39.387  30.339  31.536  1.00  0.00     0.031 C 
ATOM     40  C   UNL A   1      39.583  26.965  27.802  1.00  0.00     0.029 A 
ATOM     41  N   UNL A   1      41.231  26.925  29.312  1.00  0.00    -0.354 N 
ATOM     42  C   UNL A   1      41.384  29.814  32.516  1.00  0.00     0.074 A 
ATOM     43  C   UNL A   1      40.258  30.720  32.459  1.00  0.00     0.031 C 
ATOM     44  C   UNL A   1      40.452  26.014  27.424  1.00  0.00     0.029 A 
ATOM     45  C   UNL A   1      41.556  25.968  28.378  1.00  0.00     0.049 A 
ATOM     46  H   UNL A   1      41.789  27.119  30.101  1.00  0.00     0.167 HD
ATOM     47  C   UNL A   1      42.372  29.886  33.439  1.00  0.00     0.034 A 
ATOM     48  C   UNL A   1      42.621  25.147  28.301  1.00  0.00     0.034 A 
ATOM     49  C   UNL A   1      43.447  28.939  33.540  1.00  0.00     0.049 A 
ATOM     50  C   UNL A   1      43.665  25.200  29.385  1.00  0.00     0.074 A 
ATOM     51  C   UNL A   1      44.428  28.852  34.512  1.00  0.00     0.029 A 
ATOM     52  N   UNL A   1      43.685  27.913  32.639  1.00  0.00    -0.354 N 
ATOM     53  N   UNL A   1      43.711  25.965  30.448  1.00  0.00    -0.248 NA
ATOM     54  C   UNL A   1      44.782  24.251  29.280  1.00  0.00     0.031 C 
ATOM     55  C   UNL A   1      45.265  27.778  34.192  1.00  0.00     0.029 A 
ATOM     56  C   UNL A   1      44.799  27.191  33.027  1.00  0.00     0.049 A 
ATOM     57  H   UNL A   1      43.140  27.726  31.840  1.00  0.00     0.167 HD
ATOM     58  C   UNL A   1      44.838  25.565  31.156  1.00  0.00     0.074 A 
ATOM     59  C   UNL A   1      45.436  24.476  30.412  1.00  0.00     0.031 C 
ATOM     60  C   UNL A   1      45.342  26.066  32.312  1.00  0.00     0.034 A 
BRANCH  47  61
ATOM     61  C   UNL A   1      42.296  30.988  34.462  1.00  0.00     0.023 A 
ATOM     62  C   UNL A   1      41.669  30.741  35.700  1.00  0.00     0.012 A 
ATOM     63  C   UNL A   1      42.893  32.241  34.227  1.00  0.00     0.148 A 
ATOM     64  C   UNL A   1      41.609  31.733  36.677  1.00  0.00     0.002 A 
ATOM     65  C   UNL A   1      42.866  33.213  35.222  1.00  0.00     0.091 A 
ATOM     66  F   UNL A   1      43.463  32.466  33.035  1.00  0.00    -0.205 F 
ATOM     67  C   UNL A   1      42.215  32.964  36.442  1.00  0.00     0.022 A 
BRANCH  65  68
ATOM     68  S   UNL A   1      43.682  34.803  35.044  1.00  0.00     0.127 S 
ATOM     69  O   UNL A   1      45.090  34.409  35.005  1.00  0.00    -0.237 OA
ATOM     70  O   UNL A   1      43.150  35.284  33.768  1.00  0.00    -0.237 OA
ATOM     71  O   UNL A   1      43.282  35.590  36.202  1.00  0.00    -0.744 OA
ENDBRANCH  65  68
ENDBRANCH  47  61
BRANCH  48  72
ATOM     72  C   UNL A   1      42.708  24.136  27.208  1.00  0.00     0.023 A 
ATOM     73  C   UNL A   1      43.430  24.454  26.041  1.00  0.00     0.012 A 
ATOM     74  C   UNL A   1      42.109  22.868  27.320  1.00  0.00     0.148 A 
ATOM     75  C   UNL A   1      43.528  23.540  24.992  1.00  0.00     0.002 A 
ATOM     76  C   UNL A   1      42.252  21.941  26.292  1.00  0.00     0.091 A 
ATOM     77  F   UNL A   1      41.413  22.588  28.431  1.00  0.00    -0.205 F 
ATOM     78  C   UNL A   1      42.948  22.280  25.121  1.00  0.00     0.022 A 
BRANCH  76  79
ATOM     79  S   UNL A   1      41.645  20.257  26.430  1.00  0.00     0.127 S 
ATOM     80  O   UNL A   1      42.149  19.863  27.742  1.00  0.00    -0.237 OA
ATOM     81  O   UNL A   1      40.196  20.445  26.357  1.00  0.00    -0.237 OA
ATOM     82  O   UNL A   1      42.212  19.548  25.288  1.00  0.00    -0.744 OA
ENDBRANCH  76  79
ENDBRANCH  48  72
BRANCH  60  83
ATOM     83  C   UNL A   1      46.585  25.425  32.868  1.00  0.00     0.023 A 
ATOM     84  C   UNL A   1      47.849  25.942  32.523  1.00  0.00     0.012 A 
ATOM     85  C   UNL A   1      46.497  24.371  33.798  1.00  0.00     0.148 A 
ATOM     86  C   UNL A   1      49.010  25.401  33.076  1.00  0.00     0.002 A 
ATOM     87  C   UNL A   1      47.655  23.867  34.379  1.00  0.00     0.091 A 
ATOM     88  F   UNL A   1      45.285  23.879  34.097  1.00  0.00    -0.205 F 
ATOM     89  C   UNL A   1      48.912  24.375  34.013  1.00  0.00     0.022 A 
BRANCH  87  90
ATOM     90  S   UNL A   1      47.612  22.612  35.664  1.00  0.00     0.127 S 
ATOM     91  O   UNL A   1      46.756  23.240  36.667  1.00  0.00    -0.237 OA
ATOM     92  O   UNL A   1      47.007  21.473  34.971  1.00  0.00    -0.237 OA
ATOM     93  O   UNL A   1      48.999  22.404  36.062  1.00  0.00    -0.744 OA
ENDBRANCH  87  90
ENDBRANCH  60  83
ENDBRANCH  34  35
ENDBRANCH  26  29
ENDBRANCH  24  25
ENDBRANCH  23  24
ENDBRANCH   1  23
TORSDOF 17
ENDMDL
MODEL 2
REMARK VINA RESULT:     -11.5      1.364      1.833
REMARK SMILES CCc1cccc(-c2ccc([C@@H](C)C(=O)NCCCCNC(=O)c3ccc(-c4c5nc(c(-c6cccc(S(=O)(=O)[O-])c6F)c6ccc([nH]6)c(-c6cccc(S(=O)(=O)[O-])c6F)c6nc(c(-c7cccc(S(=O)(=O)[O-])c7F)c7ccc4[nH]7)C=C6)C=C5)cc3)cc2)c1
REMARK SMILES IDX 18 1 17 2 16 3 14 4 15 5 12 7 13 8 11 9 8 10 9 11 88 12
REMARK SMILES IDX 10 13 87 14 7 15 3 16 4 17 89 18 5 19 6 20 2 21 1 22 19 23
REMARK SMILES IDX 20 24 21 25 22 26 23 28 24 29 25 30 86 31 26 32 85 33 27 34
REMARK SMILES IDX 28 35 29 36 79 37 30 38 84 39 78 40 80 41 31 42 83 43 77 44
REMARK SMILES IDX 76 45 32 47 64 48 44 49 63 50 45 51 48 52 62 53 81 54 46 55
REMARK SMILES IDX 47 56 61 58 82 59 49 60 33 61 34 62 42 63 35 64 37 65 43 66
REMARK SMILES IDX 36 67 38 68 39 69 40 70 41 71 65 72 66 73 74 74 67 75 69 76
REMARK SMILES IDX 75 77 68 78 70 79 71 80 72 81 73 82 50 83 51 84 59 85 52 86
REMARK SMILES IDX 54 87 60 88 53 89 55 90 56 91 57 92 58 93
REMARK H PARENT 16 6 21 27 80 46 48 57
REMARK Flexibility Score: inf
ROOT
ATOM      1  C   UNL A   1      32.618  29.469  24.916  1.00  0.00     0.023 C 
ENDROOT
BRANCH   1   2
ATOM      2  C   UNL A   1      31.111  29.699  24.801  1.00  0.00     0.116 C 
BRANCH   2   3
ATOM      3  N   UNL A   1      30.702  30.019  23.449  1.00  0.00    -0.356 N 
ATOM      4  C   UNL A   1      29.998  29.306  22.528  1.00  0.00     0.227 C 
ATOM      5  O   UNL A   1      29.842  29.830  21.418  1.00  0.00    -0.274 OA
ATOM      6  H   UNL A   1      30.985  30.910  23.141  1.00  0.00     0.163 HD
BRANCH   4   7
ATOM      7  C   UNL A   1      29.382  27.925  22.805  1.00  0.00     0.105 C 
ATOM      8  C   UNL A   1      27.993  27.985  23.442  1.00  0.00     0.023 C 
BRANCH   7   9
ATOM      9  C   UNL A   1      30.362  26.935  23.419  1.00  0.00    -0.036 A 
ATOM     10  C   UNL A   1      32.055  24.921  24.552  1.00  0.00    -0.018 A 
ATOM     11  C   UNL A   1      32.384  25.586  23.358  1.00  0.00     0.009 A 
ATOM     12  C   UNL A   1      30.867  25.321  25.183  1.00  0.00     0.009 A 
ATOM     13  C   UNL A   1      31.576  26.596  22.822  1.00  0.00     0.005 A 
ATOM     14  C   UNL A   1      30.026  26.292  24.619  1.00  0.00     0.005 A 
BRANCH  10  15
ATOM     15  C   UNL A   1      32.920  23.844  25.095  1.00  0.00    -0.018 A 
ATOM     16  C   UNL A   1      33.690  21.495  25.104  1.00  0.00    -0.048 A 
ATOM     17  C   UNL A   1      34.625  21.814  26.093  1.00  0.00     0.004 A 
ATOM     18  C   UNL A   1      32.854  22.521  24.615  1.00  0.00     0.012 A 
ATOM     19  C   UNL A   1      34.713  23.112  26.587  1.00  0.00     0.001 A 
ATOM     20  C   UNL A   1      33.865  24.108  26.102  1.00  0.00     0.009 A 
BRANCH  16  21
ATOM     21  C   UNL A   1      33.519  20.102  24.540  1.00  0.00     0.032 C 
ATOM     22  C   UNL A   1      32.887  19.061  25.456  1.00  0.00     0.009 C 
ENDBRANCH  16  21
ENDBRANCH  10  15
ENDBRANCH   7   9
ENDBRANCH   4   7
ENDBRANCH   2   3
ENDBRANCH   1   2
BRANCH   1  23
ATOM     23  C   UNL A   1      33.034  28.374  25.897  1.00  0.00     0.023 C 
BRANCH  23  24
ATOM     24  C   UNL A   1      33.272  28.835  27.331  1.00  0.00     0.116 C 
BRANCH  24  25
ATOM     25  N   UNL A   1      33.410  30.277  27.480  1.00  0.00    -0.352 N 
ATOM     26  C   UNL A   1      34.504  30.984  27.931  1.00  0.00     0.251 C 
ATOM     27  H   UNL A   1      32.625  30.814  27.227  1.00  0.00     0.163 HD
ATOM     28  O   UNL A   1      34.448  32.199  28.068  1.00  0.00    -0.269 OA
BRANCH  26  29
ATOM     29  C   UNL A   1      35.733  30.244  28.294  1.00  0.00     0.039 A 
ATOM     30  C   UNL A   1      36.821  30.268  27.417  1.00  0.00     0.014 A 
ATOM     31  C   UNL A   1      35.833  29.595  29.526  1.00  0.00     0.014 A 
ATOM     32  C   UNL A   1      38.038  29.709  27.814  1.00  0.00     0.010 A 
ATOM     33  C   UNL A   1      37.064  29.107  29.948  1.00  0.00     0.010 A 
ATOM     34  C   UNL A   1      38.181  29.162  29.100  1.00  0.00    -0.014 A 
BRANCH  34  35
ATOM     35  C   UNL A   1      39.490  28.664  29.593  1.00  0.00     0.031 A 
ATOM     36  C   UNL A   1      40.203  29.387  30.703  1.00  0.00     0.074 A 
ATOM     37  C   UNL A   1      40.089  27.631  28.966  1.00  0.00     0.049 A 
ATOM     38  N   UNL A   1      41.383  29.152  31.214  1.00  0.00    -0.248 NA
ATOM     39  C   UNL A   1      39.514  30.547  31.294  1.00  0.00     0.031 C 
ATOM     40  C   UNL A   1      39.543  26.905  27.816  1.00  0.00     0.029 A 
ATOM     41  N   UNL A   1      41.302  27.030  29.188  1.00  0.00    -0.354 N 
ATOM     42  C   UNL A   1      41.599  30.159  32.147  1.00  0.00     0.074 A 
ATOM     43  C   UNL A   1      40.440  31.024  32.113  1.00  0.00     0.031 C 
ATOM     44  C   UNL A   1      40.414  25.954  27.441  1.00  0.00     0.029 A 
ATOM     45  C   UNL A   1      41.589  26.014  28.304  1.00  0.00     0.049 A 
ATOM     46  H   UNL A   1      41.912  27.300  29.913  1.00  0.00     0.167 HD
ATOM     47  C   UNL A   1      42.652  30.331  32.980  1.00  0.00     0.034 A 
ATOM     48  C   UNL A   1      42.673  25.222  28.203  1.00  0.00     0.034 A 
ATOM     49  C   UNL A   1      43.766  29.427  33.065  1.00  0.00     0.049 A 
ATOM     50  C   UNL A   1      43.795  25.389  29.194  1.00  0.00     0.074 A 
ATOM     51  C   UNL A   1      44.821  29.445  33.959  1.00  0.00     0.029 A 
ATOM     52  N   UNL A   1      43.969  28.343  32.226  1.00  0.00    -0.354 N 
ATOM     53  N   UNL A   1      43.896  26.235  30.190  1.00  0.00    -0.248 NA
ATOM     54  C   UNL A   1      44.935  24.469  29.070  1.00  0.00     0.031 C 
ATOM     55  C   UNL A   1      45.669  28.375  33.654  1.00  0.00     0.029 A 
ATOM     56  C   UNL A   1      45.135  27.686  32.576  1.00  0.00     0.049 A 
ATOM     57  H   UNL A   1      43.371  28.079  31.489  1.00  0.00     0.167 HD
ATOM     58  C   UNL A   1      45.088  25.924  30.834  1.00  0.00     0.074 A 
ATOM     59  C   UNL A   1      45.665  24.800  30.127  1.00  0.00     0.031 C 
ATOM     60  C   UNL A   1      45.662  26.527  31.905  1.00  0.00     0.034 A 
BRANCH  47  61
ATOM     61  C   UNL A   1      42.616  31.505  33.922  1.00  0.00     0.023 A 
ATOM     62  C   UNL A   1      43.131  32.748  33.499  1.00  0.00     0.012 A 
ATOM     63  C   UNL A   1      42.020  31.400  35.193  1.00  0.00     0.148 A 
ATOM     64  C   UNL A   1      43.084  33.859  34.339  1.00  0.00     0.002 A 
ATOM     65  C   UNL A   1      41.940  32.523  36.010  1.00  0.00     0.091 A 
ATOM     66  F   UNL A   1      41.558  30.205  35.587  1.00  0.00    -0.205 F 
ATOM     67  C   UNL A   1      42.481  33.750  35.588  1.00  0.00     0.022 A 
BRANCH  65  68
ATOM     68  S   UNL A   1      41.115  32.502  37.605  1.00  0.00     0.127 S 
ATOM     69  O   UNL A   1      42.002  31.639  38.384  1.00  0.00    -0.237 OA
ATOM     70  O   UNL A   1      41.147  33.914  37.989  1.00  0.00    -0.237 OA
ATOM     71  O   UNL A   1      39.782  31.972  37.359  1.00  0.00    -0.744 OA
ENDBRANCH  65  68
ENDBRANCH  47  61
BRANCH  48  72
ATOM     72  C   UNL A   1      42.712  24.134  27.185  1.00  0.00     0.023 A 
ATOM     73  C   UNL A   1      43.381  24.363  25.966  1.00  0.00     0.012 A 
ATOM     74  C   UNL A   1      42.119  22.879  27.417  1.00  0.00     0.148 A 
ATOM     75  C   UNL A   1      43.432  23.374  24.984  1.00  0.00     0.002 A 
ATOM     76  C   UNL A   1      42.217  21.879  26.453  1.00  0.00     0.091 A 
ATOM     77  F   UNL A   1      41.474  22.683  28.574  1.00  0.00    -0.205 F 
ATOM     78  C   UNL A   1      42.860  22.129  25.231  1.00  0.00     0.022 A 
BRANCH  76  79
ATOM     79  S   UNL A   1      41.618  20.210  26.742  1.00  0.00     0.127 S 
ATOM     80  O   UNL A   1      41.805  19.594  25.432  1.00  0.00    -0.237 OA
ATOM     81  O   UNL A   1      42.529  19.732  27.782  1.00  0.00    -0.237 OA
ATOM     82  O   UNL A   1      40.238  20.367  27.185  1.00  0.00    -0.744 OA
ENDBRANCH  76  79
ENDBRANCH  48  72
BRANCH  60  83
ATOM     83  C   UNL A   1      46.967  25.968  32.406  1.00  0.00     0.023 A 
ATOM     84  C   UNL A   1      48.180  26.485  31.913  1.00  0.00     0.012 A 
ATOM     85  C   UNL A   1      46.989  24.996  33.426  1.00  0.00     0.148 A 
ATOM     86  C   UNL A   1      49.399  26.024  32.410  1.00  0.00     0.002 A 
ATOM     87  C   UNL A   1      48.207  24.574  33.947  1.00  0.00     0.091 A 
ATOM     88  F   UNL A   1      45.823  24.502  33.866  1.00  0.00    -0.205 F 
ATOM     89  C   UNL A   1      49.412  25.080  33.435  1.00  0.00     0.022 A 
BRANCH  87  90
ATOM     90  S   UNL A   1      48.310  23.434  35.332  1.00  0.00     0.127 S 
ATOM     91  O   UNL A   1      47.554  24.144  36.360  1.00  0.00    -0.237 OA
ATOM     92  O   UNL A   1      47.650  22.239  34.804  1.00  0.00    -0.237 OA
ATOM     93  O   UNL A   1      49.733  23.264  35.600  1.00  0.00    -0.744 OA
ENDBRANCH  87  90
ENDBRANCH  60  83
ENDBRANCH  34  35
ENDBRANCH  26  29
ENDBRANCH  24  25
ENDBRANCH  23  24
ENDBRANCH   1  23
TORSDOF 17
ENDMDL
MODEL 3
REMARK VINA RESULT:     -11.4      2.872      8.598
REMARK SMILES CCc1cccc(-c2ccc([C@@H](C)C(=O)NCCCCNC(=O)c3ccc(-c4c5nc(c(-c6cccc(S(=O)(=O)[O-])c6F)c6ccc([nH]6)c(-c6cccc(S(=O)(=O)[O-])c6F)c6nc(c(-c7cccc(S(=O)(=O)[O-])c7F)c7ccc4[nH]7)C=C6)C=C5)cc3)cc2)c1
REMARK SMILES IDX 18 1 17 2 16 3 14 4 15 5 12 7 13 8 11 9 8 10 9 11 88 12
REMARK SMILES IDX 10 13 87 14 7 15 3 16 4 17 89 18 5 19 6 20 2 21 1 22 19 23
REMARK SMILES IDX 20 24 21 25 22 26 23 28 24 29 25 30 86 31 26 32 85 33 27 34
REMARK SMILES IDX 28 35 29 36 79 37 30 38 84 39 78 40 80 41 31 42 83 43 77 44
REMARK SMILES IDX 76 45 32 47 64 48 44 49 63 50 45 51 48 52 62 53 81 54 46 55
REMARK SMILES IDX 47 56 61 58 82 59 49 60 33 61 34 62 42 63 35 64 37 65 43 66
REMARK SMILES IDX 36 67 38 68 39 69 40 70 41 71 65 72 66 73 74 74 67 75 69 76
REMARK SMILES IDX 75 77 68 78 70 79 71 80 72 81 73 82 50 83 51 84 59 85 52 86
REMARK SMILES IDX 54 87 60 88 53 89 55 90 56 91 57 92 58 93
REMARK H PARENT 16 6 21 27 80 46 48 57
REMARK Flexibility Score: inf
ROOT
ATOM      1  C   UNL A   1      33.974  26.851  24.878  1.00  0.00     0.023 C 
ENDROOT
BRANCH   1   2
ATOM      2  C   UNL A   1      34.051  25.630  25.794  1.00  0.00     0.116 C 
BRANCH   2   3
ATOM      3  N   UNL A   1      34.616  24.475  25.128  1.00  0.00    -0.356 N 
ATOM      4  C   UNL A   1      34.083  23.260  24.823  1.00  0.00     0.227 C 
ATOM      5  O   UNL A   1      34.837  22.440  24.285  1.00  0.00    -0.274 OA
ATOM      6  H   UNL A   1      35.553  24.587  24.848  1.00  0.00     0.163 HD
BRANCH   4   7
ATOM      7  C   UNL A   1      32.617  22.880  25.088  1.00  0.00     0.105 C 
ATOM      8  C   UNL A   1      32.277  21.437  24.711  1.00  0.00     0.023 C 
BRANCH   7   9
ATOM      9  C   UNL A   1      31.624  23.944  24.645  1.00  0.00    -0.036 A 
ATOM     10  C   UNL A   1      29.849  26.081  23.947  1.00  0.00    -0.018 A 
ATOM     11  C   UNL A   1      30.718  25.498  23.008  1.00  0.00     0.009 A 
ATOM     12  C   UNL A   1      29.869  25.538  25.240  1.00  0.00     0.009 A 
ATOM     13  C   UNL A   1      31.560  24.429  23.338  1.00  0.00     0.005 A 
ATOM     14  C   UNL A   1      30.753  24.505  25.589  1.00  0.00     0.005 A 
BRANCH  10  15
ATOM     15  C   UNL A   1      28.974  27.223  23.578  1.00  0.00    -0.018 A 
ATOM     16  C   UNL A   1      28.641  29.428  22.512  1.00  0.00    -0.048 A 
ATOM     17  C   UNL A   1      27.280  29.362  22.820  1.00  0.00     0.004 A 
ATOM     18  C   UNL A   1      29.468  28.350  22.891  1.00  0.00     0.012 A 
ATOM     19  C   UNL A   1      26.762  28.262  23.498  1.00  0.00     0.001 A 
ATOM     20  C   UNL A   1      27.601  27.214  23.880  1.00  0.00     0.009 A 
BRANCH  16  21
ATOM     21  C   UNL A   1      29.276  30.603  21.801  1.00  0.00     0.032 C 
ATOM     22  C   UNL A   1      28.331  31.619  21.171  1.00  0.00     0.009 C 
ENDBRANCH  16  21
ENDBRANCH  10  15
ENDBRANCH   7   9
ENDBRANCH   4   7
ENDBRANCH   2   3
ENDBRANCH   1   2
BRANCH   1  23
ATOM     23  C   UNL A   1      32.901  27.874  25.248  1.00  0.00     0.023 C 
BRANCH  23  24
ATOM     24  C   UNL A   1      33.222  29.321  24.889  1.00  0.00     0.116 C 
BRANCH  24  25
ATOM     25  N   UNL A   1      32.477  30.306  25.662  1.00  0.00    -0.352 N 
ATOM     26  C   UNL A   1      32.872  30.961  26.809  1.00  0.00     0.251 C 
ATOM     27  H   UNL A   1      31.582  30.533  25.323  1.00  0.00     0.163 HD
ATOM     28  O   UNL A   1      32.104  31.717  27.389  1.00  0.00    -0.269 OA
BRANCH  26  29
ATOM     29  C   UNL A   1      34.222  30.697  27.354  1.00  0.00     0.039 A 
ATOM     30  C   UNL A   1      35.064  31.779  27.627  1.00  0.00     0.014 A 
ATOM     31  C   UNL A   1      34.621  29.395  27.662  1.00  0.00     0.014 A 
ATOM     32  C   UNL A   1      36.276  31.558  28.286  1.00  0.00     0.010 A 
ATOM     33  C   UNL A   1      35.790  29.187  28.384  1.00  0.00     0.010 A 
ATOM     34  C   UNL A   1      36.628  30.265  28.708  1.00  0.00    -0.014 A 
BRANCH  34  35
ATOM     35  C   UNL A   1      37.853  30.015  29.510  1.00  0.00     0.031 A 
ATOM     36  C   UNL A   1      38.922  29.094  28.986  1.00  0.00     0.074 A 
ATOM     37  C   UNL A   1      37.950  30.524  30.755  1.00  0.00     0.049 A 
ATOM     38  N   UNL A   1      40.020  28.692  29.569  1.00  0.00    -0.248 NA
ATOM     39  C   UNL A   1      38.712  28.524  27.644  1.00  0.00     0.031 C 
ATOM     40  C   UNL A   1      36.939  31.355  31.413  1.00  0.00     0.029 A 
ATOM     41  N   UNL A   1      38.936  30.393  31.701  1.00  0.00    -0.354 N 
ATOM     42  C   UNL A   1      40.606  27.787  28.692  1.00  0.00     0.074 A 
ATOM     43  C   UNL A   1      39.728  27.678  27.548  1.00  0.00     0.031 C 
ATOM     44  C   UNL A   1      37.360  31.665  32.650  1.00  0.00     0.029 A 
ATOM     45  C   UNL A   1      38.657  31.039  32.885  1.00  0.00     0.049 A 
ATOM     46  H   UNL A   1      39.765  29.885  31.548  1.00  0.00     0.167 HD
ATOM     47  C   UNL A   1      41.784  27.130  28.813  1.00  0.00     0.034 A 
ATOM     48  C   UNL A   1      39.367  31.118  34.026  1.00  0.00     0.034 A 
ATOM     49  C   UNL A   1      42.689  27.300  29.915  1.00  0.00     0.049 A 
ATOM     50  C   UNL A   1      40.709  30.439  34.101  1.00  0.00     0.074 A 
ATOM     51  C   UNL A   1      43.959  26.776  30.072  1.00  0.00     0.029 A 
ATOM     52  N   UNL A   1      42.421  28.051  31.049  1.00  0.00    -0.354 N 
ATOM     53  N   UNL A   1      41.329  29.736  33.185  1.00  0.00    -0.248 NA
ATOM     54  C   UNL A   1      41.465  30.595  35.352  1.00  0.00     0.031 C 
ATOM     55  C   UNL A   1      44.457  27.203  31.308  1.00  0.00     0.029 A 
ATOM     56  C   UNL A   1      43.500  28.001  31.914  1.00  0.00     0.049 A 
ATOM     57  H   UNL A   1      41.587  28.546  31.214  1.00  0.00     0.167 HD
ATOM     58  C   UNL A   1      42.562  29.399  33.733  1.00  0.00     0.074 A 
ATOM     59  C   UNL A   1      42.609  29.992  35.053  1.00  0.00     0.031 C 
ATOM     60  C   UNL A   1      43.558  28.652  33.197  1.00  0.00     0.034 A 
BRANCH  47  61
ATOM     61  C   UNL A   1      42.196  26.221  27.686  1.00  0.00     0.023 A 
ATOM     62  C   UNL A   1      43.010  26.726  26.651  1.00  0.00     0.012 A 
ATOM     63  C   UNL A   1      41.835  24.860  27.680  1.00  0.00     0.148 A 
ATOM     64  C   UNL A   1      43.431  25.900  25.611  1.00  0.00     0.002 A 
ATOM     65  C   UNL A   1      42.293  24.032  26.661  1.00  0.00     0.091 A 
ATOM     66  F   UNL A   1      41.042  24.404  28.659  1.00  0.00    -0.205 F 
ATOM     67  C   UNL A   1      43.082  24.553  25.621  1.00  0.00     0.022 A 
BRANCH  65  68
ATOM     68  S   UNL A   1      41.960  22.268  26.625  1.00  0.00     0.127 S 
ATOM     69  O   UNL A   1      40.499  22.245  26.541  1.00  0.00    -0.237 OA
ATOM     70  O   UNL A   1      42.647  21.847  25.404  1.00  0.00    -0.237 OA
ATOM     71  O   UNL A   1      42.525  21.729  27.854  1.00  0.00    -0.744 OA
ENDBRANCH  65  68
ENDBRANCH  47  61
BRANCH  48  72
ATOM     72  C   UNL A   1      38.870  31.949  35.160  1.00  0.00     0.023 A 
ATOM     73  C   UNL A   1      38.913  33.353  35.047  1.00  0.00     0.012 A 
ATOM     74  C   UNL A   1      38.340  31.371  36.328  1.00  0.00     0.148 A 
ATOM     75  C   UNL A   1      38.467  34.166  36.088  1.00  0.00     0.002 A 
ATOM     76  C   UNL A   1      37.850  32.188  37.343  1.00  0.00     0.091 A 
ATOM     77  F   UNL A   1      38.321  30.035  36.426  1.00  0.00    -0.205 F 
ATOM     78  C   UNL A   1      37.926  33.585  37.232  1.00  0.00     0.022 A 
BRANCH  76  79
ATOM     79  S   UNL A   1      37.023  31.521  38.792  1.00  0.00     0.127 S 
ATOM     80  O   UNL A   1      38.016  31.752  39.837  1.00  0.00    -0.237 OA
ATOM     81  O   UNL A   1      35.830  32.364  38.880  1.00  0.00    -0.237 OA
ATOM     82  O   UNL A   1      36.745  30.127  38.470  1.00  0.00    -0.744 OA
ENDBRANCH  76  79
ENDBRANCH  48  72
BRANCH  60  83
ATOM     83  C   UNL A   1      44.804  28.455  34.018  1.00  0.00     0.023 A 
ATOM     84  C   UNL A   1      45.854  29.388  33.925  1.00  0.00     0.012 A 
ATOM     85  C   UNL A   1      44.896  27.396  34.943  1.00  0.00     0.148 A 
ATOM     86  C   UNL A   1      46.990  29.257  34.723  1.00  0.00     0.002 A 
ATOM     87  C   UNL A   1      46.011  27.298  35.767  1.00  0.00     0.091 A 
ATOM     88  F   UNL A   1      43.894  26.506  35.001  1.00  0.00    -0.205 F 
ATOM     89  C   UNL A   1      47.063  28.221  35.652  1.00  0.00     0.022 A 
BRANCH  87  90
ATOM     90  S   UNL A   1      46.142  26.051  37.055  1.00  0.00     0.127 S 
ATOM     91  O   UNL A   1      44.956  26.330  37.861  1.00  0.00    -0.237 OA
ATOM     92  O   UNL A   1      46.082  24.804  36.292  1.00  0.00    -0.237 OA
ATOM     93  O   UNL A   1      47.421  26.292  37.711  1.00  0.00    -0.744 OA
ENDBRANCH  87  90
ENDBRANCH  60  83
ENDBRANCH  34  35
ENDBRANCH  26  29
ENDBRANCH  24  25
ENDBRANCH  23  24
ENDBRANCH   1  23
TORSDOF 17
ENDMDL
