MODEL 1
REMARK VINA RESULT:     -12.0      0.000      0.000
REMARK SMILES O=C(NCCCCNC(=O)c1[nH]ncc1C[N@H+]1CCC[C@@H](C(=O)c2ccc(Oc3ccccc3)cc2)C1)c1ccc(-c2c3nc(c(-c4cccc(S(=O)(=O)[O-])c4F)c4ccc([nH]4)c(-c4cccc(S(=O)(=O)[O-])c4F)c4nc(c(-c5cccc(S(=O)(=O)[O-])c5F)c5ccc2[nH]5)C=C4)C=C3)cc1
REMARK SMILES IDX 7 1 6 2 5 3 4 4 3 5 1 6 2 7 38 9 39 10 100 11 40 12 99 13
REMARK SMILES IDX 41 14 42 15 43 16 93 17 44 18 98 19 92 20 94 21 45 22 97 23
REMARK SMILES IDX 91 24 90 25 46 27 78 28 58 29 77 30 59 31 62 32 76 33 95 34
REMARK SMILES IDX 60 35 61 36 75 38 96 39 63 40 47 41 48 42 56 43 49 44 51 45
REMARK SMILES IDX 57 46 50 47 52 48 53 49 54 50 55 51 79 52 80 53 88 54 81 55
REMARK SMILES IDX 83 56 89 57 82 58 84 59 85 60 86 61 87 62 64 63 65 64 73 65
REMARK SMILES IDX 66 66 68 67 74 68 67 69 69 70 70 71 71 72 72 73 8 74 9 75
REMARK SMILES IDX 10 77 11 78 12 79 15 80 13 81 14 83 16 84 17 85 18 86 37 87
REMARK SMILES IDX 19 89 21 90 20 91 22 92 23 93 24 94 25 95 36 96 26 97 35 98
REMARK SMILES IDX 27 99 28 100 29 101 30 102 34 103 31 104 33 105 32 106
REMARK H PARENT 3 8 94 26 62 37 8 76 12 82 17 88
REMARK Flexibility Score: inf
ROOT
ATOM      1  C   UNL A   1      34.147  24.909  25.271  1.00  0.00     0.116 C 
ENDROOT
BRANCH   1   2
ATOM      2  C   UNL A   1      35.553  24.375  25.030  1.00  0.00     0.023 C 
BRANCH   2   3
ATOM      3  C   UNL A   1      35.662  22.855  24.957  1.00  0.00     0.023 C 
BRANCH   3   4
ATOM      4  C   UNL A   1      36.198  22.187  26.217  1.00  0.00     0.116 C 
BRANCH   4   5
ATOM      5  N   UNL A   1      37.223  21.193  25.939  1.00  0.00    -0.352 N 
ATOM      6  O   UNL A   1      39.300  20.412  25.555  1.00  0.00    -0.269 OA
ATOM      7  C   UNL A   1      38.591  21.325  25.966  1.00  0.00     0.251 C 
ATOM      8  H   UNL A   1      36.889  20.298  25.697  1.00  0.00     0.163 HD
BRANCH   7   9
ATOM      9  C   UNL A   1      39.190  22.584  26.456  1.00  0.00     0.039 A 
ATOM     10  C   UNL A   1      38.860  23.804  25.861  1.00  0.00     0.014 A 
ATOM     11  C   UNL A   1      40.118  22.536  27.498  1.00  0.00     0.014 A 
ATOM     12  C   UNL A   1      39.578  24.949  26.192  1.00  0.00     0.010 A 
ATOM     13  C   UNL A   1      40.774  23.704  27.890  1.00  0.00     0.010 A 
ATOM     14  C   UNL A   1      40.541  24.911  27.211  1.00  0.00    -0.014 A 
BRANCH  14  15
ATOM     15  C   UNL A   1      41.262  26.152  27.592  1.00  0.00     0.031 A 
ATOM     16  C   UNL A   1      40.599  27.210  28.429  1.00  0.00     0.074 A 
ATOM     17  C   UNL A   1      42.525  26.328  27.154  1.00  0.00     0.049 A 
ATOM     18  N   UNL A   1      41.072  28.366  28.821  1.00  0.00    -0.248 NA
ATOM     19  C   UNL A   1      39.223  26.944  28.881  1.00  0.00     0.031 C 
ATOM     20  C   UNL A   1      43.258  25.385  26.307  1.00  0.00     0.029 A 
ATOM     21  N   UNL A   1      43.405  27.360  27.346  1.00  0.00    -0.354 N 
ATOM     22  C   UNL A   1      40.044  28.984  29.521  1.00  0.00     0.074 A 
ATOM     23  C   UNL A   1      38.917  28.077  29.500  1.00  0.00     0.031 C 
ATOM     24  C   UNL A   1      44.479  25.879  26.056  1.00  0.00     0.029 A 
ATOM     25  C   UNL A   1      44.596  27.192  26.679  1.00  0.00     0.049 A 
ATOM     26  H   UNL A   1      43.206  28.145  27.906  1.00  0.00     0.167 HD
ATOM     27  C   UNL A   1      40.044  30.191  30.137  1.00  0.00     0.034 A 
ATOM     28  C   UNL A   1      45.656  28.013  26.557  1.00  0.00     0.034 A 
ATOM     29  C   UNL A   1      41.182  31.071  30.186  1.00  0.00     0.049 A 
ATOM     30  C   UNL A   1      45.639  29.335  27.267  1.00  0.00     0.074 A 
ATOM     31  C   UNL A   1      41.304  32.285  30.841  1.00  0.00     0.029 A 
ATOM     32  N   UNL A   1      42.392  30.839  29.550  1.00  0.00    -0.354 N 
ATOM     33  N   UNL A   1      44.701  29.848  28.026  1.00  0.00    -0.248 NA
ATOM     34  C   UNL A   1      46.832  30.179  27.128  1.00  0.00     0.031 C 
ATOM     35  C   UNL A   1      42.581  32.795  30.585  1.00  0.00     0.029 A 
ATOM     36  C   UNL A   1      43.264  31.888  29.790  1.00  0.00     0.049 A 
ATOM     37  H   UNL A   1      42.602  30.045  29.009  1.00  0.00     0.167 HD
ATOM     38  C   UNL A   1      45.201  31.061  28.481  1.00  0.00     0.074 A 
ATOM     39  C   UNL A   1      46.534  31.197  27.926  1.00  0.00     0.031 C 
ATOM     40  C   UNL A   1      44.606  31.985  29.274  1.00  0.00     0.034 A 
BRANCH  27  41
ATOM     41  C   UNL A   1      38.783  30.620  30.842  1.00  0.00     0.023 A 
ATOM     42  C   UNL A   1      38.668  30.440  32.236  1.00  0.00     0.012 A 
ATOM     43  C   UNL A   1      37.738  31.254  30.141  1.00  0.00     0.148 A 
ATOM     44  C   UNL A   1      37.522  30.852  32.914  1.00  0.00     0.002 A 
ATOM     45  C   UNL A   1      36.615  31.699  30.831  1.00  0.00     0.091 A 
ATOM     46  F   UNL A   1      37.853  31.398  28.813  1.00  0.00    -0.205 F 
ATOM     47  C   UNL A   1      36.501  31.490  32.214  1.00  0.00     0.022 A 
BRANCH  45  48
ATOM     48  S   UNL A   1      35.284  32.596  30.023  1.00  0.00     0.127 S 
ATOM     49  O   UNL A   1      34.369  32.832  31.138  1.00  0.00    -0.237 OA
ATOM     50  O   UNL A   1      35.968  33.794  29.532  1.00  0.00    -0.237 OA
ATOM     51  O   UNL A   1      34.789  31.714  28.976  1.00  0.00    -0.744 OA
ENDBRANCH  45  48
ENDBRANCH  27  41
BRANCH  28  52
ATOM     52  C   UNL A   1      46.834  27.568  25.764  1.00  0.00     0.023 A 
ATOM     53  C   UNL A   1      46.882  27.839  24.384  1.00  0.00     0.012 A 
ATOM     54  C   UNL A   1      47.938  26.949  26.384  1.00  0.00     0.148 A 
ATOM     55  C   UNL A   1      48.003  27.486  23.632  1.00  0.00     0.002 A 
ATOM     56  C   UNL A   1      49.074  26.654  25.641  1.00  0.00     0.091 A 
ATOM     57  F   UNL A   1      47.865  26.691  27.698  1.00  0.00    -0.205 F 
ATOM     58  C   UNL A   1      49.103  26.908  24.261  1.00  0.00     0.022 A 
BRANCH  56  59
ATOM     59  S   UNL A   1      50.586  26.044  26.395  1.00  0.00     0.127 S 
ATOM     60  O   UNL A   1      51.471  25.933  25.239  1.00  0.00    -0.237 OA
ATOM     61  O   UNL A   1      50.916  27.127  27.324  1.00  0.00    -0.237 OA
ATOM     62  O   UNL A   1      50.225  24.790  27.042  1.00  0.00    -0.744 OA
ENDBRANCH  56  59
ENDBRANCH  28  52
BRANCH  40  63
ATOM     63  C   UNL A   1      45.399  33.216  29.624  1.00  0.00     0.023 A 
ATOM     64  C   UNL A   1      46.219  33.217  30.770  1.00  0.00     0.012 A 
ATOM     65  C   UNL A   1      45.391  34.341  28.776  1.00  0.00     0.148 A 
ATOM     66  C   UNL A   1      46.999  34.329  31.081  1.00  0.00     0.002 A 
ATOM     67  C   UNL A   1      46.207  35.427  29.067  1.00  0.00     0.091 A 
ATOM     68  F   UNL A   1      44.587  34.328  27.703  1.00  0.00    -0.205 F 
ATOM     69  C   UNL A   1      47.003  35.428  30.224  1.00  0.00     0.022 A 
BRANCH  67  70
ATOM     70  S   UNL A   1      46.344  36.845  27.972  1.00  0.00     0.127 S 
ATOM     71  O   UNL A   1      44.994  37.400  28.030  1.00  0.00    -0.237 OA
ATOM     72  O   UNL A   1      47.366  37.654  28.637  1.00  0.00    -0.237 OA
ATOM     73  O   UNL A   1      46.748  36.312  26.677  1.00  0.00    -0.744 OA
ENDBRANCH  67  70
ENDBRANCH  40  63
ENDBRANCH  14  15
ENDBRANCH   7   9
ENDBRANCH   4   5
ENDBRANCH   3   4
ENDBRANCH   2   3
ENDBRANCH   1   2
BRANCH   1  74
ATOM     74  N   UNL A   1      34.118  26.066  26.155  1.00  0.00    -0.351 N 
ATOM     75  C   UNL A   1      33.033  26.780  26.596  1.00  0.00     0.269 C 
ATOM     76  H   UNL A   1      34.993  26.376  26.480  1.00  0.00     0.163 HD
ATOM     77  O   UNL A   1      33.209  27.846  27.181  1.00  0.00    -0.268 OA
BRANCH  75  78
ATOM     78  C   UNL A   1      31.730  26.282  26.277  1.00  0.00     0.131 A 
ATOM     79  N   UNL A   1      31.313  25.047  26.686  1.00  0.00    -0.272 N 
ATOM     80  C   UNL A   1      30.667  26.835  25.573  1.00  0.00     0.057 A 
ATOM     81  N   UNL A   1      29.996  24.850  26.525  1.00  0.00    -0.183 NA
ATOM     82  H   UNL A   1      31.920  24.369  27.060  1.00  0.00     0.190 HD
ATOM     83  C   UNL A   1      29.602  25.947  25.877  1.00  0.00     0.145 A 
BRANCH  80  84
ATOM     84  C   UNL A   1      30.653  28.141  24.825  1.00  0.00     0.303 C 
BRANCH  84  85
ATOM     85  N   UNL A   1      31.517  28.207  23.637  1.00  0.00    -0.330 N 
ATOM     86  C   UNL A   1      32.815  28.831  23.877  1.00  0.00     0.262 C 
ATOM     87  C   UNL A   1      31.626  26.923  22.958  1.00  0.00     0.274 C 
ATOM     88  H   UNL A   1      31.039  28.840  22.994  1.00  0.00     0.348 HD
ATOM     89  C   UNL A   1      33.584  28.971  22.560  1.00  0.00     0.062 C 
ATOM     90  C   UNL A   1      32.409  26.920  21.642  1.00  0.00     0.116 C 
ATOM     91  C   UNL A   1      33.757  27.625  21.854  1.00  0.00     0.023 C 
BRANCH  90  92
ATOM     92  C   UNL A   1      32.660  25.499  21.094  1.00  0.00     0.171 C 
ATOM     93  O   UNL A   1      32.955  25.292  19.917  1.00  0.00    -0.294 OA
BRANCH  92  94
ATOM     94  C   UNL A   1      32.642  24.331  22.016  1.00  0.00     0.018 A 
ATOM     95  C   UNL A   1      31.535  24.153  22.847  1.00  0.00     0.015 A 
ATOM     96  C   UNL A   1      33.653  23.368  21.986  1.00  0.00     0.015 A 
ATOM     97  C   UNL A   1      31.410  22.973  23.588  1.00  0.00     0.048 A 
ATOM     98  C   UNL A   1      33.498  22.168  22.689  1.00  0.00     0.048 A 
ATOM     99  C   UNL A   1      32.372  21.959  23.490  1.00  0.00     0.127 A 
BRANCH  99 100
ATOM    100  O   UNL A   1      32.105  20.832  24.239  1.00  0.00    -0.457 OA
BRANCH 100 101
ATOM    101  C   UNL A   1      32.762  19.661  23.950  1.00  0.00     0.127 A 
ATOM    102  C   UNL A   1      32.220  18.823  22.973  1.00  0.00     0.047 A 
ATOM    103  C   UNL A   1      33.868  19.247  24.695  1.00  0.00     0.047 A 
ATOM    104  C   UNL A   1      32.820  17.591  22.706  1.00  0.00     0.004 A 
ATOM    105  C   UNL A   1      34.482  18.028  24.407  1.00  0.00     0.004 A 
ATOM    106  C   UNL A   1      33.959  17.200  23.413  1.00  0.00     0.000 A 
ENDBRANCH 100 101
ENDBRANCH  99 100
ENDBRANCH  92  94
ENDBRANCH  90  92
ENDBRANCH  84  85
ENDBRANCH  80  84
ENDBRANCH  75  78
ENDBRANCH   1  74
TORSDOF 20
ENDMDL
MODEL 2
REMARK VINA RESULT:     -11.9      2.347      7.788
REMARK SMILES O=C(NCCCCNC(=O)c1[nH]ncc1C[N@H+]1CCC[C@@H](C(=O)c2ccc(Oc3ccccc3)cc2)C1)c1ccc(-c2c3nc(c(-c4cccc(S(=O)(=O)[O-])c4F)c4ccc([nH]4)c(-c4cccc(S(=O)(=O)[O-])c4F)c4nc(c(-c5cccc(S(=O)(=O)[O-])c5F)c5ccc2[nH]5)C=C4)C=C3)cc1
REMARK SMILES IDX 7 1 6 2 5 3 4 4 3 5 1 6 2 7 38 9 39 10 100 11 40 12 99 13
REMARK SMILES IDX 41 14 42 15 43 16 93 17 44 18 98 19 92 20 94 21 45 22 97 23
REMARK SMILES IDX 91 24 90 25 46 27 78 28 58 29 77 30 59 31 62 32 76 33 95 34
REMARK SMILES IDX 60 35 61 36 75 38 96 39 63 40 47 41 48 42 56 43 49 44 51 45
REMARK SMILES IDX 57 46 50 47 52 48 53 49 54 50 55 51 79 52 80 53 88 54 81 55
REMARK SMILES IDX 83 56 89 57 82 58 84 59 85 60 86 61 87 62 64 63 65 64 73 65
REMARK SMILES IDX 66 66 68 67 74 68 67 69 69 70 70 71 71 72 72 73 8 74 9 75
REMARK SMILES IDX 10 77 11 78 12 79 15 80 13 81 14 83 16 84 17 85 18 86 37 87
REMARK SMILES IDX 19 89 21 90 20 91 22 92 23 93 24 94 25 95 36 96 26 97 35 98
REMARK SMILES IDX 27 99 28 100 29 101 30 102 34 103 31 104 33 105 32 106
REMARK H PARENT 3 8 94 26 62 37 8 76 12 82 17 88
REMARK Flexibility Score: inf
ROOT
ATOM      1  C   UNL A   1      34.226  25.425  24.852  1.00  0.00     0.116 C 
ENDROOT
BRANCH   1   2
ATOM      2  C   UNL A   1      34.809  24.139  24.280  1.00  0.00     0.023 C 
BRANCH   2   3
ATOM      3  C   UNL A   1      36.292  23.923  24.559  1.00  0.00     0.023 C 
BRANCH   3   4
ATOM      4  C   UNL A   1      36.621  23.454  25.971  1.00  0.00     0.116 C 
BRANCH   4   5
ATOM      5  N   UNL A   1      37.790  22.590  26.024  1.00  0.00    -0.352 N 
ATOM      6  O   UNL A   1      39.973  22.070  26.223  1.00  0.00    -0.269 OA
ATOM      7  C   UNL A   1      39.081  22.898  26.383  1.00  0.00     0.251 C 
ATOM      8  H   UNL A   1      37.635  21.652  25.766  1.00  0.00     0.163 HD
BRANCH   7   9
ATOM      9  C   UNL A   1      39.385  24.240  26.922  1.00  0.00     0.039 A 
ATOM     10  C   UNL A   1      39.949  25.222  26.104  1.00  0.00     0.014 A 
ATOM     11  C   UNL A   1      39.136  24.503  28.271  1.00  0.00     0.014 A 
ATOM     12  C   UNL A   1      40.416  26.404  26.668  1.00  0.00     0.010 A 
ATOM     13  C   UNL A   1      39.526  25.728  28.817  1.00  0.00     0.010 A 
ATOM     14  C   UNL A   1      40.208  26.671  28.030  1.00  0.00    -0.014 A 
BRANCH  14  15
ATOM     15  C   UNL A   1      40.664  27.960  28.608  1.00  0.00     0.031 A 
ATOM     16  C   UNL A   1      42.127  28.261  28.778  1.00  0.00     0.074 A 
ATOM     17  C   UNL A   1      39.738  28.856  29.002  1.00  0.00     0.049 A 
ATOM     18  N   UNL A   1      42.694  29.320  29.297  1.00  0.00    -0.248 NA
ATOM     19  C   UNL A   1      43.081  27.240  28.314  1.00  0.00     0.031 C 
ATOM     20  C   UNL A   1      38.290  28.659  28.918  1.00  0.00     0.029 A 
ATOM     21  N   UNL A   1      39.874  30.100  29.564  1.00  0.00    -0.354 N 
ATOM     22  C   UNL A   1      44.062  29.077  29.267  1.00  0.00     0.074 A 
ATOM     23  C   UNL A   1      44.243  27.767  28.680  1.00  0.00     0.031 C 
ATOM     24  C   UNL A   1      37.670  29.744  29.404  1.00  0.00     0.029 A 
ATOM     25  C   UNL A   1      38.673  30.688  29.882  1.00  0.00     0.049 A 
ATOM     26  H   UNL A   1      40.746  30.528  29.724  1.00  0.00     0.167 HD
ATOM     27  C   UNL A   1      45.074  29.879  29.677  1.00  0.00     0.034 A 
ATOM     28  C   UNL A   1      38.405  31.848  30.511  1.00  0.00     0.034 A 
ATOM     29  C   UNL A   1      44.888  31.197  30.225  1.00  0.00     0.049 A 
ATOM     30  C   UNL A   1      39.545  32.726  30.936  1.00  0.00     0.074 A 
ATOM     31  C   UNL A   1      45.853  32.113  30.608  1.00  0.00     0.029 A 
ATOM     32  N   UNL A   1      43.658  31.785  30.475  1.00  0.00    -0.354 N 
ATOM     33  N   UNL A   1      40.833  32.531  30.787  1.00  0.00    -0.248 NA
ATOM     34  C   UNL A   1      39.198  33.995  31.590  1.00  0.00     0.031 C 
ATOM     35  C   UNL A   1      45.204  33.248  31.108  1.00  0.00     0.029 A 
ATOM     36  C   UNL A   1      43.836  33.048  31.014  1.00  0.00     0.049 A 
ATOM     37  H   UNL A   1      42.786  31.367  30.294  1.00  0.00     0.167 HD
ATOM     38  C   UNL A   1      41.451  33.664  31.301  1.00  0.00     0.074 A 
ATOM     39  C   UNL A   1      40.393  34.550  31.748  1.00  0.00     0.031 C 
ATOM     40  C   UNL A   1      42.773  33.940  31.406  1.00  0.00     0.034 A 
BRANCH  27  41
ATOM     41  C   UNL A   1      46.483  29.368  29.518  1.00  0.00     0.023 A 
ATOM     42  C   UNL A   1      47.074  28.619  30.557  1.00  0.00     0.012 A 
ATOM     43  C   UNL A   1      47.202  29.577  28.324  1.00  0.00     0.148 A 
ATOM     44  C   UNL A   1      48.368  28.115  30.423  1.00  0.00     0.002 A 
ATOM     45  C   UNL A   1      48.475  29.036  28.183  1.00  0.00     0.091 A 
ATOM     46  F   UNL A   1      46.635  30.309  27.355  1.00  0.00    -0.205 F 
ATOM     47  C   UNL A   1      49.064  28.315  29.233  1.00  0.00     0.022 A 
BRANCH  45  48
ATOM     48  S   UNL A   1      49.417  29.180  26.658  1.00  0.00     0.127 S 
ATOM     49  O   UNL A   1      48.479  28.632  25.680  1.00  0.00    -0.237 OA
ATOM     50  O   UNL A   1      49.628  30.625  26.557  1.00  0.00    -0.237 OA
ATOM     51  O   UNL A   1      50.633  28.407  26.868  1.00  0.00    -0.744 OA
ENDBRANCH  45  48
ENDBRANCH  27  41
BRANCH  28  52
ATOM     52  C   UNL A   1      36.988  32.250  30.724  1.00  0.00     0.023 A 
ATOM     53  C   UNL A   1      36.417  32.122  32.004  1.00  0.00     0.012 A 
ATOM     54  C   UNL A   1      36.231  32.828  29.685  1.00  0.00     0.148 A 
ATOM     55  C   UNL A   1      35.110  32.550  32.242  1.00  0.00     0.002 A 
ATOM     56  C   UNL A   1      34.952  33.305  29.944  1.00  0.00     0.091 A 
ATOM     57  F   UNL A   1      36.792  32.930  28.472  1.00  0.00    -0.205 F 
ATOM     58  C   UNL A   1      34.384  33.153  31.219  1.00  0.00     0.022 A 
BRANCH  56  59
ATOM     59  S   UNL A   1      34.003  34.224  28.727  1.00  0.00     0.127 S 
ATOM     60  O   UNL A   1      34.917  35.316  28.400  1.00  0.00    -0.237 OA
ATOM     61  O   UNL A   1      33.828  33.228  27.668  1.00  0.00    -0.237 OA
ATOM     62  O   UNL A   1      32.769  34.608  29.399  1.00  0.00    -0.744 OA
ENDBRANCH  56  59
ENDBRANCH  28  52
BRANCH  40  63
ATOM     63  C   UNL A   1      43.163  35.268  31.996  1.00  0.00     0.023 A 
ATOM     64  C   UNL A   1      43.271  35.408  33.394  1.00  0.00     0.012 A 
ATOM     65  C   UNL A   1      43.497  36.354  31.163  1.00  0.00     0.148 A 
ATOM     66  C   UNL A   1      43.680  36.617  33.955  1.00  0.00     0.002 A 
ATOM     67  C   UNL A   1      43.949  37.541  31.727  1.00  0.00     0.091 A 
ATOM     68  F   UNL A   1      43.365  36.207  29.837  1.00  0.00    -0.205 F 
ATOM     69  C   UNL A   1      44.031  37.677  33.122  1.00  0.00     0.022 A 
BRANCH  67  70
ATOM     70  S   UNL A   1      44.509  38.926  30.730  1.00  0.00     0.127 S 
ATOM     71  O   UNL A   1      44.935  39.878  31.753  1.00  0.00    -0.237 OA
ATOM     72  O   UNL A   1      45.600  38.331  29.956  1.00  0.00    -0.237 OA
ATOM     73  O   UNL A   1      43.360  39.335  29.933  1.00  0.00    -0.744 OA
ENDBRANCH  67  70
ENDBRANCH  40  63
ENDBRANCH  14  15
ENDBRANCH   7   9
ENDBRANCH   4   5
ENDBRANCH   3   4
ENDBRANCH   2   3
ENDBRANCH   1   2
BRANCH   1  74
ATOM     74  N   UNL A   1      34.368  26.565  23.957  1.00  0.00    -0.351 N 
ATOM     75  C   UNL A   1      33.995  27.869  24.163  1.00  0.00     0.269 C 
ATOM     76  H   UNL A   1      34.788  26.375  23.088  1.00  0.00     0.163 HD
ATOM     77  O   UNL A   1      34.013  28.659  23.223  1.00  0.00    -0.268 OA
BRANCH  75  78
ATOM     78  C   UNL A   1      33.519  28.230  25.464  1.00  0.00     0.131 A 
ATOM     79  N   UNL A   1      34.353  28.277  26.546  1.00  0.00    -0.272 N 
ATOM     80  C   UNL A   1      32.262  28.594  25.929  1.00  0.00     0.057 A 
ATOM     81  N   UNL A   1      33.804  28.875  27.613  1.00  0.00    -0.183 NA
ATOM     82  H   UNL A   1      35.264  27.907  26.542  1.00  0.00     0.190 HD
ATOM     83  C   UNL A   1      32.546  29.092  27.228  1.00  0.00     0.145 A 
BRANCH  80  84
ATOM     84  C   UNL A   1      30.972  28.596  25.154  1.00  0.00     0.303 C 
BRANCH  84  85
ATOM     85  N   UNL A   1      30.501  27.282  24.690  1.00  0.00    -0.330 N 
ATOM     86  C   UNL A   1      30.940  26.933  23.342  1.00  0.00     0.262 C 
ATOM     87  C   UNL A   1      30.761  26.226  25.658  1.00  0.00     0.274 C 
ATOM     88  H   UNL A   1      29.487  27.372  24.618  1.00  0.00     0.348 HD
ATOM     89  C   UNL A   1      30.295  25.615  22.902  1.00  0.00     0.062 C 
ATOM     90  C   UNL A   1      30.201  24.843  25.316  1.00  0.00     0.116 C 
ATOM     91  C   UNL A   1      30.600  24.478  23.878  1.00  0.00     0.023 C 
BRANCH  90  92
ATOM     92  C   UNL A   1      30.694  23.739  26.275  1.00  0.00     0.171 C 
ATOM     93  O   UNL A   1      30.191  23.561  27.385  1.00  0.00    -0.294 OA
BRANCH  92  94
ATOM     94  C   UNL A   1      31.747  22.784  25.834  1.00  0.00     0.018 A 
ATOM     95  C   UNL A   1      32.744  22.424  26.740  1.00  0.00     0.015 A 
ATOM     96  C   UNL A   1      31.691  22.172  24.579  1.00  0.00     0.015 A 
ATOM     97  C   UNL A   1      33.636  21.397  26.414  1.00  0.00     0.048 A 
ATOM     98  C   UNL A   1      32.552  21.112  24.278  1.00  0.00     0.048 A 
ATOM     99  C   UNL A   1      33.527  20.712  25.196  1.00  0.00     0.127 A 
BRANCH  99 100
ATOM    100  O   UNL A   1      34.441  19.694  25.020  1.00  0.00    -0.457 OA
BRANCH 100 101
ATOM    101  C   UNL A   1      33.996  18.398  24.937  1.00  0.00     0.127 A 
ATOM    102  C   UNL A   1      34.514  17.585  23.926  1.00  0.00     0.047 A 
ATOM    103  C   UNL A   1      32.959  17.933  25.749  1.00  0.00     0.047 A 
ATOM    104  C   UNL A   1      34.029  16.285  23.765  1.00  0.00     0.004 A 
ATOM    105  C   UNL A   1      32.497  16.625  25.603  1.00  0.00     0.004 A 
ATOM    106  C   UNL A   1      33.031  15.801  24.612  1.00  0.00     0.000 A 
ENDBRANCH 100 101
ENDBRANCH  99 100
ENDBRANCH  92  94
ENDBRANCH  90  92
ENDBRANCH  84  85
ENDBRANCH  80  84
ENDBRANCH  75  78
ENDBRANCH   1  74
TORSDOF 20
ENDMDL
MODEL 3
REMARK VINA RESULT:     -11.8      2.563      9.127
REMARK SMILES O=C(NCCCCNC(=O)c1[nH]ncc1C[N@H+]1CCC[C@@H](C(=O)c2ccc(Oc3ccccc3)cc2)C1)c1ccc(-c2c3nc(c(-c4cccc(S(=O)(=O)[O-])c4F)c4ccc([nH]4)c(-c4cccc(S(=O)(=O)[O-])c4F)c4nc(c(-c5cccc(S(=O)(=O)[O-])c5F)c5ccc2[nH]5)C=C4)C=C3)cc1
REMARK SMILES IDX 7 1 6 2 5 3 4 4 3 5 1 6 2 7 38 9 39 10 100 11 40 12 99 13
REMARK SMILES IDX 41 14 42 15 43 16 93 17 44 18 98 19 92 20 94 21 45 22 97 23
REMARK SMILES IDX 91 24 90 25 46 27 78 28 58 29 77 30 59 31 62 32 76 33 95 34
REMARK SMILES IDX 60 35 61 36 75 38 96 39 63 40 47 41 48 42 56 43 49 44 51 45
REMARK SMILES IDX 57 46 50 47 52 48 53 49 54 50 55 51 79 52 80 53 88 54 81 55
REMARK SMILES IDX 83 56 89 57 82 58 84 59 85 60 86 61 87 62 64 63 65 64 73 65
REMARK SMILES IDX 66 66 68 67 74 68 67 69 69 70 70 71 71 72 72 73 8 74 9 75
REMARK SMILES IDX 10 77 11 78 12 79 15 80 13 81 14 83 16 84 17 85 18 86 37 87
REMARK SMILES IDX 19 89 21 90 20 91 22 92 23 93 24 94 25 95 36 96 26 97 35 98
REMARK SMILES IDX 27 99 28 100 29 101 30 102 34 103 31 104 33 105 32 106
REMARK H PARENT 3 8 94 26 62 37 8 76 12 82 17 88
REMARK Flexibility Score: inf
ROOT
ATOM      1  C   UNL A   1      36.975  21.141  24.853  1.00  0.00     0.116 C 
ENDROOT
BRANCH   1   2
ATOM      2  C   UNL A   1      38.131  21.585  25.741  1.00  0.00     0.023 C 
BRANCH   2   3
ATOM      3  C   UNL A   1      39.456  20.880  25.473  1.00  0.00     0.023 C 
BRANCH   3   4
ATOM      4  C   UNL A   1      39.826  19.799  26.481  1.00  0.00     0.116 C 
BRANCH   4   5
ATOM      5  N   UNL A   1      41.039  19.080  26.123  1.00  0.00    -0.352 N 
ATOM      6  O   UNL A   1      43.181  18.828  25.474  1.00  0.00    -0.269 OA
ATOM      7  C   UNL A   1      42.308  19.567  25.919  1.00  0.00     0.251 C 
ATOM      8  H   UNL A   1      40.936  18.107  26.010  1.00  0.00     0.163 HD
BRANCH   7   9
ATOM      9  C   UNL A   1      42.596  20.989  26.203  1.00  0.00     0.039 A 
ATOM     10  C   UNL A   1      42.822  21.889  25.160  1.00  0.00     0.014 A 
ATOM     11  C   UNL A   1      42.675  21.414  27.531  1.00  0.00     0.014 A 
ATOM     12  C   UNL A   1      43.289  23.168  25.442  1.00  0.00     0.010 A 
ATOM     13  C   UNL A   1      43.059  22.727  27.812  1.00  0.00     0.010 A 
ATOM     14  C   UNL A   1      43.411  23.602  26.770  1.00  0.00    -0.014 A 
BRANCH  14  15
ATOM     15  C   UNL A   1      43.859  24.987  27.057  1.00  0.00     0.031 A 
ATOM     16  C   UNL A   1      45.291  25.399  26.852  1.00  0.00     0.074 A 
ATOM     17  C   UNL A   1      42.961  25.874  27.529  1.00  0.00     0.049 A 
ATOM     18  N   UNL A   1      45.856  26.555  27.087  1.00  0.00    -0.248 NA
ATOM     19  C   UNL A   1      46.213  24.380  26.323  1.00  0.00     0.031 C 
ATOM     20  C   UNL A   1      41.553  25.579  27.800  1.00  0.00     0.029 A 
ATOM     21  N   UNL A   1      43.100  27.193  27.878  1.00  0.00    -0.354 N 
ATOM     22  C   UNL A   1      47.202  26.394  26.781  1.00  0.00     0.074 A 
ATOM     23  C   UNL A   1      47.373  25.025  26.346  1.00  0.00     0.031 C 
ATOM     24  C   UNL A   1      40.955  26.685  28.267  1.00  0.00     0.029 A 
ATOM     25  C   UNL A   1      41.946  27.748  28.378  1.00  0.00     0.049 A 
ATOM     26  H   UNL A   1      43.942  27.693  27.780  1.00  0.00     0.167 HD
ATOM     27  C   UNL A   1      48.201  27.308  26.845  1.00  0.00     0.034 A 
ATOM     28  C   UNL A   1      41.713  28.969  28.894  1.00  0.00     0.034 A 
ATOM     29  C   UNL A   1      48.016  28.678  27.243  1.00  0.00     0.049 A 
ATOM     30  C   UNL A   1      42.832  29.969  28.933  1.00  0.00     0.074 A 
ATOM     31  C   UNL A   1      48.952  29.698  27.276  1.00  0.00     0.029 A 
ATOM     32  N   UNL A   1      46.819  29.222  27.684  1.00  0.00    -0.354 N 
ATOM     33  N   UNL A   1      44.071  29.833  28.525  1.00  0.00    -0.248 NA
ATOM     34  C   UNL A   1      42.519  31.297  29.477  1.00  0.00     0.031 C 
ATOM     35  C   UNL A   1      48.324  30.853  27.755  1.00  0.00     0.029 A 
ATOM     36  C   UNL A   1      46.992  30.559  27.999  1.00  0.00     0.049 A 
ATOM     37  H   UNL A   1      45.971  28.729  27.761  1.00  0.00     0.167 HD
ATOM     38  C   UNL A   1      44.677  31.065  28.734  1.00  0.00     0.074 A 
ATOM     39  C   UNL A   1      43.663  31.941  29.287  1.00  0.00     0.031 C 
ATOM     40  C   UNL A   1      45.961  31.433  28.501  1.00  0.00     0.034 A 
BRANCH  27  41
ATOM     41  C   UNL A   1      49.584  26.866  26.441  1.00  0.00     0.023 A 
ATOM     42  C   UNL A   1      50.345  26.067  27.319  1.00  0.00     0.012 A 
ATOM     43  C   UNL A   1      50.109  27.189  25.173  1.00  0.00     0.148 A 
ATOM     44  C   UNL A   1      51.617  25.625  26.957  1.00  0.00     0.002 A 
ATOM     45  C   UNL A   1      51.362  26.711  24.804  1.00  0.00     0.091 A 
ATOM     46  F   UNL A   1      49.384  27.968  24.359  1.00  0.00    -0.205 F 
ATOM     47  C   UNL A   1      52.121  25.938  25.696  1.00  0.00     0.022 A 
BRANCH  45  48
ATOM     48  S   UNL A   1      52.060  27.003  23.174  1.00  0.00     0.127 S 
ATOM     49  O   UNL A   1      52.560  28.369  23.307  1.00  0.00    -0.237 OA
ATOM     50  O   UNL A   1      53.102  25.977  23.092  1.00  0.00    -0.237 OA
ATOM     51  O   UNL A   1      50.962  26.821  22.234  1.00  0.00    -0.744 OA
ENDBRANCH  45  48
ENDBRANCH  27  41
BRANCH  28  52
ATOM     52  C   UNL A   1      40.344  29.312  29.367  1.00  0.00     0.023 A 
ATOM     53  C   UNL A   1      39.388  29.773  28.443  1.00  0.00     0.012 A 
ATOM     54  C   UNL A   1      39.965  29.110  30.709  1.00  0.00     0.148 A 
ATOM     55  C   UNL A   1      38.081  30.042  28.851  1.00  0.00     0.002 A 
ATOM     56  C   UNL A   1      38.648  29.323  31.096  1.00  0.00     0.091 A 
ATOM     57  F   UNL A   1      40.896  28.680  31.573  1.00  0.00    -0.205 F 
ATOM     58  C   UNL A   1      37.708  29.804  30.171  1.00  0.00     0.022 A 
BRANCH  56  59
ATOM     59  S   UNL A   1      38.047  28.905  32.736  1.00  0.00     0.127 S 
ATOM     60  O   UNL A   1      36.650  29.321  32.657  1.00  0.00    -0.237 OA
ATOM     61  O   UNL A   1      38.258  27.456  32.773  1.00  0.00    -0.237 OA
ATOM     62  O   UNL A   1      38.882  29.656  33.664  1.00  0.00    -0.744 OA
ENDBRANCH  56  59
ENDBRANCH  28  52
BRANCH  40  63
ATOM     63  C   UNL A   1      46.343  32.855  28.809  1.00  0.00     0.023 A 
ATOM     64  C   UNL A   1      46.896  33.174  30.065  1.00  0.00     0.012 A 
ATOM     65  C   UNL A   1      46.228  33.859  27.827  1.00  0.00     0.148 A 
ATOM     66  C   UNL A   1      47.304  34.476  30.348  1.00  0.00     0.002 A 
ATOM     67  C   UNL A   1      46.680  35.144  28.100  1.00  0.00     0.091 A 
ATOM     68  F   UNL A   1      45.679  33.539  26.646  1.00  0.00    -0.205 F 
ATOM     69  C   UNL A   1      47.208  35.457  29.363  1.00  0.00     0.022 A 
BRANCH  67  70
ATOM     70  S   UNL A   1      46.680  36.445  26.862  1.00  0.00     0.127 S 
ATOM     71  O   UNL A   1      45.267  36.507  26.493  1.00  0.00    -0.237 OA
ATOM     72  O   UNL A   1      47.164  37.598  27.622  1.00  0.00    -0.237 OA
ATOM     73  O   UNL A   1      47.583  35.996  25.810  1.00  0.00    -0.744 OA
ENDBRANCH  67  70
ENDBRANCH  40  63
ENDBRANCH  14  15
ENDBRANCH   7   9
ENDBRANCH   4   5
ENDBRANCH   3   4
ENDBRANCH   2   3
ENDBRANCH   1   2
BRANCH   1  74
ATOM     74  N   UNL A   1      36.249  22.254  24.258  1.00  0.00    -0.351 N 
ATOM     75  C   UNL A   1      34.897  22.394  24.072  1.00  0.00     0.269 C 
ATOM     76  H   UNL A   1      36.802  23.006  23.949  1.00  0.00     0.163 HD
ATOM     77  O   UNL A   1      34.475  23.314  23.377  1.00  0.00    -0.268 OA
BRANCH  75  78
ATOM     78  C   UNL A   1      34.038  21.399  24.638  1.00  0.00     0.131 A 
ATOM     79  N   UNL A   1      33.986  20.128  24.141  1.00  0.00    -0.272 N 
ATOM     80  C   UNL A   1      33.148  21.434  25.705  1.00  0.00     0.057 A 
ATOM     81  N   UNL A   1      33.332  19.271  24.940  1.00  0.00    -0.183 NA
ATOM     82  H   UNL A   1      34.387  19.867  23.282  1.00  0.00     0.190 HD
ATOM     83  C   UNL A   1      32.850  20.060  25.902  1.00  0.00     0.145 A 
BRANCH  80  84
ATOM     84  C   UNL A   1      32.756  22.634  26.523  1.00  0.00     0.303 C 
BRANCH  84  85
ATOM     85  N   UNL A   1      32.339  23.821  25.759  1.00  0.00    -0.330 N 
ATOM     86  C   UNL A   1      31.138  23.621  24.954  1.00  0.00     0.262 C 
ATOM     87  C   UNL A   1      32.270  25.017  26.588  1.00  0.00     0.274 C 
ATOM     88  H   UNL A   1      33.085  23.976  25.080  1.00  0.00     0.348 HD
ATOM     89  C   UNL A   1      30.864  24.863  24.101  1.00  0.00     0.062 C 
ATOM     90  C   UNL A   1      31.961  26.326  25.857  1.00  0.00     0.116 C 
ATOM     91  C   UNL A   1      30.734  26.125  24.955  1.00  0.00     0.023 C 
BRANCH  90  92
ATOM     92  C   UNL A   1      31.697  27.505  26.819  1.00  0.00     0.171 C 
ATOM     93  O   UNL A   1      30.758  27.504  27.615  1.00  0.00    -0.294 OA
BRANCH  92  94
ATOM     94  C   UNL A   1      32.645  28.651  26.870  1.00  0.00     0.018 A 
ATOM     95  C   UNL A   1      32.125  29.945  26.932  1.00  0.00     0.015 A 
ATOM     96  C   UNL A   1      34.023  28.448  26.964  1.00  0.00     0.015 A 
ATOM     97  C   UNL A   1      32.986  31.024  27.163  1.00  0.00     0.048 A 
ATOM     98  C   UNL A   1      34.872  29.524  27.246  1.00  0.00     0.048 A 
ATOM     99  C   UNL A   1      34.358  30.819  27.353  1.00  0.00     0.127 A 
BRANCH  99 100
ATOM    100  O   UNL A   1      35.084  31.962  27.615  1.00  0.00    -0.457 OA
BRANCH 100 101
ATOM    101  C   UNL A   1      34.754  32.732  28.705  1.00  0.00     0.127 A 
ATOM    102  C   UNL A   1      34.233  34.008  28.478  1.00  0.00     0.047 A 
ATOM    103  C   UNL A   1      35.050  32.316  30.004  1.00  0.00     0.047 A 
ATOM    104  C   UNL A   1      33.957  34.846  29.560  1.00  0.00     0.004 A 
ATOM    105  C   UNL A   1      34.747  33.144  31.084  1.00  0.00     0.004 A 
ATOM    106  C   UNL A   1      34.201  34.409  30.864  1.00  0.00     0.000 A 
ENDBRANCH 100 101
ENDBRANCH  99 100
ENDBRANCH  92  94
ENDBRANCH  90  92
ENDBRANCH  84  85
ENDBRANCH  80  84
ENDBRANCH  75  78
ENDBRANCH   1  74
TORSDOF 20
ENDMDL
