MODEL 1
REMARK VINA RESULT:     -12.2      0.000      0.000
REMARK SMILES COC(=O)c1ccc([C@H]2Nc3c(C(=O)NCCCCNC(=O)c4ccc(-c5c6nc(c(-c7cccc(S(=O)(=O)[O-])c7F)c7ccc([nH]7)c(-c7cccc(S(=O)(=O)[O-])c7F)c7nc(c(-c8cccc(S(=O)(=O)[O-])c8F)c8ccc5[nH]8)C=C7)C=C6)cc4)cccc3[C@H]3[C@H]4CC[C@H](C4)[C@H]32)cc1
REMARK SMILES IDX 17 1 16 2 15 3 13 4 14 5 12 7 9 8 10 9 96 10 11 11 90 13
REMARK SMILES IDX 94 14 89 15 91 16 93 17 95 18 86 19 88 20 92 21 87 22 8 23
REMARK SMILES IDX 5 24 6 25 98 26 7 27 97 28 3 29 4 30 2 31 1 32 18 33 19 34
REMARK SMILES IDX 20 35 21 36 22 38 23 39 24 40 85 41 25 42 84 43 26 44 27 45
REMARK SMILES IDX 28 46 78 47 29 48 83 49 77 50 79 51 30 52 82 53 76 54 75 55
REMARK SMILES IDX 31 57 63 58 43 59 62 60 44 61 47 62 61 63 80 64 45 65 46 66
REMARK SMILES IDX 60 68 81 69 48 70 32 71 33 72 41 73 34 74 36 75 42 76 35 77
REMARK SMILES IDX 37 78 38 79 39 80 40 81 64 82 65 83 73 84 66 85 68 86 74 87
REMARK SMILES IDX 67 88 69 89 70 90 71 91 72 92 49 93 50 94 58 95 51 96 53 97
REMARK SMILES IDX 59 98 52 99 54 100 55 101 56 102 57 103
REMARK H PARENT 15 6 10 12 20 37 79 56 47 67
REMARK Flexibility Score: inf
ROOT
ATOM      1  C   UNL A   1      34.946  30.897  28.047  1.00  0.00     0.023 C 
ENDROOT
BRANCH   1   2
ATOM      2  C   UNL A   1      34.192  29.814  27.293  1.00  0.00     0.116 C 
BRANCH   2   3
ATOM      3  N   UNL A   1      33.131  30.332  26.441  1.00  0.00    -0.352 N 
ATOM      4  C   UNL A   1      32.222  29.615  25.694  1.00  0.00     0.253 C 
ATOM      5  O   UNL A   1      31.476  30.185  24.904  1.00  0.00    -0.269 OA
ATOM      6  H   UNL A   1      33.055  31.312  26.393  1.00  0.00     0.163 HD
BRANCH   4   7
ATOM      7  C   UNL A   1      32.226  28.139  25.823  1.00  0.00     0.063 A 
ATOM      8  C   UNL A   1      32.832  26.926  22.577  1.00  0.00     0.113 C 
ATOM      9  N   UNL A   1      33.354  27.799  23.654  1.00  0.00    -0.377 N 
ATOM     10  C   UNL A   1      33.527  25.549  22.771  1.00  0.00     0.027 C 
ATOM     11  C   UNL A   1      32.957  27.344  24.934  1.00  0.00     0.051 A 
ATOM     12  H   UNL A   1      33.909  28.596  23.499  1.00  0.00     0.161 HD
ATOM     13  C   UNL A   1      33.917  25.175  24.232  1.00  0.00     0.030 C 
ATOM     14  C   UNL A   1      33.112  24.197  22.154  1.00  0.00    -0.005 C 
ATOM     15  C   UNL A   1      33.150  25.981  25.240  1.00  0.00    -0.020 A 
ATOM     16  C   UNL A   1      33.813  23.627  24.215  1.00  0.00    -0.003 C 
ATOM     17  C   UNL A   1      31.878  23.549  22.794  1.00  0.00     0.004 C 
ATOM     18  C   UNL A   1      34.219  23.305  22.768  1.00  0.00     0.008 C 
ATOM     19  C   UNL A   1      31.527  27.542  26.881  1.00  0.00     0.016 A 
ATOM     20  C   UNL A   1      32.640  25.457  26.432  1.00  0.00     0.006 A 
ATOM     21  C   UNL A   1      32.358  23.140  24.190  1.00  0.00     0.004 C 
ATOM     22  C   UNL A   1      31.768  26.214  27.210  1.00  0.00     0.001 A 
BRANCH   8  23
ATOM     23  C   UNL A   1      31.343  27.288  22.460  1.00  0.00    -0.025 A 
ATOM     24  C   UNL A   1      28.861  28.594  22.944  1.00  0.00     0.060 A 
ATOM     25  C   UNL A   1      29.846  29.222  22.184  1.00  0.00     0.016 A 
ATOM     26  C   UNL A   1      29.073  27.282  23.385  1.00  0.00     0.016 A 
ATOM     27  C   UNL A   1      31.062  28.577  21.942  1.00  0.00     0.007 A 
ATOM     28  C   UNL A   1      30.303  26.636  23.141  1.00  0.00     0.007 A 
BRANCH  24  29
ATOM     29  C   UNL A   1      27.660  29.393  23.304  1.00  0.00     0.337 C 
ATOM     30  O   UNL A   1      26.527  28.932  23.318  1.00  0.00    -0.246 OA
BRANCH  29  31
ATOM     31  O   UNL A   1      27.989  30.692  23.527  1.00  0.00    -0.465 OA
ATOM     32  C   UNL A   1      27.697  31.550  22.419  1.00  0.00     0.282 C 
ENDBRANCH  29  31
ENDBRANCH  24  29
ENDBRANCH   8  23
ENDBRANCH   4   7
ENDBRANCH   2   3
ENDBRANCH   1   2
BRANCH   1  33
ATOM     33  C   UNL A   1      34.600  32.317  27.630  1.00  0.00     0.023 C 
BRANCH  33  34
ATOM     34  C   UNL A   1      33.166  32.740  27.916  1.00  0.00     0.116 C 
BRANCH  34  35
ATOM     35  N   UNL A   1      33.024  34.171  28.158  1.00  0.00    -0.352 N 
ATOM     36  C   UNL A   1      33.732  34.977  29.018  1.00  0.00     0.251 C 
ATOM     37  H   UNL A   1      32.324  34.622  27.634  1.00  0.00     0.163 HD
ATOM     38  O   UNL A   1      33.396  36.145  29.188  1.00  0.00    -0.269 OA
BRANCH  36  39
ATOM     39  C   UNL A   1      34.882  34.415  29.758  1.00  0.00     0.039 A 
ATOM     40  C   UNL A   1      34.640  33.602  30.867  1.00  0.00     0.014 A 
ATOM     41  C   UNL A   1      36.189  34.649  29.326  1.00  0.00     0.014 A 
ATOM     42  C   UNL A   1      35.709  32.961  31.497  1.00  0.00     0.010 A 
ATOM     43  C   UNL A   1      37.239  33.939  29.897  1.00  0.00     0.010 A 
ATOM     44  C   UNL A   1      37.014  33.090  30.990  1.00  0.00    -0.014 A 
BRANCH  44  45
ATOM     45  C   UNL A   1      38.151  32.335  31.577  1.00  0.00     0.031 A 
ATOM     46  C   UNL A   1      38.785  32.797  32.862  1.00  0.00     0.074 A 
ATOM     47  C   UNL A   1      38.673  31.290  30.908  1.00  0.00     0.049 A 
ATOM     48  N   UNL A   1      39.811  32.298  33.501  1.00  0.00    -0.248 NA
ATOM     49  C   UNL A   1      38.209  33.994  33.498  1.00  0.00     0.031 C 
ATOM     50  C   UNL A   1      38.202  30.791  29.614  1.00  0.00     0.029 A 
ATOM     51  N   UNL A   1      39.733  30.471  31.211  1.00  0.00    -0.354 N 
ATOM     52  C   UNL A   1      40.030  33.139  34.584  1.00  0.00     0.074 A 
ATOM     53  C   UNL A   1      39.053  34.202  34.497  1.00  0.00     0.031 C 
ATOM     54  C   UNL A   1      38.958  29.746  29.243  1.00  0.00     0.029 A 
ATOM     55  C   UNL A   1      39.989  29.519  30.250  1.00  0.00     0.049 A 
ATOM     56  H   UNL A   1      40.260  30.556  32.039  1.00  0.00     0.167 HD
ATOM     57  C   UNL A   1      40.943  33.025  35.579  1.00  0.00     0.034 A 
ATOM     58  C   UNL A   1      40.948  28.576  30.185  1.00  0.00     0.034 A 
ATOM     59  C   UNL A   1      41.890  31.948  35.682  1.00  0.00     0.049 A 
ATOM     60  C   UNL A   1      41.932  28.452  31.315  1.00  0.00     0.074 A 
ATOM     61  C   UNL A   1      42.788  31.687  36.701  1.00  0.00     0.029 A 
ATOM     62  N   UNL A   1      42.076  30.963  34.723  1.00  0.00    -0.354 N 
ATOM     63  N   UNL A   1      42.017  29.155  32.417  1.00  0.00    -0.248 NA
ATOM     64  C   UNL A   1      42.933  27.379  31.209  1.00  0.00     0.031 C 
ATOM     65  C   UNL A   1      43.544  30.566  36.340  1.00  0.00     0.029 A 
ATOM     66  C   UNL A   1      43.087  30.104  35.116  1.00  0.00     0.049 A 
ATOM     67  H   UNL A   1      41.562  30.886  33.886  1.00  0.00     0.167 HD
ATOM     68  C   UNL A   1      43.053  28.591  33.153  1.00  0.00     0.074 A 
ATOM     69  C   UNL A   1      43.554  27.474  32.378  1.00  0.00     0.031 C 
ATOM     70  C   UNL A   1      43.550  28.968  34.357  1.00  0.00     0.034 A 
BRANCH  57  71
ATOM     71  C   UNL A   1      40.934  34.080  36.655  1.00  0.00     0.023 A 
ATOM     72  C   UNL A   1      41.596  35.308  36.441  1.00  0.00     0.012 A 
ATOM     73  C   UNL A   1      40.242  33.875  37.865  1.00  0.00     0.148 A 
ATOM     74  C   UNL A   1      41.613  36.291  37.429  1.00  0.00     0.002 A 
ATOM     75  C   UNL A   1      40.220  34.879  38.825  1.00  0.00     0.091 A 
ATOM     76  F   UNL A   1      39.636  32.696  38.063  1.00  0.00    -0.205 F 
ATOM     77  C   UNL A   1      40.917  36.080  38.615  1.00  0.00     0.022 A 
BRANCH  75  78
ATOM     78  S   UNL A   1      39.282  34.738  40.350  1.00  0.00     0.127 S 
ATOM     79  O   UNL A   1      40.214  33.999  41.202  1.00  0.00    -0.237 OA
ATOM     80  O   UNL A   1      39.094  36.139  40.728  1.00  0.00    -0.237 OA
ATOM     81  O   UNL A   1      38.057  34.034  40.003  1.00  0.00    -0.744 OA
ENDBRANCH  75  78
ENDBRANCH  57  71
BRANCH  58  82
ATOM     82  C   UNL A   1      40.975  27.625  29.038  1.00  0.00     0.023 A 
ATOM     83  C   UNL A   1      40.060  26.553  29.009  1.00  0.00     0.012 A 
ATOM     84  C   UNL A   1      41.867  27.795  27.962  1.00  0.00     0.148 A 
ATOM     85  C   UNL A   1      40.052  25.653  27.944  1.00  0.00     0.002 A 
ATOM     86  C   UNL A   1      41.816  26.927  26.877  1.00  0.00     0.091 A 
ATOM     87  F   UNL A   1      42.732  28.818  28.012  1.00  0.00    -0.205 F 
ATOM     88  C   UNL A   1      40.923  25.845  26.874  1.00  0.00     0.022 A 
BRANCH  86  89
ATOM     89  S   UNL A   1      42.807  27.166  25.399  1.00  0.00     0.127 S 
ATOM     90  O   UNL A   1      44.148  27.318  25.959  1.00  0.00    -0.237 OA
ATOM     91  O   UNL A   1      42.577  25.912  24.680  1.00  0.00    -0.237 OA
ATOM     92  O   UNL A   1      42.262  28.346  24.742  1.00  0.00    -0.744 OA
ENDBRANCH  86  89
ENDBRANCH  58  82
BRANCH  70  93
ATOM     93  C   UNL A   1      44.670  28.147  34.942  1.00  0.00     0.023 A 
ATOM     94  C   UNL A   1      46.009  28.539  34.746  1.00  0.00     0.012 A 
ATOM     95  C   UNL A   1      44.391  27.026  35.750  1.00  0.00     0.148 A 
ATOM     96  C   UNL A   1      47.053  27.809  35.314  1.00  0.00     0.002 A 
ATOM     97  C   UNL A   1      45.432  26.336  36.357  1.00  0.00     0.091 A 
ATOM     98  F   UNL A   1      43.111  26.659  35.911  1.00  0.00    -0.205 F 
ATOM     99  C   UNL A   1      46.764  26.717  36.130  1.00  0.00     0.022 A 
BRANCH  97 100
ATOM    100  S   UNL A   1      45.151  24.980  37.502  1.00  0.00     0.127 S 
ATOM    101  O   UNL A   1      44.095  25.525  38.354  1.00  0.00    -0.237 OA
ATOM    102  O   UNL A   1      44.721  23.905  36.610  1.00  0.00    -0.237 OA
ATOM    103  O   UNL A   1      46.427  24.742  38.165  1.00  0.00    -0.744 OA
ENDBRANCH  97 100
ENDBRANCH  70  93
ENDBRANCH  44  45
ENDBRANCH  36  39
ENDBRANCH  34  35
ENDBRANCH  33  34
ENDBRANCH   1  33
TORSDOF 17
ENDMDL
MODEL 2
REMARK VINA RESULT:     -12.2      1.073      7.333
REMARK SMILES COC(=O)c1ccc([C@H]2Nc3c(C(=O)NCCCCNC(=O)c4ccc(-c5c6nc(c(-c7cccc(S(=O)(=O)[O-])c7F)c7ccc([nH]7)c(-c7cccc(S(=O)(=O)[O-])c7F)c7nc(c(-c8cccc(S(=O)(=O)[O-])c8F)c8ccc5[nH]8)C=C7)C=C6)cc4)cccc3[C@H]3[C@H]4CC[C@H](C4)[C@H]32)cc1
REMARK SMILES IDX 17 1 16 2 15 3 13 4 14 5 12 7 9 8 10 9 96 10 11 11 90 13
REMARK SMILES IDX 94 14 89 15 91 16 93 17 95 18 86 19 88 20 92 21 87 22 8 23
REMARK SMILES IDX 5 24 6 25 98 26 7 27 97 28 3 29 4 30 2 31 1 32 18 33 19 34
REMARK SMILES IDX 20 35 21 36 22 38 23 39 24 40 85 41 25 42 84 43 26 44 27 45
REMARK SMILES IDX 28 46 78 47 29 48 83 49 77 50 79 51 30 52 82 53 76 54 75 55
REMARK SMILES IDX 31 57 63 58 43 59 62 60 44 61 47 62 61 63 80 64 45 65 46 66
REMARK SMILES IDX 60 68 81 69 48 70 32 71 33 72 41 73 34 74 36 75 42 76 35 77
REMARK SMILES IDX 37 78 38 79 39 80 40 81 64 82 65 83 73 84 66 85 68 86 74 87
REMARK SMILES IDX 67 88 69 89 70 90 71 91 72 92 49 93 50 94 58 95 51 96 53 97
REMARK SMILES IDX 59 98 52 99 54 100 55 101 56 102 57 103
REMARK H PARENT 15 6 10 12 20 37 79 56 47 67
REMARK Flexibility Score: inf
ROOT
ATOM      1  C   UNL A   1      34.801  30.551  28.020  1.00  0.00     0.023 C 
ENDROOT
BRANCH   1   2
ATOM      2  C   UNL A   1      34.639  29.554  26.885  1.00  0.00     0.116 C 
BRANCH   2   3
ATOM      3  N   UNL A   1      33.731  30.004  25.841  1.00  0.00    -0.352 N 
ATOM      4  C   UNL A   1      32.785  29.263  25.166  1.00  0.00     0.253 C 
ATOM      5  O   UNL A   1      32.190  29.738  24.204  1.00  0.00    -0.269 OA
ATOM      6  H   UNL A   1      33.800  30.952  25.587  1.00  0.00     0.163 HD
BRANCH   4   7
ATOM      7  C   UNL A   1      32.566  27.861  25.592  1.00  0.00     0.063 A 
ATOM      8  C   UNL A   1      32.637  25.969  22.628  1.00  0.00     0.113 C 
ATOM      9  N   UNL A   1      33.398  26.923  23.466  1.00  0.00    -0.377 N 
ATOM     10  C   UNL A   1      33.119  24.553  23.049  1.00  0.00     0.027 C 
ATOM     11  C   UNL A   1      33.066  26.795  24.836  1.00  0.00     0.051 A 
ATOM     12  H   UNL A   1      34.054  27.566  23.114  1.00  0.00     0.161 HD
ATOM     13  C   UNL A   1      33.591  24.399  24.526  1.00  0.00     0.030 C 
ATOM     14  C   UNL A   1      32.433  23.203  22.750  1.00  0.00    -0.005 C 
ATOM     15  C   UNL A   1      33.070  25.503  25.399  1.00  0.00    -0.020 A 
ATOM     16  C   UNL A   1      33.240  22.919  24.832  1.00  0.00    -0.003 C 
ATOM     17  C   UNL A   1      31.183  22.916  23.591  1.00  0.00     0.004 C 
ATOM     18  C   UNL A   1      33.440  22.262  23.455  1.00  0.00     0.008 C 
ATOM     19  C   UNL A   1      31.893  27.607  26.795  1.00  0.00     0.016 A 
ATOM     20  C   UNL A   1      32.607  25.312  26.705  1.00  0.00     0.006 A 
ATOM     21  C   UNL A   1      31.732  22.700  25.006  1.00  0.00     0.004 C 
ATOM     22  C   UNL A   1      31.951  26.344  27.370  1.00  0.00     0.001 A 
BRANCH   8  23
ATOM     23  C   UNL A   1      31.220  26.560  22.541  1.00  0.00    -0.025 A 
ATOM     24  C   UNL A   1      29.022  28.315  22.976  1.00  0.00     0.060 A 
ATOM     25  C   UNL A   1      30.037  28.669  22.088  1.00  0.00     0.016 A 
ATOM     26  C   UNL A   1      29.054  27.051  23.577  1.00  0.00     0.016 A 
ATOM     27  C   UNL A   1      31.113  27.803  21.871  1.00  0.00     0.007 A 
ATOM     28  C   UNL A   1      30.143  26.181  23.357  1.00  0.00     0.007 A 
BRANCH  24  29
ATOM     29  C   UNL A   1      27.995  29.343  23.288  1.00  0.00     0.337 C 
ATOM     30  O   UNL A   1      26.802  29.091  23.389  1.00  0.00    -0.246 OA
BRANCH  29  31
ATOM     31  O   UNL A   1      28.552  30.580  23.360  1.00  0.00    -0.465 OA
ATOM     32  C   UNL A   1      27.602  31.615  23.636  1.00  0.00     0.282 C 
ENDBRANCH  29  31
ENDBRANCH  24  29
ENDBRANCH   8  23
ENDBRANCH   4   7
ENDBRANCH   2   3
ENDBRANCH   1   2
BRANCH   1  33
ATOM     33  C   UNL A   1      34.515  31.995  27.639  1.00  0.00     0.023 C 
BRANCH  33  34
ATOM     34  C   UNL A   1      33.075  32.442  27.850  1.00  0.00     0.116 C 
BRANCH  34  35
ATOM     35  N   UNL A   1      32.926  33.890  27.924  1.00  0.00    -0.352 N 
ATOM     36  C   UNL A   1      33.614  34.791  28.702  1.00  0.00     0.251 C 
ATOM     37  H   UNL A   1      32.237  34.276  27.337  1.00  0.00     0.163 HD
ATOM     38  O   UNL A   1      33.272  35.970  28.730  1.00  0.00    -0.269 OA
BRANCH  36  39
ATOM     39  C   UNL A   1      34.748  34.322  29.526  1.00  0.00     0.039 A 
ATOM     40  C   UNL A   1      34.484  33.589  30.685  1.00  0.00     0.014 A 
ATOM     41  C   UNL A   1      36.064  34.561  29.126  1.00  0.00     0.014 A 
ATOM     42  C   UNL A   1      35.543  33.031  31.402  1.00  0.00     0.010 A 
ATOM     43  C   UNL A   1      37.110  33.927  29.789  1.00  0.00     0.010 A 
ATOM     44  C   UNL A   1      36.863  33.159  30.936  1.00  0.00    -0.014 A 
BRANCH  44  45
ATOM     45  C   UNL A   1      37.995  32.484  31.622  1.00  0.00     0.031 A 
ATOM     46  C   UNL A   1      38.692  31.319  30.972  1.00  0.00     0.074 A 
ATOM     47  C   UNL A   1      38.337  32.859  32.870  1.00  0.00     0.049 A 
ATOM     48  N   UNL A   1      39.664  30.577  31.434  1.00  0.00    -0.248 NA
ATOM     49  C   UNL A   1      38.213  30.916  29.639  1.00  0.00     0.031 C 
ATOM     50  C   UNL A   1      37.688  33.920  33.644  1.00  0.00     0.029 A 
ATOM     51  N   UNL A   1      39.300  32.373  33.720  1.00  0.00    -0.354 N 
ATOM     52  C   UNL A   1      39.885  29.598  30.473  1.00  0.00     0.074 A 
ATOM     53  C   UNL A   1      38.920  29.818  29.418  1.00  0.00     0.031 C 
ATOM     54  C   UNL A   1      38.280  34.014  34.845  1.00  0.00     0.029 A 
ATOM     55  C   UNL A   1      39.325  33.001  34.944  1.00  0.00     0.049 A 
ATOM     56  H   UNL A   1      39.915  31.644  33.476  1.00  0.00     0.167 HD
ATOM     57  C   UNL A   1      40.822  28.621  30.454  1.00  0.00     0.034 A 
ATOM     58  C   UNL A   1      40.097  32.782  36.026  1.00  0.00     0.034 A 
ATOM     59  C   UNL A   1      41.803  28.427  31.488  1.00  0.00     0.049 A 
ATOM     60  C   UNL A   1      41.150  31.709  35.970  1.00  0.00     0.074 A 
ATOM     61  C   UNL A   1      42.856  27.531  31.517  1.00  0.00     0.029 A 
ATOM     62  N   UNL A   1      41.840  29.127  32.685  1.00  0.00    -0.354 N 
ATOM     63  N   UNL A   1      41.454  30.902  34.984  1.00  0.00    -0.248 NA
ATOM     64  C   UNL A   1      41.989  31.540  37.166  1.00  0.00     0.031 C 
ATOM     65  C   UNL A   1      43.508  27.662  32.748  1.00  0.00     0.029 A 
ATOM     66  C   UNL A   1      42.885  28.670  33.468  1.00  0.00     0.049 A 
ATOM     67  H   UNL A   1      41.215  29.844  32.939  1.00  0.00     0.167 HD
ATOM     68  C   UNL A   1      42.542  30.155  35.422  1.00  0.00     0.074 A 
ATOM     69  C   UNL A   1      42.854  30.620  36.759  1.00  0.00     0.031 C 
ATOM     70  C   UNL A   1      43.216  29.169  34.781  1.00  0.00     0.034 A 
BRANCH  57  71
ATOM     71  C   UNL A   1      40.851  27.707  29.256  1.00  0.00     0.023 A 
ATOM     72  C   UNL A   1      39.977  26.600  29.196  1.00  0.00     0.012 A 
ATOM     73  C   UNL A   1      41.714  27.960  28.172  1.00  0.00     0.148 A 
ATOM     74  C   UNL A   1      39.997  25.734  28.103  1.00  0.00     0.002 A 
ATOM     75  C   UNL A   1      41.692  27.122  27.064  1.00  0.00     0.091 A 
ATOM     76  F   UNL A   1      42.553  29.003  28.252  1.00  0.00    -0.205 F 
ATOM     77  C   UNL A   1      40.847  26.001  27.034  1.00  0.00     0.022 A 
BRANCH  75  78
ATOM     78  S   UNL A   1      42.688  27.429  25.601  1.00  0.00     0.127 S 
ATOM     79  O   UNL A   1      42.229  28.760  25.206  1.00  0.00    -0.237 OA
ATOM     80  O   UNL A   1      44.048  27.389  26.139  1.00  0.00    -0.237 OA
ATOM     81  O   UNL A   1      42.373  26.356  24.670  1.00  0.00    -0.744 OA
ENDBRANCH  75  78
ENDBRANCH  57  71
BRANCH  58  82
ATOM     82  C   UNL A   1      39.950  33.649  37.229  1.00  0.00     0.023 A 
ATOM     83  C   UNL A   1      38.862  33.443  38.099  1.00  0.00     0.012 A 
ATOM     84  C   UNL A   1      40.897  34.646  37.537  1.00  0.00     0.148 A 
ATOM     85  C   UNL A   1      38.704  34.230  39.240  1.00  0.00     0.002 A 
ATOM     86  C   UNL A   1      40.763  35.389  38.704  1.00  0.00     0.091 A 
ATOM     87  F   UNL A   1      41.922  34.828  36.692  1.00  0.00    -0.205 F 
ATOM     88  C   UNL A   1      39.658  35.196  39.547  1.00  0.00     0.022 A 
BRANCH  86  89
ATOM     89  S   UNL A   1      42.006  36.565  39.250  1.00  0.00     0.127 S 
ATOM     90  O   UNL A   1      43.178  35.709  39.411  1.00  0.00    -0.237 OA
ATOM     91  O   UNL A   1      42.064  37.485  38.114  1.00  0.00    -0.237 OA
ATOM     92  O   UNL A   1      41.483  37.154  40.476  1.00  0.00    -0.744 OA
ENDBRANCH  86  89
ENDBRANCH  58  82
BRANCH  70  93
ATOM     93  C   UNL A   1      44.389  28.544  35.490  1.00  0.00     0.023 A 
ATOM     94  C   UNL A   1      45.696  29.006  35.238  1.00  0.00     0.012 A 
ATOM     95  C   UNL A   1      44.186  27.546  36.465  1.00  0.00     0.148 A 
ATOM     96  C   UNL A   1      46.785  28.460  35.917  1.00  0.00     0.002 A 
ATOM     97  C   UNL A   1      45.270  27.046  37.177  1.00  0.00     0.091 A 
ATOM     98  F   UNL A   1      42.937  27.107  36.680  1.00  0.00    -0.205 F 
ATOM     99  C   UNL A   1      46.570  27.491  36.895  1.00  0.00     0.022 A 
BRANCH  97 100
ATOM    100  S   UNL A   1      45.079  25.870  38.522  1.00  0.00     0.127 S 
ATOM    101  O   UNL A   1      46.449  25.769  39.024  1.00  0.00    -0.237 OA
ATOM    102  O   UNL A   1      44.153  26.567  39.413  1.00  0.00    -0.237 OA
ATOM    103  O   UNL A   1      44.544  24.655  37.923  1.00  0.00    -0.744 OA
ENDBRANCH  97 100
ENDBRANCH  70  93
ENDBRANCH  44  45
ENDBRANCH  36  39
ENDBRANCH  34  35
ENDBRANCH  33  34
ENDBRANCH   1  33
TORSDOF 17
ENDMDL
MODEL 3
REMARK VINA RESULT:     -12.1      6.169     11.508
REMARK SMILES COC(=O)c1ccc([C@H]2Nc3c(C(=O)NCCCCNC(=O)c4ccc(-c5c6nc(c(-c7cccc(S(=O)(=O)[O-])c7F)c7ccc([nH]7)c(-c7cccc(S(=O)(=O)[O-])c7F)c7nc(c(-c8cccc(S(=O)(=O)[O-])c8F)c8ccc5[nH]8)C=C7)C=C6)cc4)cccc3[C@H]3[C@H]4CC[C@H](C4)[C@H]32)cc1
REMARK SMILES IDX 17 1 16 2 15 3 13 4 14 5 12 7 9 8 10 9 96 10 11 11 90 13
REMARK SMILES IDX 94 14 89 15 91 16 93 17 95 18 86 19 88 20 92 21 87 22 8 23
REMARK SMILES IDX 5 24 6 25 98 26 7 27 97 28 3 29 4 30 2 31 1 32 18 33 19 34
REMARK SMILES IDX 20 35 21 36 22 38 23 39 24 40 85 41 25 42 84 43 26 44 27 45
REMARK SMILES IDX 28 46 78 47 29 48 83 49 77 50 79 51 30 52 82 53 76 54 75 55
REMARK SMILES IDX 31 57 63 58 43 59 62 60 44 61 47 62 61 63 80 64 45 65 46 66
REMARK SMILES IDX 60 68 81 69 48 70 32 71 33 72 41 73 34 74 36 75 42 76 35 77
REMARK SMILES IDX 37 78 38 79 39 80 40 81 64 82 65 83 73 84 66 85 68 86 74 87
REMARK SMILES IDX 67 88 69 89 70 90 71 91 72 92 49 93 50 94 58 95 51 96 53 97
REMARK SMILES IDX 59 98 52 99 54 100 55 101 56 102 57 103
REMARK H PARENT 15 6 10 12 20 37 79 56 47 67
REMARK Flexibility Score: inf
ROOT
ATOM      1  C   UNL A   1      39.384  22.880  26.795  1.00  0.00     0.023 C 
ENDROOT
BRANCH   1   2
ATOM      2  C   UNL A   1      37.968  22.936  26.245  1.00  0.00     0.116 C 
BRANCH   2   3
ATOM      3  N   UNL A   1      37.434  21.631  25.883  1.00  0.00    -0.352 N 
ATOM      4  C   UNL A   1      36.282  21.356  25.179  1.00  0.00     0.253 C 
ATOM      5  O   UNL A   1      35.875  20.203  25.074  1.00  0.00    -0.269 OA
ATOM      6  H   UNL A   1      37.959  20.852  26.177  1.00  0.00     0.163 HD
BRANCH   4   7
ATOM      7  C   UNL A   1      35.520  22.496  24.618  1.00  0.00     0.063 A 
ATOM      8  C   UNL A   1      32.550  22.639  26.498  1.00  0.00     0.113 C 
ATOM      9  N   UNL A   1      34.029  22.661  26.578  1.00  0.00    -0.377 N 
ATOM     10  C   UNL A   1      32.104  24.127  26.459  1.00  0.00     0.027 C 
ATOM     11  C   UNL A   1      34.607  23.205  25.407  1.00  0.00     0.051 A 
ATOM     12  H   UNL A   1      34.545  22.337  27.351  1.00  0.00     0.161 HD
ATOM     13  C   UNL A   1      33.105  25.128  25.808  1.00  0.00     0.030 C 
ATOM     14  C   UNL A   1      30.724  24.680  26.041  1.00  0.00    -0.005 C 
ATOM     15  C   UNL A   1      34.102  24.431  24.929  1.00  0.00    -0.020 A 
ATOM     16  C   UNL A   1      32.159  26.210  25.225  1.00  0.00    -0.003 C 
ATOM     17  C   UNL A   1      30.455  24.666  24.532  1.00  0.00     0.004 C 
ATOM     18  C   UNL A   1      31.002  26.190  26.239  1.00  0.00     0.008 C 
ATOM     19  C   UNL A   1      35.758  22.896  23.296  1.00  0.00     0.016 A 
ATOM     20  C   UNL A   1      34.541  24.932  23.699  1.00  0.00     0.006 A 
ATOM     21  C   UNL A   1      31.414  25.722  23.975  1.00  0.00     0.004 C 
ATOM     22  C   UNL A   1      35.304  24.133  22.853  1.00  0.00     0.001 A 
BRANCH   8  23
ATOM     23  C   UNL A   1      32.221  21.470  25.555  1.00  0.00    -0.025 A 
ATOM     24  C   UNL A   1      32.595  19.238  23.829  1.00  0.00     0.060 A 
ATOM     25  C   UNL A   1      32.699  19.080  25.210  1.00  0.00     0.016 A 
ATOM     26  C   UNL A   1      32.217  20.483  23.312  1.00  0.00     0.016 A 
ATOM     27  C   UNL A   1      32.508  20.176  26.058  1.00  0.00     0.007 A 
ATOM     28  C   UNL A   1      32.029  21.586  24.170  1.00  0.00     0.007 A 
BRANCH  24  29
ATOM     29  C   UNL A   1      32.969  18.078  22.978  1.00  0.00     0.337 C 
ATOM     30  O   UNL A   1      32.295  17.695  22.032  1.00  0.00    -0.246 OA
BRANCH  29  31
ATOM     31  O   UNL A   1      34.094  17.476  23.443  1.00  0.00    -0.465 OA
ATOM     32  C   UNL A   1      33.863  16.158  23.953  1.00  0.00     0.282 C 
ENDBRANCH  29  31
ENDBRANCH  24  29
ENDBRANCH   8  23
ENDBRANCH   4   7
ENDBRANCH   2   3
ENDBRANCH   1   2
BRANCH   1  33
ATOM     33  C   UNL A   1      40.315  21.938  26.050  1.00  0.00     0.023 C 
BRANCH  33  34
ATOM     34  C   UNL A   1      40.537  20.589  26.720  1.00  0.00     0.116 C 
BRANCH  34  35
ATOM     35  N   UNL A   1      41.526  19.762  26.040  1.00  0.00    -0.352 N 
ATOM     36  C   UNL A   1      42.787  20.100  25.609  1.00  0.00     0.251 C 
ATOM     37  H   UNL A   1      41.253  18.832  25.864  1.00  0.00     0.163 HD
ATOM     38  O   UNL A   1      43.443  19.309  24.938  1.00  0.00    -0.269 OA
BRANCH  36  39
ATOM     39  C   UNL A   1      43.331  21.436  25.933  1.00  0.00     0.039 A 
ATOM     40  C   UNL A   1      43.400  22.401  24.927  1.00  0.00     0.014 A 
ATOM     41  C   UNL A   1      43.721  21.747  27.237  1.00  0.00     0.014 A 
ATOM     42  C   UNL A   1      43.789  23.703  25.247  1.00  0.00     0.010 A 
ATOM     43  C   UNL A   1      44.019  23.064  27.570  1.00  0.00     0.010 A 
ATOM     44  C   UNL A   1      44.061  24.056  26.580  1.00  0.00    -0.014 A 
BRANCH  44  45
ATOM     45  C   UNL A   1      44.374  25.457  26.961  1.00  0.00     0.031 A 
ATOM     46  C   UNL A   1      45.784  25.975  26.859  1.00  0.00     0.074 A 
ATOM     47  C   UNL A   1      43.409  26.236  27.487  1.00  0.00     0.049 A 
ATOM     48  N   UNL A   1      46.257  27.149  27.188  1.00  0.00    -0.248 NA
ATOM     49  C   UNL A   1      46.801  25.042  26.348  1.00  0.00     0.031 C 
ATOM     50  C   UNL A   1      42.020  25.829  27.714  1.00  0.00     0.029 A 
ATOM     51  N   UNL A   1      43.453  27.528  27.950  1.00  0.00    -0.354 N 
ATOM     52  C   UNL A   1      47.627  27.082  26.965  1.00  0.00     0.074 A 
ATOM     53  C   UNL A   1      47.915  25.741  26.507  1.00  0.00     0.031 C 
ATOM     54  C   UNL A   1      41.344  26.853  28.258  1.00  0.00     0.029 A 
ATOM     55  C   UNL A   1      42.253  27.977  28.452  1.00  0.00     0.049 A 
ATOM     56  H   UNL A   1      44.267  28.082  27.925  1.00  0.00     0.167 HD
ATOM     57  C   UNL A   1      48.559  28.056  27.101  1.00  0.00     0.034 A 
ATOM     58  C   UNL A   1      41.923  29.157  29.011  1.00  0.00     0.034 A 
ATOM     59  C   UNL A   1      48.264  29.398  27.523  1.00  0.00     0.049 A 
ATOM     60  C   UNL A   1      42.970  30.232  29.125  1.00  0.00     0.074 A 
ATOM     61  C   UNL A   1      49.118  30.484  27.598  1.00  0.00     0.029 A 
ATOM     62  N   UNL A   1      47.022  29.836  27.960  1.00  0.00    -0.354 N 
ATOM     63  N   UNL A   1      44.225  30.205  28.752  1.00  0.00    -0.248 NA
ATOM     64  C   UNL A   1      42.544  31.514  29.708  1.00  0.00     0.031 C 
ATOM     65  C   UNL A   1      48.403  31.568  28.116  1.00  0.00     0.029 A 
ATOM     66  C   UNL A   1      47.091  31.169  28.325  1.00  0.00     0.049 A 
ATOM     67  H   UNL A   1      46.211  29.280  28.003  1.00  0.00     0.167 HD
ATOM     68  C   UNL A   1      44.731  31.473  29.017  1.00  0.00     0.074 A 
ATOM     69  C   UNL A   1      43.639  32.249  29.568  1.00  0.00     0.031 C 
ATOM     70  C   UNL A   1      45.988  31.948  28.831  1.00  0.00     0.034 A 
BRANCH  57  71
ATOM     71  C   UNL A   1      49.984  27.707  26.756  1.00  0.00     0.023 A 
ATOM     72  C   UNL A   1      50.858  27.245  27.763  1.00  0.00     0.012 A 
ATOM     73  C   UNL A   1      50.452  27.801  25.431  1.00  0.00     0.148 A 
ATOM     74  C   UNL A   1      52.184  26.931  27.468  1.00  0.00     0.002 A 
ATOM     75  C   UNL A   1      51.760  27.438  25.135  1.00  0.00     0.091 A 
ATOM     76  F   UNL A   1      49.617  28.261  24.488  1.00  0.00    -0.205 F 
ATOM     77  C   UNL A   1      52.631  27.018  26.153  1.00  0.00     0.022 A 
BRANCH  75  78
ATOM     78  S   UNL A   1      52.406  27.434  23.459  1.00  0.00     0.127 S 
ATOM     79  O   UNL A   1      52.659  28.858  23.237  1.00  0.00    -0.237 OA
ATOM     80  O   UNL A   1      53.612  26.616  23.595  1.00  0.00    -0.237 OA
ATOM     81  O   UNL A   1      51.365  26.847  22.629  1.00  0.00    -0.744 OA
ENDBRANCH  75  78
ENDBRANCH  57  71
BRANCH  58  82
ATOM     82  C   UNL A   1      40.517  29.409  29.436  1.00  0.00     0.023 A 
ATOM     83  C   UNL A   1      39.593  29.912  28.499  1.00  0.00     0.012 A 
ATOM     84  C   UNL A   1      40.081  29.118  30.743  1.00  0.00     0.148 A 
ATOM     85  C   UNL A   1      38.268  30.147  28.863  1.00  0.00     0.002 A 
ATOM     86  C   UNL A   1      38.746  29.303  31.083  1.00  0.00     0.091 A 
ATOM     87  F   UNL A   1      40.978  28.645  31.620  1.00  0.00    -0.205 F 
ATOM     88  C   UNL A   1      37.842  29.834  30.151  1.00  0.00     0.022 A 
BRANCH  86  89
ATOM     89  S   UNL A   1      38.075  28.810  32.675  1.00  0.00     0.127 S 
ATOM     90  O   UNL A   1      38.290  27.365  32.655  1.00  0.00    -0.237 OA
ATOM     91  O   UNL A   1      38.934  29.549  33.601  1.00  0.00    -0.237 OA
ATOM     92  O   UNL A   1      36.684  29.240  32.669  1.00  0.00    -0.744 OA
ENDBRANCH  86  89
ENDBRANCH  58  82
BRANCH  70  93
ATOM     93  C   UNL A   1      46.253  33.388  29.184  1.00  0.00     0.023 A 
ATOM     94  C   UNL A   1      46.828  33.716  30.428  1.00  0.00     0.012 A 
ATOM     95  C   UNL A   1      45.999  34.413  28.250  1.00  0.00     0.148 A 
ATOM     96  C   UNL A   1      47.113  35.042  30.750  1.00  0.00     0.002 A 
ATOM     97  C   UNL A   1      46.336  35.725  28.556  1.00  0.00     0.091 A 
ATOM     98  F   UNL A   1      45.437  34.083  27.078  1.00  0.00    -0.205 F 
ATOM     99  C   UNL A   1      46.880  36.044  29.810  1.00  0.00     0.022 A 
BRANCH  97 100
ATOM    100  S   UNL A   1      46.165  37.066  27.372  1.00  0.00     0.127 S 
ATOM    101  O   UNL A   1      46.829  38.165  28.070  1.00  0.00    -0.237 OA
ATOM    102  O   UNL A   1      46.893  36.550  26.214  1.00  0.00    -0.237 OA
ATOM    103  O   UNL A   1      44.733  37.235  27.159  1.00  0.00    -0.744 OA
ENDBRANCH  97 100
ENDBRANCH  70  93
ENDBRANCH  44  45
ENDBRANCH  36  39
ENDBRANCH  34  35
ENDBRANCH  33  34
ENDBRANCH   1  33
TORSDOF 17
ENDMDL
