MODEL 1
REMARK VINA RESULT:     -12.2      0.000      0.000
REMARK SMILES Cc1c(Cc2nc(C(C)(C)C)cs2)cccc1C(=O)NCCCCNC(=O)c1ccc(-c2c3nc(c(-c4cccc(S(=O)(=O)[O-])c4F)c4ccc([nH]4)c(-c4cccc(S(=O)(=O)[O-])c4F)c4nc(c(-c5cccc(S(=O)(=O)[O-])c5F)c5ccc2[nH]5)C=C4)C=C3)cc1
REMARK SMILES IDX 22 1 21 2 20 3 18 4 19 5 17 7 1 8 2 9 3 10 14 11 16 12 15 13
REMARK SMILES IDX 4 14 5 15 6 16 13 17 7 18 12 19 8 20 9 21 10 22 11 23 23 24
REMARK SMILES IDX 24 25 25 26 26 27 27 29 28 30 29 31 90 32 30 33 89 34 31 35
REMARK SMILES IDX 32 36 33 37 83 38 34 39 88 40 82 41 84 42 35 43 87 44 81 45
REMARK SMILES IDX 80 46 36 48 68 49 48 50 67 51 49 52 52 53 66 54 85 55 50 56
REMARK SMILES IDX 51 57 65 59 86 60 53 61 37 62 38 63 46 64 39 65 41 66 47 67
REMARK SMILES IDX 40 68 42 69 43 70 44 71 45 72 69 73 70 74 78 75 71 76 73 77
REMARK SMILES IDX 79 78 72 79 74 80 75 81 76 82 77 83 54 84 55 85 63 86 56 87
REMARK SMILES IDX 58 88 64 89 57 90 59 91 60 92 61 93 62 94
REMARK H PARENT 20 6 25 28 84 47 52 58
REMARK Flexibility Score: inf
ROOT
ATOM      1  C   UNL A   1      36.209  21.131  24.565  1.00  0.00     0.023 C 
ENDROOT
BRANCH   1   2
ATOM      2  C   UNL A   1      36.160  19.638  24.918  1.00  0.00     0.116 C 
BRANCH   2   3
ATOM      3  N   UNL A   1      34.810  19.135  24.775  1.00  0.00    -0.352 N 
ATOM      4  C   UNL A   1      33.559  19.558  25.137  1.00  0.00     0.251 C 
ATOM      5  O   UNL A   1      32.670  18.713  24.963  1.00  0.00    -0.269 OA
ATOM      6  H   UNL A   1      34.785  18.273  24.297  1.00  0.00     0.163 HD
BRANCH   4   7
ATOM      7  C   UNL A   1      33.137  20.928  25.616  1.00  0.00     0.043 A 
ATOM      8  C   UNL A   1      32.552  22.139  23.430  1.00  0.00     0.045 C 
ATOM      9  C   UNL A   1      32.581  22.032  24.921  1.00  0.00    -0.035 A 
ATOM     10  C   UNL A   1      32.157  23.185  25.640  1.00  0.00    -0.037 A 
ATOM     11  C   UNL A   1      32.537  23.337  26.983  1.00  0.00     0.004 A 
ATOM     12  C   UNL A   1      33.450  21.125  26.983  1.00  0.00     0.014 A 
ATOM     13  C   UNL A   1      33.205  22.324  27.646  1.00  0.00     0.001 A 
BRANCH  10  14
ATOM     14  C   UNL A   1      31.314  24.285  24.997  1.00  0.00     0.103 C 
BRANCH  14  15
ATOM     15  C   UNL A   1      32.053  25.585  24.919  1.00  0.00     0.097 A 
ATOM     16  N   UNL A   1      32.043  26.472  25.888  1.00  0.00    -0.245 NA
ATOM     17  S   UNL A   1      32.920  26.042  23.511  1.00  0.00    -0.127 S 
ATOM     18  C   UNL A   1      32.621  27.652  25.466  1.00  0.00     0.057 A 
ATOM     19  C   UNL A   1      33.207  27.580  24.212  1.00  0.00     0.091 A 
BRANCH  18  20
ATOM     20  C   UNL A   1      32.543  28.849  26.392  1.00  0.00     0.005 C 
ATOM     21  C   UNL A   1      31.678  28.504  27.614  1.00  0.00     0.017 C 
ATOM     22  C   UNL A   1      33.953  29.268  26.846  1.00  0.00     0.017 C 
ATOM     23  C   UNL A   1      31.906  30.059  25.667  1.00  0.00     0.017 C 
ENDBRANCH  18  20
ENDBRANCH  14  15
ENDBRANCH  10  14
ENDBRANCH   4   7
ENDBRANCH   2   3
ENDBRANCH   1   2
BRANCH   1  24
ATOM     24  C   UNL A   1      36.687  22.132  25.619  1.00  0.00     0.023 C 
BRANCH  24  25
ATOM     25  C   UNL A   1      38.117  22.615  25.482  1.00  0.00     0.116 C 
BRANCH  25  26
ATOM     26  N   UNL A   1      38.932  22.226  26.631  1.00  0.00    -0.352 N 
ATOM     27  C   UNL A   1      39.972  22.906  27.235  1.00  0.00     0.251 C 
ATOM     28  H   UNL A   1      38.710  21.355  27.031  1.00  0.00     0.163 HD
ATOM     29  O   UNL A   1      40.849  22.262  27.795  1.00  0.00    -0.269 OA
BRANCH  27  30
ATOM     30  C   UNL A   1      39.944  24.379  27.265  1.00  0.00     0.039 A 
ATOM     31  C   UNL A   1      40.645  25.174  26.350  1.00  0.00     0.014 A 
ATOM     32  C   UNL A   1      39.338  24.969  28.365  1.00  0.00     0.014 A 
ATOM     33  C   UNL A   1      40.848  26.522  26.649  1.00  0.00     0.010 A 
ATOM     34  C   UNL A   1      39.246  26.313  28.468  1.00  0.00     0.010 A 
ATOM     35  C   UNL A   1      40.201  27.037  27.763  1.00  0.00    -0.014 A 
BRANCH  35  36
ATOM     36  C   UNL A   1      40.550  28.234  28.504  1.00  0.00     0.031 A 
ATOM     37  C   UNL A   1      39.657  29.389  28.433  1.00  0.00     0.074 A 
ATOM     38  C   UNL A   1      41.306  27.946  29.595  1.00  0.00     0.049 A 
ATOM     39  N   UNL A   1      39.848  30.492  29.064  1.00  0.00    -0.248 NA
ATOM     40  C   UNL A   1      38.447  29.379  27.620  1.00  0.00     0.031 C 
ATOM     41  C   UNL A   1      41.213  28.517  30.929  1.00  0.00     0.029 A 
ATOM     42  N   UNL A   1      42.286  26.952  29.745  1.00  0.00    -0.354 N 
ATOM     43  C   UNL A   1      38.638  31.154  29.054  1.00  0.00     0.074 A 
ATOM     44  C   UNL A   1      37.895  30.540  27.982  1.00  0.00     0.031 C 
ATOM     45  C   UNL A   1      42.263  28.086  31.654  1.00  0.00     0.029 A 
ATOM     46  C   UNL A   1      43.162  27.404  30.735  1.00  0.00     0.049 A 
ATOM     47  H   UNL A   1      42.345  26.103  29.249  1.00  0.00     0.167 HD
ATOM     48  C   UNL A   1      38.344  31.981  30.099  1.00  0.00     0.034 A 
ATOM     49  C   UNL A   1      44.432  27.814  30.428  1.00  0.00     0.034 A 
ATOM     50  C   UNL A   1      39.509  32.076  31.011  1.00  0.00     0.049 A 
ATOM     51  C   UNL A   1      44.603  29.318  30.614  1.00  0.00     0.074 A 
ATOM     52  C   UNL A   1      39.781  31.537  32.258  1.00  0.00     0.029 A 
ATOM     53  N   UNL A   1      40.730  32.540  30.520  1.00  0.00    -0.354 N 
ATOM     54  N   UNL A   1      43.636  30.127  30.954  1.00  0.00    -0.248 NA
ATOM     55  C   UNL A   1      45.862  30.036  30.435  1.00  0.00     0.031 C 
ATOM     56  C   UNL A   1      41.195  31.563  32.449  1.00  0.00     0.029 A 
ATOM     57  C   UNL A   1      41.783  32.156  31.343  1.00  0.00     0.049 A 
ATOM     58  H   UNL A   1      40.832  33.072  29.698  1.00  0.00     0.167 HD
ATOM     59  C   UNL A   1      44.046  31.427  30.887  1.00  0.00     0.074 A 
ATOM     60  C   UNL A   1      45.477  31.309  30.649  1.00  0.00     0.031 C 
ATOM     61  C   UNL A   1      43.165  32.475  30.968  1.00  0.00     0.034 A 
BRANCH  48  62
ATOM     62  C   UNL A   1      36.954  32.492  30.489  1.00  0.00     0.023 A 
ATOM     63  C   UNL A   1      36.458  32.084  31.749  1.00  0.00     0.012 A 
ATOM     64  C   UNL A   1      36.063  33.285  29.721  1.00  0.00     0.148 A 
ATOM     65  C   UNL A   1      35.162  32.386  32.192  1.00  0.00     0.002 A 
ATOM     66  C   UNL A   1      34.771  33.597  30.161  1.00  0.00     0.091 A 
ATOM     67  F   UNL A   1      36.432  33.765  28.539  1.00  0.00    -0.205 F 
ATOM     68  C   UNL A   1      34.313  33.138  31.394  1.00  0.00     0.022 A 
BRANCH  66  69
ATOM     69  S   UNL A   1      33.615  34.581  29.179  1.00  0.00     0.127 S 
ATOM     70  O   UNL A   1      33.204  33.629  28.146  1.00  0.00    -0.237 OA
ATOM     71  O   UNL A   1      32.576  34.905  30.155  1.00  0.00    -0.237 OA
ATOM     72  O   UNL A   1      34.363  35.729  28.678  1.00  0.00    -0.744 OA
ENDBRANCH  66  69
ENDBRANCH  48  62
BRANCH  49  73
ATOM     73  C   UNL A   1      45.067  26.969  29.362  1.00  0.00     0.023 A 
ATOM     74  C   UNL A   1      45.298  25.612  29.698  1.00  0.00     0.012 A 
ATOM     75  C   UNL A   1      44.961  27.320  28.002  1.00  0.00     0.148 A 
ATOM     76  C   UNL A   1      45.251  24.613  28.722  1.00  0.00     0.002 A 
ATOM     77  C   UNL A   1      44.887  26.313  27.037  1.00  0.00     0.091 A 
ATOM     78  F   UNL A   1      44.822  28.613  27.687  1.00  0.00    -0.205 F 
ATOM     79  C   UNL A   1      44.993  24.959  27.400  1.00  0.00     0.022 A 
BRANCH  77  80
ATOM     80  S   UNL A   1      44.478  26.670  25.320  1.00  0.00     0.127 S 
ATOM     81  O   UNL A   1      43.735  27.919  25.448  1.00  0.00    -0.237 OA
ATOM     82  O   UNL A   1      45.793  26.801  24.699  1.00  0.00    -0.237 OA
ATOM     83  O   UNL A   1      43.717  25.513  24.864  1.00  0.00    -0.744 OA
ENDBRANCH  77  80
ENDBRANCH  49  73
BRANCH  61  84
ATOM     84  C   UNL A   1      43.516  33.922  30.673  1.00  0.00     0.023 A 
ATOM     85  C   UNL A   1      43.842  34.844  31.686  1.00  0.00     0.012 A 
ATOM     86  C   UNL A   1      43.682  34.363  29.334  1.00  0.00     0.148 A 
ATOM     87  C   UNL A   1      44.242  36.153  31.392  1.00  0.00     0.002 A 
ATOM     88  C   UNL A   1      44.209  35.617  29.050  1.00  0.00     0.091 A 
ATOM     89  F   UNL A   1      43.308  33.574  28.316  1.00  0.00    -0.205 F 
ATOM     90  C   UNL A   1      44.453  36.531  30.075  1.00  0.00     0.022 A 
BRANCH  88  91
ATOM     91  S   UNL A   1      44.761  36.028  27.388  1.00  0.00     0.127 S 
ATOM     92  O   UNL A   1      45.569  34.862  27.040  1.00  0.00    -0.237 OA
ATOM     93  O   UNL A   1      43.497  36.135  26.655  1.00  0.00    -0.237 OA
ATOM     94  O   UNL A   1      45.474  37.291  27.528  1.00  0.00    -0.744 OA
ENDBRANCH  88  91
ENDBRANCH  61  84
ENDBRANCH  35  36
ENDBRANCH  27  30
ENDBRANCH  25  26
ENDBRANCH  24  25
ENDBRANCH   1  24
TORSDOF 17
ENDMDL
MODEL 2
REMARK VINA RESULT:     -11.9      2.846      3.779
REMARK SMILES Cc1c(Cc2nc(C(C)(C)C)cs2)cccc1C(=O)NCCCCNC(=O)c1ccc(-c2c3nc(c(-c4cccc(S(=O)(=O)[O-])c4F)c4ccc([nH]4)c(-c4cccc(S(=O)(=O)[O-])c4F)c4nc(c(-c5cccc(S(=O)(=O)[O-])c5F)c5ccc2[nH]5)C=C4)C=C3)cc1
REMARK SMILES IDX 22 1 21 2 20 3 18 4 19 5 17 7 1 8 2 9 3 10 14 11 16 12 15 13
REMARK SMILES IDX 4 14 5 15 6 16 13 17 7 18 12 19 8 20 9 21 10 22 11 23 23 24
REMARK SMILES IDX 24 25 25 26 26 27 27 29 28 30 29 31 90 32 30 33 89 34 31 35
REMARK SMILES IDX 32 36 33 37 83 38 34 39 88 40 82 41 84 42 35 43 87 44 81 45
REMARK SMILES IDX 80 46 36 48 68 49 48 50 67 51 49 52 52 53 66 54 85 55 50 56
REMARK SMILES IDX 51 57 65 59 86 60 53 61 37 62 38 63 46 64 39 65 41 66 47 67
REMARK SMILES IDX 40 68 42 69 43 70 44 71 45 72 69 73 70 74 78 75 71 76 73 77
REMARK SMILES IDX 79 78 72 79 74 80 75 81 76 82 77 83 54 84 55 85 63 86 56 87
REMARK SMILES IDX 58 88 64 89 57 90 59 91 60 92 61 93 62 94
REMARK H PARENT 20 6 25 28 84 47 52 58
REMARK Flexibility Score: inf
ROOT
ATOM      1  C   UNL A   1      37.346  21.169  25.254  1.00  0.00     0.023 C 
ENDROOT
BRANCH   1   2
ATOM      2  C   UNL A   1      35.934  21.326  25.835  1.00  0.00     0.116 C 
BRANCH   2   3
ATOM      3  N   UNL A   1      35.012  20.441  25.153  1.00  0.00    -0.352 N 
ATOM      4  C   UNL A   1      33.717  20.518  24.715  1.00  0.00     0.251 C 
ATOM      5  O   UNL A   1      33.251  19.439  24.325  1.00  0.00    -0.269 OA
ATOM      6  H   UNL A   1      35.418  19.566  24.955  1.00  0.00     0.163 HD
BRANCH   4   7
ATOM      7  C   UNL A   1      32.852  21.749  24.564  1.00  0.00     0.043 A 
ATOM      8  C   UNL A   1      34.266  23.256  23.042  1.00  0.00     0.045 C 
ATOM      9  C   UNL A   1      33.000  22.903  23.754  1.00  0.00    -0.035 A 
ATOM     10  C   UNL A   1      31.964  23.879  23.712  1.00  0.00    -0.037 A 
ATOM     11  C   UNL A   1      30.937  23.836  24.668  1.00  0.00     0.004 A 
ATOM     12  C   UNL A   1      31.765  21.739  25.473  1.00  0.00     0.014 A 
ATOM     13  C   UNL A   1      30.851  22.786  25.563  1.00  0.00     0.001 A 
BRANCH  10  14
ATOM     14  C   UNL A   1      31.938  24.997  22.669  1.00  0.00     0.103 C 
BRANCH  14  15
ATOM     15  C   UNL A   1      31.686  26.337  23.290  1.00  0.00     0.097 A 
ATOM     16  N   UNL A   1      32.357  26.781  24.327  1.00  0.00    -0.245 NA
ATOM     17  S   UNL A   1      30.440  27.369  22.722  1.00  0.00    -0.127 S 
ATOM     18  C   UNL A   1      31.778  27.934  24.817  1.00  0.00     0.057 A 
ATOM     19  C   UNL A   1      30.753  28.433  24.029  1.00  0.00     0.091 A 
BRANCH  18  20
ATOM     20  C   UNL A   1      32.312  28.496  26.120  1.00  0.00     0.005 C 
ATOM     21  C   UNL A   1      33.816  28.204  26.233  1.00  0.00     0.017 C 
ATOM     22  C   UNL A   1      32.063  30.014  26.191  1.00  0.00     0.017 C 
ATOM     23  C   UNL A   1      31.595  27.848  27.328  1.00  0.00     0.017 C 
ENDBRANCH  18  20
ENDBRANCH  14  15
ENDBRANCH  10  14
ENDBRANCH   4   7
ENDBRANCH   2   3
ENDBRANCH   1   2
BRANCH   1  24
ATOM     24  C   UNL A   1      38.330  22.338  25.357  1.00  0.00     0.023 C 
BRANCH  24  25
ATOM     25  C   UNL A   1      39.274  22.312  26.542  1.00  0.00     0.116 C 
BRANCH  25  26
ATOM     26  N   UNL A   1      40.252  21.231  26.432  1.00  0.00    -0.352 N 
ATOM     27  C   UNL A   1      41.618  21.305  26.241  1.00  0.00     0.251 C 
ATOM     28  H   UNL A   1      39.885  20.321  26.503  1.00  0.00     0.163 HD
ATOM     29  O   UNL A   1      42.182  20.385  25.665  1.00  0.00    -0.269 OA
BRANCH  27  30
ATOM     30  C   UNL A   1      42.363  22.439  26.817  1.00  0.00     0.039 A 
ATOM     31  C   UNL A   1      42.553  22.606  28.195  1.00  0.00     0.014 A 
ATOM     32  C   UNL A   1      42.721  23.457  25.946  1.00  0.00     0.014 A 
ATOM     33  C   UNL A   1      42.955  23.854  28.671  1.00  0.00     0.010 A 
ATOM     34  C   UNL A   1      43.424  24.526  26.381  1.00  0.00     0.010 A 
ATOM     35  C   UNL A   1      43.302  24.818  27.733  1.00  0.00    -0.014 A 
BRANCH  35  36
ATOM     36  C   UNL A   1      43.349  26.254  27.930  1.00  0.00     0.031 A 
ATOM     37  C   UNL A   1      42.093  27.002  27.948  1.00  0.00     0.074 A 
ATOM     38  C   UNL A   1      44.446  26.627  28.640  1.00  0.00     0.049 A 
ATOM     39  N   UNL A   1      42.008  28.270  28.139  1.00  0.00    -0.248 NA
ATOM     40  C   UNL A   1      40.805  26.350  27.747  1.00  0.00     0.031 C 
ATOM     41  C   UNL A   1      44.537  27.620  29.697  1.00  0.00     0.029 A 
ATOM     42  N   UNL A   1      45.737  26.076  28.613  1.00  0.00    -0.354 N 
ATOM     43  C   UNL A   1      40.692  28.520  28.468  1.00  0.00     0.074 A 
ATOM     44  C   UNL A   1      39.972  27.363  27.999  1.00  0.00     0.031 C 
ATOM     45  C   UNL A   1      45.836  27.805  30.000  1.00  0.00     0.029 A 
ATOM     46  C   UNL A   1      46.612  27.094  28.996  1.00  0.00     0.049 A 
ATOM     47  H   UNL A   1      45.978  25.151  28.371  1.00  0.00     0.167 HD
ATOM     48  C   UNL A   1      40.421  29.573  29.293  1.00  0.00     0.034 A 
ATOM     49  C   UNL A   1      47.458  27.682  28.094  1.00  0.00     0.034 A 
ATOM     50  C   UNL A   1      41.666  30.326  29.577  1.00  0.00     0.049 A 
ATOM     51  C   UNL A   1      47.063  29.125  27.802  1.00  0.00     0.074 A 
ATOM     52  C   UNL A   1      42.490  30.407  30.689  1.00  0.00     0.029 A 
ATOM     53  N   UNL A   1      42.393  30.877  28.522  1.00  0.00    -0.354 N 
ATOM     54  N   UNL A   1      46.004  29.707  28.298  1.00  0.00    -0.248 NA
ATOM     55  C   UNL A   1      47.815  30.031  26.939  1.00  0.00     0.031 C 
ATOM     56  C   UNL A   1      43.763  30.888  30.258  1.00  0.00     0.029 A 
ATOM     57  C   UNL A   1      43.705  31.142  28.897  1.00  0.00     0.049 A 
ATOM     58  H   UNL A   1      42.024  31.056  27.627  1.00  0.00     0.167 HD
ATOM     59  C   UNL A   1      45.822  30.938  27.739  1.00  0.00     0.074 A 
ATOM     60  C   UNL A   1      47.038  31.131  26.964  1.00  0.00     0.031 C 
ATOM     61  C   UNL A   1      44.664  31.654  27.911  1.00  0.00     0.034 A 
BRANCH  48  62
ATOM     62  C   UNL A   1      39.129  29.797  30.084  1.00  0.00     0.023 A 
ATOM     63  C   UNL A   1      38.753  28.777  30.988  1.00  0.00     0.012 A 
ATOM     64  C   UNL A   1      38.218  30.881  29.988  1.00  0.00     0.148 A 
ATOM     65  C   UNL A   1      37.544  28.796  31.699  1.00  0.00     0.002 A 
ATOM     66  C   UNL A   1      37.014  30.909  30.701  1.00  0.00     0.091 A 
ATOM     67  F   UNL A   1      38.483  31.920  29.205  1.00  0.00    -0.205 F 
ATOM     68  C   UNL A   1      36.668  29.860  31.551  1.00  0.00     0.022 A 
BRANCH  66  69
ATOM     69  S   UNL A   1      35.830  32.268  30.565  1.00  0.00     0.127 S 
ATOM     70  O   UNL A   1      36.661  33.432  30.879  1.00  0.00    -0.237 OA
ATOM     71  O   UNL A   1      35.412  32.179  29.167  1.00  0.00    -0.237 OA
ATOM     72  O   UNL A   1      34.774  32.004  31.537  1.00  0.00    -0.744 OA
ENDBRANCH  66  69
ENDBRANCH  48  62
BRANCH  49  73
ATOM     73  C   UNL A   1      48.026  26.697  27.113  1.00  0.00     0.023 A 
ATOM     74  C   UNL A   1      47.283  26.504  25.922  1.00  0.00     0.012 A 
ATOM     75  C   UNL A   1      49.401  26.390  27.109  1.00  0.00     0.148 A 
ATOM     76  C   UNL A   1      47.923  26.185  24.721  1.00  0.00     0.002 A 
ATOM     77  C   UNL A   1      50.035  26.098  25.900  1.00  0.00     0.091 A 
ATOM     78  F   UNL A   1      50.080  26.498  28.257  1.00  0.00    -0.205 F 
ATOM     79  C   UNL A   1      49.305  26.034  24.701  1.00  0.00     0.022 A 
BRANCH  77  80
ATOM     80  S   UNL A   1      51.827  25.967  25.775  1.00  0.00     0.127 S 
ATOM     81  O   UNL A   1      52.041  24.556  26.076  1.00  0.00    -0.237 OA
ATOM     82  O   UNL A   1      52.079  26.343  24.386  1.00  0.00    -0.237 OA
ATOM     83  O   UNL A   1      52.345  26.919  26.751  1.00  0.00    -0.744 OA
ENDBRANCH  77  80
ENDBRANCH  49  73
BRANCH  61  84
ATOM     84  C   UNL A   1      44.303  32.911  27.141  1.00  0.00     0.023 A 
ATOM     85  C   UNL A   1      44.199  32.936  25.737  1.00  0.00     0.012 A 
ATOM     86  C   UNL A   1      43.900  34.085  27.829  1.00  0.00     0.148 A 
ATOM     87  C   UNL A   1      43.786  34.081  25.047  1.00  0.00     0.002 A 
ATOM     88  C   UNL A   1      43.362  35.170  27.146  1.00  0.00     0.091 A 
ATOM     89  F   UNL A   1      44.054  34.170  29.159  1.00  0.00    -0.205 F 
ATOM     90  C   UNL A   1      43.341  35.189  25.753  1.00  0.00     0.022 A 
BRANCH  88  91
ATOM     91  S   UNL A   1      42.518  36.488  28.034  1.00  0.00     0.127 S 
ATOM     92  O   UNL A   1      41.488  35.752  28.763  1.00  0.00    -0.237 OA
ATOM     93  O   UNL A   1      43.586  37.036  28.873  1.00  0.00    -0.237 OA
ATOM     94  O   UNL A   1      42.050  37.400  26.999  1.00  0.00    -0.744 OA
ENDBRANCH  88  91
ENDBRANCH  61  84
ENDBRANCH  35  36
ENDBRANCH  27  30
ENDBRANCH  25  26
ENDBRANCH  24  25
ENDBRANCH   1  24
TORSDOF 17
ENDMDL
MODEL 3
REMARK VINA RESULT:     -11.8      4.241      9.679
REMARK SMILES Cc1c(Cc2nc(C(C)(C)C)cs2)cccc1C(=O)NCCCCNC(=O)c1ccc(-c2c3nc(c(-c4cccc(S(=O)(=O)[O-])c4F)c4ccc([nH]4)c(-c4cccc(S(=O)(=O)[O-])c4F)c4nc(c(-c5cccc(S(=O)(=O)[O-])c5F)c5ccc2[nH]5)C=C4)C=C3)cc1
REMARK SMILES IDX 22 1 21 2 20 3 18 4 19 5 17 7 1 8 2 9 3 10 14 11 16 12 15 13
REMARK SMILES IDX 4 14 5 15 6 16 13 17 7 18 12 19 8 20 9 21 10 22 11 23 23 24
REMARK SMILES IDX 24 25 25 26 26 27 27 29 28 30 29 31 90 32 30 33 89 34 31 35
REMARK SMILES IDX 32 36 33 37 83 38 34 39 88 40 82 41 84 42 35 43 87 44 81 45
REMARK SMILES IDX 80 46 36 48 68 49 48 50 67 51 49 52 52 53 66 54 85 55 50 56
REMARK SMILES IDX 51 57 65 59 86 60 53 61 37 62 38 63 46 64 39 65 41 66 47 67
REMARK SMILES IDX 40 68 42 69 43 70 44 71 45 72 69 73 70 74 78 75 71 76 73 77
REMARK SMILES IDX 79 78 72 79 74 80 75 81 76 82 77 83 54 84 55 85 63 86 56 87
REMARK SMILES IDX 58 88 64 89 57 90 59 91 60 92 61 93 62 94
REMARK H PARENT 20 6 25 28 84 47 52 58
REMARK Flexibility Score: inf
ROOT
ATOM      1  C   UNL A   1      32.691  29.938  26.429  1.00  0.00     0.023 C 
ENDROOT
BRANCH   1   2
ATOM      2  C   UNL A   1      33.375  29.327  25.197  1.00  0.00     0.116 C 
BRANCH   2   3
ATOM      3  N   UNL A   1      32.485  29.374  24.056  1.00  0.00    -0.352 N 
ATOM      4  C   UNL A   1      31.730  28.469  23.359  1.00  0.00     0.251 C 
ATOM      5  O   UNL A   1      31.239  28.918  22.315  1.00  0.00    -0.269 OA
ATOM      6  H   UNL A   1      32.401  30.285  23.690  1.00  0.00     0.163 HD
BRANCH   4   7
ATOM      7  C   UNL A   1      31.358  27.058  23.756  1.00  0.00     0.043 A 
ATOM      8  C   UNL A   1      31.907  25.708  21.644  1.00  0.00     0.045 C 
ATOM      9  C   UNL A   1      31.531  25.821  23.086  1.00  0.00    -0.035 A 
ATOM     10  C   UNL A   1      31.192  24.604  23.741  1.00  0.00    -0.037 A 
ATOM     11  C   UNL A   1      30.440  24.645  24.927  1.00  0.00     0.004 A 
ATOM     12  C   UNL A   1      30.637  27.030  24.975  1.00  0.00     0.014 A 
ATOM     13  C   UNL A   1      30.139  25.854  25.528  1.00  0.00     0.001 A 
BRANCH  10  14
ATOM     14  C   UNL A   1      31.600  23.238  23.190  1.00  0.00     0.103 C 
BRANCH  14  15
ATOM     15  C   UNL A   1      32.716  22.625  23.979  1.00  0.00     0.097 A 
ATOM     16  N   UNL A   1      33.945  23.085  23.954  1.00  0.00    -0.245 NA
ATOM     17  S   UNL A   1      32.475  21.219  24.931  1.00  0.00    -0.127 S 
ATOM     18  C   UNL A   1      34.800  22.210  24.595  1.00  0.00     0.057 A 
ATOM     19  C   UNL A   1      34.160  21.163  25.239  1.00  0.00     0.091 A 
BRANCH  18  20
ATOM     20  C   UNL A   1      36.288  22.487  24.514  1.00  0.00     0.005 C 
ATOM     21  C   UNL A   1      36.665  23.590  25.515  1.00  0.00     0.017 C 
ATOM     22  C   UNL A   1      37.088  21.207  24.815  1.00  0.00     0.017 C 
ATOM     23  C   UNL A   1      36.678  22.959  23.094  1.00  0.00     0.017 C 
ENDBRANCH  18  20
ENDBRANCH  14  15
ENDBRANCH  10  14
ENDBRANCH   4   7
ENDBRANCH   2   3
ENDBRANCH   1   2
BRANCH   1  24
ATOM     24  C   UNL A   1      33.538  30.295  27.653  1.00  0.00     0.023 C 
BRANCH  24  25
ATOM     25  C   UNL A   1      34.579  31.377  27.451  1.00  0.00     0.116 C 
BRANCH  25  26
ATOM     26  N   UNL A   1      34.125  32.668  27.964  1.00  0.00    -0.352 N 
ATOM     27  C   UNL A   1      34.437  33.294  29.155  1.00  0.00     0.251 C 
ATOM     28  H   UNL A   1      33.508  33.162  27.378  1.00  0.00     0.163 HD
ATOM     29  O   UNL A   1      33.618  34.055  29.652  1.00  0.00    -0.269 OA
BRANCH  27  30
ATOM     30  C   UNL A   1      35.777  33.099  29.739  1.00  0.00     0.039 A 
ATOM     31  C   UNL A   1      36.956  33.474  29.083  1.00  0.00     0.014 A 
ATOM     32  C   UNL A   1      35.847  32.349  30.903  1.00  0.00     0.014 A 
ATOM     33  C   UNL A   1      38.169  32.953  29.533  1.00  0.00     0.010 A 
ATOM     34  C   UNL A   1      37.030  32.136  31.521  1.00  0.00     0.010 A 
ATOM     35  C   UNL A   1      38.155  32.217  30.710  1.00  0.00    -0.014 A 
BRANCH  35  36
ATOM     36  C   UNL A   1      39.148  31.259  31.156  1.00  0.00     0.031 A 
ATOM     37  C   UNL A   1      39.236  29.969  30.473  1.00  0.00     0.074 A 
ATOM     38  C   UNL A   1      40.220  31.874  31.722  1.00  0.00     0.049 A 
ATOM     39  N   UNL A   1      40.090  29.053  30.762  1.00  0.00    -0.248 NA
ATOM     40  C   UNL A   1      38.338  29.612  29.382  1.00  0.00     0.031 C 
ATOM     41  C   UNL A   1      41.628  31.550  31.565  1.00  0.00     0.029 A 
ATOM     42  N   UNL A   1      40.249  33.037  32.506  1.00  0.00    -0.354 N 
ATOM     43  C   UNL A   1      40.110  28.194  29.683  1.00  0.00     0.074 A 
ATOM     44  C   UNL A   1      38.878  28.458  28.983  1.00  0.00     0.031 C 
ATOM     45  C   UNL A   1      42.337  32.288  32.439  1.00  0.00     0.029 A 
ATOM     46  C   UNL A   1      41.381  32.940  33.320  1.00  0.00     0.049 A 
ATOM     47  H   UNL A   1      39.599  33.777  32.487  1.00  0.00     0.167 HD
ATOM     48  C   UNL A   1      41.272  27.535  29.404  1.00  0.00     0.034 A 
ATOM     49  C   UNL A   1      41.271  32.715  34.667  1.00  0.00     0.034 A 
ATOM     50  C   UNL A   1      42.280  27.819  30.454  1.00  0.00     0.049 A 
ATOM     51  C   UNL A   1      41.769  31.327  35.052  1.00  0.00     0.074 A 
ATOM     52  C   UNL A   1      43.411  28.618  30.486  1.00  0.00     0.029 A 
ATOM     53  N   UNL A   1      41.998  27.500  31.782  1.00  0.00    -0.354 N 
ATOM     54  N   UNL A   1      42.182  30.434  34.193  1.00  0.00    -0.248 NA
ATOM     55  C   UNL A   1      41.846  30.826  36.422  1.00  0.00     0.031 C 
ATOM     56  C   UNL A   1      43.723  28.882  31.854  1.00  0.00     0.029 A 
ATOM     57  C   UNL A   1      42.812  28.212  32.655  1.00  0.00     0.049 A 
ATOM     58  H   UNL A   1      41.311  26.854  32.064  1.00  0.00     0.167 HD
ATOM     59  C   UNL A   1      42.413  29.239  34.811  1.00  0.00     0.074 A 
ATOM     60  C   UNL A   1      42.279  29.567  36.223  1.00  0.00     0.031 C 
ATOM     61  C   UNL A   1      42.628  28.082  34.105  1.00  0.00     0.034 A 
BRANCH  48  62
ATOM     62  C   UNL A   1      41.638  26.862  28.077  1.00  0.00     0.023 A 
ATOM     63  C   UNL A   1      41.535  27.658  26.913  1.00  0.00     0.012 A 
ATOM     64  C   UNL A   1      42.016  25.513  27.852  1.00  0.00     0.148 A 
ATOM     65  C   UNL A   1      41.735  27.148  25.621  1.00  0.00     0.002 A 
ATOM     66  C   UNL A   1      42.225  25.001  26.566  1.00  0.00     0.091 A 
ATOM     67  F   UNL A   1      42.188  24.680  28.872  1.00  0.00    -0.205 F 
ATOM     68  C   UNL A   1      42.073  25.815  25.446  1.00  0.00     0.022 A 
BRANCH  66  69
ATOM     69  S   UNL A   1      42.677  23.277  26.263  1.00  0.00     0.127 S 
ATOM     70  O   UNL A   1      42.926  23.274  24.821  1.00  0.00    -0.237 OA
ATOM     71  O   UNL A   1      43.875  23.120  27.087  1.00  0.00    -0.237 OA
ATOM     72  O   UNL A   1      41.538  22.465  26.679  1.00  0.00    -0.744 OA
ENDBRANCH  66  69
ENDBRANCH  48  62
BRANCH  49  73
ATOM     73  C   UNL A   1      40.114  33.450  35.279  1.00  0.00     0.023 A 
ATOM     74  C   UNL A   1      38.864  32.785  35.245  1.00  0.00     0.012 A 
ATOM     75  C   UNL A   1      40.323  34.445  36.254  1.00  0.00     0.148 A 
ATOM     76  C   UNL A   1      37.919  32.980  36.256  1.00  0.00     0.002 A 
ATOM     77  C   UNL A   1      39.386  34.614  37.275  1.00  0.00     0.091 A 
ATOM     78  F   UNL A   1      41.475  35.126  36.231  1.00  0.00    -0.205 F 
ATOM     79  C   UNL A   1      38.204  33.855  37.299  1.00  0.00     0.022 A 
BRANCH  77  80
ATOM     80  S   UNL A   1      39.712  35.666  38.700  1.00  0.00     0.127 S 
ATOM     81  O   UNL A   1      39.421  36.990  38.161  1.00  0.00    -0.237 OA
ATOM     82  O   UNL A   1      38.749  35.180  39.683  1.00  0.00    -0.237 OA
ATOM     83  O   UNL A   1      41.104  35.407  39.051  1.00  0.00    -0.744 OA
ENDBRANCH  77  80
ENDBRANCH  49  73
BRANCH  61  84
ATOM     84  C   UNL A   1      42.661  26.693  34.715  1.00  0.00     0.023 A 
ATOM     85  C   UNL A   1      41.520  26.079  35.265  1.00  0.00     0.012 A 
ATOM     86  C   UNL A   1      43.827  25.889  34.608  1.00  0.00     0.148 A 
ATOM     87  C   UNL A   1      41.549  24.766  35.749  1.00  0.00     0.002 A 
ATOM     88  C   UNL A   1      43.809  24.546  34.965  1.00  0.00     0.091 A 
ATOM     89  F   UNL A   1      44.977  26.428  34.177  1.00  0.00    -0.205 F 
ATOM     90  C   UNL A   1      42.685  23.990  35.574  1.00  0.00     0.022 A 
BRANCH  88  91
ATOM     91  S   UNL A   1      45.154  23.450  34.489  1.00  0.00     0.127 S 
ATOM     92  O   UNL A   1      45.273  23.719  33.058  1.00  0.00    -0.237 OA
ATOM     93  O   UNL A   1      46.268  23.951  35.299  1.00  0.00    -0.237 OA
ATOM     94  O   UNL A   1      44.704  22.116  34.861  1.00  0.00    -0.744 OA
ENDBRANCH  88  91
ENDBRANCH  61  84
ENDBRANCH  35  36
ENDBRANCH  27  30
ENDBRANCH  25  26
ENDBRANCH  24  25
ENDBRANCH   1  24
TORSDOF 17
ENDMDL
