MODEL 1
REMARK VINA RESULT:     -12.4      0.000      0.000
REMARK SMILES CO[C@H]1C[C@@H](C(=O)NCCCCNC(=O)c2ccc(-c3c4nc(c(-c5cccc(S(=O)(=O)[O-])c5F)c5ccc([nH]5)c(-c5cccc(S(=O)(=O)[O-])c5F)c5nc(c(-c6cccc(S(=O)(=O)[O-])c6F)c6ccc3[nH]6)C=C5)C=C4)cc2)N(C(=O)Nc2cc(C)cc(F)c2)C1
REMARK SMILES IDX 11 1 10 2 9 3 8 4 6 5 7 6 5 8 3 9 4 10 91 11 79 12 2 13 1 14
REMARK SMILES IDX 80 15 81 16 82 17 83 19 84 20 90 21 85 22 88 23 86 24 87 25
REMARK SMILES IDX 89 26 12 27 13 28 14 29 15 31 16 32 17 33 78 34 18 35 77 36
REMARK SMILES IDX 19 37 20 38 21 39 71 40 22 41 76 42 70 43 72 44 23 45 75 46
REMARK SMILES IDX 69 47 68 48 24 50 56 51 36 52 55 53 37 54 40 55 54 56 73 57
REMARK SMILES IDX 38 58 39 59 53 61 74 62 41 63 25 64 26 65 34 66 27 67 29 68
REMARK SMILES IDX 35 69 28 70 30 71 31 72 32 73 33 74 57 75 58 76 66 77 59 78
REMARK SMILES IDX 61 79 67 80 60 81 62 82 63 83 64 84 65 85 42 86 43 87 51 88
REMARK SMILES IDX 44 89 46 90 52 91 45 92 47 93 48 94 49 95 50 96
REMARK H PARENT 8 7 82 18 13 30 72 49 40 60
REMARK Flexibility Score: inf
ROOT
ATOM      1  C   UNL A   1      31.500  32.151  26.541  1.00  0.00     0.023 C 
ENDROOT
BRANCH   1   2
ATOM      2  C   UNL A   1      31.607  30.671  26.169  1.00  0.00     0.023 C 
BRANCH   2   3
ATOM      3  C   UNL A   1      31.845  29.650  27.288  1.00  0.00     0.116 C 
BRANCH   3   4
ATOM      4  N   UNL A   1      32.821  28.605  27.047  1.00  0.00    -0.354 N 
ATOM      5  C   UNL A   1      32.836  27.549  26.181  1.00  0.00     0.242 C 
ATOM      6  O   UNL A   1      33.923  26.979  26.016  1.00  0.00    -0.273 OA
ATOM      7  H   UNL A   1      33.623  28.669  27.613  1.00  0.00     0.163 HD
BRANCH   5   8
ATOM      8  C   UNL A   1      31.638  27.153  25.290  1.00  0.00     0.179 C 
ATOM      9  C   UNL A   1      30.617  24.934  25.054  1.00  0.00     0.140 C 
ATOM     10  C   UNL A   1      31.004  25.988  26.077  1.00  0.00     0.069 C 
ATOM     11  C   UNL A   1      31.439  25.268  23.812  1.00  0.00     0.154 C 
ATOM     12  N   UNL A   1      31.809  26.685  23.906  1.00  0.00    -0.310 N 
BRANCH   9  13
ATOM     13  O   UNL A   1      30.720  23.560  25.435  1.00  0.00    -0.380 OA
ATOM     14  C   UNL A   1      31.648  22.742  24.739  1.00  0.00     0.195 C 
ENDBRANCH   9  13
BRANCH  12  15
ATOM     15  C   UNL A   1      31.917  27.375  22.723  1.00  0.00     0.322 C 
ATOM     16  O   UNL A   1      32.963  27.296  22.061  1.00  0.00    -0.248 OA
ATOM     17  N   UNL A   1      30.929  28.081  22.123  1.00  0.00    -0.308 N 
ATOM     18  H   UNL A   1      31.038  28.084  21.144  1.00  0.00     0.171 HD
BRANCH  17  19
ATOM     19  C   UNL A   1      29.793  28.810  22.509  1.00  0.00     0.046 A 
ATOM     20  C   UNL A   1      29.842  30.207  22.572  1.00  0.00     0.029 A 
ATOM     21  C   UNL A   1      28.656  28.208  22.990  1.00  0.00     0.065 A 
ATOM     22  C   UNL A   1      28.704  30.956  22.949  1.00  0.00    -0.046 A 
ATOM     23  C   UNL A   1      27.507  28.920  23.301  1.00  0.00     0.125 A 
ATOM     24  C   UNL A   1      28.779  32.440  23.151  1.00  0.00     0.044 C 
ATOM     25  C   UNL A   1      27.510  30.296  23.256  1.00  0.00     0.042 A 
ATOM     26  F   UNL A   1      26.411  28.260  23.698  1.00  0.00    -0.207 F 
ENDBRANCH  17  19
ENDBRANCH  12  15
ENDBRANCH   5   8
ENDBRANCH   3   4
ENDBRANCH   2   3
ENDBRANCH   1   2
BRANCH   1  27
ATOM     27  C   UNL A   1      32.683  32.730  27.286  1.00  0.00     0.116 C 
BRANCH  27  28
ATOM     28  N   UNL A   1      32.482  34.124  27.634  1.00  0.00    -0.352 N 
ATOM     29  C   UNL A   1      33.095  34.872  28.608  1.00  0.00     0.251 C 
ATOM     30  H   UNL A   1      31.809  34.601  27.094  1.00  0.00     0.163 HD
ATOM     31  O   UNL A   1      32.672  35.993  28.862  1.00  0.00    -0.269 OA
BRANCH  29  32
ATOM     32  C   UNL A   1      34.240  34.312  29.361  1.00  0.00     0.039 A 
ATOM     33  C   UNL A   1      33.981  33.549  30.502  1.00  0.00     0.014 A 
ATOM     34  C   UNL A   1      35.557  34.536  28.953  1.00  0.00     0.014 A 
ATOM     35  C   UNL A   1      35.041  32.980  31.209  1.00  0.00     0.010 A 
ATOM     36  C   UNL A   1      36.604  33.888  29.600  1.00  0.00     0.010 A 
ATOM     37  C   UNL A   1      36.360  33.123  30.750  1.00  0.00    -0.014 A 
BRANCH  37  38
ATOM     38  C   UNL A   1      37.501  32.505  31.474  1.00  0.00     0.031 A 
ATOM     39  C   UNL A   1      38.256  31.360  30.850  1.00  0.00     0.074 A 
ATOM     40  C   UNL A   1      37.815  32.929  32.713  1.00  0.00     0.049 A 
ATOM     41  N   UNL A   1      39.247  30.661  31.340  1.00  0.00    -0.248 NA
ATOM     42  C   UNL A   1      37.824  30.922  29.511  1.00  0.00     0.031 C 
ATOM     43  C   UNL A   1      37.113  33.981  33.453  1.00  0.00     0.029 A 
ATOM     44  N   UNL A   1      38.794  32.513  33.579  1.00  0.00    -0.354 N 
ATOM     45  C   UNL A   1      39.534  29.688  30.390  1.00  0.00     0.074 A 
ATOM     46  C   UNL A   1      38.581  29.854  29.314  1.00  0.00     0.031 C 
ATOM     47  C   UNL A   1      37.692  34.136  34.654  1.00  0.00     0.029 A 
ATOM     48  C   UNL A   1      38.782  33.175  34.786  1.00  0.00     0.049 A 
ATOM     49  H   UNL A   1      39.444  31.807  33.360  1.00  0.00     0.167 HD
ATOM     50  C   UNL A   1      40.522  28.762  30.392  1.00  0.00     0.034 A 
ATOM     51  C   UNL A   1      39.558  33.019  35.876  1.00  0.00     0.034 A 
ATOM     52  C   UNL A   1      41.488  28.625  31.446  1.00  0.00     0.049 A 
ATOM     53  C   UNL A   1      40.662  31.997  35.843  1.00  0.00     0.074 A 
ATOM     54  C   UNL A   1      42.570  27.766  31.514  1.00  0.00     0.029 A 
ATOM     55  N   UNL A   1      41.488  29.363  32.619  1.00  0.00    -0.354 N 
ATOM     56  N   UNL A   1      41.005  31.181  34.876  1.00  0.00    -0.248 NA
ATOM     57  C   UNL A   1      41.511  31.899  37.039  1.00  0.00     0.031 C 
ATOM     58  C   UNL A   1      43.208  27.964  32.744  1.00  0.00     0.029 A 
ATOM     59  C   UNL A   1      42.547  28.975  33.422  1.00  0.00     0.049 A 
ATOM     60  H   UNL A   1      40.831  30.060  32.849  1.00  0.00     0.167 HD
ATOM     61  C   UNL A   1      42.134  30.507  35.327  1.00  0.00     0.074 A 
ATOM     62  C   UNL A   1      42.428  31.025  36.647  1.00  0.00     0.031 C 
ATOM     63  C   UNL A   1      42.858  29.540  34.710  1.00  0.00     0.034 A 
BRANCH  50  64
ATOM     64  C   UNL A   1      40.635  27.858  29.191  1.00  0.00     0.023 A 
ATOM     65  C   UNL A   1      39.802  26.724  29.091  1.00  0.00     0.012 A 
ATOM     66  C   UNL A   1      41.523  28.154  28.139  1.00  0.00     0.148 A 
ATOM     67  C   UNL A   1      39.877  25.878  27.985  1.00  0.00     0.002 A 
ATOM     68  C   UNL A   1      41.558  27.333  27.017  1.00  0.00     0.091 A 
ATOM     69  F   UNL A   1      42.321  29.224  28.257  1.00  0.00    -0.205 F 
ATOM     70  C   UNL A   1      40.747  26.189  26.944  1.00  0.00     0.022 A 
BRANCH  68  71
ATOM     71  S   UNL A   1      42.582  27.690  25.584  1.00  0.00     0.127 S 
ATOM     72  O   UNL A   1      41.949  28.902  25.065  1.00  0.00    -0.237 OA
ATOM     73  O   UNL A   1      43.896  27.902  26.193  1.00  0.00    -0.237 OA
ATOM     74  O   UNL A   1      42.492  26.522  24.722  1.00  0.00    -0.744 OA
ENDBRANCH  68  71
ENDBRANCH  50  64
BRANCH  51  75
ATOM     75  C   UNL A   1      39.363  33.893  37.068  1.00  0.00     0.023 A 
ATOM     76  C   UNL A   1      39.779  35.239  37.015  1.00  0.00     0.012 A 
ATOM     77  C   UNL A   1      38.768  33.405  38.246  1.00  0.00     0.148 A 
ATOM     78  C   UNL A   1      39.646  36.069  38.129  1.00  0.00     0.002 A 
ATOM     79  C   UNL A   1      38.585  34.254  39.332  1.00  0.00     0.091 A 
ATOM     80  F   UNL A   1      38.385  32.122  38.281  1.00  0.00    -0.205 F 
ATOM     81  C   UNL A   1      39.042  35.580  39.284  1.00  0.00     0.022 A 
BRANCH  79  82
ATOM     82  S   UNL A   1      37.706  33.747  40.815  1.00  0.00     0.127 S 
ATOM     83  O   UNL A   1      37.514  35.022  41.500  1.00  0.00    -0.237 OA
ATOM     84  O   UNL A   1      36.489  33.158  40.255  1.00  0.00    -0.237 OA
ATOM     85  O   UNL A   1      38.580  32.794  41.484  1.00  0.00    -0.744 OA
ENDBRANCH  79  82
ENDBRANCH  51  75
BRANCH  63  86
ATOM     86  C   UNL A   1      44.075  29.015  35.426  1.00  0.00     0.023 A 
ATOM     87  C   UNL A   1      45.331  29.623  35.229  1.00  0.00     0.012 A 
ATOM     88  C   UNL A   1      43.956  27.956  36.349  1.00  0.00     0.148 A 
ATOM     89  C   UNL A   1      46.456  29.160  35.909  1.00  0.00     0.002 A 
ATOM     90  C   UNL A   1      45.071  27.537  37.064  1.00  0.00     0.091 A 
ATOM     91  F   UNL A   1      42.756  27.380  36.510  1.00  0.00    -0.205 F 
ATOM     92  C   UNL A   1      46.324  28.126  36.834  1.00  0.00     0.022 A 
BRANCH  90  93
ATOM     93  S   UNL A   1      44.975  26.285  38.348  1.00  0.00     0.127 S 
ATOM     94  O   UNL A   1      46.387  25.959  38.550  1.00  0.00    -0.237 OA
ATOM     95  O   UNL A   1      44.355  27.020  39.451  1.00  0.00    -0.237 OA
ATOM     96  O   UNL A   1      44.158  25.209  37.803  1.00  0.00    -0.744 OA
ENDBRANCH  90  93
ENDBRANCH  63  86
ENDBRANCH  37  38
ENDBRANCH  29  32
ENDBRANCH  27  28
ENDBRANCH   1  27
TORSDOF 17
ENDMDL
MODEL 2
REMARK VINA RESULT:     -12.2      2.699      8.152
REMARK SMILES CO[C@H]1C[C@@H](C(=O)NCCCCNC(=O)c2ccc(-c3c4nc(c(-c5cccc(S(=O)(=O)[O-])c5F)c5ccc([nH]5)c(-c5cccc(S(=O)(=O)[O-])c5F)c5nc(c(-c6cccc(S(=O)(=O)[O-])c6F)c6ccc3[nH]6)C=C5)C=C4)cc2)N(C(=O)Nc2cc(C)cc(F)c2)C1
REMARK SMILES IDX 11 1 10 2 9 3 8 4 6 5 7 6 5 8 3 9 4 10 91 11 79 12 2 13 1 14
REMARK SMILES IDX 80 15 81 16 82 17 83 19 84 20 90 21 85 22 88 23 86 24 87 25
REMARK SMILES IDX 89 26 12 27 13 28 14 29 15 31 16 32 17 33 78 34 18 35 77 36
REMARK SMILES IDX 19 37 20 38 21 39 71 40 22 41 76 42 70 43 72 44 23 45 75 46
REMARK SMILES IDX 69 47 68 48 24 50 56 51 36 52 55 53 37 54 40 55 54 56 73 57
REMARK SMILES IDX 38 58 39 59 53 61 74 62 41 63 25 64 26 65 34 66 27 67 29 68
REMARK SMILES IDX 35 69 28 70 30 71 31 72 32 73 33 74 57 75 58 76 66 77 59 78
REMARK SMILES IDX 61 79 67 80 60 81 62 82 63 83 64 84 65 85 42 86 43 87 51 88
REMARK SMILES IDX 44 89 46 90 52 91 45 92 47 93 48 94 49 95 50 96
REMARK H PARENT 8 7 82 18 13 30 72 49 40 60
REMARK Flexibility Score: inf
ROOT
ATOM      1  C   UNL A   1      31.876  28.662  26.772  1.00  0.00     0.023 C 
ENDROOT
BRANCH   1   2
ATOM      2  C   UNL A   1      31.401  27.417  26.021  1.00  0.00     0.023 C 
BRANCH   2   3
ATOM      3  C   UNL A   1      31.994  26.057  26.410  1.00  0.00     0.116 C 
BRANCH   3   4
ATOM      4  N   UNL A   1      31.078  25.032  26.871  1.00  0.00    -0.354 N 
ATOM      5  C   UNL A   1      31.058  23.678  26.700  1.00  0.00     0.242 C 
ATOM      6  O   UNL A   1      30.297  23.034  27.434  1.00  0.00    -0.273 OA
ATOM      7  H   UNL A   1      30.330  25.379  27.408  1.00  0.00     0.163 HD
BRANCH   5   8
ATOM      8  C   UNL A   1      32.040  22.914  25.783  1.00  0.00     0.179 C 
ATOM      9  C   UNL A   1      34.492  22.943  25.864  1.00  0.00     0.140 C 
ATOM     10  C   UNL A   1      33.255  22.688  26.706  1.00  0.00     0.069 C 
ATOM     11  C   UNL A   1      33.997  23.753  24.669  1.00  0.00     0.154 C 
ATOM     12  N   UNL A   1      32.559  23.491  24.534  1.00  0.00    -0.310 N 
BRANCH   9  13
ATOM     13  O   UNL A   1      35.628  23.532  26.502  1.00  0.00    -0.380 OA
ATOM     14  C   UNL A   1      36.837  23.620  25.764  1.00  0.00     0.195 C 
ENDBRANCH   9  13
BRANCH  12  15
ATOM     15  C   UNL A   1      32.046  23.505  23.260  1.00  0.00     0.322 C 
ATOM     16  O   UNL A   1      31.927  22.441  22.635  1.00  0.00    -0.248 OA
ATOM     17  N   UNL A   1      31.539  24.587  22.621  1.00  0.00    -0.308 N 
ATOM     18  H   UNL A   1      30.836  24.326  21.982  1.00  0.00     0.171 HD
BRANCH  17  19
ATOM     19  C   UNL A   1      31.736  25.977  22.618  1.00  0.00     0.046 A 
ATOM     20  C   UNL A   1      30.638  26.843  22.588  1.00  0.00     0.029 A 
ATOM     21  C   UNL A   1      32.978  26.548  22.482  1.00  0.00     0.065 A 
ATOM     22  C   UNL A   1      30.818  28.245  22.596  1.00  0.00    -0.046 A 
ATOM     23  C   UNL A   1      33.183  27.918  22.554  1.00  0.00     0.125 A 
ATOM     24  C   UNL A   1      29.660  29.182  22.429  1.00  0.00     0.044 C 
ATOM     25  C   UNL A   1      32.110  28.776  22.641  1.00  0.00     0.042 A 
ATOM     26  F   UNL A   1      34.431  28.400  22.484  1.00  0.00    -0.207 F 
ENDBRANCH  17  19
ENDBRANCH  12  15
ENDBRANCH   5   8
ENDBRANCH   3   4
ENDBRANCH   2   3
ENDBRANCH   1   2
BRANCH   1  27
ATOM     27  C   UNL A   1      32.799  29.582  26.004  1.00  0.00     0.116 C 
BRANCH  27  28
ATOM     28  N   UNL A   1      32.571  30.979  26.326  1.00  0.00    -0.352 N 
ATOM     29  C   UNL A   1      33.237  31.783  27.218  1.00  0.00     0.251 C 
ATOM     30  H   UNL A   1      31.834  31.410  25.836  1.00  0.00     0.163 HD
ATOM     31  O   UNL A   1      32.793  32.894  27.475  1.00  0.00    -0.269 OA
BRANCH  29  32
ATOM     32  C   UNL A   1      34.467  31.293  27.881  1.00  0.00     0.039 A 
ATOM     33  C   UNL A   1      35.553  32.164  28.003  1.00  0.00     0.014 A 
ATOM     34  C   UNL A   1      34.557  29.989  28.375  1.00  0.00     0.014 A 
ATOM     35  C   UNL A   1      36.711  31.737  28.656  1.00  0.00     0.010 A 
ATOM     36  C   UNL A   1      35.672  29.600  29.110  1.00  0.00     0.010 A 
ATOM     37  C   UNL A   1      36.771  30.461  29.237  1.00  0.00    -0.014 A 
BRANCH  37  38
ATOM     38  C   UNL A   1      37.985  29.997  29.957  1.00  0.00     0.031 A 
ATOM     39  C   UNL A   1      38.281  30.510  31.341  1.00  0.00     0.074 A 
ATOM     40  C   UNL A   1      38.850  29.168  29.342  1.00  0.00     0.049 A 
ATOM     41  N   UNL A   1      39.308  30.260  32.112  1.00  0.00    -0.248 NA
ATOM     42  C   UNL A   1      37.311  31.451  31.929  1.00  0.00     0.031 C 
ATOM     43  C   UNL A   1      38.711  28.658  27.975  1.00  0.00     0.029 A 
ATOM     44  N   UNL A   1      40.031  28.622  29.779  1.00  0.00    -0.354 N 
ATOM     45  C   UNL A   1      39.125  31.032  33.253  1.00  0.00     0.074 A 
ATOM     46  C   UNL A   1      37.913  31.797  33.057  1.00  0.00     0.031 C 
ATOM     47  C   UNL A   1      39.757  27.864  27.692  1.00  0.00     0.029 A 
ATOM     48  C   UNL A   1      40.658  27.836  28.840  1.00  0.00     0.049 A 
ATOM     49  H   UNL A   1      40.396  28.779  30.680  1.00  0.00     0.167 HD
ATOM     50  C   UNL A   1      39.875  31.076  34.380  1.00  0.00     0.034 A 
ATOM     51  C   UNL A   1      41.829  27.172  28.897  1.00  0.00     0.034 A 
ATOM     52  C   UNL A   1      41.058  30.288  34.585  1.00  0.00     0.049 A 
ATOM     53  C   UNL A   1      42.632  27.222  30.168  1.00  0.00     0.074 A 
ATOM     54  C   UNL A   1      41.852  30.206  35.715  1.00  0.00     0.029 A 
ATOM     55  N   UNL A   1      41.621  29.447  33.639  1.00  0.00    -0.354 N 
ATOM     56  N   UNL A   1      42.368  27.848  31.290  1.00  0.00    -0.248 NA
ATOM     57  C   UNL A   1      43.879  26.442  30.196  1.00  0.00     0.031 C 
ATOM     58  C   UNL A   1      42.913  29.337  35.440  1.00  0.00     0.029 A 
ATOM     59  C   UNL A   1      42.757  28.847  34.154  1.00  0.00     0.049 A 
ATOM     60  H   UNL A   1      41.267  29.298  32.731  1.00  0.00     0.167 HD
ATOM     61  C   UNL A   1      43.388  27.502  32.169  1.00  0.00     0.074 A 
ATOM     62  C   UNL A   1      44.264  26.596  31.456  1.00  0.00     0.031 C 
ATOM     63  C   UNL A   1      43.588  27.905  33.449  1.00  0.00     0.034 A 
BRANCH  50  64
ATOM     64  C   UNL A   1      39.406  31.973  35.498  1.00  0.00     0.023 A 
ATOM     65  C   UNL A   1      38.505  31.472  36.462  1.00  0.00     0.012 A 
ATOM     66  C   UNL A   1      39.894  33.287  35.629  1.00  0.00     0.148 A 
ATOM     67  C   UNL A   1      38.066  32.276  37.513  1.00  0.00     0.002 A 
ATOM     68  C   UNL A   1      39.490  34.066  36.707  1.00  0.00     0.091 A 
ATOM     69  F   UNL A   1      40.735  33.753  34.695  1.00  0.00    -0.205 F 
ATOM     70  C   UNL A   1      38.567  33.568  37.641  1.00  0.00     0.022 A 
BRANCH  68  71
ATOM     71  S   UNL A   1      40.138  35.714  37.012  1.00  0.00     0.127 S 
ATOM     72  O   UNL A   1      41.580  35.467  37.016  1.00  0.00    -0.237 OA
ATOM     73  O   UNL A   1      39.651  36.454  35.847  1.00  0.00    -0.237 OA
ATOM     74  O   UNL A   1      39.576  36.141  38.284  1.00  0.00    -0.744 OA
ENDBRANCH  68  71
ENDBRANCH  50  64
BRANCH  51  75
ATOM     75  C   UNL A   1      42.285  26.352  27.738  1.00  0.00     0.023 A 
ATOM     76  C   UNL A   1      43.142  26.926  26.778  1.00  0.00     0.012 A 
ATOM     77  C   UNL A   1      41.881  25.012  27.584  1.00  0.00     0.148 A 
ATOM     78  C   UNL A   1      43.553  26.194  25.663  1.00  0.00     0.002 A 
ATOM     79  C   UNL A   1      42.341  24.272  26.500  1.00  0.00     0.091 A 
ATOM     80  F   UNL A   1      41.060  24.486  28.502  1.00  0.00    -0.205 F 
ATOM     81  C   UNL A   1      43.159  24.866  25.527  1.00  0.00     0.022 A 
BRANCH  79  82
ATOM     82  S   UNL A   1      41.987  22.521  26.311  1.00  0.00     0.127 S 
ATOM     83  O   UNL A   1      42.649  22.217  25.045  1.00  0.00    -0.237 OA
ATOM     84  O   UNL A   1      42.632  21.954  27.496  1.00  0.00    -0.237 OA
ATOM     85  O   UNL A   1      40.535  22.410  26.308  1.00  0.00    -0.744 OA
ENDBRANCH  79  82
ENDBRANCH  51  75
BRANCH  63  86
ATOM     86  C   UNL A   1      44.767  27.326  34.187  1.00  0.00     0.023 A 
ATOM     87  C   UNL A   1      46.008  27.995  34.174  1.00  0.00     0.012 A 
ATOM     88  C   UNL A   1      44.622  26.151  34.950  1.00  0.00     0.148 A 
ATOM     89  C   UNL A   1      47.096  27.480  34.877  1.00  0.00     0.002 A 
ATOM     90  C   UNL A   1      45.695  25.675  35.693  1.00  0.00     0.091 A 
ATOM     91  F   UNL A   1      43.438  25.522  34.937  1.00  0.00    -0.205 F 
ATOM     92  C   UNL A   1      46.936  26.328  35.645  1.00  0.00     0.022 A 
BRANCH  90  93
ATOM     93  S   UNL A   1      45.554  24.260  36.791  1.00  0.00     0.127 S 
ATOM     94  O   UNL A   1      45.216  23.190  35.852  1.00  0.00    -0.237 OA
ATOM     95  O   UNL A   1      46.901  24.172  37.356  1.00  0.00    -0.237 OA
ATOM     96  O   UNL A   1      44.515  24.598  37.754  1.00  0.00    -0.744 OA
ENDBRANCH  90  93
ENDBRANCH  63  86
ENDBRANCH  37  38
ENDBRANCH  29  32
ENDBRANCH  27  28
ENDBRANCH   1  27
TORSDOF 17
ENDMDL
MODEL 3
REMARK VINA RESULT:     -12.1      3.408      9.038
REMARK SMILES CO[C@H]1C[C@@H](C(=O)NCCCCNC(=O)c2ccc(-c3c4nc(c(-c5cccc(S(=O)(=O)[O-])c5F)c5ccc([nH]5)c(-c5cccc(S(=O)(=O)[O-])c5F)c5nc(c(-c6cccc(S(=O)(=O)[O-])c6F)c6ccc3[nH]6)C=C5)C=C4)cc2)N(C(=O)Nc2cc(C)cc(F)c2)C1
REMARK SMILES IDX 11 1 10 2 9 3 8 4 6 5 7 6 5 8 3 9 4 10 91 11 79 12 2 13 1 14
REMARK SMILES IDX 80 15 81 16 82 17 83 19 84 20 90 21 85 22 88 23 86 24 87 25
REMARK SMILES IDX 89 26 12 27 13 28 14 29 15 31 16 32 17 33 78 34 18 35 77 36
REMARK SMILES IDX 19 37 20 38 21 39 71 40 22 41 76 42 70 43 72 44 23 45 75 46
REMARK SMILES IDX 69 47 68 48 24 50 56 51 36 52 55 53 37 54 40 55 54 56 73 57
REMARK SMILES IDX 38 58 39 59 53 61 74 62 41 63 25 64 26 65 34 66 27 67 29 68
REMARK SMILES IDX 35 69 28 70 30 71 31 72 32 73 33 74 57 75 58 76 66 77 59 78
REMARK SMILES IDX 61 79 67 80 60 81 62 82 63 83 64 84 65 85 42 86 43 87 51 88
REMARK SMILES IDX 44 89 46 90 52 91 45 92 47 93 48 94 49 95 50 96
REMARK H PARENT 8 7 82 18 13 30 72 49 40 60
REMARK Flexibility Score: inf
ROOT
ATOM      1  C   UNL A   1      32.449  29.021  24.174  1.00  0.00     0.023 C 
ENDROOT
BRANCH   1   2
ATOM      2  C   UNL A   1      32.000  27.568  24.016  1.00  0.00     0.023 C 
BRANCH   2   3
ATOM      3  C   UNL A   1      32.910  26.458  24.556  1.00  0.00     0.116 C 
BRANCH   3   4
ATOM      4  N   UNL A   1      33.559  25.592  23.591  1.00  0.00    -0.354 N 
ATOM      5  C   UNL A   1      34.220  24.405  23.724  1.00  0.00     0.242 C 
ATOM      6  O   UNL A   1      34.437  23.768  22.685  1.00  0.00    -0.273 OA
ATOM      7  H   UNL A   1      33.515  25.924  22.665  1.00  0.00     0.163 HD
BRANCH   5   8
ATOM      8  C   UNL A   1      34.544  23.752  25.086  1.00  0.00     0.179 C 
ATOM      9  C   UNL A   1      36.519  22.419  25.674  1.00  0.00     0.140 C 
ATOM     10  C   UNL A   1      36.087  23.758  25.104  1.00  0.00     0.069 C 
ATOM     11  C   UNL A   1      35.300  21.512  25.522  1.00  0.00     0.154 C 
ATOM     12  N   UNL A   1      34.123  22.383  25.421  1.00  0.00    -0.310 N 
BRANCH   9  13
ATOM     13  O   UNL A   1      37.717  21.828  25.166  1.00  0.00    -0.380 OA
ATOM     14  C   UNL A   1      37.747  20.419  24.995  1.00  0.00     0.195 C 
ENDBRANCH   9  13
BRANCH  12  15
ATOM     15  C   UNL A   1      32.950  21.899  25.947  1.00  0.00     0.322 C 
ATOM     16  O   UNL A   1      32.420  22.483  26.904  1.00  0.00    -0.248 OA
ATOM     17  N   UNL A   1      32.222  20.870  25.449  1.00  0.00    -0.308 N 
ATOM     18  H   UNL A   1      31.264  20.985  25.644  1.00  0.00     0.171 HD
BRANCH  17  19
ATOM     19  C   UNL A   1      32.456  19.686  24.732  1.00  0.00     0.046 A 
ATOM     20  C   UNL A   1      32.907  18.540  25.395  1.00  0.00     0.029 A 
ATOM     21  C   UNL A   1      32.416  19.632  23.360  1.00  0.00     0.065 A 
ATOM     22  C   UNL A   1      33.137  17.336  24.690  1.00  0.00    -0.046 A 
ATOM     23  C   UNL A   1      32.572  18.448  22.654  1.00  0.00     0.125 A 
ATOM     24  C   UNL A   1      33.746  16.143  25.362  1.00  0.00     0.044 C 
ATOM     25  C   UNL A   1      32.905  17.286  23.313  1.00  0.00     0.042 A 
ATOM     26  F   UNL A   1      32.450  18.457  21.320  1.00  0.00    -0.207 F 
ENDBRANCH  17  19
ENDBRANCH  12  15
ENDBRANCH   5   8
ENDBRANCH   3   4
ENDBRANCH   2   3
ENDBRANCH   1   2
BRANCH   1  27
ATOM     27  C   UNL A   1      33.065  29.378  25.509  1.00  0.00     0.116 C 
BRANCH  27  28
ATOM     28  N   UNL A   1      32.703  30.716  25.939  1.00  0.00    -0.352 N 
ATOM     29  C   UNL A   1      33.248  31.484  26.938  1.00  0.00     0.251 C 
ATOM     30  H   UNL A   1      31.959  31.131  25.444  1.00  0.00     0.163 HD
ATOM     31  O   UNL A   1      32.698  32.527  27.264  1.00  0.00    -0.269 OA
BRANCH  29  32
ATOM     32  C   UNL A   1      34.477  31.034  27.630  1.00  0.00     0.039 A 
ATOM     33  C   UNL A   1      35.479  31.972  27.891  1.00  0.00     0.014 A 
ATOM     34  C   UNL A   1      34.648  29.702  28.016  1.00  0.00     0.014 A 
ATOM     35  C   UNL A   1      36.632  31.581  28.574  1.00  0.00     0.010 A 
ATOM     36  C   UNL A   1      35.751  29.337  28.781  1.00  0.00     0.010 A 
ATOM     37  C   UNL A   1      36.767  30.266  29.047  1.00  0.00    -0.014 A 
BRANCH  37  38
ATOM     38  C   UNL A   1      37.975  29.835  29.797  1.00  0.00     0.031 A 
ATOM     39  C   UNL A   1      38.233  30.374  31.180  1.00  0.00     0.074 A 
ATOM     40  C   UNL A   1      38.867  29.014  29.211  1.00  0.00     0.049 A 
ATOM     41  N   UNL A   1      39.249  30.154  31.974  1.00  0.00    -0.248 NA
ATOM     42  C   UNL A   1      37.234  31.304  31.735  1.00  0.00     0.031 C 
ATOM     43  C   UNL A   1      38.765  28.483  27.850  1.00  0.00     0.029 A 
ATOM     44  N   UNL A   1      40.049  28.498  29.680  1.00  0.00    -0.354 N 
ATOM     45  C   UNL A   1      39.029  30.938  33.101  1.00  0.00     0.074 A 
ATOM     46  C   UNL A   1      37.807  31.676  32.870  1.00  0.00     0.031 C 
ATOM     47  C   UNL A   1      39.831  27.706  27.599  1.00  0.00     0.029 A 
ATOM     48  C   UNL A   1      40.709  27.711  28.764  1.00  0.00     0.049 A 
ATOM     49  H   UNL A   1      40.393  28.674  30.585  1.00  0.00     0.167 HD
ATOM     50  C   UNL A   1      39.755  31.012  34.241  1.00  0.00     0.034 A 
ATOM     51  C   UNL A   1      41.892  27.071  28.853  1.00  0.00     0.034 A 
ATOM     52  C   UNL A   1      40.949  30.249  34.481  1.00  0.00     0.049 A 
ATOM     53  C   UNL A   1      42.668  27.153  30.139  1.00  0.00     0.074 A 
ATOM     54  C   UNL A   1      41.722  30.199  35.627  1.00  0.00     0.029 A 
ATOM     55  N   UNL A   1      41.547  29.407  33.557  1.00  0.00    -0.354 N 
ATOM     56  N   UNL A   1      42.370  27.790  31.247  1.00  0.00    -0.248 NA
ATOM     57  C   UNL A   1      43.928  26.398  30.203  1.00  0.00     0.031 C 
ATOM     58  C   UNL A   1      42.805  29.347  35.385  1.00  0.00     0.029 A 
ATOM     59  C   UNL A   1      42.683  28.836  34.104  1.00  0.00     0.049 A 
ATOM     60  H   UNL A   1      41.213  29.239  32.645  1.00  0.00     0.167 HD
ATOM     61  C   UNL A   1      43.379  27.475  32.151  1.00  0.00     0.074 A 
ATOM     62  C   UNL A   1      44.286  26.577  31.467  1.00  0.00     0.031 C 
ATOM     63  C   UNL A   1      43.545  27.900  33.428  1.00  0.00     0.034 A 
BRANCH  50  64
ATOM     64  C   UNL A   1      39.248  31.915  35.336  1.00  0.00     0.023 A 
ATOM     65  C   UNL A   1      38.255  31.446  36.223  1.00  0.00     0.012 A 
ATOM     66  C   UNL A   1      39.786  33.202  35.526  1.00  0.00     0.148 A 
ATOM     67  C   UNL A   1      37.777  32.255  37.252  1.00  0.00     0.002 A 
ATOM     68  C   UNL A   1      39.340  33.986  36.584  1.00  0.00     0.091 A 
ATOM     69  F   UNL A   1      40.715  33.640  34.665  1.00  0.00    -0.205 F 
ATOM     70  C   UNL A   1      38.327  33.519  37.439  1.00  0.00     0.022 A 
BRANCH  68  71
ATOM     71  S   UNL A   1      40.041  35.596  36.964  1.00  0.00     0.127 S 
ATOM     72  O   UNL A   1      39.651  36.371  35.787  1.00  0.00    -0.237 OA
ATOM     73  O   UNL A   1      39.332  35.956  38.192  1.00  0.00    -0.237 OA
ATOM     74  O   UNL A   1      41.472  35.385  37.126  1.00  0.00    -0.744 OA
ENDBRANCH  68  71
ENDBRANCH  50  64
BRANCH  51  75
ATOM     75  C   UNL A   1      42.386  26.243  27.716  1.00  0.00     0.023 A 
ATOM     76  C   UNL A   1      43.276  26.810  26.782  1.00  0.00     0.012 A 
ATOM     77  C   UNL A   1      41.986  24.903  27.555  1.00  0.00     0.148 A 
ATOM     78  C   UNL A   1      43.723  26.072  25.685  1.00  0.00     0.002 A 
ATOM     79  C   UNL A   1      42.481  24.156  26.492  1.00  0.00     0.091 A 
ATOM     80  F   UNL A   1      41.134  24.382  28.449  1.00  0.00    -0.205 F 
ATOM     81  C   UNL A   1      43.333  24.744  25.545  1.00  0.00     0.022 A 
BRANCH  79  82
ATOM     82  S   UNL A   1      42.132  22.404  26.301  1.00  0.00     0.127 S 
ATOM     83  O   UNL A   1      42.741  22.117  25.005  1.00  0.00    -0.237 OA
ATOM     84  O   UNL A   1      42.833  21.831  27.451  1.00  0.00    -0.237 OA
ATOM     85  O   UNL A   1      40.683  22.282  26.361  1.00  0.00    -0.744 OA
ENDBRANCH  79  82
ENDBRANCH  51  75
BRANCH  63  86
ATOM     86  C   UNL A   1      44.721  27.354  34.197  1.00  0.00     0.023 A 
ATOM     87  C   UNL A   1      45.946  28.050  34.205  1.00  0.00     0.012 A 
ATOM     88  C   UNL A   1      44.585  26.183  34.968  1.00  0.00     0.148 A 
ATOM     89  C   UNL A   1      47.030  27.566  34.937  1.00  0.00     0.002 A 
ATOM     90  C   UNL A   1      45.651  25.737  35.738  1.00  0.00     0.091 A 
ATOM     91  F   UNL A   1      43.416  25.527  34.934  1.00  0.00    -0.205 F 
ATOM     92  C   UNL A   1      46.878  26.418  35.712  1.00  0.00     0.022 A 
BRANCH  90  93
ATOM     93  S   UNL A   1      45.517  24.329  36.846  1.00  0.00     0.127 S 
ATOM     94  O   UNL A   1      44.485  24.782  37.778  1.00  0.00    -0.237 OA
ATOM     95  O   UNL A   1      45.094  23.262  35.938  1.00  0.00    -0.237 OA
ATOM     96  O   UNL A   1      46.842  24.142  37.423  1.00  0.00    -0.744 OA
ENDBRANCH  90  93
ENDBRANCH  63  86
ENDBRANCH  37  38
ENDBRANCH  29  32
ENDBRANCH  27  28
ENDBRANCH   1  27
TORSDOF 17
ENDMDL
