MODEL 1
REMARK VINA RESULT:     -13.1      0.000      0.000
REMARK SMILES Nc1nc2ccccc2nc1N1CCC(C(=O)NCCCCNC(=O)c2ccc(-c3c4nc(c(-c5cccc(S(=O)(=O)[O-])c5F)c5ccc([nH]5)c(-c5cccc(S(=O)(=O)[O-])c5F)c5nc(c(-c6cccc(S(=O)(=O)[O-])c6F)c6ccc3[nH]6)C=C5)C=C4)cc2)CC1
REMARK SMILES IDX 21 1 20 2 19 3 18 4 16 5 17 6 15 8 12 9 13 10 90 11 14 12
REMARK SMILES IDX 89 13 11 14 2 15 3 16 4 17 10 18 5 19 9 20 6 21 8 22 7 23
REMARK SMILES IDX 1 24 22 27 23 28 24 29 25 31 26 32 27 33 88 34 28 35 87 36
REMARK SMILES IDX 29 37 30 38 31 39 81 40 32 41 86 42 80 43 82 44 33 45 85 46
REMARK SMILES IDX 79 47 78 48 34 50 66 51 46 52 65 53 47 54 50 55 64 56 83 57
REMARK SMILES IDX 48 58 49 59 63 61 84 62 51 63 35 64 36 65 44 66 37 67 39 68
REMARK SMILES IDX 45 69 38 70 40 71 41 72 42 73 43 74 67 75 68 76 76 77 69 78
REMARK SMILES IDX 71 79 77 80 70 81 72 82 73 83 74 84 75 85 52 86 53 87 61 88
REMARK SMILES IDX 54 89 56 90 62 91 55 92 57 93 58 94 59 95 60 96
REMARK H PARENT 18 7 1 25 1 26 23 30 82 49 50 60
REMARK Flexibility Score: inf
ROOT
ATOM      1  C   UNL A   1      35.256  21.661  24.748  1.00  0.00     0.023 C 
ENDROOT
BRANCH   1   2
ATOM      2  C   UNL A   1      34.045  21.104  25.490  1.00  0.00     0.023 C 
BRANCH   2   3
ATOM      3  C   UNL A   1      33.971  21.475  26.969  1.00  0.00     0.116 C 
BRANCH   3   4
ATOM      4  N   UNL A   1      32.731  22.155  27.309  1.00  0.00    -0.356 N 
ATOM      5  C   UNL A   1      32.162  23.278  26.790  1.00  0.00     0.223 C 
ATOM      6  O   UNL A   1      31.077  23.644  27.248  1.00  0.00    -0.275 OA
ATOM      7  H   UNL A   1      32.217  21.732  28.035  1.00  0.00     0.163 HD
BRANCH   5   8
ATOM      8  C   UNL A   1      32.819  24.062  25.663  1.00  0.00     0.082 C 
ATOM      9  N   UNL A   1      32.603  26.165  23.758  1.00  0.00    -0.353 N 
ATOM     10  C   UNL A   1      32.513  24.815  23.243  1.00  0.00     0.119 C 
ATOM     11  C   UNL A   1      33.458  26.412  24.906  1.00  0.00     0.119 C 
ATOM     12  C   UNL A   1      32.097  23.839  24.328  1.00  0.00     0.035 C 
ATOM     13  C   UNL A   1      33.037  25.527  26.073  1.00  0.00     0.035 C 
BRANCH   9  14
ATOM     14  C   UNL A   1      31.669  27.119  23.378  1.00  0.00     0.172 A 
ATOM     15  C   UNL A   1      32.067  28.259  22.628  1.00  0.00     0.167 A 
ATOM     16  N   UNL A   1      31.199  29.199  22.212  1.00  0.00    -0.226 NA
ATOM     17  C   UNL A   1      29.911  29.002  22.527  1.00  0.00     0.091 A 
ATOM     18  N   UNL A   1      30.363  26.921  23.673  1.00  0.00    -0.225 NA
ATOM     19  C   UNL A   1      28.973  29.940  22.110  1.00  0.00     0.031 A 
ATOM     20  C   UNL A   1      29.487  27.868  23.264  1.00  0.00     0.091 A 
ATOM     21  C   UNL A   1      27.620  29.799  22.411  1.00  0.00     0.002 A 
ATOM     22  C   UNL A   1      28.133  27.746  23.563  1.00  0.00     0.031 A 
ATOM     23  C   UNL A   1      27.199  28.700  23.147  1.00  0.00     0.002 A 
BRANCH  15  24
ATOM     24  N   UNL A   1      33.394  28.465  22.260  1.00  0.00    -0.381 N 
ATOM     25  H   UNL A   1      34.113  27.955  22.700  1.00  0.00     0.158 HD
ATOM     26  H   UNL A   1      33.615  29.120  21.559  1.00  0.00     0.158 HD
ENDBRANCH  15  24
ENDBRANCH   9  14
ENDBRANCH   5   8
ENDBRANCH   3   4
ENDBRANCH   2   3
ENDBRANCH   1   2
BRANCH   1  27
ATOM     27  C   UNL A   1      36.466  21.972  25.619  1.00  0.00     0.116 C 
BRANCH  27  28
ATOM     28  N   UNL A   1      37.505  20.953  25.551  1.00  0.00    -0.352 N 
ATOM     29  C   UNL A   1      38.828  21.055  25.916  1.00  0.00     0.251 C 
ATOM     30  H   UNL A   1      37.224  20.077  25.200  1.00  0.00     0.163 HD
ATOM     31  O   UNL A   1      39.602  20.128  25.706  1.00  0.00    -0.269 OA
BRANCH  29  32
ATOM     32  C   UNL A   1      39.304  22.319  26.516  1.00  0.00     0.039 A 
ATOM     33  C   UNL A   1      38.738  23.538  26.133  1.00  0.00     0.014 A 
ATOM     34  C   UNL A   1      40.388  22.282  27.396  1.00  0.00     0.014 A 
ATOM     35  C   UNL A   1      39.366  24.725  26.494  1.00  0.00     0.010 A 
ATOM     36  C   UNL A   1      40.971  23.480  27.814  1.00  0.00     0.010 A 
ATOM     37  C   UNL A   1      40.500  24.709  27.322  1.00  0.00    -0.014 A 
BRANCH  37  38
ATOM     38  C   UNL A   1      41.206  25.975  27.643  1.00  0.00     0.031 A 
ATOM     39  C   UNL A   1      40.534  27.032  28.479  1.00  0.00     0.074 A 
ATOM     40  C   UNL A   1      42.466  26.161  27.206  1.00  0.00     0.049 A 
ATOM     41  N   UNL A   1      40.970  28.222  28.803  1.00  0.00    -0.248 NA
ATOM     42  C   UNL A   1      39.204  26.716  29.026  1.00  0.00     0.031 C 
ATOM     43  C   UNL A   1      43.231  25.206  26.403  1.00  0.00     0.029 A 
ATOM     44  N   UNL A   1      43.327  27.213  27.381  1.00  0.00    -0.354 N 
ATOM     45  C   UNL A   1      39.955  28.812  29.548  1.00  0.00     0.074 A 
ATOM     46  C   UNL A   1      38.880  27.848  29.636  1.00  0.00     0.031 C 
ATOM     47  C   UNL A   1      44.459  25.701  26.183  1.00  0.00     0.029 A 
ATOM     48  C   UNL A   1      44.548  27.030  26.779  1.00  0.00     0.049 A 
ATOM     49  H   UNL A   1      43.093  28.024  27.890  1.00  0.00     0.167 HD
ATOM     50  C   UNL A   1      39.930  30.038  30.122  1.00  0.00     0.034 A 
ATOM     51  C   UNL A   1      45.617  27.845  26.698  1.00  0.00     0.034 A 
ATOM     52  C   UNL A   1      41.021  30.974  30.087  1.00  0.00     0.049 A 
ATOM     53  C   UNL A   1      45.554  29.204  27.329  1.00  0.00     0.074 A 
ATOM     54  C   UNL A   1      41.091  32.232  30.660  1.00  0.00     0.029 A 
ATOM     55  N   UNL A   1      42.236  30.749  29.462  1.00  0.00    -0.354 N 
ATOM     56  N   UNL A   1      44.595  29.731  28.053  1.00  0.00    -0.248 NA
ATOM     57  C   UNL A   1      46.716  30.082  27.134  1.00  0.00     0.031 C 
ATOM     58  C   UNL A   1      42.353  32.768  30.386  1.00  0.00     0.029 A 
ATOM     59  C   UNL A   1      43.065  31.843  29.638  1.00  0.00     0.049 A 
ATOM     60  H   UNL A   1      42.475  29.933  28.965  1.00  0.00     0.167 HD
ATOM     61  C   UNL A   1      45.040  31.000  28.401  1.00  0.00     0.074 A 
ATOM     62  C   UNL A   1      46.365  31.152  27.836  1.00  0.00     0.031 C 
ATOM     63  C   UNL A   1      44.395  31.962  29.104  1.00  0.00     0.034 A 
BRANCH  50  64
ATOM     64  C   UNL A   1      38.702  30.434  30.894  1.00  0.00     0.023 A 
ATOM     65  C   UNL A   1      38.658  30.190  32.280  1.00  0.00     0.012 A 
ATOM     66  C   UNL A   1      37.650  31.137  30.276  1.00  0.00     0.148 A 
ATOM     67  C   UNL A   1      37.582  30.637  33.043  1.00  0.00     0.002 A 
ATOM     68  C   UNL A   1      36.591  31.601  31.047  1.00  0.00     0.091 A 
ATOM     69  F   UNL A   1      37.713  31.347  28.953  1.00  0.00    -0.205 F 
ATOM     70  C   UNL A   1      36.554  31.350  32.429  1.00  0.00     0.022 A 
BRANCH  68  71
ATOM     71  S   UNL A   1      35.237  32.568  30.368  1.00  0.00     0.127 S 
ATOM     72  O   UNL A   1      34.343  32.673  31.521  1.00  0.00    -0.237 OA
ATOM     73  O   UNL A   1      35.908  33.816  30.001  1.00  0.00    -0.237 OA
ATOM     74  O   UNL A   1      34.712  31.799  29.249  1.00  0.00    -0.744 OA
ENDBRANCH  68  71
ENDBRANCH  50  64
BRANCH  51  75
ATOM     75  C   UNL A   1      46.850  27.372  26.014  1.00  0.00     0.023 A 
ATOM     76  C   UNL A   1      47.021  27.652  24.645  1.00  0.00     0.012 A 
ATOM     77  C   UNL A   1      47.871  26.707  26.717  1.00  0.00     0.148 A 
ATOM     78  C   UNL A   1      48.189  27.271  23.986  1.00  0.00     0.002 A 
ATOM     79  C   UNL A   1      49.050  26.369  26.065  1.00  0.00     0.091 A 
ATOM     80  F   UNL A   1      47.674  26.438  28.016  1.00  0.00    -0.205 F 
ATOM     81  C   UNL A   1      49.207  26.641  24.698  1.00  0.00     0.022 A 
BRANCH  79  82
ATOM     82  S   UNL A   1      50.458  25.661  26.928  1.00  0.00     0.127 S 
ATOM     83  O   UNL A   1      51.421  25.497  25.842  1.00  0.00    -0.237 OA
ATOM     84  O   UNL A   1      50.784  26.716  27.889  1.00  0.00    -0.237 OA
ATOM     85  O   UNL A   1      49.968  24.430  27.532  1.00  0.00    -0.744 OA
ENDBRANCH  79  82
ENDBRANCH  51  75
BRANCH  63  86
ATOM     86  C   UNL A   1      45.102  33.274  29.295  1.00  0.00     0.023 A 
ATOM     87  C   UNL A   1      46.006  33.411  30.365  1.00  0.00     0.012 A 
ATOM     88  C   UNL A   1      44.942  34.327  28.376  1.00  0.00     0.148 A 
ATOM     89  C   UNL A   1      46.736  34.587  30.526  1.00  0.00     0.002 A 
ATOM     90  C   UNL A   1      45.695  35.485  28.525  1.00  0.00     0.091 A 
ATOM     91  F   UNL A   1      44.061  34.178  27.376  1.00  0.00    -0.205 F 
ATOM     92  C   UNL A   1      46.590  35.619  29.601  1.00  0.00     0.022 A 
BRANCH  90  93
ATOM     93  S   UNL A   1      45.622  36.838  27.345  1.00  0.00     0.127 S 
ATOM     94  O   UNL A   1      46.334  37.896  28.061  1.00  0.00    -0.237 OA
ATOM     95  O   UNL A   1      46.341  36.289  26.194  1.00  0.00    -0.237 OA
ATOM     96  O   UNL A   1      44.206  37.085  27.108  1.00  0.00    -0.744 OA
ENDBRANCH  90  93
ENDBRANCH  63  86
ENDBRANCH  37  38
ENDBRANCH  29  32
ENDBRANCH  27  28
ENDBRANCH   1  27
TORSDOF 16
ENDMDL
MODEL 2
REMARK VINA RESULT:     -13.0      5.218     10.404
REMARK SMILES Nc1nc2ccccc2nc1N1CCC(C(=O)NCCCCNC(=O)c2ccc(-c3c4nc(c(-c5cccc(S(=O)(=O)[O-])c5F)c5ccc([nH]5)c(-c5cccc(S(=O)(=O)[O-])c5F)c5nc(c(-c6cccc(S(=O)(=O)[O-])c6F)c6ccc3[nH]6)C=C5)C=C4)cc2)CC1
REMARK SMILES IDX 21 1 20 2 19 3 18 4 16 5 17 6 15 8 12 9 13 10 90 11 14 12
REMARK SMILES IDX 89 13 11 14 2 15 3 16 4 17 10 18 5 19 9 20 6 21 8 22 7 23
REMARK SMILES IDX 1 24 22 27 23 28 24 29 25 31 26 32 27 33 88 34 28 35 87 36
REMARK SMILES IDX 29 37 30 38 31 39 81 40 32 41 86 42 80 43 82 44 33 45 85 46
REMARK SMILES IDX 79 47 78 48 34 50 66 51 46 52 65 53 47 54 50 55 64 56 83 57
REMARK SMILES IDX 48 58 49 59 63 61 84 62 51 63 35 64 36 65 44 66 37 67 39 68
REMARK SMILES IDX 45 69 38 70 40 71 41 72 42 73 43 74 67 75 68 76 76 77 69 78
REMARK SMILES IDX 71 79 77 80 70 81 72 82 73 83 74 84 75 85 52 86 53 87 61 88
REMARK SMILES IDX 54 89 56 90 62 91 55 92 57 93 58 94 59 95 60 96
REMARK H PARENT 18 7 1 25 1 26 23 30 82 49 50 60
REMARK Flexibility Score: inf
ROOT
ATOM      1  C   UNL A   1      31.483  29.057  25.081  1.00  0.00     0.023 C 
ENDROOT
BRANCH   1   2
ATOM      2  C   UNL A   1      31.588  29.065  23.558  1.00  0.00     0.023 C 
BRANCH   2   3
ATOM      3  C   UNL A   1      33.009  28.949  23.012  1.00  0.00     0.116 C 
BRANCH   3   4
ATOM      4  N   UNL A   1      33.142  27.879  22.035  1.00  0.00    -0.356 N 
ATOM      5  C   UNL A   1      33.172  26.528  22.196  1.00  0.00     0.223 C 
ATOM      6  O   UNL A   1      33.275  25.825  21.187  1.00  0.00    -0.275 OA
ATOM      7  H   UNL A   1      33.222  28.183  21.102  1.00  0.00     0.163 HD
BRANCH   5   8
ATOM      8  C   UNL A   1      33.063  25.881  23.570  1.00  0.00     0.082 C 
ATOM      9  N   UNL A   1      33.175  23.494  25.115  1.00  0.00    -0.353 N 
ATOM     10  C   UNL A   1      31.859  24.052  24.882  1.00  0.00     0.119 C 
ATOM     11  C   UNL A   1      34.300  24.405  25.241  1.00  0.00     0.119 C 
ATOM     12  C   UNL A   1      31.850  24.945  23.655  1.00  0.00     0.035 C 
ATOM     13  C   UNL A   1      34.410  25.277  23.997  1.00  0.00     0.035 C 
BRANCH   9  14
ATOM     14  C   UNL A   1      33.405  22.141  24.907  1.00  0.00     0.172 A 
ATOM     15  C   UNL A   1      34.366  21.445  25.689  1.00  0.00     0.167 A 
ATOM     16  N   UNL A   1      34.610  20.129  25.545  1.00  0.00    -0.226 NA
ATOM     17  C   UNL A   1      33.879  19.485  24.624  1.00  0.00     0.091 A 
ATOM     18  N   UNL A   1      32.659  21.476  23.993  1.00  0.00    -0.225 NA
ATOM     19  C   UNL A   1      34.084  18.121  24.447  1.00  0.00     0.031 A 
ATOM     20  C   UNL A   1      32.906  20.155  23.839  1.00  0.00     0.091 A 
ATOM     21  C   UNL A   1      33.364  17.395  23.500  1.00  0.00     0.002 A 
ATOM     22  C   UNL A   1      32.200  19.416  22.894  1.00  0.00     0.031 A 
ATOM     23  C   UNL A   1      32.422  18.046  22.717  1.00  0.00     0.002 A 
BRANCH  15  24
ATOM     24  N   UNL A   1      35.112  22.087  26.674  1.00  0.00    -0.381 N 
ATOM     25  H   UNL A   1      36.090  22.155  26.586  1.00  0.00     0.158 HD
ATOM     26  H   UNL A   1      34.661  22.474  27.459  1.00  0.00     0.158 HD
ENDBRANCH  15  24
ENDBRANCH   9  14
ENDBRANCH   5   8
ENDBRANCH   3   4
ENDBRANCH   2   3
ENDBRANCH   1   2
BRANCH   1  27
ATOM     27  C   UNL A   1      32.644  29.713  25.816  1.00  0.00     0.116 C 
BRANCH  27  28
ATOM     28  N   UNL A   1      32.328  31.038  26.331  1.00  0.00    -0.352 N 
ATOM     29  C   UNL A   1      33.054  31.811  27.207  1.00  0.00     0.251 C 
ATOM     30  H   UNL A   1      31.485  31.433  26.009  1.00  0.00     0.163 HD
ATOM     31  O   UNL A   1      32.601  32.873  27.620  1.00  0.00    -0.269 OA
BRANCH  29  32
ATOM     32  C   UNL A   1      34.364  31.312  27.677  1.00  0.00     0.039 A 
ATOM     33  C   UNL A   1      34.514  29.975  28.055  1.00  0.00     0.014 A 
ATOM     34  C   UNL A   1      35.417  32.217  27.827  1.00  0.00     0.014 A 
ATOM     35  C   UNL A   1      35.658  29.584  28.742  1.00  0.00     0.010 A 
ATOM     36  C   UNL A   1      36.593  31.800  28.454  1.00  0.00     0.010 A 
ATOM     37  C   UNL A   1      36.702  30.497  28.966  1.00  0.00    -0.014 A 
BRANCH  37  38
ATOM     38  C   UNL A   1      37.886  30.091  29.763  1.00  0.00     0.031 A 
ATOM     39  C   UNL A   1      38.926  29.176  29.172  1.00  0.00     0.074 A 
ATOM     40  C   UNL A   1      38.043  30.572  31.011  1.00  0.00     0.049 A 
ATOM     41  N   UNL A   1      39.989  28.665  29.740  1.00  0.00    -0.248 NA
ATOM     42  C   UNL A   1      38.757  28.783  27.763  1.00  0.00     0.031 C 
ATOM     43  C   UNL A   1      37.116  31.479  31.689  1.00  0.00     0.029 A 
ATOM     44  N   UNL A   1      39.042  30.370  31.928  1.00  0.00    -0.354 N 
ATOM     45  C   UNL A   1      40.586  27.858  28.778  1.00  0.00     0.074 A 
ATOM     46  C   UNL A   1      39.774  27.949  27.585  1.00  0.00     0.031 C 
ATOM     47  C   UNL A   1      37.605  31.783  32.901  1.00  0.00     0.029 A 
ATOM     48  C   UNL A   1      38.848  31.048  33.108  1.00  0.00     0.049 A 
ATOM     49  H   UNL A   1      39.823  29.795  31.759  1.00  0.00     0.167 HD
ATOM     50  C   UNL A   1      41.719  27.123  28.876  1.00  0.00     0.034 A 
ATOM     51  C   UNL A   1      39.579  31.064  34.240  1.00  0.00     0.034 A 
ATOM     52  C   UNL A   1      42.561  27.079  30.041  1.00  0.00     0.049 A 
ATOM     53  C   UNL A   1      40.821  30.227  34.324  1.00  0.00     0.074 A 
ATOM     54  C   UNL A   1      43.741  26.377  30.221  1.00  0.00     0.029 A 
ATOM     55  N   UNL A   1      42.325  27.775  31.214  1.00  0.00    -0.354 N 
ATOM     56  N   UNL A   1      41.383  29.494  33.394  1.00  0.00    -0.248 NA
ATOM     57  C   UNL A   1      41.529  30.217  35.611  1.00  0.00     0.031 C 
ATOM     58  C   UNL A   1      44.222  26.654  31.504  1.00  0.00     0.029 A 
ATOM     59  C   UNL A   1      43.338  27.525  32.122  1.00  0.00     0.049 A 
ATOM     60  H   UNL A   1      41.551  28.361  31.379  1.00  0.00     0.167 HD
ATOM     61  C   UNL A   1      42.512  28.938  33.982  1.00  0.00     0.074 A 
ATOM     62  C   UNL A   1      42.571  29.442  35.339  1.00  0.00     0.031 C 
ATOM     63  C   UNL A   1      43.404  28.066  33.453  1.00  0.00     0.034 A 
BRANCH  50  64
ATOM     64  C   UNL A   1      42.161  26.340  27.672  1.00  0.00     0.023 A 
ATOM     65  C   UNL A   1      43.016  26.952  26.734  1.00  0.00     0.012 A 
ATOM     66  C   UNL A   1      41.824  24.981  27.524  1.00  0.00     0.148 A 
ATOM     67  C   UNL A   1      43.528  26.223  25.663  1.00  0.00     0.002 A 
ATOM     68  C   UNL A   1      42.358  24.253  26.467  1.00  0.00     0.091 A 
ATOM     69  F   UNL A   1      41.002  24.426  28.426  1.00  0.00    -0.205 F 
ATOM     70  C   UNL A   1      43.208  24.873  25.535  1.00  0.00     0.022 A 
BRANCH  68  71
ATOM     71  S   UNL A   1      42.048  22.499  26.231  1.00  0.00     0.127 S 
ATOM     72  O   UNL A   1      42.781  22.234  24.994  1.00  0.00    -0.237 OA
ATOM     73  O   UNL A   1      42.648  21.919  27.433  1.00  0.00    -0.237 OA
ATOM     74  O   UNL A   1      40.603  22.353  26.133  1.00  0.00    -0.744 OA
ENDBRANCH  68  71
ENDBRANCH  50  64
BRANCH  51  75
ATOM     75  C   UNL A   1      39.162  31.935  35.369  1.00  0.00     0.023 A 
ATOM     76  C   UNL A   1      39.393  33.321  35.284  1.00  0.00     0.012 A 
ATOM     77  C   UNL A   1      38.489  31.413  36.490  1.00  0.00     0.148 A 
ATOM     78  C   UNL A   1      38.964  34.173  36.302  1.00  0.00     0.002 A 
ATOM     79  C   UNL A   1      38.026  32.273  37.478  1.00  0.00     0.091 A 
ATOM     80  F   UNL A   1      38.297  30.088  36.554  1.00  0.00    -0.205 F 
ATOM     81  C   UNL A   1      38.272  33.651  37.391  1.00  0.00     0.022 A 
BRANCH  79  82
ATOM     82  S   UNL A   1      37.026  31.703  38.858  1.00  0.00     0.127 S 
ATOM     83  O   UNL A   1      36.781  30.310  38.493  1.00  0.00    -0.237 OA
ATOM     84  O   UNL A   1      37.934  31.895  39.989  1.00  0.00    -0.237 OA
ATOM     85  O   UNL A   1      35.854  32.568  38.875  1.00  0.00    -0.744 OA
ENDBRANCH  79  82
ENDBRANCH  51  75
BRANCH  63  86
ATOM     86  C   UNL A   1      44.517  27.586  34.341  1.00  0.00     0.023 A 
ATOM     87  C   UNL A   1      45.704  28.338  34.411  1.00  0.00     0.012 A 
ATOM     88  C   UNL A   1      44.356  26.456  35.163  1.00  0.00     0.148 A 
ATOM     89  C   UNL A   1      46.726  27.965  35.282  1.00  0.00     0.002 A 
ATOM     90  C   UNL A   1      45.366  26.106  36.051  1.00  0.00     0.091 A 
ATOM     91  F   UNL A   1      43.222  25.747  35.064  1.00  0.00    -0.205 F 
ATOM     92  C   UNL A   1      46.553  26.857  36.109  1.00  0.00     0.022 A 
BRANCH  90  93
ATOM     93  S   UNL A   1      45.204  24.736  37.201  1.00  0.00     0.127 S 
ATOM     94  O   UNL A   1      44.014  25.122  37.957  1.00  0.00    -0.237 OA
ATOM     95  O   UNL A   1      45.015  23.595  36.305  1.00  0.00    -0.237 OA
ATOM     96  O   UNL A   1      46.446  24.704  37.962  1.00  0.00    -0.744 OA
ENDBRANCH  90  93
ENDBRANCH  63  86
ENDBRANCH  37  38
ENDBRANCH  29  32
ENDBRANCH  27  28
ENDBRANCH   1  27
TORSDOF 16
ENDMDL
MODEL 3
REMARK VINA RESULT:     -12.9      1.401      7.587
REMARK SMILES Nc1nc2ccccc2nc1N1CCC(C(=O)NCCCCNC(=O)c2ccc(-c3c4nc(c(-c5cccc(S(=O)(=O)[O-])c5F)c5ccc([nH]5)c(-c5cccc(S(=O)(=O)[O-])c5F)c5nc(c(-c6cccc(S(=O)(=O)[O-])c6F)c6ccc3[nH]6)C=C5)C=C4)cc2)CC1
REMARK SMILES IDX 21 1 20 2 19 3 18 4 16 5 17 6 15 8 12 9 13 10 90 11 14 12
REMARK SMILES IDX 89 13 11 14 2 15 3 16 4 17 10 18 5 19 9 20 6 21 8 22 7 23
REMARK SMILES IDX 1 24 22 27 23 28 24 29 25 31 26 32 27 33 88 34 28 35 87 36
REMARK SMILES IDX 29 37 30 38 31 39 81 40 32 41 86 42 80 43 82 44 33 45 85 46
REMARK SMILES IDX 79 47 78 48 34 50 66 51 46 52 65 53 47 54 50 55 64 56 83 57
REMARK SMILES IDX 48 58 49 59 63 61 84 62 51 63 35 64 36 65 44 66 37 67 39 68
REMARK SMILES IDX 45 69 38 70 40 71 41 72 42 73 43 74 67 75 68 76 76 77 69 78
REMARK SMILES IDX 71 79 77 80 70 81 72 82 73 83 74 84 75 85 52 86 53 87 61 88
REMARK SMILES IDX 54 89 56 90 62 91 55 92 57 93 58 94 59 95 60 96
REMARK H PARENT 18 7 1 25 1 26 23 30 82 49 50 60
REMARK Flexibility Score: inf
ROOT
ATOM      1  C   UNL A   1      35.848  20.999  25.153  1.00  0.00     0.023 C 
ENDROOT
BRANCH   1   2
ATOM      2  C   UNL A   1      34.889  21.435  26.257  1.00  0.00     0.023 C 
BRANCH   2   3
ATOM      3  C   UNL A   1      33.439  20.999  26.058  1.00  0.00     0.116 C 
BRANCH   3   4
ATOM      4  N   UNL A   1      32.499  21.870  26.747  1.00  0.00    -0.356 N 
ATOM      5  C   UNL A   1      32.174  23.174  26.531  1.00  0.00     0.223 C 
ATOM      6  O   UNL A   1      31.317  23.686  27.256  1.00  0.00    -0.275 OA
ATOM      7  H   UNL A   1      32.019  21.445  27.494  1.00  0.00     0.163 HD
BRANCH   5   8
ATOM      8  C   UNL A   1      32.821  23.988  25.420  1.00  0.00     0.082 C 
ATOM      9  N   UNL A   1      32.608  26.174  23.609  1.00  0.00    -0.353 N 
ATOM     10  C   UNL A   1      32.470  24.849  23.042  1.00  0.00     0.119 C 
ATOM     11  C   UNL A   1      33.499  26.352  24.744  1.00  0.00     0.119 C 
ATOM     12  C   UNL A   1      32.058  23.838  24.096  1.00  0.00     0.035 C 
ATOM     13  C   UNL A   1      33.086  25.429  25.883  1.00  0.00     0.035 C 
BRANCH   9  14
ATOM     14  C   UNL A   1      31.689  27.165  23.294  1.00  0.00     0.172 A 
ATOM     15  C   UNL A   1      32.107  28.352  22.634  1.00  0.00     0.167 A 
ATOM     16  N   UNL A   1      31.254  29.332  22.283  1.00  0.00    -0.226 NA
ATOM     17  C   UNL A   1      29.961  29.129  22.574  1.00  0.00     0.091 A 
ATOM     18  N   UNL A   1      30.378  26.962  23.565  1.00  0.00    -0.225 NA
ATOM     19  C   UNL A   1      29.038  30.106  22.220  1.00  0.00     0.031 A 
ATOM     20  C   UNL A   1      29.517  27.948  23.221  1.00  0.00     0.091 A 
ATOM     21  C   UNL A   1      27.681  29.961  22.501  1.00  0.00     0.002 A 
ATOM     22  C   UNL A   1      28.159  27.822  23.501  1.00  0.00     0.031 A 
ATOM     23  C   UNL A   1      27.241  28.816  23.150  1.00  0.00     0.002 A 
BRANCH  15  24
ATOM     24  N   UNL A   1      33.440  28.568  22.292  1.00  0.00    -0.381 N 
ATOM     25  H   UNL A   1      34.155  28.343  22.930  1.00  0.00     0.158 HD
ATOM     26  H   UNL A   1      33.667  28.946  21.412  1.00  0.00     0.158 HD
ENDBRANCH  15  24
ENDBRANCH   9  14
ENDBRANCH   5   8
ENDBRANCH   3   4
ENDBRANCH   2   3
ENDBRANCH   1   2
BRANCH   1  27
ATOM     27  C   UNL A   1      37.253  21.577  25.246  1.00  0.00     0.116 C 
BRANCH  27  28
ATOM     28  N   UNL A   1      38.277  20.573  25.499  1.00  0.00    -0.352 N 
ATOM     29  C   UNL A   1      39.497  20.731  26.116  1.00  0.00     0.251 C 
ATOM     30  H   UNL A   1      38.069  19.662  25.188  1.00  0.00     0.163 HD
ATOM     31  O   UNL A   1      40.292  19.799  26.166  1.00  0.00    -0.269 OA
BRANCH  29  32
ATOM     32  C   UNL A   1      39.847  22.056  26.670  1.00  0.00     0.039 A 
ATOM     33  C   UNL A   1      39.219  23.209  26.190  1.00  0.00     0.014 A 
ATOM     34  C   UNL A   1      40.877  22.145  27.608  1.00  0.00     0.014 A 
ATOM     35  C   UNL A   1      39.739  24.456  26.517  1.00  0.00     0.010 A 
ATOM     36  C   UNL A   1      41.348  23.403  27.990  1.00  0.00     0.010 A 
ATOM     37  C   UNL A   1      40.822  24.566  27.406  1.00  0.00    -0.014 A 
BRANCH  37  38
ATOM     38  C   UNL A   1      41.415  25.896  27.693  1.00  0.00     0.031 A 
ATOM     39  C   UNL A   1      42.798  26.237  27.202  1.00  0.00     0.074 A 
ATOM     40  C   UNL A   1      40.697  26.811  28.371  1.00  0.00     0.049 A 
ATOM     41  N   UNL A   1      43.500  27.320  27.413  1.00  0.00    -0.248 NA
ATOM     42  C   UNL A   1      43.482  25.237  26.364  1.00  0.00     0.031 C 
ATOM     43  C   UNL A   1      39.341  26.609  28.884  1.00  0.00     0.029 A 
ATOM     44  N   UNL A   1      41.004  28.095  28.739  1.00  0.00    -0.354 N 
ATOM     45  C   UNL A   1      44.720  27.115  26.777  1.00  0.00     0.074 A 
ATOM     46  C   UNL A   1      44.663  25.806  26.165  1.00  0.00     0.031 C 
ATOM     47  C   UNL A   1      38.920  27.739  29.471  1.00  0.00     0.029 A 
ATOM     48  C   UNL A   1      39.995  28.725  29.427  1.00  0.00     0.049 A 
ATOM     49  H   UNL A   1      41.864  28.526  28.531  1.00  0.00     0.167 HD
ATOM     50  C   UNL A   1      45.782  27.951  26.696  1.00  0.00     0.034 A 
ATOM     51  C   UNL A   1      39.943  29.953  29.977  1.00  0.00     0.034 A 
ATOM     52  C   UNL A   1      45.817  29.276  27.252  1.00  0.00     0.049 A 
ATOM     53  C   UNL A   1      41.142  30.850  29.885  1.00  0.00     0.074 A 
ATOM     54  C   UNL A   1      46.846  30.202  27.199  1.00  0.00     0.029 A 
ATOM     55  N   UNL A   1      44.777  29.871  27.945  1.00  0.00    -0.354 N 
ATOM     56  N   UNL A   1      42.274  30.648  29.256  1.00  0.00    -0.248 NA
ATOM     57  C   UNL A   1      41.058  32.144  30.578  1.00  0.00     0.031 C 
ATOM     58  C   UNL A   1      46.424  31.361  27.856  1.00  0.00     0.029 A 
ATOM     59  C   UNL A   1      45.135  31.153  28.321  1.00  0.00     0.049 A 
ATOM     60  H   UNL A   1      43.911  29.446  28.141  1.00  0.00     0.167 HD
ATOM     61  C   UNL A   1      43.036  31.789  29.475  1.00  0.00     0.074 A 
ATOM     62  C   UNL A   1      42.227  32.690  30.269  1.00  0.00     0.031 C 
ATOM     63  C   UNL A   1      44.303  32.053  29.076  1.00  0.00     0.034 A 
BRANCH  50  64
ATOM     64  C   UNL A   1      46.990  27.488  25.929  1.00  0.00     0.023 A 
ATOM     65  C   UNL A   1      47.904  26.619  26.554  1.00  0.00     0.012 A 
ATOM     66  C   UNL A   1      47.161  27.823  24.572  1.00  0.00     0.148 A 
ATOM     67  C   UNL A   1      48.976  26.088  25.840  1.00  0.00     0.002 A 
ATOM     68  C   UNL A   1      48.219  27.271  23.859  1.00  0.00     0.091 A 
ATOM     69  F   UNL A   1      46.281  28.660  24.005  1.00  0.00    -0.205 F 
ATOM     70  C   UNL A   1      49.129  26.406  24.492  1.00  0.00     0.022 A 
BRANCH  68  71
ATOM     71  S   UNL A   1      48.484  27.577  22.108  1.00  0.00     0.127 S 
ATOM     72  O   UNL A   1      48.650  26.217  21.594  1.00  0.00    -0.237 OA
ATOM     73  O   UNL A   1      47.233  28.227  21.720  1.00  0.00    -0.237 OA
ATOM     74  O   UNL A   1      49.669  28.417  22.019  1.00  0.00    -0.744 OA
ENDBRANCH  68  71
ENDBRANCH  50  64
BRANCH  51  75
ATOM     75  C   UNL A   1      38.691  30.409  30.636  1.00  0.00     0.023 A 
ATOM     76  C   UNL A   1      38.548  30.236  32.025  1.00  0.00     0.012 A 
ATOM     77  C   UNL A   1      37.676  31.062  29.912  1.00  0.00     0.148 A 
ATOM     78  C   UNL A   1      37.409  30.701  32.683  1.00  0.00     0.002 A 
ATOM     79  C   UNL A   1      36.565  31.561  30.580  1.00  0.00     0.091 A 
ATOM     80  F   UNL A   1      37.829  31.198  28.587  1.00  0.00    -0.205 F 
ATOM     81  C   UNL A   1      36.425  31.374  31.964  1.00  0.00     0.022 A 
BRANCH  79  82
ATOM     82  S   UNL A   1      35.305  32.540  29.754  1.00  0.00     0.127 S 
ATOM     83  O   UNL A   1      34.764  31.581  28.794  1.00  0.00    -0.237 OA
ATOM     84  O   UNL A   1      34.410  32.877  30.862  1.00  0.00    -0.237 OA
ATOM     85  O   UNL A   1      36.007  33.681  29.183  1.00  0.00    -0.744 OA
ENDBRANCH  79  82
ENDBRANCH  51  75
BRANCH  63  86
ATOM     86  C   UNL A   1      44.906  33.362  29.498  1.00  0.00     0.023 A 
ATOM     87  C   UNL A   1      45.685  33.407  30.669  1.00  0.00     0.012 A 
ATOM     88  C   UNL A   1      44.780  34.513  28.698  1.00  0.00     0.148 A 
ATOM     89  C   UNL A   1      46.323  34.587  31.048  1.00  0.00     0.002 A 
ATOM     90  C   UNL A   1      45.442  35.678  29.066  1.00  0.00     0.091 A 
ATOM     91  F   UNL A   1      44.017  34.448  27.597  1.00  0.00    -0.205 F 
ATOM     92  C   UNL A   1      46.211  35.718  30.242  1.00  0.00     0.022 A 
BRANCH  90  93
ATOM     93  S   UNL A   1      45.411  37.162  28.054  1.00  0.00     0.127 S 
ATOM     94  O   UNL A   1      46.254  38.069  28.831  1.00  0.00    -0.237 OA
ATOM     95  O   UNL A   1      46.006  36.699  26.799  1.00  0.00    -0.237 OA
ATOM     96  O   UNL A   1      44.009  37.544  27.950  1.00  0.00    -0.744 OA
ENDBRANCH  90  93
ENDBRANCH  63  86
ENDBRANCH  37  38
ENDBRANCH  29  32
ENDBRANCH  27  28
ENDBRANCH   1  27
TORSDOF 16
ENDMDL
