MODEL 1
REMARK VINA RESULT:     -12.1      0.000      0.000
REMARK SMILES O=C(NCCCCNC(=O)c1ccccc1NC(=S)NC(=O)c1ccc2ccccc2c1)c1ccc(-c2c3nc(c(-c4cccc(S(=O)(=O)[O-])c4F)c4ccc([nH]4)c(-c4cccc(S(=O)(=O)[O-])c4F)c4nc(c(-c5cccc(S(=O)(=O)[O-])c5F)c5ccc2[nH]5)C=C4)C=C3)cc1
REMARK SMILES IDX 6 1 5 2 4 3 3 4 1 5 2 6 33 8 34 9 95 10 35 11 94 12 36 13
REMARK SMILES IDX 37 14 38 15 88 16 39 17 93 18 87 19 89 20 40 21 92 22 86 23
REMARK SMILES IDX 85 24 41 26 73 27 53 28 72 29 54 30 57 31 71 32 90 33 55 34
REMARK SMILES IDX 56 35 70 37 91 38 58 39 42 40 43 41 51 42 44 43 46 44 52 45
REMARK SMILES IDX 45 46 47 47 48 48 49 49 50 50 74 51 75 52 83 53 76 54 78 55
REMARK SMILES IDX 84 56 77 57 79 58 80 59 81 60 82 61 59 62 60 63 68 64 61 65
REMARK SMILES IDX 63 66 69 67 62 68 64 69 65 70 66 71 67 72 7 73 8 74 9 75
REMARK SMILES IDX 10 77 11 78 12 79 16 80 13 81 15 82 14 83 17 84 18 86 19 87
REMARK SMILES IDX 20 88 21 89 22 91 23 92 24 93 32 94 25 95 31 96 26 97 30 98
REMARK SMILES IDX 27 99 29 100 28 101
REMARK H PARENT 3 7 89 25 57 36 8 76 17 85 20 90
REMARK Flexibility Score: inf
ROOT
ATOM      1  C   UNL A   1      33.539  31.050  27.193  1.00  0.00     0.023 C 
ENDROOT
BRANCH   1   2
ATOM      2  C   UNL A   1      33.172  32.284  28.009  1.00  0.00     0.023 C 
BRANCH   2   3
ATOM      3  C   UNL A   1      33.496  33.598  27.313  1.00  0.00     0.116 C 
BRANCH   3   4
ATOM      4  N   UNL A   1      32.922  34.741  27.999  1.00  0.00    -0.352 N 
ATOM      5  O   UNL A   1      32.524  36.058  29.790  1.00  0.00    -0.269 OA
ATOM      6  C   UNL A   1      33.215  35.194  29.264  1.00  0.00     0.251 C 
ATOM      7  H   UNL A   1      32.244  35.252  27.501  1.00  0.00     0.163 HD
BRANCH   6   8
ATOM      8  C   UNL A   1      34.354  34.581  29.978  1.00  0.00     0.039 A 
ATOM      9  C   UNL A   1      35.646  34.721  29.464  1.00  0.00     0.014 A 
ATOM     10  C   UNL A   1      34.118  33.792  31.103  1.00  0.00     0.014 A 
ATOM     11  C   UNL A   1      36.666  33.926  29.961  1.00  0.00     0.010 A 
ATOM     12  C   UNL A   1      35.180  33.096  31.684  1.00  0.00     0.010 A 
ATOM     13  C   UNL A   1      36.456  33.131  31.099  1.00  0.00    -0.014 A 
BRANCH  13  14
ATOM     14  C   UNL A   1      37.616  32.435  31.708  1.00  0.00     0.031 A 
ATOM     15  C   UNL A   1      38.328  31.314  31.006  1.00  0.00     0.074 A 
ATOM     16  C   UNL A   1      38.026  32.838  32.928  1.00  0.00     0.049 A 
ATOM     17  N   UNL A   1      39.358  30.617  31.414  1.00  0.00    -0.248 NA
ATOM     18  C   UNL A   1      37.822  30.914  29.684  1.00  0.00     0.031 C 
ATOM     19  C   UNL A   1      37.392  33.899  33.719  1.00  0.00     0.029 A 
ATOM     20  N   UNL A   1      39.062  32.414  33.716  1.00  0.00    -0.354 N 
ATOM     21  C   UNL A   1      39.598  29.671  30.425  1.00  0.00     0.074 A 
ATOM     22  C   UNL A   1      38.600  29.879  29.398  1.00  0.00     0.031 C 
ATOM     23  C   UNL A   1      38.071  34.064  34.860  1.00  0.00     0.029 A 
ATOM     24  C   UNL A   1      39.130  33.068  34.923  1.00  0.00     0.049 A 
ATOM     25  H   UNL A   1      39.695  31.709  33.446  1.00  0.00     0.167 HD
ATOM     26  C   UNL A   1      40.565  28.722  30.378  1.00  0.00     0.034 A 
ATOM     27  C   UNL A   1      39.928  32.867  35.988  1.00  0.00     0.034 A 
ATOM     28  C   UNL A   1      41.554  28.525  31.408  1.00  0.00     0.049 A 
ATOM     29  C   UNL A   1      40.967  31.788  35.918  1.00  0.00     0.074 A 
ATOM     30  C   UNL A   1      42.608  27.628  31.427  1.00  0.00     0.029 A 
ATOM     31  N   UNL A   1      41.595  29.210  32.614  1.00  0.00    -0.354 N 
ATOM     32  N   UNL A   1      41.249  30.979  34.927  1.00  0.00    -0.248 NA
ATOM     33  C   UNL A   1      41.815  31.614  37.103  1.00  0.00     0.031 C 
ATOM     34  C   UNL A   1      43.246  27.727  32.668  1.00  0.00     0.029 A 
ATOM     35  C   UNL A   1      42.637  28.736  33.395  1.00  0.00     0.049 A 
ATOM     36  H   UNL A   1      40.975  29.928  32.876  1.00  0.00     0.167 HD
ATOM     37  C   UNL A   1      42.331  30.221  35.355  1.00  0.00     0.074 A 
ATOM     38  C   UNL A   1      42.665  30.686  36.686  1.00  0.00     0.031 C 
ATOM     39  C   UNL A   1      42.982  29.225  34.706  1.00  0.00     0.034 A 
BRANCH  26  40
ATOM     40  C   UNL A   1      40.602  27.810  29.176  1.00  0.00     0.023 A 
ATOM     41  C   UNL A   1      39.700  26.731  29.075  1.00  0.00     0.012 A 
ATOM     42  C   UNL A   1      41.496  28.061  28.115  1.00  0.00     0.148 A 
ATOM     43  C   UNL A   1      39.717  25.892  27.961  1.00  0.00     0.002 A 
ATOM     44  C   UNL A   1      41.472  27.252  26.985  1.00  0.00     0.091 A 
ATOM     45  F   UNL A   1      42.354  29.084  28.230  1.00  0.00    -0.205 F 
ATOM     46  C   UNL A   1      40.596  26.157  26.914  1.00  0.00     0.022 A 
BRANCH  44  47
ATOM     47  S   UNL A   1      42.505  27.558  25.549  1.00  0.00     0.127 S 
ATOM     48  O   UNL A   1      42.269  26.353  24.755  1.00  0.00    -0.237 OA
ATOM     49  O   UNL A   1      41.909  28.776  24.999  1.00  0.00    -0.237 OA
ATOM     50  O   UNL A   1      43.863  27.716  26.052  1.00  0.00    -0.744 OA
ENDBRANCH  44  47
ENDBRANCH  26  40
BRANCH  27  51
ATOM     51  C   UNL A   1      39.766  33.708  37.204  1.00  0.00     0.023 A 
ATOM     52  C   UNL A   1      38.790  33.371  38.161  1.00  0.00     0.012 A 
ATOM     53  C   UNL A   1      40.595  34.825  37.427  1.00  0.00     0.148 A 
ATOM     54  C   UNL A   1      38.617  34.157  39.301  1.00  0.00     0.002 A 
ATOM     55  C   UNL A   1      40.459  35.566  38.592  1.00  0.00     0.091 A 
ATOM     56  F   UNL A   1      41.518  35.124  36.502  1.00  0.00    -0.205 F 
ATOM     57  C   UNL A   1      39.456  35.248  39.521  1.00  0.00     0.022 A 
BRANCH  55  58
ATOM     58  S   UNL A   1      41.575  36.905  39.020  1.00  0.00     0.127 S 
ATOM     59  O   UNL A   1      40.642  37.944  39.447  1.00  0.00    -0.237 OA
ATOM     60  O   UNL A   1      42.365  36.303  40.094  1.00  0.00    -0.237 OA
ATOM     61  O   UNL A   1      42.328  37.197  37.807  1.00  0.00    -0.744 OA
ENDBRANCH  55  58
ENDBRANCH  27  51
BRANCH  39  62
ATOM     62  C   UNL A   1      44.164  28.602  35.403  1.00  0.00     0.023 A 
ATOM     63  C   UNL A   1      45.471  29.062  35.144  1.00  0.00     0.012 A 
ATOM     64  C   UNL A   1      43.967  27.587  36.359  1.00  0.00     0.148 A 
ATOM     65  C   UNL A   1      46.565  28.491  35.792  1.00  0.00     0.002 A 
ATOM     66  C   UNL A   1      45.055  27.064  37.045  1.00  0.00     0.091 A 
ATOM     67  F   UNL A   1      42.718  27.150  36.580  1.00  0.00    -0.205 F 
ATOM     68  C   UNL A   1      46.356  27.502  36.751  1.00  0.00     0.022 A 
BRANCH  66  69
ATOM     69  S   UNL A   1      44.875  25.858  38.364  1.00  0.00     0.127 S 
ATOM     70  O   UNL A   1      46.265  25.647  38.765  1.00  0.00    -0.237 OA
ATOM     71  O   UNL A   1      44.064  26.589  39.338  1.00  0.00    -0.237 OA
ATOM     72  O   UNL A   1      44.218  24.702  37.770  1.00  0.00    -0.744 OA
ENDBRANCH  66  69
ENDBRANCH  39  62
ENDBRANCH  13  14
ENDBRANCH   6   8
ENDBRANCH   3   4
ENDBRANCH   2   3
ENDBRANCH   1   2
BRANCH   1  73
ATOM     73  C   UNL A   1      32.354  30.453  26.448  1.00  0.00     0.116 C 
BRANCH  73  74
ATOM     74  N   UNL A   1      31.799  29.306  27.145  1.00  0.00    -0.352 N 
ATOM     75  C   UNL A   1      31.935  27.967  26.902  1.00  0.00     0.253 C 
ATOM     76  H   UNL A   1      31.232  29.529  27.918  1.00  0.00     0.163 HD
ATOM     77  O   UNL A   1      31.371  27.137  27.553  1.00  0.00    -0.269 OA
BRANCH  75  78
ATOM     78  C   UNL A   1      32.417  27.600  25.595  1.00  0.00     0.063 A 
ATOM     79  C   UNL A   1      33.633  27.004  25.875  1.00  0.00     0.016 A 
ATOM     80  C   UNL A   1      31.746  27.404  24.356  1.00  0.00     0.053 A 
ATOM     81  C   UNL A   1      34.030  26.170  24.934  1.00  0.00     0.001 A 
ATOM     82  C   UNL A   1      32.457  27.046  23.272  1.00  0.00     0.027 A 
ATOM     83  C   UNL A   1      33.493  26.292  23.683  1.00  0.00     0.002 A 
BRANCH  80  84
ATOM     84  N   UNL A   1      30.375  27.259  24.215  1.00  0.00    -0.332 N 
ATOM     85  H   UNL A   1      29.926  27.976  23.711  1.00  0.00     0.169 HD
BRANCH  84  86
ATOM     86  C   UNL A   1      29.553  26.268  24.672  1.00  0.00     0.177 C 
ATOM     87  S   UNL A   1      27.969  26.340  24.100  1.00  0.00    -0.040 S 
BRANCH  86  88
ATOM     88  N   UNL A   1      29.923  25.190  25.599  1.00  0.00    -0.299 N 
ATOM     89  C   UNL A   1      30.582  23.927  26.257  1.00  0.00     0.257 C 
ATOM     90  H   UNL A   1      29.331  25.442  26.345  1.00  0.00     0.172 HD
ATOM     91  O   UNL A   1      29.944  23.538  27.250  1.00  0.00    -0.269 OA
BRANCH  89  92
ATOM     92  C   UNL A   1      31.868  23.041  25.834  1.00  0.00     0.040 A 
ATOM     93  C   UNL A   1      31.921  22.340  24.586  1.00  0.00     0.014 A 
ATOM     94  C   UNL A   1      33.144  23.134  26.487  1.00  0.00     0.022 A 
ATOM     95  C   UNL A   1      33.244  22.091  23.934  1.00  0.00     0.009 A 
ATOM     96  C   UNL A   1      34.490  22.829  25.879  1.00  0.00    -0.018 A 
ATOM     97  C   UNL A   1      34.550  22.380  24.533  1.00  0.00    -0.018 A 
ATOM     98  C   UNL A   1      35.755  23.275  26.448  1.00  0.00     0.009 A 
ATOM     99  C   UNL A   1      35.841  22.585  23.807  1.00  0.00     0.009 A 
ATOM    100  C   UNL A   1      36.989  23.400  25.744  1.00  0.00     0.001 A 
ATOM    101  C   UNL A   1      37.029  23.091  24.398  1.00  0.00     0.001 A 
ENDBRANCH  89  92
ENDBRANCH  86  88
ENDBRANCH  84  86
ENDBRANCH  80  84
ENDBRANCH  75  78
ENDBRANCH  73  74
ENDBRANCH   1  73
TORSDOF 18
ENDMDL
MODEL 2
REMARK VINA RESULT:     -12.1      3.433      8.686
REMARK SMILES O=C(NCCCCNC(=O)c1ccccc1NC(=S)NC(=O)c1ccc2ccccc2c1)c1ccc(-c2c3nc(c(-c4cccc(S(=O)(=O)[O-])c4F)c4ccc([nH]4)c(-c4cccc(S(=O)(=O)[O-])c4F)c4nc(c(-c5cccc(S(=O)(=O)[O-])c5F)c5ccc2[nH]5)C=C4)C=C3)cc1
REMARK SMILES IDX 6 1 5 2 4 3 3 4 1 5 2 6 33 8 34 9 95 10 35 11 94 12 36 13
REMARK SMILES IDX 37 14 38 15 88 16 39 17 93 18 87 19 89 20 40 21 92 22 86 23
REMARK SMILES IDX 85 24 41 26 73 27 53 28 72 29 54 30 57 31 71 32 90 33 55 34
REMARK SMILES IDX 56 35 70 37 91 38 58 39 42 40 43 41 51 42 44 43 46 44 52 45
REMARK SMILES IDX 45 46 47 47 48 48 49 49 50 50 74 51 75 52 83 53 76 54 78 55
REMARK SMILES IDX 84 56 77 57 79 58 80 59 81 60 82 61 59 62 60 63 68 64 61 65
REMARK SMILES IDX 63 66 69 67 62 68 64 69 65 70 66 71 67 72 7 73 8 74 9 75
REMARK SMILES IDX 10 77 11 78 12 79 16 80 13 81 15 82 14 83 17 84 18 86 19 87
REMARK SMILES IDX 20 88 21 89 22 91 23 92 24 93 32 94 25 95 31 96 26 97 30 98
REMARK SMILES IDX 27 99 29 100 28 101
REMARK H PARENT 3 7 89 25 57 36 8 76 17 85 20 90
REMARK Flexibility Score: inf
ROOT
ATOM      1  C   UNL A   1      32.288  27.993  26.679  1.00  0.00     0.023 C 
ENDROOT
BRANCH   1   2
ATOM      2  C   UNL A   1      33.605  27.690  25.972  1.00  0.00     0.023 C 
BRANCH   2   3
ATOM      3  C   UNL A   1      34.702  28.705  26.260  1.00  0.00     0.116 C 
BRANCH   3   4
ATOM      4  N   UNL A   1      34.175  29.950  26.790  1.00  0.00    -0.352 N 
ATOM      5  O   UNL A   1      34.025  31.626  28.296  1.00  0.00    -0.269 OA
ATOM      6  C   UNL A   1      34.672  30.695  27.833  1.00  0.00     0.251 C 
ATOM      7  H   UNL A   1      33.367  30.301  26.352  1.00  0.00     0.163 HD
BRANCH   6   8
ATOM      8  C   UNL A   1      35.983  30.313  28.400  1.00  0.00     0.039 A 
ATOM      9  C   UNL A   1      37.155  30.682  27.736  1.00  0.00     0.014 A 
ATOM     10  C   UNL A   1      36.034  29.512  29.540  1.00  0.00     0.014 A 
ATOM     11  C   UNL A   1      38.358  30.096  28.099  1.00  0.00     0.010 A 
ATOM     12  C   UNL A   1      37.268  29.032  29.984  1.00  0.00     0.010 A 
ATOM     13  C   UNL A   1      38.436  29.293  29.249  1.00  0.00    -0.014 A 
BRANCH  13  14
ATOM     14  C   UNL A   1      39.770  28.832  29.708  1.00  0.00     0.031 A 
ATOM     15  C   UNL A   1      40.508  29.520  30.821  1.00  0.00     0.074 A 
ATOM     16  C   UNL A   1      40.314  27.762  29.094  1.00  0.00     0.049 A 
ATOM     17  N   UNL A   1      41.677  29.226  31.330  1.00  0.00    -0.248 NA
ATOM     18  C   UNL A   1      39.864  30.689  31.438  1.00  0.00     0.031 C 
ATOM     19  C   UNL A   1      39.701  27.031  27.980  1.00  0.00     0.029 A 
ATOM     20  N   UNL A   1      41.494  27.103  29.311  1.00  0.00    -0.354 N 
ATOM     21  C   UNL A   1      41.930  30.193  32.295  1.00  0.00     0.074 A 
ATOM     22  C   UNL A   1      40.794  31.089  32.296  1.00  0.00     0.031 C 
ATOM     23  C   UNL A   1      40.491  26.008  27.635  1.00  0.00     0.029 A 
ATOM     24  C   UNL A   1      41.703  26.060  28.440  1.00  0.00     0.049 A 
ATOM     25  H   UNL A   1      42.131  27.351  30.020  1.00  0.00     0.167 HD
ATOM     26  C   UNL A   1      43.009  30.317  33.107  1.00  0.00     0.034 A 
ATOM     27  C   UNL A   1      42.768  25.256  28.271  1.00  0.00     0.034 A 
ATOM     28  C   UNL A   1      44.135  29.417  33.097  1.00  0.00     0.049 A 
ATOM     29  C   UNL A   1      43.959  25.438  29.163  1.00  0.00     0.074 A 
ATOM     30  C   UNL A   1      45.249  29.425  33.918  1.00  0.00     0.029 A 
ATOM     31  N   UNL A   1      44.309  28.369  32.204  1.00  0.00    -0.354 N 
ATOM     32  N   UNL A   1      44.131  26.289  30.145  1.00  0.00    -0.248 NA
ATOM     33  C   UNL A   1      45.092  24.531  28.943  1.00  0.00     0.031 C 
ATOM     34  C   UNL A   1      46.124  28.425  33.482  1.00  0.00     0.029 A 
ATOM     35  C   UNL A   1      45.524  27.744  32.435  1.00  0.00     0.049 A 
ATOM     36  H   UNL A   1      43.664  28.108  31.508  1.00  0.00     0.167 HD
ATOM     37  C   UNL A   1      45.378  25.999  30.683  1.00  0.00     0.074 A 
ATOM     38  C   UNL A   1      45.905  24.877  29.931  1.00  0.00     0.031 C 
ATOM     39  C   UNL A   1      46.028  26.610  31.702  1.00  0.00     0.034 A 
BRANCH  26  40
ATOM     40  C   UNL A   1      43.034  31.473  34.076  1.00  0.00     0.023 A 
ATOM     41  C   UNL A   1      43.654  32.688  33.716  1.00  0.00     0.012 A 
ATOM     42  C   UNL A   1      42.389  31.374  35.326  1.00  0.00     0.148 A 
ATOM     43  C   UNL A   1      43.670  33.767  34.600  1.00  0.00     0.002 A 
ATOM     44  C   UNL A   1      42.365  32.470  36.180  1.00  0.00     0.091 A 
ATOM     45  F   UNL A   1      41.814  30.210  35.658  1.00  0.00    -0.205 F 
ATOM     46  C   UNL A   1      43.018  33.661  35.826  1.00  0.00     0.022 A 
BRANCH  44  47
ATOM     47  S   UNL A   1      41.483  32.463  37.744  1.00  0.00     0.127 S 
ATOM     48  O   UNL A   1      42.302  31.548  38.539  1.00  0.00    -0.237 OA
ATOM     49  O   UNL A   1      41.570  33.867  38.150  1.00  0.00    -0.237 OA
ATOM     50  O   UNL A   1      40.136  31.995  37.448  1.00  0.00    -0.744 OA
ENDBRANCH  44  47
ENDBRANCH  26  40
BRANCH  27  51
ATOM     51  C   UNL A   1      42.747  24.212  27.211  1.00  0.00     0.023 A 
ATOM     52  C   UNL A   1      43.382  24.454  25.979  1.00  0.00     0.012 A 
ATOM     53  C   UNL A   1      42.122  22.969  27.434  1.00  0.00     0.148 A 
ATOM     54  C   UNL A   1      43.361  23.491  24.971  1.00  0.00     0.002 A 
ATOM     55  C   UNL A   1      42.158  21.991  26.450  1.00  0.00     0.091 A 
ATOM     56  F   UNL A   1      41.526  22.762  28.616  1.00  0.00    -0.205 F 
ATOM     57  C   UNL A   1      42.757  22.257  25.209  1.00  0.00     0.022 A 
BRANCH  55  58
ATOM     58  S   UNL A   1      41.521  20.334  26.713  1.00  0.00     0.127 S 
ATOM     59  O   UNL A   1      40.100  20.593  26.927  1.00  0.00    -0.237 OA
ATOM     60  O   UNL A   1      41.846  19.685  25.443  1.00  0.00    -0.237 OA
ATOM     61  O   UNL A   1      42.244  19.809  27.863  1.00  0.00    -0.744 OA
ENDBRANCH  55  58
ENDBRANCH  27  51
BRANCH  39  62
ATOM     62  C   UNL A   1      47.366  26.046  32.107  1.00  0.00     0.023 A 
ATOM     63  C   UNL A   1      48.542  26.452  31.447  1.00  0.00     0.012 A 
ATOM     64  C   UNL A   1      47.455  25.144  33.185  1.00  0.00     0.148 A 
ATOM     65  C   UNL A   1      49.781  25.935  31.825  1.00  0.00     0.002 A 
ATOM     66  C   UNL A   1      48.697  24.679  33.595  1.00  0.00     0.091 A 
ATOM     67  F   UNL A   1      46.322  24.756  33.791  1.00  0.00    -0.205 F 
ATOM     68  C   UNL A   1      49.860  25.059  32.906  1.00  0.00     0.022 A 
BRANCH  66  69
ATOM     69  S   UNL A   1      48.907  23.627  35.036  1.00  0.00     0.127 S 
ATOM     70  O   UNL A   1      48.250  22.395  34.602  1.00  0.00    -0.237 OA
ATOM     71  O   UNL A   1      50.363  23.537  35.140  1.00  0.00    -0.237 OA
ATOM     72  O   UNL A   1      48.259  24.320  36.141  1.00  0.00    -0.744 OA
ENDBRANCH  66  69
ENDBRANCH  39  62
ENDBRANCH  13  14
ENDBRANCH   6   8
ENDBRANCH   3   4
ENDBRANCH   2   3
ENDBRANCH   1   2
BRANCH   1  73
ATOM     73  C   UNL A   1      31.297  28.741  25.799  1.00  0.00     0.116 C 
BRANCH  73  74
ATOM     74  N   UNL A   1      31.620  28.609  24.389  1.00  0.00    -0.352 N 
ATOM     75  C   UNL A   1      30.810  28.622  23.286  1.00  0.00     0.253 C 
ATOM     76  H   UNL A   1      32.577  28.490  24.195  1.00  0.00     0.163 HD
ATOM     77  O   UNL A   1      31.232  28.458  22.179  1.00  0.00    -0.269 OA
BRANCH  75  78
ATOM     78  C   UNL A   1      29.405  28.408  23.522  1.00  0.00     0.063 A 
ATOM     79  C   UNL A   1      28.836  29.580  23.055  1.00  0.00     0.016 A 
ATOM     80  C   UNL A   1      28.645  27.221  23.713  1.00  0.00     0.053 A 
ATOM     81  C   UNL A   1      27.571  29.439  22.714  1.00  0.00     0.001 A 
ATOM     82  C   UNL A   1      27.317  27.314  23.906  1.00  0.00     0.027 A 
ATOM     83  C   UNL A   1      26.869  28.380  23.220  1.00  0.00     0.002 A 
BRANCH  80  84
ATOM     84  N   UNL A   1      29.094  25.941  23.427  1.00  0.00    -0.332 N 
ATOM     85  H   UNL A   1      28.510  25.414  22.836  1.00  0.00     0.169 HD
BRANCH  84  86
ATOM     86  C   UNL A   1      30.228  25.304  23.842  1.00  0.00     0.177 C 
ATOM     87  S   UNL A   1      31.410  25.114  22.656  1.00  0.00    -0.040 S 
BRANCH  86  88
ATOM     88  N   UNL A   1      30.486  24.778  25.190  1.00  0.00    -0.299 N 
ATOM     89  C   UNL A   1      31.139  24.094  26.442  1.00  0.00     0.257 C 
ATOM     90  H   UNL A   1      29.638  25.052  25.609  1.00  0.00     0.172 HD
ATOM     91  O   UNL A   1      30.303  23.868  27.333  1.00  0.00    -0.269 OA
BRANCH  89  92
ATOM     92  C   UNL A   1      32.651  23.593  26.728  1.00  0.00     0.040 A 
ATOM     93  C   UNL A   1      32.919  22.408  27.487  1.00  0.00     0.014 A 
ATOM     94  C   UNL A   1      33.796  24.079  26.010  1.00  0.00     0.022 A 
ATOM     95  C   UNL A   1      34.165  21.625  27.217  1.00  0.00     0.009 A 
ATOM     96  C   UNL A   1      35.090  23.341  25.774  1.00  0.00    -0.018 A 
ATOM     97  C   UNL A   1      35.246  22.038  26.318  1.00  0.00    -0.018 A 
ATOM     98  C   UNL A   1      36.062  23.718  24.758  1.00  0.00     0.009 A 
ATOM     99  C   UNL A   1      36.256  21.149  25.665  1.00  0.00     0.009 A 
ATOM    100  C   UNL A   1      37.059  22.863  24.199  1.00  0.00     0.001 A 
ATOM    101  C   UNL A   1      37.135  21.551  24.625  1.00  0.00     0.001 A 
ENDBRANCH  89  92
ENDBRANCH  86  88
ENDBRANCH  84  86
ENDBRANCH  80  84
ENDBRANCH  75  78
ENDBRANCH  73  74
ENDBRANCH   1  73
TORSDOF 18
ENDMDL
MODEL 3
REMARK VINA RESULT:     -12.0      5.944     11.539
REMARK SMILES O=C(NCCCCNC(=O)c1ccccc1NC(=S)NC(=O)c1ccc2ccccc2c1)c1ccc(-c2c3nc(c(-c4cccc(S(=O)(=O)[O-])c4F)c4ccc([nH]4)c(-c4cccc(S(=O)(=O)[O-])c4F)c4nc(c(-c5cccc(S(=O)(=O)[O-])c5F)c5ccc2[nH]5)C=C4)C=C3)cc1
REMARK SMILES IDX 6 1 5 2 4 3 3 4 1 5 2 6 33 8 34 9 95 10 35 11 94 12 36 13
REMARK SMILES IDX 37 14 38 15 88 16 39 17 93 18 87 19 89 20 40 21 92 22 86 23
REMARK SMILES IDX 85 24 41 26 73 27 53 28 72 29 54 30 57 31 71 32 90 33 55 34
REMARK SMILES IDX 56 35 70 37 91 38 58 39 42 40 43 41 51 42 44 43 46 44 52 45
REMARK SMILES IDX 45 46 47 47 48 48 49 49 50 50 74 51 75 52 83 53 76 54 78 55
REMARK SMILES IDX 84 56 77 57 79 58 80 59 81 60 82 61 59 62 60 63 68 64 61 65
REMARK SMILES IDX 63 66 69 67 62 68 64 69 65 70 66 71 67 72 7 73 8 74 9 75
REMARK SMILES IDX 10 77 11 78 12 79 16 80 13 81 15 82 14 83 17 84 18 86 19 87
REMARK SMILES IDX 20 88 21 89 22 91 23 92 24 93 32 94 25 95 31 96 26 97 30 98
REMARK SMILES IDX 27 99 29 100 28 101
REMARK H PARENT 3 7 89 25 57 36 8 76 17 85 20 90
REMARK Flexibility Score: inf
ROOT
ATOM      1  C   UNL A   1      38.320  21.790  25.768  1.00  0.00     0.023 C 
ENDROOT
BRANCH   1   2
ATOM      2  C   UNL A   1      39.340  20.718  25.401  1.00  0.00     0.023 C 
BRANCH   2   3
ATOM      3  C   UNL A   1      39.995  20.058  26.605  1.00  0.00     0.116 C 
BRANCH   3   4
ATOM      4  N   UNL A   1      41.001  19.085  26.220  1.00  0.00    -0.352 N 
ATOM      5  O   UNL A   1      43.020  18.434  25.446  1.00  0.00    -0.269 OA
ATOM      6  C   UNL A   1      42.327  19.316  25.936  1.00  0.00     0.251 C 
ATOM      7  H   UNL A   1      40.700  18.150  26.155  1.00  0.00     0.163 HD
BRANCH   6   8
ATOM      8  C   UNL A   1      42.871  20.664  26.201  1.00  0.00     0.039 A 
ATOM      9  C   UNL A   1      43.020  21.101  27.520  1.00  0.00     0.014 A 
ATOM     10  C   UNL A   1      43.143  21.520  25.134  1.00  0.00     0.014 A 
ATOM     11  C   UNL A   1      43.258  22.444  27.770  1.00  0.00     0.010 A 
ATOM     12  C   UNL A   1      43.515  22.840  25.394  1.00  0.00     0.010 A 
ATOM     13  C   UNL A   1      43.544  23.322  26.713  1.00  0.00    -0.014 A 
BRANCH  13  14
ATOM     14  C   UNL A   1      43.970  24.708  27.031  1.00  0.00     0.031 A 
ATOM     15  C   UNL A   1      43.018  25.720  27.601  1.00  0.00     0.074 A 
ATOM     16  C   UNL A   1      45.254  25.044  26.794  1.00  0.00     0.049 A 
ATOM     17  N   UNL A   1      43.251  26.965  27.932  1.00  0.00    -0.248 NA
ATOM     18  C   UNL A   1      41.629  25.292  27.823  1.00  0.00     0.031 C 
ATOM     19  C   UNL A   1      46.263  24.151  26.214  1.00  0.00     0.029 A 
ATOM     20  N   UNL A   1      45.933  26.214  27.005  1.00  0.00    -0.354 N 
ATOM     21  C   UNL A   1      42.035  27.482  28.361  1.00  0.00     0.074 A 
ATOM     22  C   UNL A   1      41.062  26.417  28.240  1.00  0.00     0.031 C 
ATOM     23  C   UNL A   1      47.436  24.792  26.148  1.00  0.00     0.029 A 
ATOM     24  C   UNL A   1      47.245  26.164  26.596  1.00  0.00     0.049 A 
ATOM     25  H   UNL A   1      45.523  27.013  27.410  1.00  0.00     0.167 HD
ATOM     26  C   UNL A   1      41.758  28.729  28.815  1.00  0.00     0.034 A 
ATOM     27  C   UNL A   1      48.186  27.124  26.545  1.00  0.00     0.034 A 
ATOM     28  C   UNL A   1      42.735  29.782  28.930  1.00  0.00     0.049 A 
ATOM     29  C   UNL A   1      47.840  28.500  27.025  1.00  0.00     0.074 A 
ATOM     30  C   UNL A   1      42.566  31.061  29.432  1.00  0.00     0.029 A 
ATOM     31  N   UNL A   1      44.055  29.693  28.511  1.00  0.00    -0.354 N 
ATOM     32  N   UNL A   1      46.714  28.939  27.530  1.00  0.00    -0.248 NA
ATOM     33  C   UNL A   1      48.905  29.509  26.954  1.00  0.00     0.031 C 
ATOM     34  C   UNL A   1      43.763  31.763  29.258  1.00  0.00     0.029 A 
ATOM     35  C   UNL A   1      44.702  30.901  28.715  1.00  0.00     0.049 A 
ATOM     36  H   UNL A   1      44.471  28.889  28.125  1.00  0.00     0.167 HD
ATOM     37  C   UNL A   1      46.943  30.265  27.870  1.00  0.00     0.074 A 
ATOM     38  C   UNL A   1      48.323  30.550  27.533  1.00  0.00     0.031 C 
ATOM     39  C   UNL A   1      46.084  31.167  28.405  1.00  0.00     0.034 A 
BRANCH  26  40
ATOM     40  C   UNL A   1      40.336  29.034  29.218  1.00  0.00     0.023 A 
ATOM     41  C   UNL A   1      39.384  29.397  28.244  1.00  0.00     0.012 A 
ATOM     42  C   UNL A   1      39.929  28.903  30.562  1.00  0.00     0.148 A 
ATOM     43  C   UNL A   1      38.064  29.667  28.605  1.00  0.00     0.002 A 
ATOM     44  C   UNL A   1      38.601  29.124  30.906  1.00  0.00     0.091 A 
ATOM     45  F   UNL A   1      40.848  28.568  31.478  1.00  0.00    -0.205 F 
ATOM     46  C   UNL A   1      37.671  29.521  29.932  1.00  0.00     0.022 A 
BRANCH  44  47
ATOM     47  S   UNL A   1      37.977  28.883  32.573  1.00  0.00     0.127 S 
ATOM     48  O   UNL A   1      38.847  29.772  33.343  1.00  0.00    -0.237 OA
ATOM     49  O   UNL A   1      36.593  29.342  32.449  1.00  0.00    -0.237 OA
ATOM     50  O   UNL A   1      38.127  27.464  32.861  1.00  0.00    -0.744 OA
ENDBRANCH  44  47
ENDBRANCH  26  40
BRANCH  27  51
ATOM     51  C   UNL A   1      49.540  26.805  26.015  1.00  0.00     0.023 A 
ATOM     52  C   UNL A   1      50.438  26.057  26.799  1.00  0.00     0.012 A 
ATOM     53  C   UNL A   1      49.928  27.219  24.726  1.00  0.00     0.148 A 
ATOM     54  C   UNL A   1      51.715  25.761  26.323  1.00  0.00     0.002 A 
ATOM     55  C   UNL A   1      51.176  26.868  24.233  1.00  0.00     0.091 A 
ATOM     56  F   UNL A   1      49.054  27.928  23.998  1.00  0.00    -0.205 F 
ATOM     57  C   UNL A   1      52.081  26.157  25.037  1.00  0.00     0.022 A 
BRANCH  55  58
ATOM     58  S   UNL A   1      51.684  27.223  22.549  1.00  0.00     0.127 S 
ATOM     59  O   UNL A   1      53.007  26.606  22.501  1.00  0.00    -0.237 OA
ATOM     60  O   UNL A   1      50.652  26.534  21.775  1.00  0.00    -0.237 OA
ATOM     61  O   UNL A   1      51.664  28.675  22.426  1.00  0.00    -0.744 OA
ENDBRANCH  55  58
ENDBRANCH  27  51
BRANCH  39  62
ATOM     62  C   UNL A   1      46.625  32.539  28.715  1.00  0.00     0.023 A 
ATOM     63  C   UNL A   1      47.389  32.760  29.878  1.00  0.00     0.012 A 
ATOM     64  C   UNL A   1      46.414  33.603  27.816  1.00  0.00     0.148 A 
ATOM     65  C   UNL A   1      47.896  34.027  30.164  1.00  0.00     0.002 A 
ATOM     66  C   UNL A   1      46.971  34.847  28.076  1.00  0.00     0.091 A 
ATOM     67  F   UNL A   1      45.669  33.377  26.723  1.00  0.00    -0.205 F 
ATOM     68  C   UNL A   1      47.698  35.067  29.256  1.00  0.00     0.022 A 
BRANCH  66  69
ATOM     69  S   UNL A   1      46.852  36.218  26.921  1.00  0.00     0.127 S 
ATOM     70  O   UNL A   1      47.412  35.631  25.705  1.00  0.00    -0.237 OA
ATOM     71  O   UNL A   1      45.410  36.455  26.875  1.00  0.00    -0.237 OA
ATOM     72  O   UNL A   1      47.630  37.304  27.500  1.00  0.00    -0.744 OA
ENDBRANCH  66  69
ENDBRANCH  39  62
ENDBRANCH  13  14
ENDBRANCH   6   8
ENDBRANCH   3   4
ENDBRANCH   2   3
ENDBRANCH   1   2
BRANCH   1  73
ATOM     73  C   UNL A   1      36.923  21.489  25.244  1.00  0.00     0.116 C 
BRANCH  73  74
ATOM     74  N   UNL A   1      36.621  22.245  24.041  1.00  0.00    -0.352 N 
ATOM     75  C   UNL A   1      35.706  23.237  23.820  1.00  0.00     0.253 C 
ATOM     76  H   UNL A   1      37.165  22.003  23.257  1.00  0.00     0.163 HD
ATOM     77  O   UNL A   1      35.550  23.737  22.745  1.00  0.00    -0.269 OA
BRANCH  75  78
ATOM     78  C   UNL A   1      34.649  23.359  24.792  1.00  0.00     0.063 A 
ATOM     79  C   UNL A   1      34.881  24.609  25.337  1.00  0.00     0.016 A 
ATOM     80  C   UNL A   1      33.397  22.698  24.920  1.00  0.00     0.053 A 
ATOM     81  C   UNL A   1      33.804  25.145  25.876  1.00  0.00     0.001 A 
ATOM     82  C   UNL A   1      32.582  23.023  25.940  1.00  0.00     0.027 A 
ATOM     83  C   UNL A   1      32.767  24.325  26.222  1.00  0.00     0.002 A 
BRANCH  80  84
ATOM     84  N   UNL A   1      32.793  21.948  23.922  1.00  0.00    -0.332 N 
ATOM     85  H   UNL A   1      32.558  21.026  24.173  1.00  0.00     0.169 HD
BRANCH  84  86
ATOM     86  C   UNL A   1      32.477  22.301  22.640  1.00  0.00     0.177 C 
ATOM     87  S   UNL A   1      31.815  21.062  21.708  1.00  0.00    -0.040 S 
BRANCH  86  88
ATOM     88  N   UNL A   1      32.672  23.622  22.028  1.00  0.00    -0.299 N 
ATOM     89  C   UNL A   1      32.644  25.160  21.721  1.00  0.00     0.257 C 
ATOM     90  H   UNL A   1      33.204  23.335  21.250  1.00  0.00     0.172 HD
ATOM     91  O   UNL A   1      32.981  25.403  20.549  1.00  0.00    -0.269 OA
BRANCH  89  92
ATOM     92  C   UNL A   1      32.202  26.430  22.622  1.00  0.00     0.040 A 
ATOM     93  C   UNL A   1      30.862  26.580  23.103  1.00  0.00     0.014 A 
ATOM     94  C   UNL A   1      33.139  27.309  23.266  1.00  0.00     0.022 A 
ATOM     95  C   UNL A   1      30.614  27.320  24.379  1.00  0.00     0.009 A 
ATOM     96  C   UNL A   1      32.900  28.117  24.516  1.00  0.00    -0.018 A 
ATOM     97  C   UNL A   1      31.627  28.051  25.143  1.00  0.00    -0.018 A 
ATOM     98  C   UNL A   1      33.967  28.698  25.320  1.00  0.00     0.009 A 
ATOM     99  C   UNL A   1      31.569  28.408  26.595  1.00  0.00     0.009 A 
ATOM    100  C   UNL A   1      33.863  29.088  26.688  1.00  0.00     0.001 A 
ATOM    101  C   UNL A   1      32.664  28.906  27.349  1.00  0.00     0.001 A 
ENDBRANCH  89  92
ENDBRANCH  86  88
ENDBRANCH  84  86
ENDBRANCH  80  84
ENDBRANCH  75  78
ENDBRANCH  73  74
ENDBRANCH   1  73
TORSDOF 18
ENDMDL
