MODEL 1
REMARK VINA RESULT:     -12.4      0.000      0.000
REMARK SMILES O=C1O[C@@H](c2ccc(O)c(O)c2)[C@H](C(=O)NCCCCNC(=O)c2ccc(-c3c4nc(c(-c5cccc(S(=O)(=O)[O-])c5F)c5ccc([nH]5)c(-c5cccc(S(=O)(=O)[O-])c5F)c5nc(c(-c6cccc(S(=O)(=O)[O-])c6F)c6ccc3[nH]6)C=C5)C=C4)cc2)/C1=C\c1ccc(O)c(O)c1
REMARK SMILES IDX 19 1 18 2 17 3 16 4 14 5 15 6 13 8 1 9 2 10 3 11 87 12 4 13
REMARK SMILES IDX 88 14 5 15 6 16 12 17 7 18 10 19 8 20 11 21 9 23 89 25 90 26
REMARK SMILES IDX 96 27 91 28 94 29 92 30 95 31 93 33 20 35 21 36 22 37 23 39
REMARK SMILES IDX 24 40 25 41 86 42 26 43 85 44 27 45 28 46 29 47 79 48 30 49
REMARK SMILES IDX 84 50 78 51 80 52 31 53 83 54 77 55 76 56 32 58 64 59 44 60
REMARK SMILES IDX 63 61 45 62 48 63 62 64 81 65 46 66 47 67 61 69 82 70 49 71
REMARK SMILES IDX 33 72 34 73 42 74 35 75 37 76 43 77 36 78 38 79 39 80 40 81
REMARK SMILES IDX 41 82 65 83 66 84 74 85 67 86 69 87 75 88 68 89 70 90 71 91
REMARK SMILES IDX 72 92 73 93 50 94 51 95 59 96 52 97 54 98 60 99 53 100
REMARK SMILES IDX 55 101 56 102 57 103 58 104
REMARK H PARENT 16 7 11 22 9 24 95 32 93 34 21 38 80 57 48 68
REMARK Flexibility Score: inf
ROOT
ATOM      1  C   UNL A   1      36.091  22.099  24.954  1.00  0.00     0.023 C 
ENDROOT
BRANCH   1   2
ATOM      2  C   UNL A   1      35.493  22.717  23.696  1.00  0.00     0.023 C 
BRANCH   2   3
ATOM      3  C   UNL A   1      34.823  24.064  23.911  1.00  0.00     0.116 C 
BRANCH   3   4
ATOM      4  N   UNL A   1      34.010  24.510  22.798  1.00  0.00    -0.355 N 
ATOM      5  C   UNL A   1      33.096  25.523  22.707  1.00  0.00     0.231 C 
ATOM      6  O   UNL A   1      32.695  25.812  21.579  1.00  0.00    -0.274 OA
ATOM      7  H   UNL A   1      34.137  23.997  21.967  1.00  0.00     0.163 HD
BRANCH   5   8
ATOM      8  C   UNL A   1      32.531  26.182  23.972  1.00  0.00     0.161 C 
ATOM      9  O   UNL A   1      29.011  26.728  23.595  1.00  0.00    -0.247 OA
ATOM     10  C   UNL A   1      30.221  26.802  23.723  1.00  0.00     0.335 C 
ATOM     11  O   UNL A   1      30.967  27.902  23.464  1.00  0.00    -0.453 OA
ATOM     12  C   UNL A   1      31.124  25.754  24.230  1.00  0.00     0.054 C 
ATOM     13  C   UNL A   1      32.339  27.691  23.833  1.00  0.00     0.224 C 
ATOM     14  C   UNL A   1      30.608  24.676  24.838  1.00  0.00     0.020 C 
BRANCH  13  15
ATOM     15  C   UNL A   1      32.720  28.496  25.082  1.00  0.00    -0.002 A 
ATOM     16  C   UNL A   1      33.832  28.136  25.878  1.00  0.00     0.012 A 
ATOM     17  C   UNL A   1      32.029  29.669  25.420  1.00  0.00     0.057 A 
ATOM     18  C   UNL A   1      34.257  28.922  26.954  1.00  0.00     0.050 A 
ATOM     19  C   UNL A   1      32.443  30.434  26.506  1.00  0.00     0.157 A 
ATOM     20  C   UNL A   1      33.555  30.072  27.261  1.00  0.00     0.157 A 
BRANCH  19  21
ATOM     21  O   UNL A   1      31.749  31.565  26.827  1.00  0.00    -0.504 OA
ATOM     22  H   UNL A   1      31.504  31.728  27.717  1.00  0.00     0.293 HD
ENDBRANCH  19  21
BRANCH  20  23
ATOM     23  O   UNL A   1      33.923  30.887  28.295  1.00  0.00    -0.504 OA
ATOM     24  H   UNL A   1      34.083  31.797  28.139  1.00  0.00     0.293 HD
ENDBRANCH  20  23
ENDBRANCH  13  15
BRANCH  14  25
ATOM     25  C   UNL A   1      31.397  23.585  25.407  1.00  0.00    -0.021 A 
ATOM     26  C   UNL A   1      32.136  23.761  26.588  1.00  0.00     0.012 A 
ATOM     27  C   UNL A   1      31.374  22.332  24.785  1.00  0.00     0.058 A 
ATOM     28  C   UNL A   1      32.878  22.707  27.126  1.00  0.00     0.051 A 
ATOM     29  C   UNL A   1      32.104  21.288  25.333  1.00  0.00     0.157 A 
ATOM     30  C   UNL A   1      32.859  21.473  26.487  1.00  0.00     0.157 A 
BRANCH  29  31
ATOM     31  O   UNL A   1      32.078  20.067  24.722  1.00  0.00    -0.504 OA
ATOM     32  H   UNL A   1      32.012  20.011  23.789  1.00  0.00     0.293 HD
ENDBRANCH  29  31
BRANCH  30  33
ATOM     33  O   UNL A   1      33.566  20.403  26.964  1.00  0.00    -0.504 OA
ATOM     34  H   UNL A   1      34.448  20.263  26.683  1.00  0.00     0.293 HD
ENDBRANCH  30  33
ENDBRANCH  14  25
ENDBRANCH   5   8
ENDBRANCH   3   4
ENDBRANCH   2   3
ENDBRANCH   1   2
BRANCH   1  35
ATOM     35  C   UNL A   1      37.178  22.928  25.621  1.00  0.00     0.116 C 
BRANCH  35  36
ATOM     36  N   UNL A   1      38.297  22.131  26.112  1.00  0.00    -0.352 N 
ATOM     37  C   UNL A   1      39.442  22.580  26.734  1.00  0.00     0.251 C 
ATOM     38  H   UNL A   1      38.227  21.157  25.984  1.00  0.00     0.163 HD
ATOM     39  O   UNL A   1      40.363  21.814  26.990  1.00  0.00    -0.269 OA
BRANCH  37  40
ATOM     40  C   UNL A   1      39.540  24.018  27.052  1.00  0.00     0.039 A 
ATOM     41  C   UNL A   1      39.271  24.453  28.351  1.00  0.00     0.014 A 
ATOM     42  C   UNL A   1      40.024  24.902  26.086  1.00  0.00     0.014 A 
ATOM     43  C   UNL A   1      39.568  25.772  28.705  1.00  0.00     0.010 A 
ATOM     44  C   UNL A   1      40.406  26.180  26.467  1.00  0.00     0.010 A 
ATOM     45  C   UNL A   1      40.180  26.631  27.778  1.00  0.00    -0.014 A 
BRANCH  45  46
ATOM     46  C   UNL A   1      40.580  28.019  28.127  1.00  0.00     0.031 A 
ATOM     47  C   UNL A   1      42.039  28.384  28.118  1.00  0.00     0.074 A 
ATOM     48  C   UNL A   1      39.661  28.906  28.560  1.00  0.00     0.049 A 
ATOM     49  N   UNL A   1      42.622  29.473  28.543  1.00  0.00    -0.248 NA
ATOM     50  C   UNL A   1      42.972  27.369  27.597  1.00  0.00     0.031 C 
ATOM     51  C   UNL A   1      38.221  28.658  28.665  1.00  0.00     0.029 A 
ATOM     52  N   UNL A   1      39.810  30.188  29.031  1.00  0.00    -0.354 N 
ATOM     53  C   UNL A   1      43.985  29.258  28.383  1.00  0.00     0.074 A 
ATOM     54  C   UNL A   1      44.147  27.920  27.863  1.00  0.00     0.031 C 
ATOM     55  C   UNL A   1      37.621  29.751  29.167  1.00  0.00     0.029 A 
ATOM     56  C   UNL A   1      38.634  30.758  29.464  1.00  0.00     0.049 A 
ATOM     57  H   UNL A   1      40.676  30.656  29.054  1.00  0.00     0.167 HD
ATOM     58  C   UNL A   1      45.012  30.108  28.621  1.00  0.00     0.034 A 
ATOM     59  C   UNL A   1      38.404  31.948  30.056  1.00  0.00     0.034 A 
ATOM     60  C   UNL A   1      44.844  31.450  29.101  1.00  0.00     0.049 A 
ATOM     61  C   UNL A   1      39.563  32.878  30.303  1.00  0.00     0.074 A 
ATOM     62  C   UNL A   1      45.813  32.415  29.310  1.00  0.00     0.029 A 
ATOM     63  N   UNL A   1      43.630  32.017  29.452  1.00  0.00    -0.354 N 
ATOM     64  N   UNL A   1      40.834  32.702  30.036  1.00  0.00    -0.248 NA
ATOM     65  C   UNL A   1      39.255  34.183  30.908  1.00  0.00     0.031 C 
ATOM     66  C   UNL A   1      45.188  33.556  29.820  1.00  0.00     0.029 A 
ATOM     67  C   UNL A   1      43.823  33.318  29.880  1.00  0.00     0.049 A 
ATOM     68  H   UNL A   1      42.758  31.563  29.403  1.00  0.00     0.167 HD
ATOM     69  C   UNL A   1      41.466  33.891  30.383  1.00  0.00     0.074 A 
ATOM     70  C   UNL A   1      40.437  34.781  30.879  1.00  0.00     0.031 C 
ATOM     71  C   UNL A   1      42.780  34.215  30.303  1.00  0.00     0.034 A 
BRANCH  58  72
ATOM     72  C   UNL A   1      46.406  29.619  28.324  1.00  0.00     0.023 A 
ATOM     73  C   UNL A   1      46.980  29.866  27.061  1.00  0.00     0.012 A 
ATOM     74  C   UNL A   1      47.165  28.962  29.311  1.00  0.00     0.148 A 
ATOM     75  C   UNL A   1      48.271  29.430  26.768  1.00  0.00     0.002 A 
ATOM     76  C   UNL A   1      48.470  28.576  29.030  1.00  0.00     0.091 A 
ATOM     77  F   UNL A   1      46.596  28.719  30.500  1.00  0.00    -0.205 F 
ATOM     78  C   UNL A   1      49.019  28.796  27.756  1.00  0.00     0.022 A 
BRANCH  76  79
ATOM     79  S   UNL A   1      49.546  27.830  30.259  1.00  0.00     0.127 S 
ATOM     80  O   UNL A   1      48.876  26.552  30.500  1.00  0.00    -0.237 OA
ATOM     81  O   UNL A   1      50.813  27.727  29.533  1.00  0.00    -0.237 OA
ATOM     82  O   UNL A   1      49.564  28.747  31.389  1.00  0.00    -0.744 OA
ENDBRANCH  76  79
ENDBRANCH  58  72
BRANCH  59  83
ATOM     83  C   UNL A   1      37.014  32.359  30.411  1.00  0.00     0.023 A 
ATOM     84  C   UNL A   1      36.491  32.009  31.672  1.00  0.00     0.012 A 
ATOM     85  C   UNL A   1      36.209  33.086  29.514  1.00  0.00     0.148 A 
ATOM     86  C   UNL A   1      35.178  32.336  32.016  1.00  0.00     0.002 A 
ATOM     87  C   UNL A   1      34.921  33.459  29.885  1.00  0.00     0.091 A 
ATOM     88  F   UNL A   1      36.720  33.405  28.317  1.00  0.00    -0.205 F 
ATOM     89  C   UNL A   1      34.397  33.067  31.126  1.00  0.00     0.022 A 
BRANCH  87  90
ATOM     90  S   UNL A   1      33.886  34.508  28.858  1.00  0.00     0.127 S 
ATOM     91  O   UNL A   1      33.461  33.579  27.814  1.00  0.00    -0.237 OA
ATOM     92  O   UNL A   1      32.835  34.903  29.797  1.00  0.00    -0.237 OA
ATOM     93  O   UNL A   1      34.743  35.602  28.421  1.00  0.00    -0.744 OA
ENDBRANCH  87  90
ENDBRANCH  59  83
BRANCH  71  94
ATOM     94  C   UNL A   1      43.189  35.616  30.673  1.00  0.00     0.023 A 
ATOM     95  C   UNL A   1      43.611  35.913  31.983  1.00  0.00     0.012 A 
ATOM     96  C   UNL A   1      43.256  36.613  29.679  1.00  0.00     0.148 A 
ATOM     97  C   UNL A   1      44.071  37.191  32.303  1.00  0.00     0.002 A 
ATOM     98  C   UNL A   1      43.766  37.866  29.991  1.00  0.00     0.091 A 
ATOM     99  F   UNL A   1      42.833  36.311  28.443  1.00  0.00    -0.205 F 
ATOM    100  C   UNL A   1      44.162  38.160  31.306  1.00  0.00     0.022 A 
BRANCH  98 101
ATOM    101  S   UNL A   1      44.020  39.140  28.751  1.00  0.00     0.127 S 
ATOM    102  O   UNL A   1      42.648  39.424  28.332  1.00  0.00    -0.237 OA
ATOM    103  O   UNL A   1      44.654  40.204  29.530  1.00  0.00    -0.237 OA
ATOM    104  O   UNL A   1      44.871  38.546  27.728  1.00  0.00    -0.744 OA
ENDBRANCH  98 101
ENDBRANCH  71  94
ENDBRANCH  45  46
ENDBRANCH  37  40
ENDBRANCH  35  36
ENDBRANCH   1  35
TORSDOF 20
ENDMDL
MODEL 2
REMARK VINA RESULT:     -12.3      4.389      8.057
REMARK SMILES O=C1O[C@@H](c2ccc(O)c(O)c2)[C@H](C(=O)NCCCCNC(=O)c2ccc(-c3c4nc(c(-c5cccc(S(=O)(=O)[O-])c5F)c5ccc([nH]5)c(-c5cccc(S(=O)(=O)[O-])c5F)c5nc(c(-c6cccc(S(=O)(=O)[O-])c6F)c6ccc3[nH]6)C=C5)C=C4)cc2)/C1=C\c1ccc(O)c(O)c1
REMARK SMILES IDX 19 1 18 2 17 3 16 4 14 5 15 6 13 8 1 9 2 10 3 11 87 12 4 13
REMARK SMILES IDX 88 14 5 15 6 16 12 17 7 18 10 19 8 20 11 21 9 23 89 25 90 26
REMARK SMILES IDX 96 27 91 28 94 29 92 30 95 31 93 33 20 35 21 36 22 37 23 39
REMARK SMILES IDX 24 40 25 41 86 42 26 43 85 44 27 45 28 46 29 47 79 48 30 49
REMARK SMILES IDX 84 50 78 51 80 52 31 53 83 54 77 55 76 56 32 58 64 59 44 60
REMARK SMILES IDX 63 61 45 62 48 63 62 64 81 65 46 66 47 67 61 69 82 70 49 71
REMARK SMILES IDX 33 72 34 73 42 74 35 75 37 76 43 77 36 78 38 79 39 80 40 81
REMARK SMILES IDX 41 82 65 83 66 84 74 85 67 86 69 87 75 88 68 89 70 90 71 91
REMARK SMILES IDX 72 92 73 93 50 94 51 95 59 96 52 97 54 98 60 99 53 100
REMARK SMILES IDX 55 101 56 102 57 103 58 104
REMARK H PARENT 16 7 11 22 9 24 95 32 93 34 21 38 80 57 48 68
REMARK Flexibility Score: inf
ROOT
ATOM      1  C   UNL A   1      31.872  28.241  27.078  1.00  0.00     0.023 C 
ENDROOT
BRANCH   1   2
ATOM      2  C   UNL A   1      31.288  27.126  26.220  1.00  0.00     0.023 C 
BRANCH   2   3
ATOM      3  C   UNL A   1      32.069  25.822  26.263  1.00  0.00     0.116 C 
BRANCH   3   4
ATOM      4  N   UNL A   1      31.251  24.633  26.133  1.00  0.00    -0.355 N 
ATOM      5  C   UNL A   1      31.548  23.393  25.638  1.00  0.00     0.231 C 
ATOM      6  O   UNL A   1      30.718  22.503  25.832  1.00  0.00    -0.274 OA
ATOM      7  H   UNL A   1      30.326  24.735  26.456  1.00  0.00     0.163 HD
BRANCH   5   8
ATOM      8  C   UNL A   1      32.807  23.170  24.791  1.00  0.00     0.161 C 
ATOM      9  O   UNL A   1      32.051  21.027  22.023  1.00  0.00    -0.247 OA
ATOM     10  C   UNL A   1      32.456  21.557  23.043  1.00  0.00     0.335 C 
ATOM     11  O   UNL A   1      33.023  20.907  24.086  1.00  0.00    -0.453 OA
ATOM     12  C   UNL A   1      32.472  22.999  23.346  1.00  0.00     0.054 C 
ATOM     13  C   UNL A   1      33.496  21.837  25.075  1.00  0.00     0.224 C 
ATOM     14  C   UNL A   1      32.245  23.883  22.364  1.00  0.00     0.020 C 
BRANCH  13  15
ATOM     15  C   UNL A   1      35.029  21.908  25.097  1.00  0.00    -0.002 A 
ATOM     16  C   UNL A   1      35.704  23.122  25.363  1.00  0.00     0.012 A 
ATOM     17  C   UNL A   1      35.805  20.750  24.943  1.00  0.00     0.057 A 
ATOM     18  C   UNL A   1      37.095  23.181  25.496  1.00  0.00     0.050 A 
ATOM     19  C   UNL A   1      37.190  20.820  25.052  1.00  0.00     0.157 A 
ATOM     20  C   UNL A   1      37.832  22.021  25.339  1.00  0.00     0.157 A 
BRANCH  19  21
ATOM     21  O   UNL A   1      37.929  19.684  24.885  1.00  0.00    -0.504 OA
ATOM     22  H   UNL A   1      38.253  19.221  25.632  1.00  0.00     0.293 HD
ENDBRANCH  19  21
BRANCH  20  23
ATOM     23  O   UNL A   1      39.193  22.010  25.463  1.00  0.00    -0.504 OA
ATOM     24  H   UNL A   1      39.686  22.786  25.279  1.00  0.00     0.293 HD
ENDBRANCH  20  23
ENDBRANCH  13  15
BRANCH  14  25
ATOM     25  C   UNL A   1      32.262  25.335  22.531  1.00  0.00    -0.021 A 
ATOM     26  C   UNL A   1      33.453  26.020  22.820  1.00  0.00     0.012 A 
ATOM     27  C   UNL A   1      31.075  26.054  22.354  1.00  0.00     0.058 A 
ATOM     28  C   UNL A   1      33.456  27.409  22.968  1.00  0.00     0.051 A 
ATOM     29  C   UNL A   1      31.090  27.433  22.491  1.00  0.00     0.157 A 
ATOM     30  C   UNL A   1      32.266  28.108  22.806  1.00  0.00     0.157 A 
BRANCH  29  31
ATOM     31  O   UNL A   1      29.929  28.131  22.316  1.00  0.00    -0.504 OA
ATOM     32  H   UNL A   1      29.954  29.008  21.987  1.00  0.00     0.293 HD
ENDBRANCH  29  31
BRANCH  30  33
ATOM     33  O   UNL A   1      32.204  29.467  22.939  1.00  0.00    -0.504 OA
ATOM     34  H   UNL A   1      32.817  29.912  23.490  1.00  0.00     0.293 HD
ENDBRANCH  30  33
ENDBRANCH  14  25
ENDBRANCH   5   8
ENDBRANCH   3   4
ENDBRANCH   2   3
ENDBRANCH   1   2
BRANCH   1  35
ATOM     35  C   UNL A   1      32.763  29.224  26.331  1.00  0.00     0.116 C 
BRANCH  35  36
ATOM     36  N   UNL A   1      32.371  30.617  26.514  1.00  0.00    -0.352 N 
ATOM     37  C   UNL A   1      33.078  31.614  27.151  1.00  0.00     0.251 C 
ATOM     38  H   UNL A   1      31.499  30.877  26.138  1.00  0.00     0.163 HD
ATOM     39  O   UNL A   1      32.580  32.717  27.342  1.00  0.00    -0.269 OA
BRANCH  37  40
ATOM     40  C   UNL A   1      34.440  31.302  27.628  1.00  0.00     0.039 A 
ATOM     41  C   UNL A   1      35.375  32.331  27.753  1.00  0.00     0.014 A 
ATOM     42  C   UNL A   1      34.732  30.010  28.070  1.00  0.00     0.014 A 
ATOM     43  C   UNL A   1      36.586  32.077  28.402  1.00  0.00     0.010 A 
ATOM     44  C   UNL A   1      35.893  29.789  28.797  1.00  0.00     0.010 A 
ATOM     45  C   UNL A   1      36.835  30.817  28.968  1.00  0.00    -0.014 A 
BRANCH  45  46
ATOM     46  C   UNL A   1      38.076  30.519  29.728  1.00  0.00     0.031 A 
ATOM     47  C   UNL A   1      39.083  29.567  29.141  1.00  0.00     0.074 A 
ATOM     48  C   UNL A   1      38.244  31.001  30.976  1.00  0.00     0.049 A 
ATOM     49  N   UNL A   1      40.143  29.041  29.694  1.00  0.00    -0.248 NA
ATOM     50  C   UNL A   1      38.840  29.116  27.759  1.00  0.00     0.031 C 
ATOM     51  C   UNL A   1      37.316  31.891  31.678  1.00  0.00     0.029 A 
ATOM     52  N   UNL A   1      39.243  30.777  31.892  1.00  0.00    -0.354 N 
ATOM     53  C   UNL A   1      40.666  28.168  28.749  1.00  0.00     0.074 A 
ATOM     54  C   UNL A   1      39.785  28.201  27.605  1.00  0.00     0.031 C 
ATOM     55  C   UNL A   1      37.789  32.136  32.912  1.00  0.00     0.029 A 
ATOM     56  C   UNL A   1      39.025  31.387  33.108  1.00  0.00     0.049 A 
ATOM     57  H   UNL A   1      40.040  30.233  31.698  1.00  0.00     0.167 HD
ATOM     58  C   UNL A   1      41.795  27.424  28.814  1.00  0.00     0.034 A 
ATOM     59  C   UNL A   1      39.730  31.327  34.256  1.00  0.00     0.034 A 
ATOM     60  C   UNL A   1      42.689  27.423  29.938  1.00  0.00     0.049 A 
ATOM     61  C   UNL A   1      40.987  30.497  34.299  1.00  0.00     0.074 A 
ATOM     62  C   UNL A   1      43.894  26.758  30.077  1.00  0.00     0.029 A 
ATOM     63  N   UNL A   1      42.474  28.117  31.118  1.00  0.00    -0.354 N 
ATOM     64  N   UNL A   1      41.529  29.769  33.354  1.00  0.00    -0.248 NA
ATOM     65  C   UNL A   1      41.746  30.502  35.560  1.00  0.00     0.031 C 
ATOM     66  C   UNL A   1      44.392  27.024  31.355  1.00  0.00     0.029 A 
ATOM     67  C   UNL A   1      43.521  27.894  31.993  1.00  0.00     0.049 A 
ATOM     68  H   UNL A   1      41.692  28.685  31.306  1.00  0.00     0.167 HD
ATOM     69  C   UNL A   1      42.719  29.279  33.883  1.00  0.00     0.074 A 
ATOM     70  C   UNL A   1      42.819  29.794  35.233  1.00  0.00     0.031 C 
ATOM     71  C   UNL A   1      43.641  28.472  33.306  1.00  0.00     0.034 A 
BRANCH  58  72
ATOM     72  C   UNL A   1      42.146  26.580  27.617  1.00  0.00     0.023 A 
ATOM     73  C   UNL A   1      42.654  27.193  26.452  1.00  0.00     0.012 A 
ATOM     74  C   UNL A   1      42.022  25.178  27.661  1.00  0.00     0.148 A 
ATOM     75  C   UNL A   1      42.992  26.430  25.336  1.00  0.00     0.002 A 
ATOM     76  C   UNL A   1      42.410  24.419  26.563  1.00  0.00     0.091 A 
ATOM     77  F   UNL A   1      41.520  24.615  28.768  1.00  0.00    -0.205 F 
ATOM     78  C   UNL A   1      42.881  25.043  25.396  1.00  0.00     0.022 A 
BRANCH  76  79
ATOM     79  S   UNL A   1      42.389  22.624  26.569  1.00  0.00     0.127 S 
ATOM     80  O   UNL A   1      42.329  22.326  25.137  1.00  0.00    -0.237 OA
ATOM     81  O   UNL A   1      43.667  22.305  27.205  1.00  0.00    -0.237 OA
ATOM     82  O   UNL A   1      41.213  22.237  27.334  1.00  0.00    -0.744 OA
ENDBRANCH  76  79
ENDBRANCH  58  72
BRANCH  59  83
ATOM     83  C   UNL A   1      39.300  32.114  35.448  1.00  0.00     0.023 A 
ATOM     84  C   UNL A   1      38.415  31.533  36.378  1.00  0.00     0.012 A 
ATOM     85  C   UNL A   1      39.756  33.429  35.666  1.00  0.00     0.148 A 
ATOM     86  C   UNL A   1      37.956  32.260  37.477  1.00  0.00     0.002 A 
ATOM     87  C   UNL A   1      39.340  34.128  36.795  1.00  0.00     0.091 A 
ATOM     88  F   UNL A   1      40.592  33.968  34.769  1.00  0.00    -0.205 F 
ATOM     89  C   UNL A   1      38.424  33.554  37.689  1.00  0.00     0.022 A 
BRANCH  87  90
ATOM     90  S   UNL A   1      39.985  35.749  37.219  1.00  0.00     0.127 S 
ATOM     91  O   UNL A   1      39.283  36.034  38.467  1.00  0.00    -0.237 OA
ATOM     92  O   UNL A   1      41.415  35.472  37.365  1.00  0.00    -0.237 OA
ATOM     93  O   UNL A   1      39.653  36.613  36.095  1.00  0.00    -0.744 OA
ENDBRANCH  87  90
ENDBRANCH  59  83
BRANCH  71  94
ATOM     94  C   UNL A   1      44.892  28.155  34.082  1.00  0.00     0.023 A 
ATOM     95  C   UNL A   1      45.988  29.039  34.060  1.00  0.00     0.012 A 
ATOM     96  C   UNL A   1      44.928  27.024  34.922  1.00  0.00     0.148 A 
ATOM     97  C   UNL A   1      47.112  28.787  34.847  1.00  0.00     0.002 A 
ATOM     98  C   UNL A   1      46.028  26.809  35.743  1.00  0.00     0.091 A 
ATOM     99  F   UNL A   1      43.880  26.188  34.913  1.00  0.00    -0.205 F 
ATOM    100  C   UNL A   1      47.126  27.683  35.697  1.00  0.00     0.022 A 
BRANCH  98 101
ATOM    101  S   UNL A   1      46.088  25.476  36.945  1.00  0.00     0.127 S 
ATOM    102  O   UNL A   1      44.923  25.774  37.777  1.00  0.00    -0.237 OA
ATOM    103  O   UNL A   1      45.945  24.292  36.097  1.00  0.00    -0.237 OA
ATOM    104  O   UNL A   1      47.375  25.592  37.615  1.00  0.00    -0.744 OA
ENDBRANCH  98 101
ENDBRANCH  71  94
ENDBRANCH  45  46
ENDBRANCH  37  40
ENDBRANCH  35  36
ENDBRANCH   1  35
TORSDOF 20
ENDMDL
MODEL 3
REMARK VINA RESULT:     -12.2      5.159      9.512
REMARK SMILES O=C1O[C@@H](c2ccc(O)c(O)c2)[C@H](C(=O)NCCCCNC(=O)c2ccc(-c3c4nc(c(-c5cccc(S(=O)(=O)[O-])c5F)c5ccc([nH]5)c(-c5cccc(S(=O)(=O)[O-])c5F)c5nc(c(-c6cccc(S(=O)(=O)[O-])c6F)c6ccc3[nH]6)C=C5)C=C4)cc2)/C1=C\c1ccc(O)c(O)c1
REMARK SMILES IDX 19 1 18 2 17 3 16 4 14 5 15 6 13 8 1 9 2 10 3 11 87 12 4 13
REMARK SMILES IDX 88 14 5 15 6 16 12 17 7 18 10 19 8 20 11 21 9 23 89 25 90 26
REMARK SMILES IDX 96 27 91 28 94 29 92 30 95 31 93 33 20 35 21 36 22 37 23 39
REMARK SMILES IDX 24 40 25 41 86 42 26 43 85 44 27 45 28 46 29 47 79 48 30 49
REMARK SMILES IDX 84 50 78 51 80 52 31 53 83 54 77 55 76 56 32 58 64 59 44 60
REMARK SMILES IDX 63 61 45 62 48 63 62 64 81 65 46 66 47 67 61 69 82 70 49 71
REMARK SMILES IDX 33 72 34 73 42 74 35 75 37 76 43 77 36 78 38 79 39 80 40 81
REMARK SMILES IDX 41 82 65 83 66 84 74 85 67 86 69 87 75 88 68 89 70 90 71 91
REMARK SMILES IDX 72 92 73 93 50 94 51 95 59 96 52 97 54 98 60 99 53 100
REMARK SMILES IDX 55 101 56 102 57 103 58 104
REMARK H PARENT 16 7 11 22 9 24 95 32 93 34 21 38 80 57 48 68
REMARK Flexibility Score: inf
ROOT
ATOM      1  C   UNL A   1      31.668  32.061  26.990  1.00  0.00     0.023 C 
ENDROOT
BRANCH   1   2
ATOM      2  C   UNL A   1      32.063  30.824  26.193  1.00  0.00     0.023 C 
BRANCH   2   3
ATOM      3  C   UNL A   1      32.188  29.553  27.019  1.00  0.00     0.116 C 
BRANCH   3   4
ATOM      4  N   UNL A   1      33.346  28.745  26.696  1.00  0.00    -0.355 N 
ATOM      5  C   UNL A   1      33.591  27.916  25.636  1.00  0.00     0.231 C 
ATOM      6  O   UNL A   1      34.744  27.504  25.506  1.00  0.00    -0.274 OA
ATOM      7  H   UNL A   1      34.080  28.802  27.350  1.00  0.00     0.163 HD
BRANCH   5   8
ATOM      8  C   UNL A   1      32.445  27.448  24.729  1.00  0.00     0.161 C 
ATOM      9  O   UNL A   1      33.708  26.691  21.464  1.00  0.00    -0.247 OA
ATOM     10  C   UNL A   1      33.154  27.141  22.452  1.00  0.00     0.335 C 
ATOM     11  O   UNL A   1      32.600  28.373  22.542  1.00  0.00    -0.453 OA
ATOM     12  C   UNL A   1      32.916  26.444  23.728  1.00  0.00     0.054 C 
ATOM     13  C   UNL A   1      31.926  28.542  23.800  1.00  0.00     0.224 C 
ATOM     14  C   UNL A   1      33.095  25.117  23.800  1.00  0.00     0.020 C 
BRANCH  13  15
ATOM     15  C   UNL A   1      30.402  28.557  23.627  1.00  0.00    -0.002 A 
ATOM     16  C   UNL A   1      29.726  29.708  23.158  1.00  0.00     0.012 A 
ATOM     17  C   UNL A   1      29.642  27.398  23.842  1.00  0.00     0.057 A 
ATOM     18  C   UNL A   1      28.354  29.703  22.890  1.00  0.00     0.050 A 
ATOM     19  C   UNL A   1      28.273  27.406  23.597  1.00  0.00     0.157 A 
ATOM     20  C   UNL A   1      27.634  28.544  23.112  1.00  0.00     0.157 A 
BRANCH  19  21
ATOM     21  O   UNL A   1      27.548  26.272  23.826  1.00  0.00    -0.504 OA
ATOM     22  H   UNL A   1      27.731  25.492  23.339  1.00  0.00     0.293 HD
ENDBRANCH  19  21
BRANCH  20  23
ATOM     23  O   UNL A   1      26.291  28.471  22.864  1.00  0.00    -0.504 OA
ATOM     24  H   UNL A   1      25.703  28.212  23.546  1.00  0.00     0.293 HD
ENDBRANCH  20  23
ENDBRANCH  13  15
BRANCH  14  25
ATOM     25  C   UNL A   1      32.866  24.310  24.997  1.00  0.00    -0.021 A 
ATOM     26  C   UNL A   1      31.574  23.888  25.352  1.00  0.00     0.012 A 
ATOM     27  C   UNL A   1      33.961  23.916  25.773  1.00  0.00     0.058 A 
ATOM     28  C   UNL A   1      31.370  23.109  26.494  1.00  0.00     0.051 A 
ATOM     29  C   UNL A   1      33.750  23.133  26.897  1.00  0.00     0.157 A 
ATOM     30  C   UNL A   1      32.466  22.740  27.264  1.00  0.00     0.157 A 
BRANCH  29  31
ATOM     31  O   UNL A   1      34.823  22.750  27.651  1.00  0.00    -0.504 OA
ATOM     32  H   UNL A   1      34.703  22.510  28.549  1.00  0.00     0.293 HD
ENDBRANCH  29  31
BRANCH  30  33
ATOM     33  O   UNL A   1      32.331  21.980  28.393  1.00  0.00    -0.504 OA
ATOM     34  H   UNL A   1      32.123  22.388  29.210  1.00  0.00     0.293 HD
ENDBRANCH  30  33
ENDBRANCH  14  25
ENDBRANCH   5   8
ENDBRANCH   3   4
ENDBRANCH   2   3
ENDBRANCH   1   2
BRANCH   1  35
ATOM     35  C   UNL A   1      32.832  32.834  27.592  1.00  0.00     0.116 C 
BRANCH  35  36
ATOM     36  N   UNL A   1      32.537  34.245  27.818  1.00  0.00    -0.352 N 
ATOM     37  C   UNL A   1      33.096  35.081  28.760  1.00  0.00     0.251 C 
ATOM     38  H   UNL A   1      31.859  34.647  27.229  1.00  0.00     0.163 HD
ATOM     39  O   UNL A   1      32.671  36.218  28.925  1.00  0.00    -0.269 OA
BRANCH  37  40
ATOM     40  C   UNL A   1      34.198  34.554  29.589  1.00  0.00     0.039 A 
ATOM     41  C   UNL A   1      33.901  33.859  30.763  1.00  0.00     0.014 A 
ATOM     42  C   UNL A   1      35.511  34.645  29.122  1.00  0.00     0.014 A 
ATOM     43  C   UNL A   1      34.924  33.180  31.431  1.00  0.00     0.010 A 
ATOM     44  C   UNL A   1      36.502  33.892  29.735  1.00  0.00     0.010 A 
ATOM     45  C   UNL A   1      36.222  33.155  30.897  1.00  0.00    -0.014 A 
BRANCH  45  46
ATOM     46  C   UNL A   1      37.326  32.389  31.532  1.00  0.00     0.031 A 
ATOM     47  C   UNL A   1      37.879  32.860  32.850  1.00  0.00     0.074 A 
ATOM     48  C   UNL A   1      37.903  31.359  30.883  1.00  0.00     0.049 A 
ATOM     49  N   UNL A   1      38.937  32.449  33.497  1.00  0.00    -0.248 NA
ATOM     50  C   UNL A   1      37.166  33.969  33.509  1.00  0.00     0.031 C 
ATOM     51  C   UNL A   1      37.494  30.838  29.576  1.00  0.00     0.029 A 
ATOM     52  N   UNL A   1      38.988  30.586  31.220  1.00  0.00    -0.354 N 
ATOM     53  C   UNL A   1      39.042  33.275  34.609  1.00  0.00     0.074 A 
ATOM     54  C   UNL A   1      37.967  34.237  34.528  1.00  0.00     0.031 C 
ATOM     55  C   UNL A   1      38.316  29.835  29.224  1.00  0.00     0.029 A 
ATOM     56  C   UNL A   1      39.337  29.670  30.253  1.00  0.00     0.049 A 
ATOM     57  H   UNL A   1      39.469  30.677  32.074  1.00  0.00     0.167 HD
ATOM     58  C   UNL A   1      39.937  33.221  35.623  1.00  0.00     0.034 A 
ATOM     59  C   UNL A   1      40.376  28.813  30.194  1.00  0.00     0.034 A 
ATOM     60  C   UNL A   1      40.980  32.240  35.719  1.00  0.00     0.049 A 
ATOM     61  C   UNL A   1      41.354  28.769  31.340  1.00  0.00     0.074 A 
ATOM     62  C   UNL A   1      41.896  32.056  36.739  1.00  0.00     0.029 A 
ATOM     63  N   UNL A   1      41.250  31.278  34.759  1.00  0.00    -0.354 N 
ATOM     64  N   UNL A   1      41.369  29.480  32.441  1.00  0.00    -0.248 NA
ATOM     65  C   UNL A   1      42.444  27.784  31.249  1.00  0.00     0.031 C 
ATOM     66  C   UNL A   1      42.742  31.004  36.380  1.00  0.00     0.029 A 
ATOM     67  C   UNL A   1      42.321  30.500  35.159  1.00  0.00     0.049 A 
ATOM     68  H   UNL A   1      40.753  31.165  33.916  1.00  0.00     0.167 HD
ATOM     69  C   UNL A   1      42.427  28.990  33.198  1.00  0.00     0.074 A 
ATOM     70  C   UNL A   1      43.030  27.920  32.430  1.00  0.00     0.031 C 
ATOM     71  C   UNL A   1      42.864  29.393  34.416  1.00  0.00     0.034 A 
BRANCH  58  72
ATOM     72  C   UNL A   1      39.797  34.232  36.732  1.00  0.00     0.023 A 
ATOM     73  C   UNL A   1      40.102  35.587  36.487  1.00  0.00     0.012 A 
ATOM     74  C   UNL A   1      39.316  33.851  38.000  1.00  0.00     0.148 A 
ATOM     75  C   UNL A   1      39.973  36.539  37.495  1.00  0.00     0.002 A 
ATOM     76  C   UNL A   1      39.140  34.815  38.985  1.00  0.00     0.091 A 
ATOM     77  F   UNL A   1      39.050  32.556  38.220  1.00  0.00    -0.205 F 
ATOM     78  C   UNL A   1      39.481  36.156  38.740  1.00  0.00     0.022 A 
BRANCH  76  79
ATOM     79  S   UNL A   1      38.433  34.440  40.592  1.00  0.00     0.127 S 
ATOM     80  O   UNL A   1      38.019  35.767  41.048  1.00  0.00    -0.237 OA
ATOM     81  O   UNL A   1      37.330  33.545  40.239  1.00  0.00    -0.237 OA
ATOM     82  O   UNL A   1      39.497  33.820  41.367  1.00  0.00    -0.744 OA
ENDBRANCH  76  79
ENDBRANCH  58  72
BRANCH  59  83
ATOM     83  C   UNL A   1      40.525  27.885  29.035  1.00  0.00     0.023 A 
ATOM     84  C   UNL A   1      39.720  26.731  28.964  1.00  0.00     0.012 A 
ATOM     85  C   UNL A   1      41.456  28.134  28.007  1.00  0.00     0.148 A 
ATOM     86  C   UNL A   1      39.869  25.819  27.919  1.00  0.00     0.002 A 
ATOM     87  C   UNL A   1      41.559  27.250  26.938  1.00  0.00     0.091 A 
ATOM     88  F   UNL A   1      42.218  29.232  28.093  1.00  0.00    -0.205 F 
ATOM     89  C   UNL A   1      40.782  26.082  26.902  1.00  0.00     0.022 A 
BRANCH  87  90
ATOM     90  S   UNL A   1      42.615  27.569  25.521  1.00  0.00     0.127 S 
ATOM     91  O   UNL A   1      42.058  28.818  25.007  1.00  0.00    -0.237 OA
ATOM     92  O   UNL A   1      43.931  27.694  26.150  1.00  0.00    -0.237 OA
ATOM     93  O   UNL A   1      42.472  26.409  24.652  1.00  0.00    -0.744 OA
ENDBRANCH  87  90
ENDBRANCH  59  83
BRANCH  71  94
ATOM     94  C   UNL A   1      43.994  28.630  35.053  1.00  0.00     0.023 A 
ATOM     95  C   UNL A   1      45.331  28.999  34.811  1.00  0.00     0.012 A 
ATOM     96  C   UNL A   1      43.713  27.607  35.983  1.00  0.00     0.148 A 
ATOM     97  C   UNL A   1      46.373  28.345  35.469  1.00  0.00     0.002 A 
ATOM     98  C   UNL A   1      44.752  26.999  36.674  1.00  0.00     0.091 A 
ATOM     99  F   UNL A   1      42.434  27.262  36.184  1.00  0.00    -0.205 F 
ATOM    100  C   UNL A   1      46.084  27.358  36.409  1.00  0.00     0.022 A 
BRANCH  98 101
ATOM    101  S   UNL A   1      44.469  25.796  37.977  1.00  0.00     0.127 S 
ATOM    102  O   UNL A   1      43.810  26.611  38.996  1.00  0.00    -0.237 OA
ATOM    103  O   UNL A   1      43.598  24.825  37.314  1.00  0.00    -0.237 OA
ATOM    104  O   UNL A   1      45.781  25.281  38.346  1.00  0.00    -0.744 OA
ENDBRANCH  98 101
ENDBRANCH  71  94
ENDBRANCH  45  46
ENDBRANCH  37  40
ENDBRANCH  35  36
ENDBRANCH   1  35
TORSDOF 20
ENDMDL
