MODEL 1
REMARK VINA RESULT:     -11.5      0.000      0.000
REMARK SMILES CC(C)C[C@H]([NH2+]C[C@@](C)(O)C#Cc1ccccc1)C(=O)NCCCCNC(=O)c1ccc(-c2c3nc(c(-c4cccc(S(=O)(=O)[O-])c4F)c4ccc([nH]4)c(-c4cccc(S(=O)(=O)[O-])c4F)c4nc(c(-c5cccc(S(=O)(=O)[O-])c5F)c5ccc2[nH]5)C=C4)C=C3)cc1
REMARK SMILES IDX 22 1 21 2 19 3 20 4 5 6 4 7 2 8 1 9 3 10 6 11 7 14 8 15 9 16
REMARK SMILES IDX 10 17 11 19 12 20 13 21 14 22 18 23 15 24 17 25 16 26 23 27
REMARK SMILES IDX 24 28 25 29 26 30 27 31 28 33 29 34 30 35 91 36 31 37 90 38
REMARK SMILES IDX 32 39 33 40 34 41 84 42 35 43 89 44 83 45 85 46 36 47 88 48
REMARK SMILES IDX 82 49 81 50 37 52 69 53 49 54 68 55 50 56 53 57 67 58 86 59
REMARK SMILES IDX 51 60 52 61 66 63 87 64 54 65 38 66 39 67 47 68 40 69 42 70
REMARK SMILES IDX 48 71 41 72 43 73 44 74 45 75 46 76 70 77 71 78 79 79 72 80
REMARK SMILES IDX 74 81 80 82 73 83 75 84 76 85 77 86 78 87 55 88 56 89 64 90
REMARK SMILES IDX 57 91 59 92 65 93 58 94 60 95 61 96 62 97 63 98
REMARK H PARENT 21 5 6 12 6 13 10 18 26 32 85 51 53 62
REMARK Flexibility Score: inf
ROOT
ATOM      1  C   UNL A   1      32.452  26.786  26.184  1.00  0.00     0.116 C 
ENDROOT
BRANCH   1   2
ATOM      2  N   UNL A   1      31.665  25.712  26.761  1.00  0.00    -0.351 N 
ATOM      3  C   UNL A   1      31.716  24.362  26.534  1.00  0.00     0.278 C 
ATOM      4  O   UNL A   1      30.976  23.634  27.199  1.00  0.00    -0.268 OA
ATOM      5  H   UNL A   1      30.990  25.998  27.417  1.00  0.00     0.163 HD
BRANCH   3   6
ATOM      6  C   UNL A   1      32.694  23.780  25.483  1.00  0.00     0.272 C 
BRANCH   6   7
ATOM      7  C   UNL A   1      31.953  22.779  24.564  1.00  0.00     0.078 C 
BRANCH   7   8
ATOM      8  C   UNL A   1      32.668  22.467  23.233  1.00  0.00    -0.011 C 
ATOM      9  C   UNL A   1      31.925  21.392  22.438  1.00  0.00     0.007 C 
ATOM     10  C   UNL A   1      32.758  23.752  22.403  1.00  0.00     0.007 C 
ENDBRANCH   7   8
ENDBRANCH   6   7
BRANCH   6  11
ATOM     11  N   UNL A   1      33.914  23.309  26.182  1.00  0.00    -0.333 N 
ATOM     12  H   UNL A   1      33.903  22.290  26.167  1.00  0.00     0.347 HD
ATOM     13  H   UNL A   1      33.864  23.727  27.111  1.00  0.00     0.347 HD
BRANCH  11  14
ATOM     14  C   UNL A   1      35.200  23.743  25.640  1.00  0.00     0.310 C 
BRANCH  14  15
ATOM     15  C   UNL A   1      36.234  22.619  25.321  1.00  0.00     0.171 C 
ATOM     16  C   UNL A   1      37.121  22.968  24.125  1.00  0.00     0.063 C 
BRANCH  15  17
ATOM     17  O   UNL A   1      37.087  22.465  26.461  1.00  0.00    -0.372 OA
ATOM     18  H   UNL A   1      37.935  22.084  26.181  1.00  0.00     0.212 HD
ENDBRANCH  15  17
BRANCH  15  19
ATOM     19  C   UNL A   1      35.546  21.343  25.088  1.00  0.00    -0.057 C 
ATOM     20  C   UNL A   1      34.964  20.303  24.942  1.00  0.00    -0.064 C 
BRANCH  20  21
ATOM     21  C   UNL A   1      34.284  19.056  24.812  1.00  0.00     0.025 A 
ATOM     22  C   UNL A   1      34.951  17.946  24.289  1.00  0.00     0.017 A 
ATOM     23  C   UNL A   1      32.944  18.956  25.188  1.00  0.00     0.017 A 
ATOM     24  C   UNL A   1      34.270  16.737  24.133  1.00  0.00     0.001 A 
ATOM     25  C   UNL A   1      32.266  17.747  25.031  1.00  0.00     0.001 A 
ATOM     26  C   UNL A   1      32.929  16.640  24.501  1.00  0.00     0.000 A 
ENDBRANCH  20  21
ENDBRANCH  15  19
ENDBRANCH  14  15
ENDBRANCH  11  14
ENDBRANCH   6  11
ENDBRANCH   3   6
ENDBRANCH   1   2
BRANCH   1  27
ATOM     27  C   UNL A   1      31.659  27.594  25.164  1.00  0.00     0.023 C 
BRANCH  27  28
ATOM     28  C   UNL A   1      31.462  29.055  25.537  1.00  0.00     0.023 C 
BRANCH  28  29
ATOM     29  C   UNL A   1      32.675  29.709  26.175  1.00  0.00     0.116 C 
BRANCH  29  30
ATOM     30  N   UNL A   1      32.434  31.081  26.609  1.00  0.00    -0.352 N 
ATOM     31  C   UNL A   1      33.259  31.903  27.348  1.00  0.00     0.251 C 
ATOM     32  H   UNL A   1      31.571  31.470  26.339  1.00  0.00     0.163 HD
ATOM     33  O   UNL A   1      32.858  32.993  27.742  1.00  0.00    -0.269 OA
BRANCH  31  34
ATOM     34  C   UNL A   1      34.609  31.413  27.693  1.00  0.00     0.039 A 
ATOM     35  C   UNL A   1      34.791  30.065  28.003  1.00  0.00     0.014 A 
ATOM     36  C   UNL A   1      35.655  32.324  27.846  1.00  0.00     0.014 A 
ATOM     37  C   UNL A   1      35.929  29.679  28.694  1.00  0.00     0.010 A 
ATOM     38  C   UNL A   1      36.854  31.898  28.425  1.00  0.00     0.010 A 
ATOM     39  C   UNL A   1      36.975  30.589  28.920  1.00  0.00    -0.014 A 
BRANCH  39  40
ATOM     40  C   UNL A   1      38.174  30.145  29.681  1.00  0.00     0.031 A 
ATOM     41  C   UNL A   1      38.449  30.654  31.074  1.00  0.00     0.074 A 
ATOM     42  C   UNL A   1      38.998  29.234  29.124  1.00  0.00     0.049 A 
ATOM     43  N   UNL A   1      39.454  30.372  31.862  1.00  0.00    -0.248 NA
ATOM     44  C   UNL A   1      37.481  31.596  31.664  1.00  0.00     0.031 C 
ATOM     45  C   UNL A   1      38.844  28.666  27.780  1.00  0.00     0.029 A 
ATOM     46  N   UNL A   1      40.123  28.621  29.613  1.00  0.00    -0.354 N 
ATOM     47  C   UNL A   1      39.265  31.124  33.014  1.00  0.00     0.074 A 
ATOM     48  C   UNL A   1      38.049  31.883  32.830  1.00  0.00     0.031 C 
ATOM     49  C   UNL A   1      39.815  27.768  27.566  1.00  0.00     0.029 A 
ATOM     50  C   UNL A   1      40.704  27.751  28.721  1.00  0.00     0.049 A 
ATOM     51  H   UNL A   1      40.480  28.787  30.516  1.00  0.00     0.167 HD
ATOM     52  C   UNL A   1      40.027  31.164  34.132  1.00  0.00     0.034 A 
ATOM     53  C   UNL A   1      41.845  27.040  28.798  1.00  0.00     0.034 A 
ATOM     54  C   UNL A   1      41.211  30.376  34.336  1.00  0.00     0.049 A 
ATOM     55  C   UNL A   1      42.679  27.124  30.041  1.00  0.00     0.074 A 
ATOM     56  C   UNL A   1      42.019  30.325  35.459  1.00  0.00     0.029 A 
ATOM     57  N   UNL A   1      41.758  29.507  33.408  1.00  0.00    -0.354 N 
ATOM     58  N   UNL A   1      42.444  27.795  31.140  1.00  0.00    -0.248 NA
ATOM     59  C   UNL A   1      43.925  26.345  30.064  1.00  0.00     0.031 C 
ATOM     60  C   UNL A   1      43.070  29.445  35.201  1.00  0.00     0.029 A 
ATOM     61  C   UNL A   1      42.898  28.923  33.929  1.00  0.00     0.049 A 
ATOM     62  H   UNL A   1      41.392  29.332  32.511  1.00  0.00     0.167 HD
ATOM     63  C   UNL A   1      43.499  27.504  31.994  1.00  0.00     0.074 A 
ATOM     64  C   UNL A   1      44.368  26.584  31.291  1.00  0.00     0.031 C 
ATOM     65  C   UNL A   1      43.729  27.972  33.243  1.00  0.00     0.034 A 
BRANCH  52  66
ATOM     66  C   UNL A   1      39.605  32.054  35.270  1.00  0.00     0.023 A 
ATOM     67  C   UNL A   1      39.800  33.445  35.164  1.00  0.00     0.012 A 
ATOM     68  C   UNL A   1      38.862  31.534  36.348  1.00  0.00     0.148 A 
ATOM     69  C   UNL A   1      39.250  34.308  36.111  1.00  0.00     0.002 A 
ATOM     70  C   UNL A   1      38.296  32.403  37.273  1.00  0.00     0.091 A 
ATOM     71  F   UNL A   1      38.693  30.206  36.422  1.00  0.00    -0.205 F 
ATOM     72  C   UNL A   1      38.487  33.789  37.156  1.00  0.00     0.022 A 
BRANCH  70  73
ATOM     73  S   UNL A   1      37.261  31.842  38.630  1.00  0.00     0.127 S 
ATOM     74  O   UNL A   1      36.179  32.825  38.599  1.00  0.00    -0.237 OA
ATOM     75  O   UNL A   1      36.880  30.500  38.190  1.00  0.00    -0.237 OA
ATOM     76  O   UNL A   1      38.096  31.886  39.823  1.00  0.00    -0.744 OA
ENDBRANCH  70  73
ENDBRANCH  52  66
BRANCH  53  77
ATOM     77  C   UNL A   1      42.254  26.191  27.648  1.00  0.00     0.023 A 
ATOM     78  C   UNL A   1      43.145  26.701  26.687  1.00  0.00     0.012 A 
ATOM     79  C   UNL A   1      41.802  24.861  27.541  1.00  0.00     0.148 A 
ATOM     80  C   UNL A   1      43.573  25.900  25.628  1.00  0.00     0.002 A 
ATOM     81  C   UNL A   1      42.262  24.058  26.506  1.00  0.00     0.091 A 
ATOM     82  F   UNL A   1      40.956  24.403  28.474  1.00  0.00    -0.205 F 
ATOM     83  C   UNL A   1      43.140  24.578  25.543  1.00  0.00     0.022 A 
BRANCH  81  84
ATOM     84  S   UNL A   1      41.826  22.323  26.364  1.00  0.00     0.127 S 
ATOM     85  O   UNL A   1      40.369  22.390  26.271  1.00  0.00    -0.237 OA
ATOM     86  O   UNL A   1      42.506  21.945  25.125  1.00  0.00    -0.237 OA
ATOM     87  O   UNL A   1      42.348  21.681  27.562  1.00  0.00    -0.744 OA
ENDBRANCH  81  84
ENDBRANCH  53  77
BRANCH  65  88
ATOM     88  C   UNL A   1      44.948  27.484  33.972  1.00  0.00     0.023 A 
ATOM     89  C   UNL A   1      46.129  28.248  33.941  1.00  0.00     0.012 A 
ATOM     90  C   UNL A   1      44.873  26.346  34.798  1.00  0.00     0.148 A 
ATOM     91  C   UNL A   1      47.223  27.885  34.723  1.00  0.00     0.002 A 
ATOM     92  C   UNL A   1      45.955  26.008  35.600  1.00  0.00     0.091 A 
ATOM     93  F   UNL A   1      43.734  25.639  34.807  1.00  0.00    -0.205 F 
ATOM     94  C   UNL A   1      47.131  26.775  35.563  1.00  0.00     0.022 A 
BRANCH  92  95
ATOM     95  S   UNL A   1      45.915  24.631  36.753  1.00  0.00     0.127 S 
ATOM     96  O   UNL A   1      44.846  25.040  37.664  1.00  0.00    -0.237 OA
ATOM     97  O   UNL A   1      45.577  23.508  35.880  1.00  0.00    -0.237 OA
ATOM     98  O   UNL A   1      47.241  24.564  37.351  1.00  0.00    -0.744 OA
ENDBRANCH  92  95
ENDBRANCH  65  88
ENDBRANCH  39  40
ENDBRANCH  31  34
ENDBRANCH  29  30
ENDBRANCH  28  29
ENDBRANCH  27  28
ENDBRANCH   1  27
TORSDOF 22
ENDMDL
MODEL 2
REMARK VINA RESULT:     -11.4      2.031      2.682
REMARK SMILES CC(C)C[C@H]([NH2+]C[C@@](C)(O)C#Cc1ccccc1)C(=O)NCCCCNC(=O)c1ccc(-c2c3nc(c(-c4cccc(S(=O)(=O)[O-])c4F)c4ccc([nH]4)c(-c4cccc(S(=O)(=O)[O-])c4F)c4nc(c(-c5cccc(S(=O)(=O)[O-])c5F)c5ccc2[nH]5)C=C4)C=C3)cc1
REMARK SMILES IDX 22 1 21 2 19 3 20 4 5 6 4 7 2 8 1 9 3 10 6 11 7 14 8 15 9 16
REMARK SMILES IDX 10 17 11 19 12 20 13 21 14 22 18 23 15 24 17 25 16 26 23 27
REMARK SMILES IDX 24 28 25 29 26 30 27 31 28 33 29 34 30 35 91 36 31 37 90 38
REMARK SMILES IDX 32 39 33 40 34 41 84 42 35 43 89 44 83 45 85 46 36 47 88 48
REMARK SMILES IDX 82 49 81 50 37 52 69 53 49 54 68 55 50 56 53 57 67 58 86 59
REMARK SMILES IDX 51 60 52 61 66 63 87 64 54 65 38 66 39 67 47 68 40 69 42 70
REMARK SMILES IDX 48 71 41 72 43 73 44 74 45 75 46 76 70 77 71 78 79 79 72 80
REMARK SMILES IDX 74 81 80 82 73 83 75 84 76 85 77 86 78 87 55 88 56 89 64 90
REMARK SMILES IDX 57 91 59 92 65 93 58 94 60 95 61 96 62 97 63 98
REMARK H PARENT 21 5 6 12 6 13 10 18 26 32 85 51 53 62
REMARK Flexibility Score: inf
ROOT
ATOM      1  C   UNL A   1      32.775  26.617  26.171  1.00  0.00     0.116 C 
ENDROOT
BRANCH   1   2
ATOM      2  N   UNL A   1      31.854  25.632  26.708  1.00  0.00    -0.351 N 
ATOM      3  C   UNL A   1      31.826  24.273  26.545  1.00  0.00     0.278 C 
ATOM      4  O   UNL A   1      30.969  23.633  27.159  1.00  0.00    -0.268 OA
ATOM      5  H   UNL A   1      31.140  25.998  27.278  1.00  0.00     0.163 HD
BRANCH   3   6
ATOM      6  C   UNL A   1      32.857  23.570  25.627  1.00  0.00     0.272 C 
BRANCH   6   7
ATOM      7  C   UNL A   1      32.153  22.504  24.754  1.00  0.00     0.078 C 
BRANCH   7   8
ATOM      8  C   UNL A   1      32.208  22.768  23.235  1.00  0.00    -0.011 C 
ATOM      9  C   UNL A   1      33.563  23.342  22.816  1.00  0.00     0.007 C 
ATOM     10  C   UNL A   1      31.956  21.451  22.492  1.00  0.00     0.007 C 
ENDBRANCH   7   8
ENDBRANCH   6   7
BRANCH   6  11
ATOM     11  N   UNL A   1      34.011  23.141  26.453  1.00  0.00    -0.333 N 
ATOM     12  H   UNL A   1      34.027  22.121  26.451  1.00  0.00     0.347 HD
ATOM     13  H   UNL A   1      33.854  23.566  27.367  1.00  0.00     0.347 HD
BRANCH  11  14
ATOM     14  C   UNL A   1      35.333  23.604  26.041  1.00  0.00     0.310 C 
BRANCH  14  15
ATOM     15  C   UNL A   1      36.286  22.530  25.430  1.00  0.00     0.171 C 
ATOM     16  C   UNL A   1      36.943  23.006  24.133  1.00  0.00     0.063 C 
BRANCH  15  17
ATOM     17  O   UNL A   1      37.332  22.277  26.376  1.00  0.00    -0.372 OA
ATOM     18  H   UNL A   1      37.789  23.108  26.583  1.00  0.00     0.212 HD
ENDBRANCH  15  17
BRANCH  15  19
ATOM     19  C   UNL A   1      35.561  21.275  25.202  1.00  0.00    -0.057 C 
ATOM     20  C   UNL A   1      34.998  20.237  24.978  1.00  0.00    -0.064 C 
BRANCH  20  21
ATOM     21  C   UNL A   1      34.335  19.014  24.667  1.00  0.00     0.025 A 
ATOM     22  C   UNL A   1      32.948  18.915  24.802  1.00  0.00     0.017 A 
ATOM     23  C   UNL A   1      35.080  17.909  24.251  1.00  0.00     0.017 A 
ATOM     24  C   UNL A   1      32.309  17.705  24.529  1.00  0.00     0.001 A 
ATOM     25  C   UNL A   1      34.438  16.701  23.979  1.00  0.00     0.001 A 
ATOM     26  C   UNL A   1      33.055  16.599  24.121  1.00  0.00     0.000 A 
ENDBRANCH  20  21
ENDBRANCH  15  19
ENDBRANCH  14  15
ENDBRANCH  11  14
ENDBRANCH   6  11
ENDBRANCH   3   6
ENDBRANCH   1   2
BRANCH   1  27
ATOM     27  C   UNL A   1      32.047  27.763  25.477  1.00  0.00     0.023 C 
BRANCH  27  28
ATOM     28  C   UNL A   1      32.114  29.089  26.219  1.00  0.00     0.023 C 
BRANCH  28  29
ATOM     29  C   UNL A   1      33.403  29.314  26.989  1.00  0.00     0.116 C 
BRANCH  29  30
ATOM     30  N   UNL A   1      33.489  30.633  27.606  1.00  0.00    -0.352 N 
ATOM     31  C   UNL A   1      34.516  31.162  28.358  1.00  0.00     0.251 C 
ATOM     32  H   UNL A   1      32.712  31.222  27.466  1.00  0.00     0.163 HD
ATOM     33  O   UNL A   1      34.384  32.246  28.916  1.00  0.00    -0.269 OA
BRANCH  31  34
ATOM     34  C   UNL A   1      35.751  30.367  28.515  1.00  0.00     0.039 A 
ATOM     35  C   UNL A   1      35.930  29.597  29.665  1.00  0.00     0.014 A 
ATOM     36  C   UNL A   1      36.783  30.505  27.585  1.00  0.00     0.014 A 
ATOM     37  C   UNL A   1      37.207  29.176  30.004  1.00  0.00     0.010 A 
ATOM     38  C   UNL A   1      38.039  29.963  27.873  1.00  0.00     0.010 A 
ATOM     39  C   UNL A   1      38.281  29.357  29.117  1.00  0.00    -0.014 A 
BRANCH  39  40
ATOM     40  C   UNL A   1      39.640  28.909  29.520  1.00  0.00     0.031 A 
ATOM     41  C   UNL A   1      40.395  29.601  30.629  1.00  0.00     0.074 A 
ATOM     42  C   UNL A   1      40.180  27.833  28.911  1.00  0.00     0.049 A 
ATOM     43  N   UNL A   1      41.590  29.337  31.090  1.00  0.00    -0.248 NA
ATOM     44  C   UNL A   1      39.733  30.728  31.310  1.00  0.00     0.031 C 
ATOM     45  C   UNL A   1      39.554  27.077  27.821  1.00  0.00     0.029 A 
ATOM     46  N   UNL A   1      41.370  27.184  29.119  1.00  0.00    -0.354 N 
ATOM     47  C   UNL A   1      41.839  30.282  32.078  1.00  0.00     0.074 A 
ATOM     48  C   UNL A   1      40.674  31.133  32.155  1.00  0.00     0.031 C 
ATOM     49  C   UNL A   1      40.347  26.053  27.480  1.00  0.00     0.029 A 
ATOM     50  C   UNL A   1      41.571  26.122  28.269  1.00  0.00     0.049 A 
ATOM     51  H   UNL A   1      42.018  27.452  29.811  1.00  0.00     0.167 HD
ATOM     52  C   UNL A   1      42.934  30.415  32.863  1.00  0.00     0.034 A 
ATOM     53  C   UNL A   1      42.632  25.309  28.108  1.00  0.00     0.034 A 
ATOM     54  C   UNL A   1      44.074  29.541  32.820  1.00  0.00     0.049 A 
ATOM     55  C   UNL A   1      43.838  25.497  28.978  1.00  0.00     0.074 A 
ATOM     56  C   UNL A   1      45.209  29.581  33.613  1.00  0.00     0.029 A 
ATOM     57  N   UNL A   1      44.231  28.479  31.948  1.00  0.00    -0.354 N 
ATOM     58  N   UNL A   1      44.023  26.359  29.946  1.00  0.00    -0.248 NA
ATOM     59  C   UNL A   1      44.977  24.597  28.746  1.00  0.00     0.031 C 
ATOM     60  C   UNL A   1      46.064  28.558  33.201  1.00  0.00     0.029 A 
ATOM     61  C   UNL A   1      45.447  27.862  32.175  1.00  0.00     0.049 A 
ATOM     62  H   UNL A   1      43.576  28.204  31.266  1.00  0.00     0.167 HD
ATOM     63  C   UNL A   1      45.287  26.092  30.454  1.00  0.00     0.074 A 
ATOM     64  C   UNL A   1      45.819  24.979  29.697  1.00  0.00     0.031 C 
ATOM     65  C   UNL A   1      45.948  26.724  31.451  1.00  0.00     0.034 A 
BRANCH  52  66
ATOM     66  C   UNL A   1      42.968  31.518  33.886  1.00  0.00     0.023 A 
ATOM     67  C   UNL A   1      43.486  32.776  33.525  1.00  0.00     0.012 A 
ATOM     68  C   UNL A   1      42.327  31.358  35.131  1.00  0.00     0.148 A 
ATOM     69  C   UNL A   1      43.355  33.866  34.385  1.00  0.00     0.002 A 
ATOM     70  C   UNL A   1      42.179  32.455  35.971  1.00  0.00     0.091 A 
ATOM     71  F   UNL A   1      41.844  30.149  35.448  1.00  0.00    -0.205 F 
ATOM     72  C   UNL A   1      42.690  33.709  35.599  1.00  0.00     0.022 A 
BRANCH  70  73
ATOM     73  S   UNL A   1      41.302  32.372  37.537  1.00  0.00     0.127 S 
ATOM     74  O   UNL A   1      41.246  33.784  37.917  1.00  0.00    -0.237 OA
ATOM     75  O   UNL A   1      40.018  31.796  37.138  1.00  0.00    -0.237 OA
ATOM     76  O   UNL A   1      42.111  31.535  38.411  1.00  0.00    -0.744 OA
ENDBRANCH  70  73
ENDBRANCH  52  66
BRANCH  53  77
ATOM     77  C   UNL A   1      42.585  24.246  27.070  1.00  0.00     0.023 A 
ATOM     78  C   UNL A   1      43.354  24.378  25.900  1.00  0.00     0.012 A 
ATOM     79  C   UNL A   1      41.820  23.079  27.271  1.00  0.00     0.148 A 
ATOM     80  C   UNL A   1      43.355  23.368  24.939  1.00  0.00     0.002 A 
ATOM     81  C   UNL A   1      41.856  22.061  26.328  1.00  0.00     0.091 A 
ATOM     82  F   UNL A   1      41.100  22.980  28.397  1.00  0.00    -0.205 F 
ATOM     83  C   UNL A   1      42.615  22.207  25.157  1.00  0.00     0.022 A 
BRANCH  81  84
ATOM     84  S   UNL A   1      41.004  20.499  26.562  1.00  0.00     0.127 S 
ATOM     85  O   UNL A   1      39.643  20.840  26.154  1.00  0.00    -0.237 OA
ATOM     86  O   UNL A   1      41.724  19.625  25.636  1.00  0.00    -0.237 OA
ATOM     87  O   UNL A   1      41.169  20.161  27.968  1.00  0.00    -0.744 OA
ENDBRANCH  81  84
ENDBRANCH  53  77
BRANCH  65  88
ATOM     88  C   UNL A   1      47.313  26.227  31.828  1.00  0.00     0.023 A 
ATOM     89  C   UNL A   1      48.447  26.746  31.176  1.00  0.00     0.012 A 
ATOM     90  C   UNL A   1      47.474  25.353  32.921  1.00  0.00     0.148 A 
ATOM     91  C   UNL A   1      49.726  26.401  31.608  1.00  0.00     0.002 A 
ATOM     92  C   UNL A   1      48.751  25.039  33.366  1.00  0.00     0.091 A 
ATOM     93  F   UNL A   1      46.374  24.876  33.522  1.00  0.00    -0.205 F 
ATOM     94  C   UNL A   1      49.878  25.560  32.710  1.00  0.00     0.022 A 
BRANCH  92  95
ATOM     95  S   UNL A   1      49.049  24.011  34.809  1.00  0.00     0.127 S 
ATOM     96  O   UNL A   1      50.508  24.044  34.899  1.00  0.00    -0.237 OA
ATOM     97  O   UNL A   1      48.355  24.750  35.862  1.00  0.00    -0.237 OA
ATOM     98  O   UNL A   1      48.481  22.705  34.501  1.00  0.00    -0.744 OA
ENDBRANCH  92  95
ENDBRANCH  65  88
ENDBRANCH  39  40
ENDBRANCH  31  34
ENDBRANCH  29  30
ENDBRANCH  28  29
ENDBRANCH  27  28
ENDBRANCH   1  27
TORSDOF 22
ENDMDL
MODEL 3
REMARK VINA RESULT:     -10.5      3.112      8.256
REMARK SMILES CC(C)C[C@H]([NH2+]C[C@@](C)(O)C#Cc1ccccc1)C(=O)NCCCCNC(=O)c1ccc(-c2c3nc(c(-c4cccc(S(=O)(=O)[O-])c4F)c4ccc([nH]4)c(-c4cccc(S(=O)(=O)[O-])c4F)c4nc(c(-c5cccc(S(=O)(=O)[O-])c5F)c5ccc2[nH]5)C=C4)C=C3)cc1
REMARK SMILES IDX 22 1 21 2 19 3 20 4 5 6 4 7 2 8 1 9 3 10 6 11 7 14 8 15 9 16
REMARK SMILES IDX 10 17 11 19 12 20 13 21 14 22 18 23 15 24 17 25 16 26 23 27
REMARK SMILES IDX 24 28 25 29 26 30 27 31 28 33 29 34 30 35 91 36 31 37 90 38
REMARK SMILES IDX 32 39 33 40 34 41 84 42 35 43 89 44 83 45 85 46 36 47 88 48
REMARK SMILES IDX 82 49 81 50 37 52 69 53 49 54 68 55 50 56 53 57 67 58 86 59
REMARK SMILES IDX 51 60 52 61 66 63 87 64 54 65 38 66 39 67 47 68 40 69 42 70
REMARK SMILES IDX 48 71 41 72 43 73 44 74 45 75 46 76 70 77 71 78 79 79 72 80
REMARK SMILES IDX 74 81 80 82 73 83 75 84 76 85 77 86 78 87 55 88 56 89 64 90
REMARK SMILES IDX 57 91 59 92 65 93 58 94 60 95 61 96 62 97 63 98
REMARK H PARENT 21 5 6 12 6 13 10 18 26 32 85 51 53 62
REMARK Flexibility Score: inf
ROOT
ATOM      1  C   UNL A   1      32.211  27.387  26.656  1.00  0.00     0.116 C 
ENDROOT
BRANCH   1   2
ATOM      2  N   UNL A   1      30.960  26.653  26.633  1.00  0.00    -0.351 N 
ATOM      3  C   UNL A   1      30.697  25.374  26.222  1.00  0.00     0.278 C 
ATOM      4  O   UNL A   1      29.548  24.945  26.356  1.00  0.00    -0.268 OA
ATOM      5  H   UNL A   1      30.179  27.152  26.964  1.00  0.00     0.163 HD
BRANCH   3   6
ATOM      6  C   UNL A   1      31.823  24.494  25.624  1.00  0.00     0.272 C 
BRANCH   6   7
ATOM      7  C   UNL A   1      32.846  24.118  26.723  1.00  0.00     0.078 C 
BRANCH   7   8
ATOM      8  C   UNL A   1      32.778  22.653  27.200  1.00  0.00    -0.011 C 
ATOM      9  C   UNL A   1      32.237  21.733  26.104  1.00  0.00     0.007 C 
ATOM     10  C   UNL A   1      34.183  22.198  27.607  1.00  0.00     0.007 C 
ENDBRANCH   7   8
ENDBRANCH   6   7
BRANCH   6  11
ATOM     11  N   UNL A   1      32.333  25.149  24.395  1.00  0.00    -0.333 N 
ATOM     12  H   UNL A   1      33.352  25.108  24.424  1.00  0.00     0.347 HD
ATOM     13  H   UNL A   1      31.940  26.091  24.415  1.00  0.00     0.347 HD
BRANCH  11  14
ATOM     14  C   UNL A   1      31.906  24.587  23.115  1.00  0.00     0.310 C 
BRANCH  14  15
ATOM     15  C   UNL A   1      32.775  23.424  22.544  1.00  0.00     0.171 C 
ATOM     16  C   UNL A   1      32.049  22.079  22.592  1.00  0.00     0.063 C 
BRANCH  15  17
ATOM     17  O   UNL A   1      33.055  23.715  21.169  1.00  0.00    -0.372 OA
ATOM     18  H   UNL A   1      32.221  23.804  20.681  1.00  0.00     0.212 HD
ENDBRANCH  15  17
BRANCH  15  19
ATOM     19  C   UNL A   1      34.052  23.339  23.263  1.00  0.00    -0.057 C 
ATOM     20  C   UNL A   1      35.073  23.243  23.887  1.00  0.00    -0.064 C 
BRANCH  20  21
ATOM     21  C   UNL A   1      36.263  23.136  24.666  1.00  0.00     0.025 A 
ATOM     22  C   UNL A   1      37.138  22.066  24.465  1.00  0.00     0.017 A 
ATOM     23  C   UNL A   1      36.537  24.091  25.646  1.00  0.00     0.017 A 
ATOM     24  C   UNL A   1      38.283  21.948  25.254  1.00  0.00     0.001 A 
ATOM     25  C   UNL A   1      37.682  23.971  26.433  1.00  0.00     0.001 A 
ATOM     26  C   UNL A   1      38.552  22.898  26.239  1.00  0.00     0.000 A 
ENDBRANCH  20  21
ENDBRANCH  15  19
ENDBRANCH  14  15
ENDBRANCH  11  14
ENDBRANCH   6  11
ENDBRANCH   3   6
ENDBRANCH   1   2
BRANCH   1  27
ATOM     27  C   UNL A   1      32.228  28.525  25.641  1.00  0.00     0.023 C 
BRANCH  27  28
ATOM     28  C   UNL A   1      32.464  29.901  26.244  1.00  0.00     0.023 C 
BRANCH  28  29
ATOM     29  C   UNL A   1      33.767  30.035  27.012  1.00  0.00     0.116 C 
BRANCH  29  30
ATOM     30  N   UNL A   1      33.759  31.120  27.986  1.00  0.00    -0.352 N 
ATOM     31  C   UNL A   1      34.705  31.420  28.943  1.00  0.00     0.251 C 
ATOM     32  H   UNL A   1      32.975  31.715  27.957  1.00  0.00     0.163 HD
ATOM     33  O   UNL A   1      34.492  32.295  29.775  1.00  0.00    -0.269 OA
BRANCH  31  34
ATOM     34  C   UNL A   1      35.951  30.627  28.967  1.00  0.00     0.039 A 
ATOM     35  C   UNL A   1      36.129  29.659  29.956  1.00  0.00     0.014 A 
ATOM     36  C   UNL A   1      36.992  30.952  28.096  1.00  0.00     0.014 A 
ATOM     37  C   UNL A   1      37.408  29.201  30.231  1.00  0.00     0.010 A 
ATOM     38  C   UNL A   1      38.254  30.384  28.298  1.00  0.00     0.010 A 
ATOM     39  C   UNL A   1      38.490  29.560  29.410  1.00  0.00    -0.014 A 
BRANCH  39  40
ATOM     40  C   UNL A   1      39.852  29.064  29.745  1.00  0.00     0.031 A 
ATOM     41  C   UNL A   1      40.455  27.886  29.020  1.00  0.00     0.074 A 
ATOM     42  C   UNL A   1      40.572  29.717  30.681  1.00  0.00     0.049 A 
ATOM     43  N   UNL A   1      41.624  27.328  29.203  1.00  0.00    -0.248 NA
ATOM     44  C   UNL A   1      39.655  27.251  27.958  1.00  0.00     0.031 C 
ATOM     45  C   UNL A   1      40.101  30.869  31.457  1.00  0.00     0.029 A 
ATOM     46  N   UNL A   1      41.849  29.512  31.138  1.00  0.00    -0.354 N 
ATOM     47  C   UNL A   1      41.685  26.260  28.316  1.00  0.00     0.074 A 
ATOM     48  C   UNL A   1      40.435  26.240  27.592  1.00  0.00     0.031 C 
ATOM     49  C   UNL A   1      41.082  31.287  32.268  1.00  0.00     0.029 A 
ATOM     50  C   UNL A   1      42.223  30.391  32.128  1.00  0.00     0.049 A 
ATOM     51  H   UNL A   1      42.441  28.806  30.791  1.00  0.00     0.167 HD
ATOM     52  C   UNL A   1      42.699  25.388  28.112  1.00  0.00     0.034 A 
ATOM     53  C   UNL A   1      43.342  30.456  32.873  1.00  0.00     0.034 A 
ATOM     54  C   UNL A   1      43.961  25.435  28.798  1.00  0.00     0.049 A 
ATOM     55  C   UNL A   1      44.438  29.460  32.638  1.00  0.00     0.074 A 
ATOM     56  C   UNL A   1      45.060  24.613  28.619  1.00  0.00     0.029 A 
ATOM     57  N   UNL A   1      44.295  26.343  29.787  1.00  0.00    -0.354 N 
ATOM     58  N   UNL A   1      44.494  28.500  31.750  1.00  0.00    -0.248 NA
ATOM     59  C   UNL A   1      45.629  29.562  33.493  1.00  0.00     0.031 C 
ATOM     60  C   UNL A   1      46.051  25.006  29.519  1.00  0.00     0.029 A 
ATOM     61  C   UNL A   1      45.580  26.095  30.235  1.00  0.00     0.049 A 
ATOM     62  H   UNL A   1      43.707  27.057  30.123  1.00  0.00     0.167 HD
ATOM     63  C   UNL A   1      45.733  27.896  31.923  1.00  0.00     0.074 A 
ATOM     64  C   UNL A   1      46.402  28.608  32.991  1.00  0.00     0.031 C 
ATOM     65  C   UNL A   1      46.257  26.838  31.263  1.00  0.00     0.034 A 
BRANCH  52  66
ATOM     66  C   UNL A   1      42.537  24.312  27.072  1.00  0.00     0.023 A 
ATOM     67  C   UNL A   1      43.003  24.543  25.764  1.00  0.00     0.012 A 
ATOM     68  C   UNL A   1      42.091  23.026  27.437  1.00  0.00     0.148 A 
ATOM     69  C   UNL A   1      43.042  23.504  24.835  1.00  0.00     0.002 A 
ATOM     70  C   UNL A   1      42.156  21.990  26.512  1.00  0.00     0.091 A 
ATOM     71  F   UNL A   1      41.652  22.835  28.689  1.00  0.00    -0.205 F 
ATOM     72  C   UNL A   1      42.632  22.227  25.212  1.00  0.00     0.022 A 
BRANCH  70  73
ATOM     73  S   UNL A   1      41.695  20.300  26.908  1.00  0.00     0.127 S 
ATOM     74  O   UNL A   1      41.817  19.649  25.604  1.00  0.00    -0.237 OA
ATOM     75  O   UNL A   1      42.722  19.922  27.878  1.00  0.00    -0.237 OA
ATOM     76  O   UNL A   1      40.339  20.362  27.437  1.00  0.00    -0.744 OA
ENDBRANCH  70  73
ENDBRANCH  52  66
BRANCH  53  77
ATOM     77  C   UNL A   1      43.465  31.510  33.913  1.00  0.00     0.023 A 
ATOM     78  C   UNL A   1      43.937  32.787  33.560  1.00  0.00     0.012 A 
ATOM     79  C   UNL A   1      43.061  31.261  35.240  1.00  0.00     0.148 A 
ATOM     80  C   UNL A   1      44.015  33.799  34.517  1.00  0.00     0.002 A 
ATOM     81  C   UNL A   1      43.105  32.284  36.178  1.00  0.00     0.091 A 
ATOM     82  F   UNL A   1      42.613  30.036  35.546  1.00  0.00    -0.205 F 
ATOM     83  C   UNL A   1      43.591  33.551  35.821  1.00  0.00     0.022 A 
BRANCH  81  84
ATOM     84  S   UNL A   1      42.503  32.081  37.856  1.00  0.00     0.127 S 
ATOM     85  O   UNL A   1      43.119  33.221  38.531  1.00  0.00    -0.237 OA
ATOM     86  O   UNL A   1      41.056  32.184  37.668  1.00  0.00    -0.237 OA
ATOM     87  O   UNL A   1      42.967  30.771  38.291  1.00  0.00    -0.744 OA
ENDBRANCH  81  84
ENDBRANCH  53  77
BRANCH  65  88
ATOM     88  C   UNL A   1      47.640  26.384  31.631  1.00  0.00     0.023 A 
ATOM     89  C   UNL A   1      47.814  25.479  32.695  1.00  0.00     0.012 A 
ATOM     90  C   UNL A   1      48.742  26.744  30.832  1.00  0.00     0.148 A 
ATOM     91  C   UNL A   1      49.071  24.939  32.959  1.00  0.00     0.002 A 
ATOM     92  C   UNL A   1      49.985  26.177  31.081  1.00  0.00     0.091 A 
ATOM     93  F   UNL A   1      48.544  27.608  29.826  1.00  0.00    -0.205 F 
ATOM     94  C   UNL A   1      50.151  25.276  32.145  1.00  0.00     0.022 A 
BRANCH  92  95
ATOM     95  S   UNL A   1      51.423  26.506  30.057  1.00  0.00     0.127 S 
ATOM     96  O   UNL A   1      52.478  25.816  30.799  1.00  0.00    -0.237 OA
ATOM     97  O   UNL A   1      51.052  25.874  28.792  1.00  0.00    -0.237 OA
ATOM     98  O   UNL A   1      51.559  27.955  30.000  1.00  0.00    -0.744 OA
ENDBRANCH  92  95
ENDBRANCH  65  88
ENDBRANCH  39  40
ENDBRANCH  31  34
ENDBRANCH  29  30
ENDBRANCH  28  29
ENDBRANCH  27  28
ENDBRANCH   1  27
TORSDOF 22
ENDMDL
