MODEL 1
REMARK VINA RESULT:     -11.5      0.000      0.000
REMARK SMILES O=C(NCCCCNC(=O)c1ccc(-c2c3nc(c(-c4cccc(S(=O)(=O)[O-])c4F)c4ccc([nH]4)c(-c4cccc(S(=O)(=O)[O-])c4F)c4nc(c(-c5cccc(S(=O)(=O)[O-])c5F)c5ccc2[nH]5)C=C4)C=C3)cc1)C1=C(C(=O)NCCC2=CCCCC2)CCCC1
REMARK SMILES IDX 5 1 4 2 3 3 1 4 2 5 74 7 75 8 90 9 87 10 89 11 88 12 76 13
REMARK SMILES IDX 77 14 78 15 79 17 80 18 81 19 82 20 86 21 83 22 85 23 84 24
REMARK SMILES IDX 6 25 7 26 8 27 9 28 10 30 11 31 12 32 73 33 13 34 72 35
REMARK SMILES IDX 14 36 15 37 16 38 66 39 17 40 71 41 65 42 67 43 18 44 70 45
REMARK SMILES IDX 64 46 63 47 19 49 51 50 31 51 50 52 32 53 35 54 49 55 68 56
REMARK SMILES IDX 33 57 34 58 48 60 69 61 36 62 20 63 21 64 29 65 22 66 24 67
REMARK SMILES IDX 30 68 23 69 25 70 26 71 27 72 28 73 52 74 53 75 61 76 54 77
REMARK SMILES IDX 56 78 62 79 55 80 57 81 58 82 59 83 60 84 37 85 38 86 46 87
REMARK SMILES IDX 39 88 41 89 47 90 40 91 42 92 43 93 44 94 45 95
REMARK H PARENT 3 6 78 16 8 29 67 48 35 59
REMARK Flexibility Score: inf
ROOT
ATOM      1  C   UNL A   1      37.213  20.596  24.526  1.00  0.00     0.023 C 
ENDROOT
BRANCH   1   2
ATOM      2  C   UNL A   1      35.826  20.386  25.128  1.00  0.00     0.116 C 
BRANCH   2   3
ATOM      3  N   UNL A   1      35.561  21.292  26.230  1.00  0.00    -0.352 N 
ATOM      4  O   UNL A   1      34.717  23.060  27.315  1.00  0.00    -0.270 OA
ATOM      5  C   UNL A   1      34.781  22.403  26.278  1.00  0.00     0.247 C 
ATOM      6  H   UNL A   1      36.015  21.065  27.074  1.00  0.00     0.163 HD
BRANCH   5   7
ATOM      7  C   UNL A   1      34.068  22.873  25.062  1.00  0.00     0.026 C 
ATOM      8  C   UNL A   1      32.853  22.458  24.641  1.00  0.00     0.026 C 
ATOM      9  C   UNL A   1      34.860  23.950  24.346  1.00  0.00     0.042 C 
ATOM     10  C   UNL A   1      32.370  22.815  23.242  1.00  0.00     0.042 C 
ATOM     11  C   UNL A   1      34.161  24.543  23.124  1.00  0.00     0.005 C 
ATOM     12  C   UNL A   1      33.447  23.448  22.356  1.00  0.00     0.005 C 
BRANCH   8  13
ATOM     13  C   UNL A   1      31.886  21.558  25.356  1.00  0.00     0.247 C 
ATOM     14  O   UNL A   1      31.827  20.369  25.035  1.00  0.00    -0.270 OA
ATOM     15  N   UNL A   1      31.001  22.016  26.280  1.00  0.00    -0.352 N 
ATOM     16  H   UNL A   1      30.310  21.364  26.541  1.00  0.00     0.163 HD
BRANCH  15  17
ATOM     17  C   UNL A   1      30.898  23.301  26.947  1.00  0.00     0.120 C 
BRANCH  17  18
ATOM     18  C   UNL A   1      30.249  24.410  26.118  1.00  0.00     0.052 C 
BRANCH  18  19
ATOM     19  C   UNL A   1      31.172  25.494  25.598  1.00  0.00    -0.072 C 
ATOM     20  C   UNL A   1      32.278  25.835  26.285  1.00  0.00    -0.028 C 
ATOM     21  C   UNL A   1      30.757  26.249  24.349  1.00  0.00     0.031 C 
ATOM     22  C   UNL A   1      33.156  27.002  25.938  1.00  0.00     0.027 C 
ATOM     23  C   UNL A   1      31.830  27.206  23.817  1.00  0.00     0.005 C 
ATOM     24  C   UNL A   1      32.502  27.968  24.952  1.00  0.00     0.004 C 
ENDBRANCH  18  19
ENDBRANCH  17  18
ENDBRANCH  15  17
ENDBRANCH   8  13
ENDBRANCH   5   7
ENDBRANCH   2   3
ENDBRANCH   1   2
BRANCH   1  25
ATOM     25  C   UNL A   1      38.237  19.510  24.885  1.00  0.00     0.023 C 
BRANCH  25  26
ATOM     26  C   UNL A   1      39.102  19.810  26.109  1.00  0.00     0.116 C 
BRANCH  26  27
ATOM     27  N   UNL A   1      40.373  19.101  26.072  1.00  0.00    -0.352 N 
ATOM     28  C   UNL A   1      41.658  19.584  26.088  1.00  0.00     0.251 C 
ATOM     29  H   UNL A   1      40.299  18.120  26.029  1.00  0.00     0.163 HD
ATOM     30  O   UNL A   1      42.593  18.836  25.806  1.00  0.00    -0.269 OA
BRANCH  28  31
ATOM     31  C   UNL A   1      41.931  20.998  26.430  1.00  0.00     0.039 A 
ATOM     32  C   UNL A   1      42.226  21.332  27.755  1.00  0.00     0.014 A 
ATOM     33  C   UNL A   1      41.858  22.002  25.460  1.00  0.00     0.014 A 
ATOM     34  C   UNL A   1      42.519  22.657  28.091  1.00  0.00     0.010 A 
ATOM     35  C   UNL A   1      42.224  23.308  25.781  1.00  0.00     0.010 A 
ATOM     36  C   UNL A   1      42.558  23.652  27.100  1.00  0.00    -0.014 A 
BRANCH  36  37
ATOM     37  C   UNL A   1      42.982  25.041  27.419  1.00  0.00     0.031 A 
ATOM     38  C   UNL A   1      42.024  26.016  28.047  1.00  0.00     0.074 A 
ATOM     39  C   UNL A   1      44.211  25.455  27.053  1.00  0.00     0.049 A 
ATOM     40  N   UNL A   1      42.211  27.276  28.348  1.00  0.00    -0.248 NA
ATOM     41  C   UNL A   1      40.673  25.520  28.352  1.00  0.00     0.031 C 
ATOM     42  C   UNL A   1      45.204  24.635  26.355  1.00  0.00     0.029 A 
ATOM     43  N   UNL A   1      44.824  26.677  27.185  1.00  0.00    -0.354 N 
ATOM     44  C   UNL A   1      40.995  27.733  28.845  1.00  0.00     0.074 A 
ATOM     45  C   UNL A   1      40.070  26.623  28.772  1.00  0.00     0.031 C 
ATOM     46  C   UNL A   1      46.298  25.376  26.119  1.00  0.00     0.029 A 
ATOM     47  C   UNL A   1      46.076  26.730  26.620  1.00  0.00     0.049 A 
ATOM     48  H   UNL A   1      44.405  27.443  27.642  1.00  0.00     0.167 HD
ATOM     49  C   UNL A   1      40.684  28.955  29.342  1.00  0.00     0.034 A 
ATOM     50  C   UNL A   1      46.946  27.751  26.502  1.00  0.00     0.034 A 
ATOM     51  C   UNL A   1      41.615  30.048  29.442  1.00  0.00     0.049 A 
ATOM     52  C   UNL A   1      46.595  29.088  27.094  1.00  0.00     0.074 A 
ATOM     53  C   UNL A   1      41.426  31.290  30.022  1.00  0.00     0.029 A 
ATOM     54  N   UNL A   1      42.906  30.040  28.934  1.00  0.00    -0.354 N 
ATOM     55  N   UNL A   1      45.502  29.449  27.719  1.00  0.00    -0.248 NA
ATOM     56  C   UNL A   1      47.610  30.146  26.996  1.00  0.00     0.031 C 
ATOM     57  C   UNL A   1      42.591  32.043  29.837  1.00  0.00     0.029 A 
ATOM     58  C   UNL A   1      43.518  31.260  29.169  1.00  0.00     0.049 A 
ATOM     59  H   UNL A   1      43.326  29.277  28.474  1.00  0.00     0.167 HD
ATOM     60  C   UNL A   1      45.704  30.768  28.110  1.00  0.00     0.074 A 
ATOM     61  C   UNL A   1      47.037  31.131  27.674  1.00  0.00     0.031 C 
ATOM     62  C   UNL A   1      44.857  31.605  28.760  1.00  0.00     0.034 A 
BRANCH  49  63
ATOM     63  C   UNL A   1      39.281  29.158  29.858  1.00  0.00     0.023 A 
ATOM     64  C   UNL A   1      38.959  28.757  31.173  1.00  0.00     0.012 A 
ATOM     65  C   UNL A   1      38.294  29.773  29.065  1.00  0.00     0.148 A 
ATOM     66  C   UNL A   1      37.667  28.919  31.670  1.00  0.00     0.002 A 
ATOM     67  C   UNL A   1      37.020  29.974  29.585  1.00  0.00     0.091 A 
ATOM     68  F   UNL A   1      38.609  30.130  27.811  1.00  0.00    -0.205 F 
ATOM     69  C   UNL A   1      36.700  29.536  30.881  1.00  0.00     0.022 A 
BRANCH  67  70
ATOM     70  S   UNL A   1      35.731  30.833  28.673  1.00  0.00     0.127 S 
ATOM     71  O   UNL A   1      35.074  29.726  27.979  1.00  0.00    -0.237 OA
ATOM     72  O   UNL A   1      34.938  31.433  29.747  1.00  0.00    -0.237 OA
ATOM     73  O   UNL A   1      36.418  31.792  27.820  1.00  0.00    -0.744 OA
ENDBRANCH  67  70
ENDBRANCH  49  63
BRANCH  50  74
ATOM     74  C   UNL A   1      48.261  27.520  25.840  1.00  0.00     0.023 A 
ATOM     75  C   UNL A   1      49.365  27.114  26.614  1.00  0.00     0.012 A 
ATOM     76  C   UNL A   1      48.402  27.633  24.443  1.00  0.00     0.148 A 
ATOM     77  C   UNL A   1      50.593  26.844  26.010  1.00  0.00     0.002 A 
ATOM     78  C   UNL A   1      49.613  27.308  23.843  1.00  0.00     0.091 A 
ATOM     79  F   UNL A   1      47.339  28.029  23.728  1.00  0.00    -0.205 F 
ATOM     80  C   UNL A   1      50.714  26.928  24.626  1.00  0.00     0.022 A 
BRANCH  78  81
ATOM     81  S   UNL A   1      49.818  27.250  22.059  1.00  0.00     0.127 S 
ATOM     82  O   UNL A   1      51.210  26.817  21.934  1.00  0.00    -0.237 OA
ATOM     83  O   UNL A   1      48.826  26.242  21.677  1.00  0.00    -0.237 OA
ATOM     84  O   UNL A   1      49.530  28.590  21.582  1.00  0.00    -0.744 OA
ENDBRANCH  78  81
ENDBRANCH  50  74
BRANCH  62  85
ATOM     85  C   UNL A   1      45.344  33.001  29.055  1.00  0.00     0.023 A 
ATOM     86  C   UNL A   1      46.060  33.256  30.241  1.00  0.00     0.012 A 
ATOM     87  C   UNL A   1      45.152  34.044  28.126  1.00  0.00     0.148 A 
ATOM     88  C   UNL A   1      46.549  34.533  30.514  1.00  0.00     0.002 A 
ATOM     89  C   UNL A   1      45.684  35.303  28.383  1.00  0.00     0.091 A 
ATOM     90  F   UNL A   1      44.452  33.787  27.012  1.00  0.00    -0.205 F 
ATOM     91  C   UNL A   1      46.372  35.552  29.581  1.00  0.00     0.022 A 
BRANCH  89  92
ATOM     92  S   UNL A   1      45.587  36.650  27.198  1.00  0.00     0.127 S 
ATOM     93  O   UNL A   1      46.345  36.110  26.070  1.00  0.00    -0.237 OA
ATOM     94  O   UNL A   1      44.146  36.757  26.968  1.00  0.00    -0.237 OA
ATOM     95  O   UNL A   1      46.182  37.806  27.855  1.00  0.00    -0.744 OA
ENDBRANCH  89  92
ENDBRANCH  62  85
ENDBRANCH  36  37
ENDBRANCH  28  31
ENDBRANCH  26  27
ENDBRANCH  25  26
ENDBRANCH   1  25
TORSDOF 18
ENDMDL
MODEL 2
REMARK VINA RESULT:     -11.3      5.235      8.507
REMARK SMILES O=C(NCCCCNC(=O)c1ccc(-c2c3nc(c(-c4cccc(S(=O)(=O)[O-])c4F)c4ccc([nH]4)c(-c4cccc(S(=O)(=O)[O-])c4F)c4nc(c(-c5cccc(S(=O)(=O)[O-])c5F)c5ccc2[nH]5)C=C4)C=C3)cc1)C1=C(C(=O)NCCC2=CCCCC2)CCCC1
REMARK SMILES IDX 5 1 4 2 3 3 1 4 2 5 74 7 75 8 90 9 87 10 89 11 88 12 76 13
REMARK SMILES IDX 77 14 78 15 79 17 80 18 81 19 82 20 86 21 83 22 85 23 84 24
REMARK SMILES IDX 6 25 7 26 8 27 9 28 10 30 11 31 12 32 73 33 13 34 72 35
REMARK SMILES IDX 14 36 15 37 16 38 66 39 17 40 71 41 65 42 67 43 18 44 70 45
REMARK SMILES IDX 64 46 63 47 19 49 51 50 31 51 50 52 32 53 35 54 49 55 68 56
REMARK SMILES IDX 33 57 34 58 48 60 69 61 36 62 20 63 21 64 29 65 22 66 24 67
REMARK SMILES IDX 30 68 23 69 25 70 26 71 27 72 28 73 52 74 53 75 61 76 54 77
REMARK SMILES IDX 56 78 62 79 55 80 57 81 58 82 59 83 60 84 37 85 38 86 46 87
REMARK SMILES IDX 39 88 41 89 47 90 40 91 42 92 43 93 44 94 45 95
REMARK H PARENT 3 6 78 16 8 29 67 48 35 59
REMARK Flexibility Score: inf
ROOT
ATOM      1  C   UNL A   1      32.333  27.369  25.831  1.00  0.00     0.023 C 
ENDROOT
BRANCH   1   2
ATOM      2  C   UNL A   1      32.590  25.925  26.252  1.00  0.00     0.116 C 
BRANCH   2   3
ATOM      3  N   UNL A   1      31.389  25.267  26.729  1.00  0.00    -0.352 N 
ATOM      4  O   UNL A   1      29.948  23.601  27.132  1.00  0.00    -0.270 OA
ATOM      5  C   UNL A   1      31.043  23.954  26.701  1.00  0.00     0.247 C 
ATOM      6  H   UNL A   1      30.721  25.865  27.137  1.00  0.00     0.163 HD
BRANCH   5   7
ATOM      7  C   UNL A   1      31.949  22.952  26.081  1.00  0.00     0.026 C 
ATOM      8  C   UNL A   1      32.067  22.694  24.761  1.00  0.00     0.026 C 
ATOM      9  C   UNL A   1      32.797  22.260  27.131  1.00  0.00     0.042 C 
ATOM     10  C   UNL A   1      32.823  21.457  24.292  1.00  0.00     0.042 C 
ATOM     11  C   UNL A   1      33.811  21.265  26.571  1.00  0.00     0.005 C 
ATOM     12  C   UNL A   1      33.195  20.492  25.421  1.00  0.00     0.005 C 
BRANCH   8  13
ATOM     13  C   UNL A   1      31.442  23.437  23.615  1.00  0.00     0.247 C 
ATOM     14  O   UNL A   1      30.220  23.595  23.601  1.00  0.00    -0.270 OA
ATOM     15  N   UNL A   1      32.155  23.865  22.539  1.00  0.00    -0.352 N 
ATOM     16  H   UNL A   1      31.606  24.178  21.784  1.00  0.00     0.163 HD
BRANCH  15  17
ATOM     17  C   UNL A   1      33.587  23.938  22.313  1.00  0.00     0.120 C 
BRANCH  17  18
ATOM     18  C   UNL A   1      34.375  24.688  23.388  1.00  0.00     0.052 C 
BRANCH  18  19
ATOM     19  C   UNL A   1      35.387  23.878  24.175  1.00  0.00    -0.072 C 
ATOM     20  C   UNL A   1      35.709  24.228  25.434  1.00  0.00    -0.028 C 
ATOM     21  C   UNL A   1      36.096  22.739  23.467  1.00  0.00     0.031 C 
ATOM     22  C   UNL A   1      36.814  23.591  26.226  1.00  0.00     0.027 C 
ATOM     23  C   UNL A   1      36.975  21.887  24.390  1.00  0.00     0.005 C 
ATOM     24  C   UNL A   1      37.760  22.756  25.364  1.00  0.00     0.004 C 
ENDBRANCH  18  19
ENDBRANCH  17  18
ENDBRANCH  15  17
ENDBRANCH   8  13
ENDBRANCH   5   7
ENDBRANCH   2   3
ENDBRANCH   1   2
BRANCH   1  25
ATOM     25  C   UNL A   1      32.821  28.425  26.832  1.00  0.00     0.023 C 
BRANCH  25  26
ATOM     26  C   UNL A   1      33.864  29.403  26.291  1.00  0.00     0.116 C 
BRANCH  26  27
ATOM     27  N   UNL A   1      33.800  30.698  26.952  1.00  0.00    -0.352 N 
ATOM     28  C   UNL A   1      34.568  31.216  27.965  1.00  0.00     0.251 C 
ATOM     29  H   UNL A   1      33.093  31.299  26.618  1.00  0.00     0.163 HD
ATOM     30  O   UNL A   1      34.200  32.234  28.548  1.00  0.00    -0.269 OA
BRANCH  28  31
ATOM     31  C   UNL A   1      35.828  30.555  28.372  1.00  0.00     0.039 A 
ATOM     32  C   UNL A   1      37.005  30.852  27.678  1.00  0.00     0.014 A 
ATOM     33  C   UNL A   1      35.849  29.617  29.408  1.00  0.00     0.014 A 
ATOM     34  C   UNL A   1      38.211  30.262  28.069  1.00  0.00     0.010 A 
ATOM     35  C   UNL A   1      37.063  29.089  29.844  1.00  0.00     0.010 A 
ATOM     36  C   UNL A   1      38.258  29.404  29.181  1.00  0.00    -0.014 A 
BRANCH  36  37
ATOM     37  C   UNL A   1      39.550  28.864  29.682  1.00  0.00     0.031 A 
ATOM     38  C   UNL A   1      40.298  29.554  30.789  1.00  0.00     0.074 A 
ATOM     39  C   UNL A   1      40.100  27.797  29.069  1.00  0.00     0.049 A 
ATOM     40  N   UNL A   1      41.457  29.249  31.315  1.00  0.00    -0.248 NA
ATOM     41  C   UNL A   1      39.677  30.758  31.364  1.00  0.00     0.031 C 
ATOM     42  C   UNL A   1      39.521  27.091  27.924  1.00  0.00     0.029 A 
ATOM     43  N   UNL A   1      41.283  27.140  29.300  1.00  0.00    -0.354 N 
ATOM     44  C   UNL A   1      41.721  30.239  32.255  1.00  0.00     0.074 A 
ATOM     45  C   UNL A   1      40.616  31.171  32.202  1.00  0.00     0.031 C 
ATOM     46  C   UNL A   1      40.350  26.103  27.552  1.00  0.00     0.029 A 
ATOM     47  C   UNL A   1      41.532  26.123  28.409  1.00  0.00     0.049 A 
ATOM     48  H   UNL A   1      41.897  27.376  30.034  1.00  0.00     0.167 HD
ATOM     49  C   UNL A   1      42.772  30.347  33.105  1.00  0.00     0.034 A 
ATOM     50  C   UNL A   1      42.594  25.304  28.282  1.00  0.00     0.034 A 
ATOM     51  C   UNL A   1      43.854  29.401  33.177  1.00  0.00     0.049 A 
ATOM     52  C   UNL A   1      43.731  25.418  29.259  1.00  0.00     0.074 A 
ATOM     53  C   UNL A   1      44.910  29.368  34.071  1.00  0.00     0.029 A 
ATOM     54  N   UNL A   1      44.031  28.332  32.313  1.00  0.00    -0.354 N 
ATOM     55  N   UNL A   1      43.878  26.255  30.257  1.00  0.00    -0.248 NA
ATOM     56  C   UNL A   1      44.831  24.454  29.115  1.00  0.00     0.031 C 
ATOM     57  C   UNL A   1      45.742  28.297  33.726  1.00  0.00     0.029 A 
ATOM     58  C   UNL A   1      45.189  27.643  32.638  1.00  0.00     0.049 A 
ATOM     59  H   UNL A   1      43.422  28.095  31.575  1.00  0.00     0.167 HD
ATOM     60  C   UNL A   1      45.073  25.905  30.875  1.00  0.00     0.074 A 
ATOM     61  C   UNL A   1      45.596  24.762  30.153  1.00  0.00     0.031 C 
ATOM     62  C   UNL A   1      45.687  26.487  31.936  1.00  0.00     0.034 A 
BRANCH  49  63
ATOM     63  C   UNL A   1      42.775  31.516  34.059  1.00  0.00     0.023 A 
ATOM     64  C   UNL A   1      43.360  32.737  33.660  1.00  0.00     0.012 A 
ATOM     65  C   UNL A   1      42.173  31.423  35.328  1.00  0.00     0.148 A 
ATOM     66  C   UNL A   1      43.389  33.829  34.527  1.00  0.00     0.002 A 
ATOM     67  C   UNL A   1      42.165  32.531  36.169  1.00  0.00     0.091 A 
ATOM     68  F   UNL A   1      41.639  30.251  35.701  1.00  0.00    -0.205 F 
ATOM     69  C   UNL A   1      42.785  33.729  35.777  1.00  0.00     0.022 A 
BRANCH  67  70
ATOM     70  S   UNL A   1      41.339  32.524  37.765  1.00  0.00     0.127 S 
ATOM     71  O   UNL A   1      40.003  32.053  37.404  1.00  0.00    -0.237 OA
ATOM     72  O   UNL A   1      42.139  31.561  38.524  1.00  0.00    -0.237 OA
ATOM     73  O   UNL A   1      41.413  33.892  38.257  1.00  0.00    -0.744 OA
ENDBRANCH  67  70
ENDBRANCH  49  63
BRANCH  50  74
ATOM     74  C   UNL A   1      42.593  24.264  27.215  1.00  0.00     0.023 A 
ATOM     75  C   UNL A   1      43.261  24.515  26.002  1.00  0.00     0.012 A 
ATOM     76  C   UNL A   1      41.994  23.006  27.425  1.00  0.00     0.148 A 
ATOM     77  C   UNL A   1      43.317  23.539  25.007  1.00  0.00     0.002 A 
ATOM     78  C   UNL A   1      42.102  22.019  26.453  1.00  0.00     0.091 A 
ATOM     79  F   UNL A   1      41.357  22.793  28.585  1.00  0.00    -0.205 F 
ATOM     80  C   UNL A   1      42.749  22.288  25.236  1.00  0.00     0.022 A 
BRANCH  78  81
ATOM     81  S   UNL A   1      41.527  20.338  26.719  1.00  0.00     0.127 S 
ATOM     82  O   UNL A   1      42.390  19.899  27.816  1.00  0.00    -0.237 OA
ATOM     83  O   UNL A   1      40.127  20.557  27.090  1.00  0.00    -0.237 OA
ATOM     84  O   UNL A   1      41.716  19.649  25.456  1.00  0.00    -0.744 OA
ENDBRANCH  78  81
ENDBRANCH  50  74
BRANCH  62  85
ATOM     85  C   UNL A   1      46.995  25.894  32.396  1.00  0.00     0.023 A 
ATOM     86  C   UNL A   1      48.206  26.360  31.846  1.00  0.00     0.012 A 
ATOM     87  C   UNL A   1      47.028  24.926  33.420  1.00  0.00     0.148 A 
ATOM     88  C   UNL A   1      49.427  25.848  32.284  1.00  0.00     0.002 A 
ATOM     89  C   UNL A   1      48.252  24.458  33.886  1.00  0.00     0.091 A 
ATOM     90  F   UNL A   1      45.866  24.482  33.918  1.00  0.00    -0.205 F 
ATOM     91  C   UNL A   1      49.451  24.908  33.311  1.00  0.00     0.022 A 
BRANCH  89  92
ATOM     92  S   UNL A   1      48.384  23.316  35.268  1.00  0.00     0.127 S 
ATOM     93  O   UNL A   1      47.843  24.116  36.367  1.00  0.00    -0.237 OA
ATOM     94  O   UNL A   1      47.526  22.211  34.839  1.00  0.00    -0.237 OA
ATOM     95  O   UNL A   1      49.796  22.978  35.377  1.00  0.00    -0.744 OA
ENDBRANCH  89  92
ENDBRANCH  62  85
ENDBRANCH  36  37
ENDBRANCH  28  31
ENDBRANCH  26  27
ENDBRANCH  25  26
ENDBRANCH   1  25
TORSDOF 18
ENDMDL
MODEL 3
REMARK VINA RESULT:     -11.0      1.953      2.343
REMARK SMILES O=C(NCCCCNC(=O)c1ccc(-c2c3nc(c(-c4cccc(S(=O)(=O)[O-])c4F)c4ccc([nH]4)c(-c4cccc(S(=O)(=O)[O-])c4F)c4nc(c(-c5cccc(S(=O)(=O)[O-])c5F)c5ccc2[nH]5)C=C4)C=C3)cc1)C1=C(C(=O)NCCC2=CCCCC2)CCCC1
REMARK SMILES IDX 5 1 4 2 3 3 1 4 2 5 74 7 75 8 90 9 87 10 89 11 88 12 76 13
REMARK SMILES IDX 77 14 78 15 79 17 80 18 81 19 82 20 86 21 83 22 85 23 84 24
REMARK SMILES IDX 6 25 7 26 8 27 9 28 10 30 11 31 12 32 73 33 13 34 72 35
REMARK SMILES IDX 14 36 15 37 16 38 66 39 17 40 71 41 65 42 67 43 18 44 70 45
REMARK SMILES IDX 64 46 63 47 19 49 51 50 31 51 50 52 32 53 35 54 49 55 68 56
REMARK SMILES IDX 33 57 34 58 48 60 69 61 36 62 20 63 21 64 29 65 22 66 24 67
REMARK SMILES IDX 30 68 23 69 25 70 26 71 27 72 28 73 52 74 53 75 61 76 54 77
REMARK SMILES IDX 56 78 62 79 55 80 57 81 58 82 59 83 60 84 37 85 38 86 46 87
REMARK SMILES IDX 39 88 41 89 47 90 40 91 42 92 43 93 44 94 45 95
REMARK H PARENT 3 6 78 16 8 29 67 48 35 59
REMARK Flexibility Score: inf
ROOT
ATOM      1  C   UNL A   1      37.206  21.045  24.750  1.00  0.00     0.023 C 
ENDROOT
BRANCH   1   2
ATOM      2  C   UNL A   1      35.784  20.699  25.185  1.00  0.00     0.116 C 
BRANCH   2   3
ATOM      3  N   UNL A   1      35.388  21.407  26.388  1.00  0.00    -0.352 N 
ATOM      4  O   UNL A   1      34.391  22.958  27.658  1.00  0.00    -0.270 OA
ATOM      5  C   UNL A   1      34.573  22.482  26.539  1.00  0.00     0.247 C 
ATOM      6  H   UNL A   1      35.768  21.051  27.224  1.00  0.00     0.163 HD
BRANCH   5   7
ATOM      7  C   UNL A   1      33.962  23.135  25.352  1.00  0.00     0.026 C 
ATOM      8  C   UNL A   1      32.793  22.793  24.769  1.00  0.00     0.026 C 
ATOM      9  C   UNL A   1      34.802  24.306  24.880  1.00  0.00     0.042 C 
ATOM     10  C   UNL A   1      32.428  23.361  23.404  1.00  0.00     0.042 C 
ATOM     11  C   UNL A   1      34.206  25.081  23.707  1.00  0.00     0.005 C 
ATOM     12  C   UNL A   1      33.571  24.118  22.722  1.00  0.00     0.005 C 
BRANCH   8  13
ATOM     13  C   UNL A   1      31.777  21.798  25.252  1.00  0.00     0.247 C 
ATOM     14  O   UNL A   1      31.782  20.660  24.776  1.00  0.00    -0.270 OA
ATOM     15  N   UNL A   1      30.786  22.122  26.124  1.00  0.00    -0.352 N 
ATOM     16  H   UNL A   1      30.087  21.434  26.222  1.00  0.00     0.163 HD
BRANCH  15  17
ATOM     17  C   UNL A   1      30.581  23.308  26.935  1.00  0.00     0.120 C 
BRANCH  17  18
ATOM     18  C   UNL A   1      29.856  24.456  26.231  1.00  0.00     0.052 C 
BRANCH  18  19
ATOM     19  C   UNL A   1      30.718  25.612  25.761  1.00  0.00    -0.072 C 
ATOM     20  C   UNL A   1      31.765  26.024  26.499  1.00  0.00    -0.028 C 
ATOM     21  C   UNL A   1      30.301  26.350  24.503  1.00  0.00     0.031 C 
ATOM     22  C   UNL A   1      32.569  27.257  26.202  1.00  0.00     0.027 C 
ATOM     23  C   UNL A   1      31.322  27.391  24.028  1.00  0.00     0.005 C 
ATOM     24  C   UNL A   1      31.887  28.185  25.198  1.00  0.00     0.004 C 
ENDBRANCH  18  19
ENDBRANCH  17  18
ENDBRANCH  15  17
ENDBRANCH   8  13
ENDBRANCH   5   7
ENDBRANCH   2   3
ENDBRANCH   1   2
BRANCH   1  25
ATOM     25  C   UNL A   1      38.245  19.949  25.027  1.00  0.00     0.023 C 
BRANCH  25  26
ATOM     26  C   UNL A   1      39.333  20.322  26.034  1.00  0.00     0.116 C 
BRANCH  26  27
ATOM     27  N   UNL A   1      40.410  19.344  26.068  1.00  0.00    -0.352 N 
ATOM     28  C   UNL A   1      41.770  19.524  26.122  1.00  0.00     0.251 C 
ATOM     29  H   UNL A   1      40.116  18.404  26.050  1.00  0.00     0.163 HD
ATOM     30  O   UNL A   1      42.519  18.574  25.899  1.00  0.00    -0.269 OA
BRANCH  28  31
ATOM     31  C   UNL A   1      42.346  20.851  26.434  1.00  0.00     0.039 A 
ATOM     32  C   UNL A   1      42.808  21.654  25.386  1.00  0.00     0.014 A 
ATOM     33  C   UNL A   1      42.469  21.293  27.754  1.00  0.00     0.014 A 
ATOM     34  C   UNL A   1      43.325  22.924  25.658  1.00  0.00     0.010 A 
ATOM     35  C   UNL A   1      42.913  22.587  28.017  1.00  0.00     0.010 A 
ATOM     36  C   UNL A   1      43.347  23.418  26.973  1.00  0.00    -0.014 A 
BRANCH  36  37
ATOM     37  C   UNL A   1      43.782  24.810  27.265  1.00  0.00     0.031 A 
ATOM     38  C   UNL A   1      42.804  25.836  27.769  1.00  0.00     0.074 A 
ATOM     39  C   UNL A   1      45.047  25.178  26.982  1.00  0.00     0.049 A 
ATOM     40  N   UNL A   1      42.999  27.104  28.029  1.00  0.00    -0.248 NA
ATOM     41  C   UNL A   1      41.420  25.386  27.984  1.00  0.00     0.031 C 
ATOM     42  C   UNL A   1      46.070  24.304  26.405  1.00  0.00     0.029 A 
ATOM     43  N   UNL A   1      45.680  26.390  27.111  1.00  0.00    -0.354 N 
ATOM     44  C   UNL A   1      41.761  27.611  28.404  1.00  0.00     0.074 A 
ATOM     45  C   UNL A   1      40.815  26.521  28.304  1.00  0.00     0.031 C 
ATOM     46  C   UNL A   1      47.200  25.007  26.227  1.00  0.00     0.029 A 
ATOM     47  C   UNL A   1      46.975  26.387  26.648  1.00  0.00     0.049 A 
ATOM     48  H   UNL A   1      45.248  27.186  27.498  1.00  0.00     0.167 HD
ATOM     49  C   UNL A   1      41.444  28.862  28.820  1.00  0.00     0.034 A 
ATOM     50  C   UNL A   1      47.879  27.381  26.557  1.00  0.00     0.034 A 
ATOM     51  C   UNL A   1      42.393  29.936  28.948  1.00  0.00     0.049 A 
ATOM     52  C   UNL A   1      47.518  28.752  27.059  1.00  0.00     0.074 A 
ATOM     53  C   UNL A   1      42.192  31.208  29.456  1.00  0.00     0.029 A 
ATOM     54  N   UNL A   1      43.720  29.874  28.548  1.00  0.00    -0.354 N 
ATOM     55  N   UNL A   1      46.388  29.167  27.577  1.00  0.00    -0.248 NA
ATOM     56  C   UNL A   1      48.566  29.780  26.998  1.00  0.00     0.031 C 
ATOM     57  C   UNL A   1      43.388  31.923  29.334  1.00  0.00     0.029 A 
ATOM     58  C   UNL A   1      44.344  31.089  28.779  1.00  0.00     0.049 A 
ATOM     59  H   UNL A   1      44.155  29.081  28.158  1.00  0.00     0.167 HD
ATOM     60  C   UNL A   1      46.595  30.497  27.925  1.00  0.00     0.074 A 
ATOM     61  C   UNL A   1      47.968  30.809  27.583  1.00  0.00     0.031 C 
ATOM     62  C   UNL A   1      45.721  31.383  28.466  1.00  0.00     0.034 A 
BRANCH  49  63
ATOM     63  C   UNL A   1      40.010  29.121  29.211  1.00  0.00     0.023 A 
ATOM     64  C   UNL A   1      39.043  29.332  28.205  1.00  0.00     0.012 A 
ATOM     65  C   UNL A   1      39.611  29.120  30.561  1.00  0.00     0.148 A 
ATOM     66  C   UNL A   1      37.714  29.588  28.539  1.00  0.00     0.002 A 
ATOM     67  C   UNL A   1      38.274  29.329  30.884  1.00  0.00     0.091 A 
ATOM     68  F   UNL A   1      40.544  28.938  31.506  1.00  0.00    -0.205 F 
ATOM     69  C   UNL A   1      37.327  29.577  29.876  1.00  0.00     0.022 A 
BRANCH  67  70
ATOM     70  S   UNL A   1      37.666  29.253  32.573  1.00  0.00     0.127 S 
ATOM     71  O   UNL A   1      36.295  29.736  32.414  1.00  0.00    -0.237 OA
ATOM     72  O   UNL A   1      37.777  27.826  32.879  1.00  0.00    -0.237 OA
ATOM     73  O   UNL A   1      38.549  30.108  33.352  1.00  0.00    -0.744 OA
ENDBRANCH  67  70
ENDBRANCH  49  63
BRANCH  50  74
ATOM     74  C   UNL A   1      49.237  27.089  26.016  1.00  0.00     0.023 A 
ATOM     75  C   UNL A   1      49.420  26.979  24.625  1.00  0.00     0.012 A 
ATOM     76  C   UNL A   1      50.354  26.991  26.869  1.00  0.00     0.148 A 
ATOM     77  C   UNL A   1      50.689  26.755  24.092  1.00  0.00     0.002 A 
ATOM     78  C   UNL A   1      51.623  26.824  26.328  1.00  0.00     0.091 A 
ATOM     79  F   UNL A   1      50.154  27.091  28.190  1.00  0.00    -0.205 F 
ATOM     80  C   UNL A   1      51.792  26.690  24.940  1.00  0.00     0.022 A 
BRANCH  78  81
ATOM     81  S   UNL A   1      53.112  26.873  27.331  1.00  0.00     0.127 S 
ATOM     82  O   UNL A   1      54.135  26.469  26.366  1.00  0.00    -0.237 OA
ATOM     83  O   UNL A   1      53.162  28.284  27.723  1.00  0.00    -0.237 OA
ATOM     84  O   UNL A   1      52.882  25.951  28.428  1.00  0.00    -0.744 OA
ENDBRANCH  78  81
ENDBRANCH  50  74
BRANCH  62  85
ATOM     85  C   UNL A   1      46.221  32.779  28.738  1.00  0.00     0.023 A 
ATOM     86  C   UNL A   1      46.905  33.055  29.938  1.00  0.00     0.012 A 
ATOM     87  C   UNL A   1      46.072  33.799  27.777  1.00  0.00     0.148 A 
ATOM     88  C   UNL A   1      47.404  34.333  30.193  1.00  0.00     0.002 A 
ATOM     89  C   UNL A   1      46.616  35.056  28.016  1.00  0.00     0.091 A 
ATOM     90  F   UNL A   1      45.402  33.523  26.649  1.00  0.00    -0.205 F 
ATOM     91  C   UNL A   1      47.272  35.328  29.228  1.00  0.00     0.022 A 
BRANCH  89  92
ATOM     92  S   UNL A   1      46.576  36.373  26.793  1.00  0.00     0.127 S 
ATOM     93  O   UNL A   1      47.258  37.456  27.500  1.00  0.00    -0.237 OA
ATOM     94  O   UNL A   1      47.338  35.792  25.688  1.00  0.00    -0.237 OA
ATOM     95  O   UNL A   1      45.168  36.606  26.501  1.00  0.00    -0.744 OA
ENDBRANCH  89  92
ENDBRANCH  62  85
ENDBRANCH  36  37
ENDBRANCH  28  31
ENDBRANCH  26  27
ENDBRANCH  25  26
ENDBRANCH   1  25
TORSDOF 18
ENDMDL
