MODEL 1
REMARK VINA RESULT:     -11.7      0.000      0.000
REMARK SMILES CCOc1ccc(N2C[C@H](C(=O)NCCCCNC(=O)c3ccc(-c4c5nc(c(-c6cccc(S(=O)(=O)[O-])c6F)c6ccc([nH]6)c(-c6cccc(S(=O)(=O)[O-])c6F)c6nc(c(-c7cccc(S(=O)(=O)[O-])c7F)c7ccc4[nH]7)C=C6)C=C5)cc3)CC2=O)cc1C(F)(F)F
REMARK SMILES IDX 15 1 14 2 13 3 11 4 12 5 10 7 8 8 9 9 85 10 84 11 86 12 7 13
REMARK SMILES IDX 4 14 5 15 88 16 6 17 87 18 3 19 2 20 1 21 89 22 90 23 91 24
REMARK SMILES IDX 92 25 16 26 17 27 18 28 19 29 20 31 21 32 22 33 83 34 23 35
REMARK SMILES IDX 82 36 24 37 25 38 26 39 76 40 27 41 81 42 75 43 77 44 28 45
REMARK SMILES IDX 80 46 74 47 73 48 29 50 61 51 41 52 60 53 42 54 45 55 59 56
REMARK SMILES IDX 78 57 43 58 44 59 58 61 79 62 46 63 30 64 31 65 39 66 32 67
REMARK SMILES IDX 34 68 40 69 33 70 35 71 36 72 37 73 38 74 62 75 63 76 71 77
REMARK SMILES IDX 64 78 66 79 72 80 65 81 67 82 68 83 69 84 70 85 47 86 48 87
REMARK SMILES IDX 56 88 49 89 51 90 57 91 50 92 52 93 53 94 54 95 55 96
REMARK H PARENT 13 6 18 30 77 49 45 60
REMARK Flexibility Score: inf
ROOT
ATOM      1  C   UNL A   1      31.968  29.908  26.168  1.00  0.00     0.023 C 
ENDROOT
BRANCH   1   2
ATOM      2  C   UNL A   1      31.707  29.549  24.702  1.00  0.00     0.116 C 
BRANCH   2   3
ATOM      3  N   UNL A   1      31.000  28.287  24.603  1.00  0.00    -0.356 N 
ATOM      4  C   UNL A   1      31.425  27.050  24.239  1.00  0.00     0.225 C 
ATOM      5  O   UNL A   1      30.570  26.164  24.176  1.00  0.00    -0.275 OA
ATOM      6  H   UNL A   1      30.046  28.336  24.843  1.00  0.00     0.163 HD
BRANCH   4   7
ATOM      7  C   UNL A   1      32.906  26.733  24.070  1.00  0.00     0.107 C 
ATOM      8  N   UNL A   1      33.299  24.419  23.844  1.00  0.00    -0.312 N 
ATOM      9  C   UNL A   1      33.286  25.464  24.842  1.00  0.00     0.139 C 
ATOM     10  C   UNL A   1      33.300  24.943  22.553  1.00  0.00     0.227 C 
ATOM     11  C   UNL A   1      33.389  26.429  22.661  1.00  0.00     0.116 C 
ATOM     12  O   UNL A   1      33.280  24.357  21.480  1.00  0.00    -0.274 OA
BRANCH   8  13
ATOM     13  C   UNL A   1      33.437  23.045  24.132  1.00  0.00     0.044 A 
ATOM     14  C   UNL A   1      33.849  20.314  24.640  1.00  0.00     0.131 A 
ATOM     15  C   UNL A   1      32.560  20.803  24.393  1.00  0.00     0.049 A 
ATOM     16  C   UNL A   1      34.946  21.170  24.618  1.00  0.00     0.100 A 
ATOM     17  C   UNL A   1      32.350  22.171  24.162  1.00  0.00     0.030 A 
ATOM     18  C   UNL A   1      34.713  22.532  24.383  1.00  0.00     0.043 A 
BRANCH  14  19
ATOM     19  O   UNL A   1      34.037  18.968  24.773  1.00  0.00    -0.493 OA
BRANCH  19  20
ATOM     20  C   UNL A   1      33.205  18.196  23.900  1.00  0.00     0.226 C 
ATOM     21  C   UNL A   1      34.019  17.065  23.293  1.00  0.00     0.049 C 
ENDBRANCH  19  20
ENDBRANCH  14  19
BRANCH  16  22
ATOM     22  C   UNL A   1      36.360  20.737  24.882  1.00  0.00     0.420 C 
ATOM     23  F   UNL A   1      36.806  21.095  26.122  1.00  0.00    -0.166 F 
ATOM     24  F   UNL A   1      36.482  19.376  24.847  1.00  0.00    -0.166 F 
ATOM     25  F   UNL A   1      37.291  21.216  24.015  1.00  0.00    -0.166 F 
ENDBRANCH  16  22
ENDBRANCH   8  13
ENDBRANCH   4   7
ENDBRANCH   2   3
ENDBRANCH   1   2
BRANCH   1  26
ATOM     26  C   UNL A   1      31.663  31.363  26.528  1.00  0.00     0.023 C 
BRANCH  26  27
ATOM     27  C   UNL A   1      32.880  32.199  26.895  1.00  0.00     0.116 C 
BRANCH  27  28
ATOM     28  N   UNL A   1      32.537  33.567  27.259  1.00  0.00    -0.352 N 
ATOM     29  C   UNL A   1      33.057  34.341  28.266  1.00  0.00     0.251 C 
ATOM     30  H   UNL A   1      31.838  33.991  26.709  1.00  0.00     0.163 HD
ATOM     31  O   UNL A   1      32.558  35.433  28.523  1.00  0.00    -0.269 OA
BRANCH  29  32
ATOM     32  C   UNL A   1      34.199  33.834  29.052  1.00  0.00     0.039 A 
ATOM     33  C   UNL A   1      33.960  32.897  30.059  1.00  0.00     0.014 A 
ATOM     34  C   UNL A   1      35.503  34.251  28.767  1.00  0.00     0.014 A 
ATOM     35  C   UNL A   1      35.037  32.334  30.743  1.00  0.00     0.010 A 
ATOM     36  C   UNL A   1      36.577  33.626  29.390  1.00  0.00     0.010 A 
ATOM     37  C   UNL A   1      36.356  32.668  30.390  1.00  0.00    -0.014 A 
BRANCH  37  38
ATOM     38  C   UNL A   1      37.513  32.005  31.043  1.00  0.00     0.031 A 
ATOM     39  C   UNL A   1      38.303  30.954  30.315  1.00  0.00     0.074 A 
ATOM     40  C   UNL A   1      37.796  32.288  32.330  1.00  0.00     0.049 A 
ATOM     41  N   UNL A   1      39.328  30.257  30.733  1.00  0.00    -0.248 NA
ATOM     42  C   UNL A   1      37.867  30.617  28.949  1.00  0.00     0.031 C 
ATOM     43  C   UNL A   1      37.040  33.211  33.177  1.00  0.00     0.029 A 
ATOM     44  N   UNL A   1      38.778  31.805  33.157  1.00  0.00    -0.354 N 
ATOM     45  C   UNL A   1      39.633  29.374  29.705  1.00  0.00     0.074 A 
ATOM     46  C   UNL A   1      38.664  29.600  28.655  1.00  0.00     0.031 C 
ATOM     47  C   UNL A   1      37.586  33.231  34.403  1.00  0.00     0.029 A 
ATOM     48  C   UNL A   1      38.711  32.302  34.437  1.00  0.00     0.049 A 
ATOM     49  H   UNL A   1      39.465  31.164  32.863  1.00  0.00     0.167 HD
ATOM     50  C   UNL A   1      40.644  28.476  29.629  1.00  0.00     0.034 A 
ATOM     51  C   UNL A   1      39.464  32.034  35.523  1.00  0.00     0.034 A 
ATOM     52  C   UNL A   1      41.627  28.282  30.661  1.00  0.00     0.049 A 
ATOM     53  C   UNL A   1      40.617  31.079  35.397  1.00  0.00     0.074 A 
ATOM     54  C   UNL A   1      42.757  27.487  30.632  1.00  0.00     0.029 A 
ATOM     55  N   UNL A   1      41.585  28.873  31.914  1.00  0.00    -0.354 N 
ATOM     56  N   UNL A   1      41.008  30.394  34.350  1.00  0.00    -0.248 NA
ATOM     57  C   UNL A   1      41.457  30.890  36.588  1.00  0.00     0.031 C 
ATOM     58  C   UNL A   1      43.377  27.564  31.884  1.00  0.00     0.029 A 
ATOM     59  C   UNL A   1      42.655  28.440  32.679  1.00  0.00     0.049 A 
ATOM     60  H   UNL A   1      40.895  29.507  32.218  1.00  0.00     0.167 HD
ATOM     61  C   UNL A   1      42.153  29.712  34.746  1.00  0.00     0.074 A 
ATOM     62  C   UNL A   1      42.406  30.088  36.123  1.00  0.00     0.031 C 
ATOM     63  C   UNL A   1      42.917  28.844  34.038  1.00  0.00     0.034 A 
BRANCH  50  64
ATOM     64  C   UNL A   1      40.753  27.655  28.369  1.00  0.00     0.023 A 
ATOM     65  C   UNL A   1      41.461  28.161  27.259  1.00  0.00     0.012 A 
ATOM     66  C   UNL A   1      40.189  26.367  28.297  1.00  0.00     0.148 A 
ATOM     67  C   UNL A   1      41.565  27.420  26.082  1.00  0.00     0.002 A 
ATOM     68  C   UNL A   1      40.339  25.613  27.138  1.00  0.00     0.091 A 
ATOM     69  F   UNL A   1      39.500  25.909  29.351  1.00  0.00    -0.205 F 
ATOM     70  C   UNL A   1      41.012  26.144  26.025  1.00  0.00     0.022 A 
BRANCH  68  71
ATOM     71  S   UNL A   1      39.736  23.927  26.997  1.00  0.00     0.127 S 
ATOM     72  O   UNL A   1      40.371  23.491  25.755  1.00  0.00    -0.237 OA
ATOM     73  O   UNL A   1      40.274  23.306  28.208  1.00  0.00    -0.237 OA
ATOM     74  O   UNL A   1      38.284  24.022  26.960  1.00  0.00    -0.744 OA
ENDBRANCH  68  71
ENDBRANCH  50  64
BRANCH  51  75
ATOM     75  C   UNL A   1      39.169  32.730  36.807  1.00  0.00     0.023 A 
ATOM     76  C   UNL A   1      39.706  34.010  37.045  1.00  0.00     0.012 A 
ATOM     77  C   UNL A   1      38.311  32.153  37.763  1.00  0.00     0.148 A 
ATOM     78  C   UNL A   1      39.409  34.694  38.224  1.00  0.00     0.002 A 
ATOM     79  C   UNL A   1      37.974  32.863  38.907  1.00  0.00     0.091 A 
ATOM     80  F   UNL A   1      37.819  30.930  37.515  1.00  0.00    -0.205 F 
ATOM     81  C   UNL A   1      38.534  34.128  39.149  1.00  0.00     0.022 A 
BRANCH  79  82
ATOM     82  S   UNL A   1      36.749  32.275  40.083  1.00  0.00     0.127 S 
ATOM     83  O   UNL A   1      35.586  32.068  39.224  1.00  0.00    -0.237 OA
ATOM     84  O   UNL A   1      37.378  31.049  40.578  1.00  0.00    -0.237 OA
ATOM     85  O   UNL A   1      36.619  33.330  41.078  1.00  0.00    -0.744 OA
ENDBRANCH  79  82
ENDBRANCH  51  75
BRANCH  63  86
ATOM     86  C   UNL A   1      44.119  28.250  34.726  1.00  0.00     0.023 A 
ATOM     87  C   UNL A   1      45.355  28.927  34.694  1.00  0.00     0.012 A 
ATOM     88  C   UNL A   1      44.007  27.053  35.461  1.00  0.00     0.148 A 
ATOM     89  C   UNL A   1      46.467  28.404  35.352  1.00  0.00     0.002 A 
ATOM     90  C   UNL A   1      45.107  26.566  36.158  1.00  0.00     0.091 A 
ATOM     91  F   UNL A   1      42.829  26.413  35.467  1.00  0.00    -0.205 F 
ATOM     92  C   UNL A   1      46.341  27.231  36.092  1.00  0.00     0.022 A 
BRANCH  90  93
ATOM     93  S   UNL A   1      45.011  25.118  37.219  1.00  0.00     0.127 S 
ATOM     94  O   UNL A   1      43.964  25.509  38.162  1.00  0.00    -0.237 OA
ATOM     95  O   UNL A   1      44.623  24.069  36.277  1.00  0.00    -0.237 OA
ATOM     96  O   UNL A   1      46.339  24.953  37.794  1.00  0.00    -0.744 OA
ENDBRANCH  90  93
ENDBRANCH  63  86
ENDBRANCH  37  38
ENDBRANCH  29  32
ENDBRANCH  27  28
ENDBRANCH  26  27
ENDBRANCH   1  26
TORSDOF 18
ENDMDL
MODEL 2
REMARK VINA RESULT:     -11.6      2.586      7.958
REMARK SMILES CCOc1ccc(N2C[C@H](C(=O)NCCCCNC(=O)c3ccc(-c4c5nc(c(-c6cccc(S(=O)(=O)[O-])c6F)c6ccc([nH]6)c(-c6cccc(S(=O)(=O)[O-])c6F)c6nc(c(-c7cccc(S(=O)(=O)[O-])c7F)c7ccc4[nH]7)C=C6)C=C5)cc3)CC2=O)cc1C(F)(F)F
REMARK SMILES IDX 15 1 14 2 13 3 11 4 12 5 10 7 8 8 9 9 85 10 84 11 86 12 7 13
REMARK SMILES IDX 4 14 5 15 88 16 6 17 87 18 3 19 2 20 1 21 89 22 90 23 91 24
REMARK SMILES IDX 92 25 16 26 17 27 18 28 19 29 20 31 21 32 22 33 83 34 23 35
REMARK SMILES IDX 82 36 24 37 25 38 26 39 76 40 27 41 81 42 75 43 77 44 28 45
REMARK SMILES IDX 80 46 74 47 73 48 29 50 61 51 41 52 60 53 42 54 45 55 59 56
REMARK SMILES IDX 78 57 43 58 44 59 58 61 79 62 46 63 30 64 31 65 39 66 32 67
REMARK SMILES IDX 34 68 40 69 33 70 35 71 36 72 37 73 38 74 62 75 63 76 71 77
REMARK SMILES IDX 64 78 66 79 72 80 65 81 67 82 68 83 69 84 70 85 47 86 48 87
REMARK SMILES IDX 56 88 49 89 51 90 57 91 50 92 52 93 53 94 54 95 55 96
REMARK H PARENT 13 6 18 30 77 49 45 60
REMARK Flexibility Score: inf
ROOT
ATOM      1  C   UNL A   1      31.860  29.552  26.897  1.00  0.00     0.023 C 
ENDROOT
BRANCH   1   2
ATOM      2  C   UNL A   1      31.798  30.095  25.465  1.00  0.00     0.116 C 
BRANCH   2   3
ATOM      3  N   UNL A   1      31.059  29.189  24.608  1.00  0.00    -0.356 N 
ATOM      4  C   UNL A   1      31.479  28.316  23.655  1.00  0.00     0.225 C 
ATOM      5  O   UNL A   1      30.605  27.719  23.024  1.00  0.00    -0.275 OA
ATOM      6  H   UNL A   1      30.084  29.210  24.739  1.00  0.00     0.163 HD
BRANCH   4   7
ATOM      7  C   UNL A   1      32.954  27.974  23.483  1.00  0.00     0.107 C 
ATOM      8  N   UNL A   1      33.310  25.650  23.302  1.00  0.00    -0.312 N 
ATOM      9  C   UNL A   1      33.319  26.715  24.278  1.00  0.00     0.139 C 
ATOM     10  C   UNL A   1      33.310  26.147  22.001  1.00  0.00     0.227 C 
ATOM     11  C   UNL A   1      33.423  27.633  22.078  1.00  0.00     0.116 C 
ATOM     12  O   UNL A   1      33.273  25.539  20.940  1.00  0.00    -0.274 OA
BRANCH   8  13
ATOM     13  C   UNL A   1      33.428  24.280  23.617  1.00  0.00     0.044 A 
ATOM     14  C   UNL A   1      33.811  21.560  24.205  1.00  0.00     0.131 A 
ATOM     15  C   UNL A   1      32.575  22.016  23.730  1.00  0.00     0.049 A 
ATOM     16  C   UNL A   1      34.873  22.445  24.374  1.00  0.00     0.100 A 
ATOM     17  C   UNL A   1      32.376  23.378  23.457  1.00  0.00     0.030 A 
ATOM     18  C   UNL A   1      34.652  23.800  24.094  1.00  0.00     0.043 A 
BRANCH  14  19
ATOM     19  O   UNL A   1      34.006  20.219  24.376  1.00  0.00    -0.493 OA
BRANCH  19  20
ATOM     20  C   UNL A   1      33.154  19.651  25.376  1.00  0.00     0.226 C 
ATOM     21  C   UNL A   1      32.534  18.369  24.846  1.00  0.00     0.049 C 
ENDBRANCH  19  20
ENDBRANCH  14  19
BRANCH  16  22
ATOM     22  C   UNL A   1      36.228  22.047  24.888  1.00  0.00     0.420 C 
ATOM     23  F   UNL A   1      37.045  21.551  23.913  1.00  0.00    -0.166 F 
ATOM     24  F   UNL A   1      36.905  23.119  25.398  1.00  0.00    -0.166 F 
ATOM     25  F   UNL A   1      36.228  21.106  25.869  1.00  0.00    -0.166 F 
ENDBRANCH  16  22
ENDBRANCH   8  13
ENDBRANCH   4   7
ENDBRANCH   2   3
ENDBRANCH   1   2
BRANCH   1  26
ATOM     26  C   UNL A   1      33.175  28.858  27.255  1.00  0.00     0.023 C 
BRANCH  26  27
ATOM     27  C   UNL A   1      34.399  29.762  27.244  1.00  0.00     0.116 C 
BRANCH  27  28
ATOM     28  N   UNL A   1      34.109  31.108  27.716  1.00  0.00    -0.352 N 
ATOM     29  C   UNL A   1      34.792  31.857  28.643  1.00  0.00     0.251 C 
ATOM     30  H   UNL A   1      33.318  31.539  27.318  1.00  0.00     0.163 HD
ATOM     31  O   UNL A   1      34.334  32.928  29.027  1.00  0.00    -0.269 OA
BRANCH  29  32
ATOM     32  C   UNL A   1      36.063  31.344  29.191  1.00  0.00     0.039 A 
ATOM     33  C   UNL A   1      36.022  30.324  30.144  1.00  0.00     0.014 A 
ATOM     34  C   UNL A   1      37.289  31.839  28.736  1.00  0.00     0.014 A 
ATOM     35  C   UNL A   1      37.215  29.760  30.598  1.00  0.00     0.010 A 
ATOM     36  C   UNL A   1      38.470  31.219  29.126  1.00  0.00     0.010 A 
ATOM     37  C   UNL A   1      38.446  30.178  30.067  1.00  0.00    -0.014 A 
BRANCH  37  38
ATOM     38  C   UNL A   1      39.715  29.521  30.469  1.00  0.00     0.031 A 
ATOM     39  C   UNL A   1      40.529  30.064  31.610  1.00  0.00     0.074 A 
ATOM     40  C   UNL A   1      40.180  28.483  29.746  1.00  0.00     0.049 A 
ATOM     41  N   UNL A   1      41.668  29.633  32.087  1.00  0.00    -0.248 NA
ATOM     42  C   UNL A   1      40.014  31.267  32.285  1.00  0.00     0.031 C 
ATOM     43  C   UNL A   1      39.535  27.930  28.553  1.00  0.00     0.029 A 
ATOM     44  N   UNL A   1      41.317  27.729  29.890  1.00  0.00    -0.354 N 
ATOM     45  C   UNL A   1      42.027  30.530  33.085  1.00  0.00     0.074 A 
ATOM     46  C   UNL A   1      41.001  31.550  33.123  1.00  0.00     0.031 C 
ATOM     47  C   UNL A   1      40.283  26.924  28.076  1.00  0.00     0.029 A 
ATOM     48  C   UNL A   1      41.474  26.779  28.909  1.00  0.00     0.049 A 
ATOM     49  H   UNL A   1      41.958  27.856  30.625  1.00  0.00     0.167 HD
ATOM     50  C   UNL A   1      43.099  30.496  33.913  1.00  0.00     0.034 A 
ATOM     51  C   UNL A   1      42.468  25.895  28.695  1.00  0.00     0.034 A 
ATOM     52  C   UNL A   1      44.096  29.460  33.895  1.00  0.00     0.049 A 
ATOM     53  C   UNL A   1      43.616  25.836  29.663  1.00  0.00     0.074 A 
ATOM     54  C   UNL A   1      45.151  29.268  34.767  1.00  0.00     0.029 A 
ATOM     55  N   UNL A   1      44.175  28.454  32.944  1.00  0.00    -0.354 N 
ATOM     56  N   UNL A   1      43.840  26.575  30.721  1.00  0.00    -0.248 NA
ATOM     57  C   UNL A   1      44.628  24.795  29.431  1.00  0.00     0.031 C 
ATOM     58  C   UNL A   1      45.893  28.169  34.319  1.00  0.00     0.029 A 
ATOM     59  C   UNL A   1      45.276  27.652  33.191  1.00  0.00     0.049 A 
ATOM     60  H   UNL A   1      43.541  28.328  32.200  1.00  0.00     0.167 HD
ATOM     61  C   UNL A   1      45.002  26.077  31.297  1.00  0.00     0.074 A 
ATOM     62  C   UNL A   1      45.421  24.954  30.483  1.00  0.00     0.031 C 
ATOM     63  C   UNL A   1      45.668  26.516  32.394  1.00  0.00     0.034 A 
BRANCH  50  64
ATOM     64  C   UNL A   1      43.228  31.600  34.930  1.00  0.00     0.023 A 
ATOM     65  C   UNL A   1      44.045  32.717  34.656  1.00  0.00     0.012 A 
ATOM     66  C   UNL A   1      42.511  31.552  36.142  1.00  0.00     0.148 A 
ATOM     67  C   UNL A   1      44.184  33.744  35.590  1.00  0.00     0.002 A 
ATOM     68  C   UNL A   1      42.616  32.603  37.046  1.00  0.00     0.091 A 
ATOM     69  F   UNL A   1      41.757  30.474  36.397  1.00  0.00    -0.205 F 
ATOM     70  C   UNL A   1      43.462  33.691  36.780  1.00  0.00     0.022 A 
BRANCH  68  71
ATOM     71  S   UNL A   1      41.661  32.667  38.567  1.00  0.00     0.127 S 
ATOM     72  O   UNL A   1      40.310  32.400  38.076  1.00  0.00    -0.237 OA
ATOM     73  O   UNL A   1      42.252  31.581  39.347  1.00  0.00    -0.237 OA
ATOM     74  O   UNL A   1      41.877  33.997  39.119  1.00  0.00    -0.744 OA
ENDBRANCH  68  71
ENDBRANCH  50  64
BRANCH  51  75
ATOM     75  C   UNL A   1      42.380  24.961  27.537  1.00  0.00     0.023 A 
ATOM     76  C   UNL A   1      43.121  25.227  26.370  1.00  0.00     0.012 A 
ATOM     77  C   UNL A   1      41.616  23.781  27.615  1.00  0.00     0.148 A 
ATOM     78  C   UNL A   1      43.083  24.344  25.290  1.00  0.00     0.002 A 
ATOM     79  C   UNL A   1      41.628  22.879  26.560  1.00  0.00     0.091 A 
ATOM     80  F   UNL A   1      40.914  23.555  28.735  1.00  0.00    -0.205 F 
ATOM     81  C   UNL A   1      42.347  23.165  25.389  1.00  0.00     0.022 A 
BRANCH  79  82
ATOM     82  S   UNL A   1      40.826  21.274  26.653  1.00  0.00     0.127 S 
ATOM     83  O   UNL A   1      40.891  20.990  28.084  1.00  0.00    -0.237 OA
ATOM     84  O   UNL A   1      39.489  21.580  26.144  1.00  0.00    -0.237 OA
ATOM     85  O   UNL A   1      41.609  20.391  25.800  1.00  0.00    -0.744 OA
ENDBRANCH  79  82
ENDBRANCH  51  75
BRANCH  63  86
ATOM     86  C   UNL A   1      46.914  25.772  32.799  1.00  0.00     0.023 A 
ATOM     87  C   UNL A   1      48.175  26.213  32.351  1.00  0.00     0.012 A 
ATOM     88  C   UNL A   1      46.840  24.674  33.679  1.00  0.00     0.148 A 
ATOM     89  C   UNL A   1      49.338  25.552  32.743  1.00  0.00     0.002 A 
ATOM     90  C   UNL A   1      48.007  24.053  34.108  1.00  0.00     0.091 A 
ATOM     91  F   UNL A   1      45.630  24.257  34.082  1.00  0.00    -0.205 F 
ATOM     92  C   UNL A   1      49.255  24.480  33.629  1.00  0.00     0.022 A 
BRANCH  90  93
ATOM     93  S   UNL A   1      48.004  22.731  35.325  1.00  0.00     0.127 S 
ATOM     94  O   UNL A   1      47.497  23.420  36.511  1.00  0.00    -0.237 OA
ATOM     95  O   UNL A   1      47.075  21.769  34.735  1.00  0.00    -0.237 OA
ATOM     96  O   UNL A   1      49.381  22.265  35.415  1.00  0.00    -0.744 OA
ENDBRANCH  90  93
ENDBRANCH  63  86
ENDBRANCH  37  38
ENDBRANCH  29  32
ENDBRANCH  27  28
ENDBRANCH  26  27
ENDBRANCH   1  26
TORSDOF 18
ENDMDL
MODEL 3
REMARK VINA RESULT:     -11.5      2.477      3.551
REMARK SMILES CCOc1ccc(N2C[C@H](C(=O)NCCCCNC(=O)c3ccc(-c4c5nc(c(-c6cccc(S(=O)(=O)[O-])c6F)c6ccc([nH]6)c(-c6cccc(S(=O)(=O)[O-])c6F)c6nc(c(-c7cccc(S(=O)(=O)[O-])c7F)c7ccc4[nH]7)C=C6)C=C5)cc3)CC2=O)cc1C(F)(F)F
REMARK SMILES IDX 15 1 14 2 13 3 11 4 12 5 10 7 8 8 9 9 85 10 84 11 86 12 7 13
REMARK SMILES IDX 4 14 5 15 88 16 6 17 87 18 3 19 2 20 1 21 89 22 90 23 91 24
REMARK SMILES IDX 92 25 16 26 17 27 18 28 19 29 20 31 21 32 22 33 83 34 23 35
REMARK SMILES IDX 82 36 24 37 25 38 26 39 76 40 27 41 81 42 75 43 77 44 28 45
REMARK SMILES IDX 80 46 74 47 73 48 29 50 61 51 41 52 60 53 42 54 45 55 59 56
REMARK SMILES IDX 78 57 43 58 44 59 58 61 79 62 46 63 30 64 31 65 39 66 32 67
REMARK SMILES IDX 34 68 40 69 33 70 35 71 36 72 37 73 38 74 62 75 63 76 71 77
REMARK SMILES IDX 64 78 66 79 72 80 65 81 67 82 68 83 69 84 70 85 47 86 48 87
REMARK SMILES IDX 56 88 49 89 51 90 57 91 50 92 52 93 53 94 54 95 55 96
REMARK H PARENT 13 6 18 30 77 49 45 60
REMARK Flexibility Score: inf
ROOT
ATOM      1  C   UNL A   1      31.846  27.623  26.512  1.00  0.00     0.023 C 
ENDROOT
BRANCH   1   2
ATOM      2  C   UNL A   1      30.972  26.417  26.152  1.00  0.00     0.116 C 
BRANCH   2   3
ATOM      3  N   UNL A   1      31.397  25.241  26.885  1.00  0.00    -0.356 N 
ATOM      4  C   UNL A   1      32.086  24.140  26.488  1.00  0.00     0.225 C 
ATOM      5  O   UNL A   1      32.243  23.251  27.327  1.00  0.00    -0.275 OA
ATOM      6  H   UNL A   1      31.142  25.241  27.836  1.00  0.00     0.163 HD
BRANCH   4   7
ATOM      7  C   UNL A   1      32.768  24.074  25.127  1.00  0.00     0.107 C 
ATOM      8  N   UNL A   1      34.794  22.871  25.206  1.00  0.00    -0.312 N 
ATOM      9  C   UNL A   1      34.287  24.222  25.268  1.00  0.00     0.139 C 
ATOM     10  C   UNL A   1      33.832  21.984  24.728  1.00  0.00     0.227 C 
ATOM     11  C   UNL A   1      32.626  22.776  24.348  1.00  0.00     0.116 C 
ATOM     12  O   UNL A   1      33.904  20.772  24.576  1.00  0.00    -0.274 OA
BRANCH   8  13
ATOM     13  C   UNL A   1      36.134  22.510  25.462  1.00  0.00     0.044 A 
ATOM     14  C   UNL A   1      38.841  21.939  25.944  1.00  0.00     0.131 A 
ATOM     15  C   UNL A   1      38.002  20.972  25.377  1.00  0.00     0.049 A 
ATOM     16  C   UNL A   1      38.350  23.204  26.259  1.00  0.00     0.100 A 
ATOM     17  C   UNL A   1      36.644  21.249  25.156  1.00  0.00     0.030 A 
ATOM     18  C   UNL A   1      36.992  23.459  26.028  1.00  0.00     0.043 A 
BRANCH  14  19
ATOM     19  O   UNL A   1      40.176  21.676  26.065  1.00  0.00    -0.493 OA
BRANCH  19  20
ATOM     20  C   UNL A   1      40.462  20.281  26.209  1.00  0.00     0.226 C 
ATOM     21  C   UNL A   1      41.303  20.061  27.455  1.00  0.00     0.049 C 
ENDBRANCH  19  20
ENDBRANCH  14  19
BRANCH  16  22
ATOM     22  C   UNL A   1      39.173  24.297  26.879  1.00  0.00     0.420 C 
ATOM     23  F   UNL A   1      39.759  23.924  28.055  1.00  0.00    -0.166 F 
ATOM     24  F   UNL A   1      40.213  24.663  26.072  1.00  0.00    -0.166 F 
ATOM     25  F   UNL A   1      38.501  25.445  27.164  1.00  0.00    -0.166 F 
ENDBRANCH  16  22
ENDBRANCH   8  13
ENDBRANCH   4   7
ENDBRANCH   2   3
ENDBRANCH   1   2
BRANCH   1  26
ATOM     26  C   UNL A   1      33.193  27.668  25.787  1.00  0.00     0.023 C 
BRANCH  26  27
ATOM     27  C   UNL A   1      33.621  29.051  25.321  1.00  0.00     0.116 C 
BRANCH  27  28
ATOM     28  N   UNL A   1      32.883  30.121  25.976  1.00  0.00    -0.352 N 
ATOM     29  C   UNL A   1      33.261  30.891  27.048  1.00  0.00     0.251 C 
ATOM     30  H   UNL A   1      31.994  30.318  25.600  1.00  0.00     0.163 HD
ATOM     31  O   UNL A   1      32.460  31.664  27.564  1.00  0.00    -0.269 OA
BRANCH  29  32
ATOM     32  C   UNL A   1      34.629  30.756  27.588  1.00  0.00     0.039 A 
ATOM     33  C   UNL A   1      35.436  31.893  27.667  1.00  0.00     0.014 A 
ATOM     34  C   UNL A   1      35.096  29.523  28.051  1.00  0.00     0.014 A 
ATOM     35  C   UNL A   1      36.692  31.803  28.266  1.00  0.00     0.010 A 
ATOM     36  C   UNL A   1      36.311  29.454  28.722  1.00  0.00     0.010 A 
ATOM     37  C   UNL A   1      37.126  30.590  28.830  1.00  0.00    -0.014 A 
BRANCH  37  38
ATOM     38  C   UNL A   1      38.418  30.504  29.555  1.00  0.00     0.031 A 
ATOM     39  C   UNL A   1      39.574  29.741  28.970  1.00  0.00     0.074 A 
ATOM     40  C   UNL A   1      38.522  31.040  30.787  1.00  0.00     0.049 A 
ATOM     41  N   UNL A   1      40.766  29.543  29.468  1.00  0.00    -0.248 NA
ATOM     42  C   UNL A   1      39.352  29.088  27.669  1.00  0.00     0.031 C 
ATOM     43  C   UNL A   1      37.440  31.714  31.507  1.00  0.00     0.029 A 
ATOM     44  N   UNL A   1      39.577  31.076  31.662  1.00  0.00    -0.354 N 
ATOM     45  C   UNL A   1      41.422  28.712  28.569  1.00  0.00     0.074 A 
ATOM     46  C   UNL A   1      40.483  28.416  27.509  1.00  0.00     0.031 C 
ATOM     47  C   UNL A   1      37.887  32.100  32.712  1.00  0.00     0.029 A 
ATOM     48  C   UNL A   1      39.276  31.675  32.862  1.00  0.00     0.049 A 
ATOM     49  H   UNL A   1      40.465  30.708  31.452  1.00  0.00     0.167 HD
ATOM     50  C   UNL A   1      42.697  28.258  28.606  1.00  0.00     0.034 A 
ATOM     51  C   UNL A   1      40.029  31.856  33.966  1.00  0.00     0.034 A 
ATOM     52  C   UNL A   1      43.638  28.587  29.643  1.00  0.00     0.049 A 
ATOM     53  C   UNL A   1      41.460  31.397  33.960  1.00  0.00     0.074 A 
ATOM     54  C   UNL A   1      44.984  28.279  29.712  1.00  0.00     0.029 A 
ATOM     55  N   UNL A   1      43.326  29.278  30.804  1.00  0.00    -0.354 N 
ATOM     56  N   UNL A   1      42.122  30.778  33.013  1.00  0.00    -0.248 NA
ATOM     57  C   UNL A   1      42.259  31.697  35.156  1.00  0.00     0.031 C 
ATOM     58  C   UNL A   1      45.477  28.748  30.934  1.00  0.00     0.029 A 
ATOM     59  C   UNL A   1      44.447  29.385  31.609  1.00  0.00     0.049 A 
ATOM     60  H   UNL A   1      42.437  29.640  31.025  1.00  0.00     0.167 HD
ATOM     61  C   UNL A   1      43.421  30.635  33.487  1.00  0.00     0.074 A 
ATOM     62  C   UNL A   1      43.457  31.258  34.795  1.00  0.00     0.031 C 
ATOM     63  C   UNL A   1      44.483  30.033  32.896  1.00  0.00     0.034 A 
BRANCH  50  64
ATOM     64  C   UNL A   1      43.158  27.381  27.471  1.00  0.00     0.023 A 
ATOM     65  C   UNL A   1      43.722  27.962  26.316  1.00  0.00     0.012 A 
ATOM     66  C   UNL A   1      43.069  25.978  27.562  1.00  0.00     0.148 A 
ATOM     67  C   UNL A   1      44.145  27.166  25.252  1.00  0.00     0.002 A 
ATOM     68  C   UNL A   1      43.538  25.189  26.517  1.00  0.00     0.091 A 
ATOM     69  F   UNL A   1      42.510  25.441  28.656  1.00  0.00    -0.205 F 
ATOM     70  C   UNL A   1      44.062  25.780  25.357  1.00  0.00     0.022 A 
BRANCH  68  71
ATOM     71  S   UNL A   1      43.553  23.394  26.595  1.00  0.00     0.127 S 
ATOM     72  O   UNL A   1      43.022  23.039  25.280  1.00  0.00    -0.237 OA
ATOM     73  O   UNL A   1      44.975  23.105  26.776  1.00  0.00    -0.237 OA
ATOM     74  O   UNL A   1      42.713  23.035  27.728  1.00  0.00    -0.744 OA
ENDBRANCH  68  71
ENDBRANCH  50  64
BRANCH  51  75
ATOM     75  C   UNL A   1      39.443  32.553  35.145  1.00  0.00     0.023 A 
ATOM     76  C   UNL A   1      39.420  33.961  35.182  1.00  0.00     0.012 A 
ATOM     77  C   UNL A   1      38.853  31.826  36.197  1.00  0.00     0.148 A 
ATOM     78  C   UNL A   1      38.839  34.631  36.259  1.00  0.00     0.002 A 
ATOM     79  C   UNL A   1      38.226  32.499  37.236  1.00  0.00     0.091 A 
ATOM     80  F   UNL A   1      38.894  30.487  36.141  1.00  0.00    -0.205 F 
ATOM     81  C   UNL A   1      38.232  33.902  37.279  1.00  0.00     0.022 A 
BRANCH  79  82
ATOM     82  S   UNL A   1      37.299  31.647  38.518  1.00  0.00     0.127 S 
ATOM     83  O   UNL A   1      38.214  31.729  39.653  1.00  0.00    -0.237 OA
ATOM     84  O   UNL A   1      36.104  32.485  38.626  1.00  0.00    -0.237 OA
ATOM     85  O   UNL A   1      37.052  30.308  38.002  1.00  0.00    -0.744 OA
ENDBRANCH  79  82
ENDBRANCH  51  75
BRANCH  63  86
ATOM     86  C   UNL A   1      45.790  30.032  33.646  1.00  0.00     0.023 A 
ATOM     87  C   UNL A   1      46.690  31.106  33.495  1.00  0.00     0.012 A 
ATOM     88  C   UNL A   1      46.097  28.997  34.551  1.00  0.00     0.148 A 
ATOM     89  C   UNL A   1      47.889  31.132  34.206  1.00  0.00     0.002 A 
ATOM     90  C   UNL A   1      47.270  29.056  35.296  1.00  0.00     0.091 A 
ATOM     91  F   UNL A   1      45.238  27.973  34.669  1.00  0.00    -0.205 F 
ATOM     92  C   UNL A   1      48.173  30.114  35.114  1.00  0.00     0.022 A 
BRANCH  90  93
ATOM     93  S   UNL A   1      47.671  27.843  36.560  1.00  0.00     0.127 S 
ATOM     94  O   UNL A   1      47.821  26.625  35.766  1.00  0.00    -0.237 OA
ATOM     95  O   UNL A   1      48.918  28.371  37.110  1.00  0.00    -0.237 OA
ATOM     96  O   UNL A   1      46.550  27.848  37.490  1.00  0.00    -0.744 OA
ENDBRANCH  90  93
ENDBRANCH  63  86
ENDBRANCH  37  38
ENDBRANCH  29  32
ENDBRANCH  27  28
ENDBRANCH  26  27
ENDBRANCH   1  26
TORSDOF 18
ENDMDL
