MODEL 1
REMARK VINA RESULT:     -13.3      0.000      0.000
REMARK SMILES CC1=C(CC(=O)NCCCCNC(=O)c2ccc(-c3c4nc(c(-c5cccc(S(=O)(=O)[O-])c5F)c5ccc([nH]5)c(-c5cccc(S(=O)(=O)[O-])c5F)c5nc(c(-c6cccc(S(=O)(=O)[O-])c6F)c6ccc3[nH]6)C=C5)C=C4)cc2)c2cc(F)ccc2/C1=C\c1ccc([S@@+](C)[O-])cc1
REMARK SMILES IDX 9 1 8 2 7 3 5 4 6 5 4 7 3 8 1 9 2 10 85 11 78 12 84 13 86 14
REMARK SMILES IDX 79 15 83 16 80 17 82 18 81 19 87 20 88 21 95 22 89 23 94 24
REMARK SMILES IDX 90 25 91 26 92 27 93 28 10 29 11 30 12 31 13 32 14 34 15 35
REMARK SMILES IDX 16 36 77 37 17 38 76 39 18 40 19 41 20 42 70 43 21 44 75 45
REMARK SMILES IDX 69 46 71 47 22 48 74 49 68 50 67 51 23 53 55 54 35 55 54 56
REMARK SMILES IDX 36 57 39 58 53 59 72 60 37 61 38 62 52 64 73 65 40 66 24 67
REMARK SMILES IDX 25 68 33 69 26 70 28 71 34 72 27 73 29 74 30 75 31 76 32 77
REMARK SMILES IDX 56 78 57 79 65 80 58 81 60 82 66 83 59 84 61 85 62 86 63 87
REMARK SMILES IDX 64 88 41 89 42 90 50 91 43 92 45 93 51 94 44 95 46 96 47 97
REMARK SMILES IDX 48 98 49 99
REMARK H PARENT 7 6 12 33 71 52 39 63
REMARK Flexibility Score: inf
ROOT
ATOM      1  C   UNL A   1      31.586  29.576  24.296  1.00  0.00     0.023 C 
ENDROOT
BRANCH   1   2
ATOM      2  C   UNL A   1      33.090  29.336  24.160  1.00  0.00     0.116 C 
BRANCH   2   3
ATOM      3  N   UNL A   1      33.404  28.414  23.088  1.00  0.00    -0.356 N 
ATOM      4  C   UNL A   1      33.361  27.051  23.092  1.00  0.00     0.224 C 
ATOM      5  O   UNL A   1      33.687  26.449  22.067  1.00  0.00    -0.275 OA
ATOM      6  H   UNL A   1      33.688  28.828  22.240  1.00  0.00     0.163 HD
BRANCH   4   7
ATOM      7  C   UNL A   1      32.877  26.294  24.328  1.00  0.00     0.136 C 
BRANCH   7   8
ATOM      8  C   UNL A   1      33.001  24.808  24.208  1.00  0.00    -0.027 C 
ATOM      9  C   UNL A   1      30.697  24.147  23.306  1.00  0.00     0.045 C 
ATOM     10  C   UNL A   1      32.085  23.898  23.797  1.00  0.00    -0.039 C 
ATOM     11  C   UNL A   1      32.645  22.541  23.925  1.00  0.00    -0.014 C 
ATOM     12  C   UNL A   1      34.243  24.081  24.533  1.00  0.00    -0.011 A 
ATOM     13  C   UNL A   1      34.057  22.703  24.322  1.00  0.00    -0.010 A 
ATOM     14  C   UNL A   1      31.931  21.408  23.776  1.00  0.00     0.017 C 
ATOM     15  C   UNL A   1      35.468  24.573  24.966  1.00  0.00     0.048 A 
ATOM     16  C   UNL A   1      35.114  21.816  24.486  1.00  0.00     0.012 A 
ATOM     17  C   UNL A   1      36.505  23.668  25.175  1.00  0.00     0.123 A 
ATOM     18  C   UNL A   1      36.343  22.305  24.932  1.00  0.00     0.040 A 
ATOM     19  F   UNL A   1      37.693  24.117  25.603  1.00  0.00    -0.207 F 
BRANCH  14  20
ATOM     20  C   UNL A   1      32.445  20.051  23.970  1.00  0.00    -0.025 A 
ATOM     21  C   UNL A   1      32.509  19.145  22.905  1.00  0.00     0.013 A 
ATOM     22  C   UNL A   1      32.774  19.622  25.257  1.00  0.00     0.013 A 
ATOM     23  C   UNL A   1      32.776  17.793  23.145  1.00  0.00     0.061 A 
ATOM     24  C   UNL A   1      33.064  18.276  25.493  1.00  0.00     0.061 A 
ATOM     25  C   UNL A   1      33.030  17.345  24.447  1.00  0.00     0.152 A 
BRANCH  25  26
ATOM     26  S   UNL A   1      33.131  15.577  24.829  1.00  0.00    -0.018 S 
ATOM     27  C   UNL A   1      34.878  15.450  25.254  1.00  0.00     0.346 C 
ATOM     28  O   UNL A   1      32.293  15.341  26.137  1.00  0.00    -0.612 OA
ENDBRANCH  25  26
ENDBRANCH  14  20
ENDBRANCH   7   8
ENDBRANCH   4   7
ENDBRANCH   2   3
ENDBRANCH   1   2
BRANCH   1  29
ATOM     29  C   UNL A   1      31.153  30.249  25.598  1.00  0.00     0.023 C 
BRANCH  29  30
ATOM     30  C   UNL A   1      32.288  30.761  26.475  1.00  0.00     0.116 C 
BRANCH  30  31
ATOM     31  N   UNL A   1      32.142  32.155  26.870  1.00  0.00    -0.352 N 
ATOM     32  C   UNL A   1      33.038  32.942  27.560  1.00  0.00     0.251 C 
ATOM     33  H   UNL A   1      31.297  32.589  26.612  1.00  0.00     0.163 HD
ATOM     34  O   UNL A   1      32.726  34.081  27.895  1.00  0.00    -0.269 OA
BRANCH  32  35
ATOM     35  C   UNL A   1      34.353  32.376  27.935  1.00  0.00     0.039 A 
ATOM     36  C   UNL A   1      34.456  31.046  28.344  1.00  0.00     0.014 A 
ATOM     37  C   UNL A   1      35.475  33.208  27.952  1.00  0.00     0.014 A 
ATOM     38  C   UNL A   1      35.630  30.604  28.942  1.00  0.00     0.010 A 
ATOM     39  C   UNL A   1      36.680  32.733  28.478  1.00  0.00     0.010 A 
ATOM     40  C   UNL A   1      36.751  31.447  29.032  1.00  0.00    -0.014 A 
BRANCH  40  41
ATOM     41  C   UNL A   1      37.968  30.953  29.729  1.00  0.00     0.031 A 
ATOM     42  C   UNL A   1      38.255  31.336  31.157  1.00  0.00     0.074 A 
ATOM     43  C   UNL A   1      38.778  30.086  29.092  1.00  0.00     0.049 A 
ATOM     44  N   UNL A   1      39.216  30.916  31.939  1.00  0.00    -0.248 NA
ATOM     45  C   UNL A   1      37.355  32.313  31.793  1.00  0.00     0.031 C 
ATOM     46  C   UNL A   1      38.617  29.656  27.702  1.00  0.00     0.029 A 
ATOM     47  N   UNL A   1      39.872  29.387  29.534  1.00  0.00    -0.354 N 
ATOM     48  C   UNL A   1      39.059  31.597  33.140  1.00  0.00     0.074 A 
ATOM     49  C   UNL A   1      37.914  32.467  32.985  1.00  0.00     0.031 C 
ATOM     50  C   UNL A   1      39.538  28.721  27.423  1.00  0.00     0.029 A 
ATOM     51  C   UNL A   1      40.380  28.516  28.598  1.00  0.00     0.049 A 
ATOM     52  H   UNL A   1      40.258  29.499  30.433  1.00  0.00     0.167 HD
ATOM     53  C   UNL A   1      39.783  31.486  34.278  1.00  0.00     0.034 A 
ATOM     54  C   UNL A   1      41.401  27.641  28.676  1.00  0.00     0.034 A 
ATOM     55  C   UNL A   1      40.883  30.577  34.456  1.00  0.00     0.049 A 
ATOM     56  C   UNL A   1      42.171  27.516  29.957  1.00  0.00     0.074 A 
ATOM     57  C   UNL A   1      41.650  30.374  35.590  1.00  0.00     0.029 A 
ATOM     58  N   UNL A   1      41.363  29.715  33.484  1.00  0.00    -0.354 N 
ATOM     59  N   UNL A   1      41.958  28.118  31.101  1.00  0.00    -0.248 NA
ATOM     60  C   UNL A   1      43.309  26.587  29.966  1.00  0.00     0.031 C 
ATOM     61  C   UNL A   1      42.593  29.382  35.304  1.00  0.00     0.029 A 
ATOM     62  C   UNL A   1      42.413  28.974  33.993  1.00  0.00     0.049 A 
ATOM     63  H   UNL A   1      41.010  29.642  32.568  1.00  0.00     0.167 HD
ATOM     64  C   UNL A   1      42.933  27.641  31.968  1.00  0.00     0.074 A 
ATOM     65  C   UNL A   1      43.722  26.680  31.226  1.00  0.00     0.031 C 
ATOM     66  C   UNL A   1      43.163  27.989  33.257  1.00  0.00     0.034 A 
BRANCH  53  67
ATOM     67  C   UNL A   1      39.373  32.319  35.460  1.00  0.00     0.023 A 
ATOM     68  C   UNL A   1      38.588  31.729  36.470  1.00  0.00     0.012 A 
ATOM     69  C   UNL A   1      39.841  33.637  35.623  1.00  0.00     0.148 A 
ATOM     70  C   UNL A   1      38.265  32.442  37.623  1.00  0.00     0.002 A 
ATOM     71  C   UNL A   1      39.536  34.333  36.787  1.00  0.00     0.091 A 
ATOM     72  F   UNL A   1      40.573  34.181  34.641  1.00  0.00    -0.205 F 
ATOM     73  C   UNL A   1      38.747  33.738  37.787  1.00  0.00     0.022 A 
BRANCH  71  74
ATOM     74  S   UNL A   1      40.146  35.991  37.119  1.00  0.00     0.127 S 
ATOM     75  O   UNL A   1      39.449  36.315  38.364  1.00  0.00    -0.237 OA
ATOM     76  O   UNL A   1      41.584  35.765  37.266  1.00  0.00    -0.237 OA
ATOM     77  O   UNL A   1      39.769  36.795  35.966  1.00  0.00    -0.744 OA
ENDBRANCH  71  74
ENDBRANCH  53  67
BRANCH  54  78
ATOM     78  C   UNL A   1      41.688  26.768  27.506  1.00  0.00     0.023 A 
ATOM     79  C   UNL A   1      42.422  27.290  26.425  1.00  0.00     0.012 A 
ATOM     80  C   UNL A   1      41.337  25.404  27.514  1.00  0.00     0.148 A 
ATOM     81  C   UNL A   1      42.808  26.464  25.368  1.00  0.00     0.002 A 
ATOM     82  C   UNL A   1      41.763  24.578  26.480  1.00  0.00     0.091 A 
ATOM     83  F   UNL A   1      40.635  24.937  28.555  1.00  0.00    -0.205 F 
ATOM     84  C   UNL A   1      42.490  25.108  25.403  1.00  0.00     0.022 A 
BRANCH  82  85
ATOM     85  S   UNL A   1      41.515  22.799  26.498  1.00  0.00     0.127 S 
ATOM     86  O   UNL A   1      40.063  22.700  26.373  1.00  0.00    -0.237 OA
ATOM     87  O   UNL A   1      42.267  22.383  25.314  1.00  0.00    -0.237 OA
ATOM     88  O   UNL A   1      42.069  22.334  27.762  1.00  0.00    -0.744 OA
ENDBRANCH  82  85
ENDBRANCH  54  78
BRANCH  66  89
ATOM     89  C   UNL A   1      44.321  27.348  33.967  1.00  0.00     0.023 A 
ATOM     90  C   UNL A   1      45.575  27.988  33.939  1.00  0.00     0.012 A 
ATOM     91  C   UNL A   1      44.136  26.207  34.772  1.00  0.00     0.148 A 
ATOM     92  C   UNL A   1      46.632  27.502  34.704  1.00  0.00     0.002 A 
ATOM     93  C   UNL A   1      45.187  25.745  35.554  1.00  0.00     0.091 A 
ATOM     94  F   UNL A   1      42.931  25.619  34.776  1.00  0.00    -0.205 F 
ATOM     95  C   UNL A   1      46.436  26.388  35.519  1.00  0.00     0.022 A 
BRANCH  93  96
ATOM     96  S   UNL A   1      45.019  24.362  36.688  1.00  0.00     0.127 S 
ATOM     97  O   UNL A   1      46.384  24.223  37.193  1.00  0.00    -0.237 OA
ATOM     98  O   UNL A   1      44.059  24.880  37.663  1.00  0.00    -0.237 OA
ATOM     99  O   UNL A   1      44.540  23.241  35.893  1.00  0.00    -0.744 OA
ENDBRANCH  93  96
ENDBRANCH  66  89
ENDBRANCH  40  41
ENDBRANCH  32  35
ENDBRANCH  30  31
ENDBRANCH  29  30
ENDBRANCH   1  29
TORSDOF 17
ENDMDL
MODEL 2
REMARK VINA RESULT:     -12.7      5.506      9.265
REMARK SMILES CC1=C(CC(=O)NCCCCNC(=O)c2ccc(-c3c4nc(c(-c5cccc(S(=O)(=O)[O-])c5F)c5ccc([nH]5)c(-c5cccc(S(=O)(=O)[O-])c5F)c5nc(c(-c6cccc(S(=O)(=O)[O-])c6F)c6ccc3[nH]6)C=C5)C=C4)cc2)c2cc(F)ccc2/C1=C\c1ccc([S@@+](C)[O-])cc1
REMARK SMILES IDX 9 1 8 2 7 3 5 4 6 5 4 7 3 8 1 9 2 10 85 11 78 12 84 13 86 14
REMARK SMILES IDX 79 15 83 16 80 17 82 18 81 19 87 20 88 21 95 22 89 23 94 24
REMARK SMILES IDX 90 25 91 26 92 27 93 28 10 29 11 30 12 31 13 32 14 34 15 35
REMARK SMILES IDX 16 36 77 37 17 38 76 39 18 40 19 41 20 42 70 43 21 44 75 45
REMARK SMILES IDX 69 46 71 47 22 48 74 49 68 50 67 51 23 53 55 54 35 55 54 56
REMARK SMILES IDX 36 57 39 58 53 59 72 60 37 61 38 62 52 64 73 65 40 66 24 67
REMARK SMILES IDX 25 68 33 69 26 70 28 71 34 72 27 73 29 74 30 75 31 76 32 77
REMARK SMILES IDX 56 78 57 79 65 80 58 81 60 82 66 83 59 84 61 85 62 86 63 87
REMARK SMILES IDX 64 88 41 89 42 90 50 91 43 92 45 93 51 94 44 95 46 96 47 97
REMARK SMILES IDX 48 98 49 99
REMARK H PARENT 7 6 12 33 71 52 39 63
REMARK Flexibility Score: inf
ROOT
ATOM      1  C   UNL A   1      36.697  20.073  24.919  1.00  0.00     0.023 C 
ENDROOT
BRANCH   1   2
ATOM      2  C   UNL A   1      36.769  21.593  25.071  1.00  0.00     0.116 C 
BRANCH   2   3
ATOM      3  N   UNL A   1      36.117  22.056  26.278  1.00  0.00    -0.356 N 
ATOM      4  C   UNL A   1      34.795  22.318  26.489  1.00  0.00     0.224 C 
ATOM      5  O   UNL A   1      34.446  22.724  27.599  1.00  0.00    -0.275 OA
ATOM      6  H   UNL A   1      36.708  22.201  27.052  1.00  0.00     0.163 HD
BRANCH   4   7
ATOM      7  C   UNL A   1      33.768  22.072  25.384  1.00  0.00     0.136 C 
BRANCH   7   8
ATOM      8  C   UNL A   1      32.966  23.284  25.029  1.00  0.00    -0.027 C 
ATOM      9  C   UNL A   1      34.398  24.358  23.197  1.00  0.00     0.045 C 
ATOM     10  C   UNL A   1      33.233  24.258  24.126  1.00  0.00    -0.039 C 
ATOM     11  C   UNL A   1      32.182  25.290  24.188  1.00  0.00    -0.014 C 
ATOM     12  C   UNL A   1      31.668  23.595  25.657  1.00  0.00    -0.011 A 
ATOM     13  C   UNL A   1      31.155  24.791  25.122  1.00  0.00    -0.010 A 
ATOM     14  C   UNL A   1      32.246  26.477  23.553  1.00  0.00     0.017 C 
ATOM     15  C   UNL A   1      30.957  22.886  26.616  1.00  0.00     0.048 A 
ATOM     16  C   UNL A   1      29.900  25.251  25.502  1.00  0.00     0.012 A 
ATOM     17  C   UNL A   1      29.723  23.384  27.026  1.00  0.00     0.123 A 
ATOM     18  C   UNL A   1      29.188  24.547  26.474  1.00  0.00     0.040 A 
ATOM     19  F   UNL A   1      29.023  22.723  27.958  1.00  0.00    -0.207 F 
BRANCH  14  20
ATOM     20  C   UNL A   1      31.253  27.548  23.658  1.00  0.00    -0.025 A 
ATOM     21  C   UNL A   1      30.088  27.528  22.881  1.00  0.00     0.013 A 
ATOM     22  C   UNL A   1      31.524  28.656  24.463  1.00  0.00     0.013 A 
ATOM     23  C   UNL A   1      29.268  28.660  22.814  1.00  0.00     0.061 A 
ATOM     24  C   UNL A   1      30.692  29.777  24.413  1.00  0.00     0.061 A 
ATOM     25  C   UNL A   1      29.580  29.803  23.561  1.00  0.00     0.152 A 
BRANCH  25  26
ATOM     26  S   UNL A   1      28.690  31.360  23.310  1.00  0.00    -0.018 S 
ATOM     27  C   UNL A   1      28.615  31.390  21.509  1.00  0.00     0.346 C 
ATOM     28  O   UNL A   1      27.231  31.148  23.854  1.00  0.00    -0.612 OA
ENDBRANCH  25  26
ENDBRANCH  14  20
ENDBRANCH   7   8
ENDBRANCH   4   7
ENDBRANCH   2   3
ENDBRANCH   1   2
BRANCH   1  29
ATOM     29  C   UNL A   1      38.037  19.347  25.038  1.00  0.00     0.023 C 
BRANCH  29  30
ATOM     30  C   UNL A   1      39.207  20.209  25.496  1.00  0.00     0.116 C 
BRANCH  30  31
ATOM     31  N   UNL A   1      40.256  19.461  26.173  1.00  0.00    -0.352 N 
ATOM     32  C   UNL A   1      41.285  19.951  26.949  1.00  0.00     0.251 C 
ATOM     33  H   UNL A   1      40.229  18.483  26.063  1.00  0.00     0.163 HD
ATOM     34  O   UNL A   1      42.147  19.191  27.380  1.00  0.00    -0.269 OA
BRANCH  32  35
ATOM     35  C   UNL A   1      41.362  21.407  27.204  1.00  0.00     0.039 A 
ATOM     36  C   UNL A   1      41.061  22.317  26.191  1.00  0.00     0.014 A 
ATOM     37  C   UNL A   1      41.816  21.859  28.446  1.00  0.00     0.014 A 
ATOM     38  C   UNL A   1      41.390  23.657  26.356  1.00  0.00     0.010 A 
ATOM     39  C   UNL A   1      42.066  23.221  28.637  1.00  0.00     0.010 A 
ATOM     40  C   UNL A   1      41.913  24.123  27.575  1.00  0.00    -0.014 A 
BRANCH  40  41
ATOM     41  C   UNL A   1      42.303  25.553  27.690  1.00  0.00     0.031 A 
ATOM     42  C   UNL A   1      41.415  26.547  28.391  1.00  0.00     0.074 A 
ATOM     43  C   UNL A   1      43.509  25.939  27.229  1.00  0.00     0.049 A 
ATOM     44  N   UNL A   1      41.651  27.804  28.663  1.00  0.00    -0.248 NA
ATOM     45  C   UNL A   1      40.095  26.077  28.844  1.00  0.00     0.031 C 
ATOM     46  C   UNL A   1      44.448  25.075  26.514  1.00  0.00     0.029 A 
ATOM     47  N   UNL A   1      44.163  27.142  27.321  1.00  0.00    -0.354 N 
ATOM     48  C   UNL A   1      40.505  28.284  29.285  1.00  0.00     0.074 A 
ATOM     49  C   UNL A   1      39.566  27.185  29.345  1.00  0.00     0.031 C 
ATOM     50  C   UNL A   1      45.583  25.754  26.286  1.00  0.00     0.029 A 
ATOM     51  C   UNL A   1      45.436  27.113  26.801  1.00  0.00     0.049 A 
ATOM     52  H   UNL A   1      43.760  27.947  27.719  1.00  0.00     0.167 HD
ATOM     53  C   UNL A   1      40.267  29.518  29.789  1.00  0.00     0.034 A 
ATOM     54  C   UNL A   1      46.386  28.066  26.751  1.00  0.00     0.034 A 
ATOM     55  C   UNL A   1      41.219  30.594  29.786  1.00  0.00     0.049 A 
ATOM     56  C   UNL A   1      46.108  29.417  27.340  1.00  0.00     0.074 A 
ATOM     57  C   UNL A   1      41.073  31.867  30.308  1.00  0.00     0.029 A 
ATOM     58  N   UNL A   1      42.494  30.522  29.250  1.00  0.00    -0.354 N 
ATOM     59  N   UNL A   1      45.044  29.824  27.987  1.00  0.00    -0.248 NA
ATOM     60  C   UNL A   1      47.159  30.435  27.206  1.00  0.00     0.031 C 
ATOM     61  C   UNL A   1      42.265  32.565  30.092  1.00  0.00     0.029 A 
ATOM     62  C   UNL A   1      43.148  31.727  29.432  1.00  0.00     0.049 A 
ATOM     63  H   UNL A   1      42.877  29.732  28.805  1.00  0.00     0.167 HD
ATOM     64  C   UNL A   1      45.296  31.144  28.341  1.00  0.00     0.074 A 
ATOM     65  C   UNL A   1      46.625  31.462  27.859  1.00  0.00     0.031 C 
ATOM     66  C   UNL A   1      44.486  32.017  28.987  1.00  0.00     0.034 A 
BRANCH  53  67
ATOM     67  C   UNL A   1      38.941  29.765  30.454  1.00  0.00     0.023 A 
ATOM     68  C   UNL A   1      38.694  29.186  31.715  1.00  0.00     0.012 A 
ATOM     69  C   UNL A   1      37.993  30.639  29.891  1.00  0.00     0.148 A 
ATOM     70  C   UNL A   1      37.515  29.467  32.403  1.00  0.00     0.002 A 
ATOM     71  C   UNL A   1      36.830  30.934  30.595  1.00  0.00     0.091 A 
ATOM     72  F   UNL A   1      38.245  31.165  28.684  1.00  0.00    -0.205 F 
ATOM     73  C   UNL A   1      36.590  30.347  31.849  1.00  0.00     0.022 A 
BRANCH  71  74
ATOM     74  S   UNL A   1      35.595  32.093  29.994  1.00  0.00     0.127 S 
ATOM     75  O   UNL A   1      36.396  33.301  29.800  1.00  0.00    -0.237 OA
ATOM     76  O   UNL A   1      35.149  31.452  28.757  1.00  0.00    -0.237 OA
ATOM     77  O   UNL A   1      34.583  32.178  31.037  1.00  0.00    -0.744 OA
ENDBRANCH  71  74
ENDBRANCH  53  67
BRANCH  54  78
ATOM     78  C   UNL A   1      47.714  27.725  26.176  1.00  0.00     0.023 A 
ATOM     79  C   UNL A   1      48.712  27.201  27.018  1.00  0.00     0.012 A 
ATOM     80  C   UNL A   1      47.951  27.812  24.790  1.00  0.00     0.148 A 
ATOM     81  C   UNL A   1      49.926  26.762  26.489  1.00  0.00     0.002 A 
ATOM     82  C   UNL A   1      49.145  27.332  24.264  1.00  0.00     0.091 A 
ATOM     83  F   UNL A   1      46.984  28.319  24.014  1.00  0.00    -0.205 F 
ATOM     84  C   UNL A   1      50.136  26.815  25.113  1.00  0.00     0.022 A 
BRANCH  82  85
ATOM     85  S   UNL A   1      49.456  27.240  22.497  1.00  0.00     0.127 S 
ATOM     86  O   UNL A   1      48.508  26.210  22.081  1.00  0.00    -0.237 OA
ATOM     87  O   UNL A   1      49.122  28.598  22.067  1.00  0.00    -0.237 OA
ATOM     88  O   UNL A   1      50.863  26.890  22.360  1.00  0.00    -0.744 OA
ENDBRANCH  82  85
ENDBRANCH  54  78
BRANCH  66  89
ATOM     89  C   UNL A   1      44.988  33.415  29.211  1.00  0.00     0.023 A 
ATOM     90  C   UNL A   1      45.725  33.693  30.378  1.00  0.00     0.012 A 
ATOM     91  C   UNL A   1      44.858  34.400  28.214  1.00  0.00     0.148 A 
ATOM     92  C   UNL A   1      46.329  34.936  30.550  1.00  0.00     0.002 A 
ATOM     93  C   UNL A   1      45.487  35.628  28.380  1.00  0.00     0.091 A 
ATOM     94  F   UNL A   1      44.148  34.105  27.116  1.00  0.00    -0.205 F 
ATOM     95  C   UNL A   1      46.220  35.898  29.548  1.00  0.00     0.022 A 
BRANCH  93  96
ATOM     96  S   UNL A   1      45.466  36.909  27.122  1.00  0.00     0.127 S 
ATOM     97  O   UNL A   1      46.198  36.267  26.031  1.00  0.00    -0.237 OA
ATOM     98  O   UNL A   1      44.033  37.075  26.879  1.00  0.00    -0.237 OA
ATOM     99  O   UNL A   1      46.126  38.066  27.709  1.00  0.00    -0.744 OA
ENDBRANCH  93  96
ENDBRANCH  66  89
ENDBRANCH  40  41
ENDBRANCH  32  35
ENDBRANCH  30  31
ENDBRANCH  29  30
ENDBRANCH   1  29
TORSDOF 17
ENDMDL
MODEL 3
REMARK VINA RESULT:     -12.6      1.729      2.442
REMARK SMILES CC1=C(CC(=O)NCCCCNC(=O)c2ccc(-c3c4nc(c(-c5cccc(S(=O)(=O)[O-])c5F)c5ccc([nH]5)c(-c5cccc(S(=O)(=O)[O-])c5F)c5nc(c(-c6cccc(S(=O)(=O)[O-])c6F)c6ccc3[nH]6)C=C5)C=C4)cc2)c2cc(F)ccc2/C1=C\c1ccc([S@@+](C)[O-])cc1
REMARK SMILES IDX 9 1 8 2 7 3 5 4 6 5 4 7 3 8 1 9 2 10 85 11 78 12 84 13 86 14
REMARK SMILES IDX 79 15 83 16 80 17 82 18 81 19 87 20 88 21 95 22 89 23 94 24
REMARK SMILES IDX 90 25 91 26 92 27 93 28 10 29 11 30 12 31 13 32 14 34 15 35
REMARK SMILES IDX 16 36 77 37 17 38 76 39 18 40 19 41 20 42 70 43 21 44 75 45
REMARK SMILES IDX 69 46 71 47 22 48 74 49 68 50 67 51 23 53 55 54 35 55 54 56
REMARK SMILES IDX 36 57 39 58 53 59 72 60 37 61 38 62 52 64 73 65 40 66 24 67
REMARK SMILES IDX 25 68 33 69 26 70 28 71 34 72 27 73 29 74 30 75 31 76 32 77
REMARK SMILES IDX 56 78 57 79 65 80 58 81 60 82 66 83 59 84 61 85 62 86 63 87
REMARK SMILES IDX 64 88 41 89 42 90 50 91 43 92 45 93 51 94 44 95 46 96 47 97
REMARK SMILES IDX 48 98 49 99
REMARK H PARENT 7 6 12 33 71 52 39 63
REMARK Flexibility Score: inf
ROOT
ATOM      1  C   UNL A   1      33.421  28.078  24.993  1.00  0.00     0.023 C 
ENDROOT
BRANCH   1   2
ATOM      2  C   UNL A   1      32.837  28.713  23.730  1.00  0.00     0.116 C 
BRANCH   2   3
ATOM      3  N   UNL A   1      31.473  29.161  23.921  1.00  0.00    -0.356 N 
ATOM      4  C   UNL A   1      30.340  28.746  23.284  1.00  0.00     0.224 C 
ATOM      5  O   UNL A   1      29.268  29.274  23.588  1.00  0.00    -0.275 OA
ATOM      6  H   UNL A   1      31.346  29.859  24.603  1.00  0.00     0.163 HD
BRANCH   4   7
ATOM      7  C   UNL A   1      30.397  27.623  22.250  1.00  0.00     0.136 C 
BRANCH   7   8
ATOM      8  C   UNL A   1      31.023  26.365  22.763  1.00  0.00    -0.027 C 
ATOM      9  C   UNL A   1      32.887  25.958  21.056  1.00  0.00     0.045 C 
ATOM     10  C   UNL A   1      32.056  25.650  22.257  1.00  0.00    -0.039 C 
ATOM     11  C   UNL A   1      32.263  24.438  23.070  1.00  0.00    -0.014 C 
ATOM     12  C   UNL A   1      30.569  25.692  23.994  1.00  0.00    -0.011 A 
ATOM     13  C   UNL A   1      31.345  24.540  24.221  1.00  0.00    -0.010 A 
ATOM     14  C   UNL A   1      33.086  23.427  22.729  1.00  0.00     0.017 C 
ATOM     15  C   UNL A   1      29.564  26.054  24.881  1.00  0.00     0.048 A 
ATOM     16  C   UNL A   1      31.157  23.778  25.367  1.00  0.00     0.012 A 
ATOM     17  C   UNL A   1      29.352  25.254  26.001  1.00  0.00     0.123 A 
ATOM     18  C   UNL A   1      30.140  24.133  26.255  1.00  0.00     0.040 A 
ATOM     19  F   UNL A   1      28.381  25.577  26.866  1.00  0.00    -0.207 F 
BRANCH  14  20
ATOM     20  C   UNL A   1      33.253  22.181  23.480  1.00  0.00    -0.025 A 
ATOM     21  C   UNL A   1      34.389  21.961  24.267  1.00  0.00     0.013 A 
ATOM     22  C   UNL A   1      32.318  21.156  23.321  1.00  0.00     0.013 A 
ATOM     23  C   UNL A   1      34.650  20.688  24.787  1.00  0.00     0.061 A 
ATOM     24  C   UNL A   1      32.567  19.892  23.859  1.00  0.00     0.061 A 
ATOM     25  C   UNL A   1      33.752  19.637  24.563  1.00  0.00     0.152 A 
BRANCH  25  26
ATOM     26  S   UNL A   1      34.174  17.932  25.002  1.00  0.00    -0.018 S 
ATOM     27  C   UNL A   1      32.525  17.273  25.312  1.00  0.00     0.346 C 
ATOM     28  O   UNL A   1      34.735  17.249  23.703  1.00  0.00    -0.612 OA
ENDBRANCH  25  26
ENDBRANCH  14  20
ENDBRANCH   7   8
ENDBRANCH   4   7
ENDBRANCH   2   3
ENDBRANCH   1   2
BRANCH   1  29
ATOM     29  C   UNL A   1      32.415  27.827  26.116  1.00  0.00     0.023 C 
BRANCH  29  30
ATOM     30  C   UNL A   1      32.583  28.706  27.348  1.00  0.00     0.116 C 
BRANCH  30  31
ATOM     31  N   UNL A   1      32.343  30.120  27.097  1.00  0.00    -0.352 N 
ATOM     32  C   UNL A   1      33.220  31.172  27.251  1.00  0.00     0.251 C 
ATOM     33  H   UNL A   1      31.442  30.354  26.777  1.00  0.00     0.163 HD
ATOM     34  O   UNL A   1      32.835  32.324  27.080  1.00  0.00    -0.269 OA
BRANCH  32  35
ATOM     35  C   UNL A   1      34.610  30.893  27.677  1.00  0.00     0.039 A 
ATOM     36  C   UNL A   1      35.050  29.577  27.829  1.00  0.00     0.014 A 
ATOM     37  C   UNL A   1      35.451  31.960  28.002  1.00  0.00     0.014 A 
ATOM     38  C   UNL A   1      36.254  29.330  28.477  1.00  0.00     0.010 A 
ATOM     39  C   UNL A   1      36.700  31.706  28.577  1.00  0.00     0.010 A 
ATOM     40  C   UNL A   1      37.086  30.391  28.875  1.00  0.00    -0.014 A 
BRANCH  40  41
ATOM     41  C   UNL A   1      38.339  30.084  29.614  1.00  0.00     0.031 A 
ATOM     42  C   UNL A   1      38.554  30.584  31.018  1.00  0.00     0.074 A 
ATOM     43  C   UNL A   1      39.253  29.278  29.041  1.00  0.00     0.049 A 
ATOM     44  N   UNL A   1      39.543  30.326  31.835  1.00  0.00    -0.248 NA
ATOM     45  C   UNL A   1      37.538  31.489  31.581  1.00  0.00     0.031 C 
ATOM     46  C   UNL A   1      39.168  28.748  27.680  1.00  0.00     0.029 A 
ATOM     47  N   UNL A   1      40.412  28.738  29.539  1.00  0.00    -0.354 N 
ATOM     48  C   UNL A   1      39.288  31.056  32.989  1.00  0.00     0.074 A 
ATOM     49  C   UNL A   1      38.054  31.779  32.768  1.00  0.00     0.031 C 
ATOM     50  C   UNL A   1      40.194  27.910  27.470  1.00  0.00     0.029 A 
ATOM     51  C   UNL A   1      41.032  27.876  28.665  1.00  0.00     0.049 A 
ATOM     52  H   UNL A   1      40.766  28.949  30.433  1.00  0.00     0.167 HD
ATOM     53  C   UNL A   1      39.999  31.099  34.140  1.00  0.00     0.034 A 
ATOM     54  C   UNL A   1      42.145  27.130  28.809  1.00  0.00     0.034 A 
ATOM     55  C   UNL A   1      41.192  30.336  34.386  1.00  0.00     0.049 A 
ATOM     56  C   UNL A   1      42.901  27.172  30.104  1.00  0.00     0.074 A 
ATOM     57  C   UNL A   1      41.957  30.292  35.539  1.00  0.00     0.029 A 
ATOM     58  N   UNL A   1      41.785  29.477  33.476  1.00  0.00    -0.354 N 
ATOM     59  N   UNL A   1      42.600  27.815  31.205  1.00  0.00    -0.248 NA
ATOM     60  C   UNL A   1      44.137  26.383  30.183  1.00  0.00     0.031 C 
ATOM     61  C   UNL A   1      43.011  29.399  35.327  1.00  0.00     0.029 A 
ATOM     62  C   UNL A   1      42.903  28.893  34.042  1.00  0.00     0.049 A 
ATOM     63  H   UNL A   1      41.459  29.308  32.563  1.00  0.00     0.167 HD
ATOM     64  C   UNL A   1      43.608  27.507  32.111  1.00  0.00     0.074 A 
ATOM     65  C   UNL A   1      44.515  26.600  31.439  1.00  0.00     0.031 C 
ATOM     66  C   UNL A   1      43.774  27.958  33.378  1.00  0.00     0.034 A 
BRANCH  53  67
ATOM     67  C   UNL A   1      39.475  31.951  35.263  1.00  0.00     0.023 A 
ATOM     68  C   UNL A   1      38.580  31.381  36.189  1.00  0.00     0.012 A 
ATOM     69  C   UNL A   1      39.940  33.265  35.461  1.00  0.00     0.148 A 
ATOM     70  C   UNL A   1      38.145  32.111  37.294  1.00  0.00     0.002 A 
ATOM     71  C   UNL A   1      39.521  33.978  36.579  1.00  0.00     0.091 A 
ATOM     72  F   UNL A   1      40.780  33.790  34.557  1.00  0.00    -0.205 F 
ATOM     73  C   UNL A   1      38.623  33.403  37.494  1.00  0.00     0.022 A 
BRANCH  71  74
ATOM     74  S   UNL A   1      40.113  35.632  36.957  1.00  0.00     0.127 S 
ATOM     75  O   UNL A   1      39.652  36.382  35.788  1.00  0.00    -0.237 OA
ATOM     76  O   UNL A   1      39.400  35.938  38.197  1.00  0.00    -0.237 OA
ATOM     77  O   UNL A   1      41.558  35.520  37.094  1.00  0.00    -0.744 OA
ENDBRANCH  71  74
ENDBRANCH  53  67
BRANCH  54  78
ATOM     78  C   UNL A   1      42.550  26.226  27.700  1.00  0.00     0.023 A 
ATOM     79  C   UNL A   1      43.551  26.645  26.804  1.00  0.00     0.012 A 
ATOM     80  C   UNL A   1      42.034  24.919  27.600  1.00  0.00     0.148 A 
ATOM     81  C   UNL A   1      44.036  25.775  25.827  1.00  0.00     0.002 A 
ATOM     82  C   UNL A   1      42.552  24.044  26.654  1.00  0.00     0.091 A 
ATOM     83  F   UNL A   1      41.078  24.550  28.464  1.00  0.00    -0.205 F 
ATOM     84  C   UNL A   1      43.546  24.472  25.761  1.00  0.00     0.022 A 
BRANCH  82  85
ATOM     85  S   UNL A   1      42.078  22.313  26.575  1.00  0.00     0.127 S 
ATOM     86  O   UNL A   1      42.818  21.855  25.401  1.00  0.00    -0.237 OA
ATOM     87  O   UNL A   1      42.578  21.810  27.855  1.00  0.00    -0.237 OA
ATOM     88  O   UNL A   1      40.628  22.304  26.445  1.00  0.00    -0.744 OA
ENDBRANCH  82  85
ENDBRANCH  54  78
BRANCH  66  89
ATOM     89  C   UNL A   1      44.984  27.499  34.139  1.00  0.00     0.023 A 
ATOM     90  C   UNL A   1      46.132  28.313  34.147  1.00  0.00     0.012 A 
ATOM     91  C   UNL A   1      44.936  26.352  34.954  1.00  0.00     0.148 A 
ATOM     92  C   UNL A   1      47.219  27.993  34.957  1.00  0.00     0.002 A 
ATOM     93  C   UNL A   1      46.012  26.055  35.782  1.00  0.00     0.091 A 
ATOM     94  F   UNL A   1      43.829  25.595  34.924  1.00  0.00    -0.205 F 
ATOM     95  C   UNL A   1      47.154  26.872  35.782  1.00  0.00     0.022 A 
BRANCH  93  96
ATOM     96  S   UNL A   1      46.002  24.674  36.931  1.00  0.00     0.127 S 
ATOM     97  O   UNL A   1      47.318  24.798  37.556  1.00  0.00    -0.237 OA
ATOM     98  O   UNL A   1      44.878  25.011  37.804  1.00  0.00    -0.237 OA
ATOM     99  O   UNL A   1      45.814  23.477  36.124  1.00  0.00    -0.744 OA
ENDBRANCH  93  96
ENDBRANCH  66  89
ENDBRANCH  40  41
ENDBRANCH  32  35
ENDBRANCH  30  31
ENDBRANCH  29  30
ENDBRANCH   1  29
TORSDOF 17
ENDMDL
