MODEL 1
REMARK VINA RESULT:     -11.1      0.000      0.000
REMARK SMILES C[C@H]([NH2+]C[C@]1(C)CCCO1)[C@H](C)C(=O)NCCCCNC(=O)c1ccc(-c2c3nc(c(-c4cccc(S(=O)(=O)[O-])c4F)c4ccc([nH]4)c(-c4cccc(S(=O)(=O)[O-])c4F)c4nc(c(-c5cccc(S(=O)(=O)[O-])c5F)c5ccc2[nH]5)C=C4)C=C3)cc1
REMARK SMILES IDX 17 1 16 2 15 3 13 4 14 5 11 7 12 8 2 9 1 10 3 11 4 14 5 15
REMARK SMILES IDX 7 16 10 17 6 18 8 19 9 20 18 21 19 22 20 23 21 24 22 26
REMARK SMILES IDX 23 27 24 28 85 29 25 30 84 31 26 32 27 33 28 34 78 35 29 36
REMARK SMILES IDX 83 37 77 38 79 39 30 40 82 41 76 42 75 43 31 45 63 46 43 47
REMARK SMILES IDX 62 48 44 49 47 50 61 51 80 52 45 53 46 54 60 56 81 57 48 58
REMARK SMILES IDX 32 59 33 60 41 61 34 62 36 63 42 64 35 65 37 66 38 67 39 68
REMARK SMILES IDX 40 69 64 70 65 71 73 72 66 73 68 74 74 75 67 76 69 77 70 78
REMARK SMILES IDX 71 79 72 80 49 81 50 82 58 83 51 84 53 85 59 86 52 87 54 88
REMARK SMILES IDX 55 89 56 90 57 91
REMARK H PARENT 15 6 3 12 3 13 20 25 79 44 47 55
REMARK Flexibility Score: inf
ROOT
ATOM      1  C   UNL A   1      31.738  28.531  27.412  1.00  0.00     0.023 C 
ENDROOT
BRANCH   1   2
ATOM      2  C   UNL A   1      31.420  27.203  26.726  1.00  0.00     0.116 C 
BRANCH   2   3
ATOM      3  N   UNL A   1      32.570  26.655  26.037  1.00  0.00    -0.356 N 
ATOM      4  C   UNL A   1      33.031  26.883  24.780  1.00  0.00     0.228 C 
ATOM      5  O   UNL A   1      34.088  26.329  24.458  1.00  0.00    -0.275 OA
ATOM      6  H   UNL A   1      33.103  26.017  26.563  1.00  0.00     0.163 HD
BRANCH   4   7
ATOM      7  C   UNL A   1      32.278  27.714  23.742  1.00  0.00     0.133 C 
ATOM      8  C   UNL A   1      33.303  28.402  22.826  1.00  0.00     0.024 C 
BRANCH   7   9
ATOM      9  C   UNL A   1      31.128  27.047  22.938  1.00  0.00     0.191 C 
ATOM     10  C   UNL A   1      31.692  26.318  21.701  1.00  0.00     0.076 C 
BRANCH   9  11
ATOM     11  N   UNL A   1      29.983  27.863  22.532  1.00  0.00    -0.341 N 
ATOM     12  H   UNL A   1      29.151  27.279  22.614  1.00  0.00     0.346 HD
ATOM     13  H   UNL A   1      30.215  28.176  21.589  1.00  0.00     0.346 HD
BRANCH  11  14
ATOM     14  C   UNL A   1      29.719  29.104  23.273  1.00  0.00     0.296 C 
BRANCH  14  15
ATOM     15  C   UNL A   1      28.350  29.746  22.879  1.00  0.00     0.114 C 
ATOM     16  C   UNL A   1      28.296  30.256  21.434  1.00  0.00     0.043 C 
ATOM     17  O   UNL A   1      28.138  30.906  23.721  1.00  0.00    -0.369 OA
ATOM     18  C   UNL A   1      27.226  28.737  23.142  1.00  0.00     0.048 C 
ATOM     19  C   UNL A   1      28.651  31.720  21.556  1.00  0.00     0.032 C 
ATOM     20  C   UNL A   1      28.054  32.076  22.896  1.00  0.00     0.161 C 
ENDBRANCH  14  15
ENDBRANCH  11  14
ENDBRANCH   9  11
ENDBRANCH   7   9
ENDBRANCH   4   7
ENDBRANCH   2   3
ENDBRANCH   1   2
BRANCH   1  21
ATOM     21  C   UNL A   1      31.400  29.800  26.617  1.00  0.00     0.023 C 
BRANCH  21  22
ATOM     22  C   UNL A   1      32.560  30.738  26.285  1.00  0.00     0.116 C 
BRANCH  22  23
ATOM     23  N   UNL A   1      32.406  32.086  26.811  1.00  0.00    -0.352 N 
ATOM     24  C   UNL A   1      33.270  32.809  27.605  1.00  0.00     0.251 C 
ATOM     25  H   UNL A   1      31.570  32.544  26.566  1.00  0.00     0.163 HD
ATOM     26  O   UNL A   1      32.967  33.925  27.996  1.00  0.00    -0.269 OA
BRANCH  24  27
ATOM     27  C   UNL A   1      34.556  32.200  28.013  1.00  0.00     0.039 A 
ATOM     28  C   UNL A   1      35.703  32.998  28.007  1.00  0.00     0.014 A 
ATOM     29  C   UNL A   1      34.616  30.872  28.441  1.00  0.00     0.014 A 
ATOM     30  C   UNL A   1      36.899  32.488  28.521  1.00  0.00     0.010 A 
ATOM     31  C   UNL A   1      35.802  30.377  28.983  1.00  0.00     0.010 A 
ATOM     32  C   UNL A   1      36.944  31.190  29.055  1.00  0.00    -0.014 A 
BRANCH  32  33
ATOM     33  C   UNL A   1      38.141  30.703  29.788  1.00  0.00     0.031 A 
ATOM     34  C   UNL A   1      39.053  29.676  29.185  1.00  0.00     0.074 A 
ATOM     35  C   UNL A   1      38.340  31.119  31.054  1.00  0.00     0.049 A 
ATOM     36  N   UNL A   1      40.098  29.095  29.713  1.00  0.00    -0.248 NA
ATOM     37  C   UNL A   1      38.742  29.233  27.817  1.00  0.00     0.031 C 
ATOM     38  C   UNL A   1      37.487  32.069  31.774  1.00  0.00     0.029 A 
ATOM     39  N   UNL A   1      39.301  30.775  31.972  1.00  0.00    -0.354 N 
ATOM     40  C   UNL A   1      40.564  28.203  28.755  1.00  0.00     0.074 A 
ATOM     41  C   UNL A   1      39.669  28.303  27.620  1.00  0.00     0.031 C 
ATOM     42  C   UNL A   1      37.959  32.226  33.021  1.00  0.00     0.029 A 
ATOM     43  C   UNL A   1      39.127  31.370  33.200  1.00  0.00     0.049 A 
ATOM     44  H   UNL A   1      40.044  30.162  31.771  1.00  0.00     0.167 HD
ATOM     45  C   UNL A   1      41.651  27.397  28.804  1.00  0.00     0.034 A 
ATOM     46  C   UNL A   1      39.822  31.234  34.347  1.00  0.00     0.034 A 
ATOM     47  C   UNL A   1      42.553  27.319  29.924  1.00  0.00     0.049 A 
ATOM     48  C   UNL A   1      41.017  30.323  34.378  1.00  0.00     0.074 A 
ATOM     49  C   UNL A   1      43.727  26.594  30.032  1.00  0.00     0.029 A 
ATOM     50  N   UNL A   1      42.376  27.974  31.132  1.00  0.00    -0.354 N 
ATOM     51  N   UNL A   1      41.538  29.613  33.407  1.00  0.00    -0.248 NA
ATOM     52  C   UNL A   1      41.736  30.211  35.656  1.00  0.00     0.031 C 
ATOM     53  C   UNL A   1      44.253  26.799  31.313  1.00  0.00     0.029 A 
ATOM     54  C   UNL A   1      43.409  27.659  31.999  1.00  0.00     0.049 A 
ATOM     55  H   UNL A   1      41.627  28.575  31.344  1.00  0.00     0.167 HD
ATOM     56  C   UNL A   1      42.660  28.996  33.945  1.00  0.00     0.074 A 
ATOM     57  C   UNL A   1      42.756  29.430  35.324  1.00  0.00     0.031 C 
ATOM     58  C   UNL A   1      43.524  28.134  33.354  1.00  0.00     0.034 A 
BRANCH  45  59
ATOM     59  C   UNL A   1      41.964  26.577  27.582  1.00  0.00     0.023 A 
ATOM     60  C   UNL A   1      42.570  27.204  26.474  1.00  0.00     0.012 A 
ATOM     61  C   UNL A   1      41.714  25.192  27.542  1.00  0.00     0.148 A 
ATOM     62  C   UNL A   1      42.898  26.470  25.334  1.00  0.00     0.002 A 
ATOM     63  C   UNL A   1      42.076  24.461  26.415  1.00  0.00     0.091 A 
ATOM     64  F   UNL A   1      41.114  24.617  28.594  1.00  0.00    -0.205 F 
ATOM     65  C   UNL A   1      42.659  25.099  25.308  1.00  0.00     0.022 A 
BRANCH  63  66
ATOM     66  S   UNL A   1      41.867  22.679  26.320  1.00  0.00     0.127 S 
ATOM     67  O   UNL A   1      40.418  22.559  26.169  1.00  0.00    -0.237 OA
ATOM     68  O   UNL A   1      42.634  22.337  25.122  1.00  0.00    -0.237 OA
ATOM     69  O   UNL A   1      42.420  22.150  27.560  1.00  0.00    -0.744 OA
ENDBRANCH  63  66
ENDBRANCH  45  59
BRANCH  46  70
ATOM     70  C   UNL A   1      39.442  32.040  35.541  1.00  0.00     0.023 A 
ATOM     71  C   UNL A   1      39.840  33.388  35.612  1.00  0.00     0.012 A 
ATOM     72  C   UNL A   1      38.658  31.498  36.579  1.00  0.00     0.148 A 
ATOM     73  C   UNL A   1      39.481  34.179  36.704  1.00  0.00     0.002 A 
ATOM     74  C   UNL A   1      38.261  32.306  37.639  1.00  0.00     0.091 A 
ATOM     75  F   UNL A   1      38.305  30.207  36.501  1.00  0.00    -0.205 F 
ATOM     76  C   UNL A   1      38.683  33.643  37.710  1.00  0.00     0.022 A 
BRANCH  74  77
ATOM     77  S   UNL A   1      37.124  31.733  38.907  1.00  0.00     0.127 S 
ATOM     78  O   UNL A   1      37.917  31.912  40.121  1.00  0.00    -0.237 OA
ATOM     79  O   UNL A   1      36.007  32.666  38.757  1.00  0.00    -0.237 OA
ATOM     80  O   UNL A   1      36.804  30.358  38.551  1.00  0.00    -0.744 OA
ENDBRANCH  74  77
ENDBRANCH  46  70
BRANCH  58  81
ATOM     81  C   UNL A   1      44.661  27.604  34.186  1.00  0.00     0.023 A 
ATOM     82  C   UNL A   1      45.868  28.328  34.251  1.00  0.00     0.012 A 
ATOM     83  C   UNL A   1      44.510  26.440  34.966  1.00  0.00     0.148 A 
ATOM     84  C   UNL A   1      46.914  27.893  35.062  1.00  0.00     0.002 A 
ATOM     85  C   UNL A   1      45.542  26.034  35.805  1.00  0.00     0.091 A 
ATOM     86  F   UNL A   1      43.361  25.754  34.875  1.00  0.00    -0.205 F 
ATOM     87  C   UNL A   1      46.748  26.754  35.848  1.00  0.00     0.022 A 
BRANCH  85  88
ATOM     88  S   UNL A   1      45.389  24.630  36.916  1.00  0.00     0.127 S 
ATOM     89  O   UNL A   1      46.572  24.788  37.760  1.00  0.00    -0.237 OA
ATOM     90  O   UNL A   1      44.119  24.902  37.588  1.00  0.00    -0.237 OA
ATOM     91  O   UNL A   1      45.380  23.447  36.066  1.00  0.00    -0.744 OA
ENDBRANCH  85  88
ENDBRANCH  58  81
ENDBRANCH  32  33
ENDBRANCH  24  27
ENDBRANCH  22  23
ENDBRANCH  21  22
ENDBRANCH   1  21
TORSDOF 18
ENDMDL
MODEL 2
REMARK VINA RESULT:     -10.9      2.139      2.860
REMARK SMILES C[C@H]([NH2+]C[C@]1(C)CCCO1)[C@H](C)C(=O)NCCCCNC(=O)c1ccc(-c2c3nc(c(-c4cccc(S(=O)(=O)[O-])c4F)c4ccc([nH]4)c(-c4cccc(S(=O)(=O)[O-])c4F)c4nc(c(-c5cccc(S(=O)(=O)[O-])c5F)c5ccc2[nH]5)C=C4)C=C3)cc1
REMARK SMILES IDX 17 1 16 2 15 3 13 4 14 5 11 7 12 8 2 9 1 10 3 11 4 14 5 15
REMARK SMILES IDX 7 16 10 17 6 18 8 19 9 20 18 21 19 22 20 23 21 24 22 26
REMARK SMILES IDX 23 27 24 28 85 29 25 30 84 31 26 32 27 33 28 34 78 35 29 36
REMARK SMILES IDX 83 37 77 38 79 39 30 40 82 41 76 42 75 43 31 45 63 46 43 47
REMARK SMILES IDX 62 48 44 49 47 50 61 51 80 52 45 53 46 54 60 56 81 57 48 58
REMARK SMILES IDX 32 59 33 60 41 61 34 62 36 63 42 64 35 65 37 66 38 67 39 68
REMARK SMILES IDX 40 69 64 70 65 71 73 72 66 73 68 74 74 75 67 76 69 77 70 78
REMARK SMILES IDX 71 79 72 80 49 81 50 82 58 83 51 84 53 85 59 86 52 87 54 88
REMARK SMILES IDX 55 89 56 90 57 91
REMARK H PARENT 15 6 3 12 3 13 20 25 79 44 47 55
REMARK Flexibility Score: inf
ROOT
ATOM      1  C   UNL A   1      32.669  30.071  25.952  1.00  0.00     0.023 C 
ENDROOT
BRANCH   1   2
ATOM      2  C   UNL A   1      33.127  28.788  26.645  1.00  0.00     0.116 C 
BRANCH   2   3
ATOM      3  N   UNL A   1      32.016  27.922  26.980  1.00  0.00    -0.356 N 
ATOM      4  C   UNL A   1      31.496  26.862  26.310  1.00  0.00     0.228 C 
ATOM      5  O   UNL A   1      30.575  26.245  26.857  1.00  0.00    -0.275 OA
ATOM      6  H   UNL A   1      31.565  28.135  27.829  1.00  0.00     0.163 HD
BRANCH   4   7
ATOM      7  C   UNL A   1      31.938  26.452  24.906  1.00  0.00     0.133 C 
ATOM      8  C   UNL A   1      33.155  25.520  25.025  1.00  0.00     0.024 C 
BRANCH   7   9
ATOM      9  C   UNL A   1      30.874  25.902  23.916  1.00  0.00     0.191 C 
ATOM     10  C   UNL A   1      31.368  24.591  23.272  1.00  0.00     0.076 C 
BRANCH   9  11
ATOM     11  N   UNL A   1      30.358  26.785  22.868  1.00  0.00    -0.341 N 
ATOM     12  H   UNL A   1      29.885  26.197  22.183  1.00  0.00     0.346 HD
ATOM     13  H   UNL A   1      31.181  27.286  22.531  1.00  0.00     0.346 HD
BRANCH  11  14
ATOM     14  C   UNL A   1      29.419  27.845  23.257  1.00  0.00     0.296 C 
BRANCH  14  15
ATOM     15  C   UNL A   1      29.869  29.250  22.742  1.00  0.00     0.114 C 
ATOM     16  C   UNL A   1      29.507  30.403  23.684  1.00  0.00     0.043 C 
ATOM     17  O   UNL A   1      29.175  29.517  21.498  1.00  0.00    -0.369 OA
ATOM     18  C   UNL A   1      31.378  29.225  22.466  1.00  0.00     0.048 C 
ATOM     19  C   UNL A   1      28.193  30.915  23.139  1.00  0.00     0.032 C 
ATOM     20  C   UNL A   1      28.359  30.685  21.656  1.00  0.00     0.161 C 
ENDBRANCH  14  15
ENDBRANCH  11  14
ENDBRANCH   9  11
ENDBRANCH   7   9
ENDBRANCH   4   7
ENDBRANCH   2   3
ENDBRANCH   1   2
BRANCH   1  21
ATOM     21  C   UNL A   1      32.162  31.192  26.871  1.00  0.00     0.023 C 
BRANCH  21  22
ATOM     22  C   UNL A   1      33.208  32.160  27.423  1.00  0.00     0.116 C 
BRANCH  22  23
ATOM     23  N   UNL A   1      32.702  33.500  27.677  1.00  0.00    -0.352 N 
ATOM     24  C   UNL A   1      33.173  34.449  28.560  1.00  0.00     0.251 C 
ATOM     25  H   UNL A   1      31.916  33.766  27.147  1.00  0.00     0.163 HD
ATOM     26  O   UNL A   1      32.603  35.521  28.681  1.00  0.00    -0.269 OA
BRANCH  24  27
ATOM     27  C   UNL A   1      34.358  34.138  29.390  1.00  0.00     0.039 A 
ATOM     28  C   UNL A   1      34.167  33.465  30.600  1.00  0.00     0.014 A 
ATOM     29  C   UNL A   1      35.644  34.465  28.954  1.00  0.00     0.014 A 
ATOM     30  C   UNL A   1      35.277  33.037  31.333  1.00  0.00     0.010 A 
ATOM     31  C   UNL A   1      36.751  34.007  29.670  1.00  0.00     0.010 A 
ATOM     32  C   UNL A   1      36.576  33.264  30.848  1.00  0.00    -0.014 A 
BRANCH  32  33
ATOM     33  C   UNL A   1      37.758  32.643  31.499  1.00  0.00     0.031 A 
ATOM     34  C   UNL A   1      38.452  31.465  30.882  1.00  0.00     0.074 A 
ATOM     35  C   UNL A   1      38.137  33.086  32.715  1.00  0.00     0.049 A 
ATOM     36  N   UNL A   1      39.451  30.763  31.348  1.00  0.00    -0.248 NA
ATOM     37  C   UNL A   1      37.949  31.007  29.577  1.00  0.00     0.031 C 
ATOM     38  C   UNL A   1      37.502  34.184  33.448  1.00  0.00     0.029 A 
ATOM     39  N   UNL A   1      39.125  32.649  33.561  1.00  0.00    -0.354 N 
ATOM     40  C   UNL A   1      39.689  29.768  30.409  1.00  0.00     0.074 A 
ATOM     41  C   UNL A   1      38.711  29.943  29.355  1.00  0.00     0.031 C 
ATOM     42  C   UNL A   1      38.111  34.330  34.635  1.00  0.00     0.029 A 
ATOM     43  C   UNL A   1      39.159  33.322  34.762  1.00  0.00     0.049 A 
ATOM     44  H   UNL A   1      39.751  31.924  33.333  1.00  0.00     0.167 HD
ATOM     45  C   UNL A   1      40.651  28.814  30.410  1.00  0.00     0.034 A 
ATOM     46  C   UNL A   1      39.936  33.140  35.847  1.00  0.00     0.034 A 
ATOM     47  C   UNL A   1      41.638  28.658  31.446  1.00  0.00     0.049 A 
ATOM     48  C   UNL A   1      40.988  32.066  35.827  1.00  0.00     0.074 A 
ATOM     49  C   UNL A   1      42.703  27.774  31.493  1.00  0.00     0.029 A 
ATOM     50  N   UNL A   1      41.675  29.389  32.623  1.00  0.00    -0.354 N 
ATOM     51  N   UNL A   1      41.304  31.241  34.859  1.00  0.00    -0.248 NA
ATOM     52  C   UNL A   1      41.805  31.911  37.040  1.00  0.00     0.031 C 
ATOM     53  C   UNL A   1      43.375  27.962  32.707  1.00  0.00     0.029 A 
ATOM     54  C   UNL A   1      42.733  28.968  33.411  1.00  0.00     0.049 A 
ATOM     55  H   UNL A   1      41.043  30.104  32.864  1.00  0.00     0.167 HD
ATOM     56  C   UNL A   1      42.376  30.493  35.330  1.00  0.00     0.074 A 
ATOM     57  C   UNL A   1      42.666  30.973  36.666  1.00  0.00     0.031 C 
ATOM     58  C   UNL A   1      43.046  29.486  34.719  1.00  0.00     0.034 A 
BRANCH  45  59
ATOM     59  C   UNL A   1      40.723  27.899  29.217  1.00  0.00     0.023 A 
ATOM     60  C   UNL A   1      39.871  26.777  29.163  1.00  0.00     0.012 A 
ATOM     61  C   UNL A   1      41.581  28.169  28.135  1.00  0.00     0.148 A 
ATOM     62  C   UNL A   1      39.892  25.921  28.062  1.00  0.00     0.002 A 
ATOM     63  C   UNL A   1      41.571  27.331  27.025  1.00  0.00     0.091 A 
ATOM     64  F   UNL A   1      42.402  29.226  28.214  1.00  0.00    -0.205 F 
ATOM     65  C   UNL A   1      40.734  26.203  26.990  1.00  0.00     0.022 A 
BRANCH  63  66
ATOM     66  S   UNL A   1      42.574  27.654  25.569  1.00  0.00     0.127 S 
ATOM     67  O   UNL A   1      43.918  27.694  26.140  1.00  0.00    -0.237 OA
ATOM     68  O   UNL A   1      42.302  26.483  24.734  1.00  0.00    -0.237 OA
ATOM     69  O   UNL A   1      42.081  28.910  25.022  1.00  0.00    -0.744 OA
ENDBRANCH  63  66
ENDBRANCH  45  59
BRANCH  46  70
ATOM     70  C   UNL A   1      39.793  34.049  37.019  1.00  0.00     0.023 A 
ATOM     71  C   UNL A   1      40.214  35.387  36.902  1.00  0.00     0.012 A 
ATOM     72  C   UNL A   1      39.207  33.615  38.224  1.00  0.00     0.148 A 
ATOM     73  C   UNL A   1      40.072  36.273  37.971  1.00  0.00     0.002 A 
ATOM     74  C   UNL A   1      39.023  34.516  39.267  1.00  0.00     0.091 A 
ATOM     75  F   UNL A   1      38.829  32.332  38.321  1.00  0.00    -0.205 F 
ATOM     76  C   UNL A   1      39.467  35.842  39.147  1.00  0.00     0.022 A 
BRANCH  74  77
ATOM     77  S   UNL A   1      38.132  34.079  40.765  1.00  0.00     0.127 S 
ATOM     78  O   UNL A   1      39.159  33.376  41.529  1.00  0.00    -0.237 OA
ATOM     79  O   UNL A   1      37.762  35.393  41.292  1.00  0.00    -0.237 OA
ATOM     80  O   UNL A   1      37.001  33.273  40.325  1.00  0.00    -0.744 OA
ENDBRANCH  74  77
ENDBRANCH  46  70
BRANCH  58  81
ATOM     81  C   UNL A   1      44.173  28.835  35.476  1.00  0.00     0.023 A 
ATOM     82  C   UNL A   1      45.484  29.329  35.326  1.00  0.00     0.012 A 
ATOM     83  C   UNL A   1      43.926  27.796  36.394  1.00  0.00     0.148 A 
ATOM     84  C   UNL A   1      46.535  28.786  36.062  1.00  0.00     0.002 A 
ATOM     85  C   UNL A   1      44.972  27.286  37.156  1.00  0.00     0.091 A 
ATOM     86  F   UNL A   1      42.675  27.326  36.508  1.00  0.00    -0.205 F 
ATOM     87  C   UNL A   1      46.278  27.774  36.985  1.00  0.00     0.022 A 
BRANCH  85  88
ATOM     88  S   UNL A   1      44.724  26.042  38.429  1.00  0.00     0.127 S 
ATOM     89  O   UNL A   1      44.219  24.914  37.648  1.00  0.00    -0.237 OA
ATOM     90  O   UNL A   1      46.076  25.863  38.957  1.00  0.00    -0.237 OA
ATOM     91  O   UNL A   1      43.779  26.621  39.374  1.00  0.00    -0.744 OA
ENDBRANCH  85  88
ENDBRANCH  58  81
ENDBRANCH  32  33
ENDBRANCH  24  27
ENDBRANCH  22  23
ENDBRANCH  21  22
ENDBRANCH   1  21
TORSDOF 18
ENDMDL
MODEL 3
REMARK VINA RESULT:     -10.8      6.522     11.556
REMARK SMILES C[C@H]([NH2+]C[C@]1(C)CCCO1)[C@H](C)C(=O)NCCCCNC(=O)c1ccc(-c2c3nc(c(-c4cccc(S(=O)(=O)[O-])c4F)c4ccc([nH]4)c(-c4cccc(S(=O)(=O)[O-])c4F)c4nc(c(-c5cccc(S(=O)(=O)[O-])c5F)c5ccc2[nH]5)C=C4)C=C3)cc1
REMARK SMILES IDX 17 1 16 2 15 3 13 4 14 5 11 7 12 8 2 9 1 10 3 11 4 14 5 15
REMARK SMILES IDX 7 16 10 17 6 18 8 19 9 20 18 21 19 22 20 23 21 24 22 26
REMARK SMILES IDX 23 27 24 28 85 29 25 30 84 31 26 32 27 33 28 34 78 35 29 36
REMARK SMILES IDX 83 37 77 38 79 39 30 40 82 41 76 42 75 43 31 45 63 46 43 47
REMARK SMILES IDX 62 48 44 49 47 50 61 51 80 52 45 53 46 54 60 56 81 57 48 58
REMARK SMILES IDX 32 59 33 60 41 61 34 62 36 63 42 64 35 65 37 66 38 67 39 68
REMARK SMILES IDX 40 69 64 70 65 71 73 72 66 73 68 74 74 75 67 76 69 77 70 78
REMARK SMILES IDX 71 79 72 80 49 81 50 82 58 83 51 84 53 85 59 86 52 87 54 88
REMARK SMILES IDX 55 89 56 90 57 91
REMARK H PARENT 15 6 3 12 3 13 20 25 79 44 47 55
REMARK Flexibility Score: inf
ROOT
ATOM      1  C   UNL A   1      37.011  21.956  25.565  1.00  0.00     0.023 C 
ENDROOT
BRANCH   1   2
ATOM      2  C   UNL A   1      37.089  23.311  24.862  1.00  0.00     0.116 C 
BRANCH   2   3
ATOM      3  N   UNL A   1      36.086  23.448  23.827  1.00  0.00    -0.356 N 
ATOM      4  C   UNL A   1      34.881  24.072  23.850  1.00  0.00     0.228 C 
ATOM      5  O   UNL A   1      34.238  24.098  22.793  1.00  0.00    -0.275 OA
ATOM      6  H   UNL A   1      36.314  23.021  22.969  1.00  0.00     0.163 HD
BRANCH   4   7
ATOM      7  C   UNL A   1      34.261  24.665  25.114  1.00  0.00     0.133 C 
ATOM      8  C   UNL A   1      33.951  26.149  24.861  1.00  0.00     0.024 C 
BRANCH   7   9
ATOM      9  C   UNL A   1      33.070  23.925  25.784  1.00  0.00     0.191 C 
ATOM     10  C   UNL A   1      33.572  23.048  26.949  1.00  0.00     0.076 C 
BRANCH   9  11
ATOM     11  N   UNL A   1      32.165  23.136  24.946  1.00  0.00    -0.341 N 
ATOM     12  H   UNL A   1      32.518  23.185  23.991  1.00  0.00     0.346 HD
ATOM     13  H   UNL A   1      31.247  23.553  25.103  1.00  0.00     0.346 HD
BRANCH  11  14
ATOM     14  C   UNL A   1      31.982  21.716  25.272  1.00  0.00     0.296 C 
BRANCH  14  15
ATOM     15  C   UNL A   1      32.607  20.779  24.189  1.00  0.00     0.114 C 
ATOM     16  C   UNL A   1      32.189  19.310  24.322  1.00  0.00     0.043 C 
ATOM     17  O   UNL A   1      34.047  20.801  24.350  1.00  0.00    -0.369 OA
ATOM     18  C   UNL A   1      32.261  21.318  22.795  1.00  0.00     0.048 C 
ATOM     19  C   UNL A   1      33.308  18.689  25.128  1.00  0.00     0.032 C 
ATOM     20  C   UNL A   1      34.506  19.479  24.659  1.00  0.00     0.161 C 
ENDBRANCH  14  15
ENDBRANCH  11  14
ENDBRANCH   9  11
ENDBRANCH   7   9
ENDBRANCH   4   7
ENDBRANCH   2   3
ENDBRANCH   1   2
BRANCH   1  21
ATOM     21  C   UNL A   1      38.116  20.949  25.216  1.00  0.00     0.023 C 
BRANCH  21  22
ATOM     22  C   UNL A   1      39.305  20.867  26.174  1.00  0.00     0.116 C 
BRANCH  22  23
ATOM     23  N   UNL A   1      40.145  19.695  25.981  1.00  0.00    -0.352 N 
ATOM     24  C   UNL A   1      41.517  19.593  26.061  1.00  0.00     0.251 C 
ATOM     25  H   UNL A   1      39.669  18.862  25.762  1.00  0.00     0.163 HD
ATOM     26  O   UNL A   1      42.075  18.532  25.829  1.00  0.00    -0.269 OA
BRANCH  24  27
ATOM     27  C   UNL A   1      42.313  20.795  26.395  1.00  0.00     0.039 A 
ATOM     28  C   UNL A   1      42.798  21.585  25.349  1.00  0.00     0.014 A 
ATOM     29  C   UNL A   1      42.535  21.161  27.724  1.00  0.00     0.014 A 
ATOM     30  C   UNL A   1      43.430  22.798  25.639  1.00  0.00     0.010 A 
ATOM     31  C   UNL A   1      43.136  22.387  28.010  1.00  0.00     0.010 A 
ATOM     32  C   UNL A   1      43.561  23.228  26.969  1.00  0.00    -0.014 A 
BRANCH  32  33
ATOM     33  C   UNL A   1      44.040  24.597  27.289  1.00  0.00     0.031 A 
ATOM     34  C   UNL A   1      43.090  25.660  27.758  1.00  0.00     0.074 A 
ATOM     35  C   UNL A   1      45.330  24.907  27.049  1.00  0.00     0.049 A 
ATOM     36  N   UNL A   1      43.328  26.919  28.015  1.00  0.00    -0.248 NA
ATOM     37  C   UNL A   1      41.688  25.259  27.949  1.00  0.00     0.031 C 
ATOM     38  C   UNL A   1      46.338  23.977  26.533  1.00  0.00     0.029 A 
ATOM     39  N   UNL A   1      46.007  26.094  27.176  1.00  0.00    -0.354 N 
ATOM     40  C   UNL A   1      42.107  27.472  28.381  1.00  0.00     0.074 A 
ATOM     41  C   UNL A   1      41.124  26.412  28.288  1.00  0.00     0.031 C 
ATOM     42  C   UNL A   1      47.501  24.630  26.382  1.00  0.00     0.029 A 
ATOM     43  C   UNL A   1      47.318  26.027  26.761  1.00  0.00     0.049 A 
ATOM     44  H   UNL A   1      45.596  26.915  27.530  1.00  0.00     0.167 HD
ATOM     45  C   UNL A   1      41.836  28.736  28.783  1.00  0.00     0.034 A 
ATOM     46  C   UNL A   1      48.263  26.984  26.682  1.00  0.00     0.034 A 
ATOM     47  C   UNL A   1      42.820  29.780  28.900  1.00  0.00     0.049 A 
ATOM     48  C   UNL A   1      47.931  28.383  27.124  1.00  0.00     0.074 A 
ATOM     49  C   UNL A   1      42.654  31.068  29.379  1.00  0.00     0.029 A 
ATOM     50  N   UNL A   1      44.148  29.664  28.520  1.00  0.00    -0.354 N 
ATOM     51  N   UNL A   1      46.811  28.845  27.623  1.00  0.00    -0.248 NA
ATOM     52  C   UNL A   1      49.000  29.387  27.014  1.00  0.00     0.031 C 
ATOM     53  C   UNL A   1      43.880  31.736  29.274  1.00  0.00     0.029 A 
ATOM     54  C   UNL A   1      44.810  30.860  28.738  1.00  0.00     0.049 A 
ATOM     55  H   UNL A   1      44.560  28.850  28.150  1.00  0.00     0.167 HD
ATOM     56  C   UNL A   1      47.047  30.183  27.916  1.00  0.00     0.074 A 
ATOM     57  C   UNL A   1      48.424  30.453  27.555  1.00  0.00     0.031 C 
ATOM     58  C   UNL A   1      46.194  31.107  28.422  1.00  0.00     0.034 A 
BRANCH  45  59
ATOM     59  C   UNL A   1      40.420  29.046  29.191  1.00  0.00     0.023 A 
ATOM     60  C   UNL A   1      39.492  29.432  28.203  1.00  0.00     0.012 A 
ATOM     61  C   UNL A   1      39.994  28.907  30.526  1.00  0.00     0.148 A 
ATOM     62  C   UNL A   1      38.166  29.701  28.541  1.00  0.00     0.002 A 
ATOM     63  C   UNL A   1      38.661  29.144  30.848  1.00  0.00     0.091 A 
ATOM     64  F   UNL A   1      40.896  28.564  31.456  1.00  0.00    -0.205 F 
ATOM     65  C   UNL A   1      37.749  29.549  29.860  1.00  0.00     0.022 A 
BRANCH  63  66
ATOM     66  S   UNL A   1      38.020  28.907  32.510  1.00  0.00     0.127 S 
ATOM     67  O   UNL A   1      38.901  29.772  33.292  1.00  0.00    -0.237 OA
ATOM     68  O   UNL A   1      36.645  29.391  32.388  1.00  0.00    -0.237 OA
ATOM     69  O   UNL A   1      38.133  27.480  32.777  1.00  0.00    -0.744 OA
ENDBRANCH  63  66
ENDBRANCH  45  59
BRANCH  46  70
ATOM     70  C   UNL A   1      49.637  26.630  26.230  1.00  0.00     0.023 A 
ATOM     71  C   UNL A   1      50.449  25.838  27.064  1.00  0.00     0.012 A 
ATOM     72  C   UNL A   1      50.127  27.031  24.972  1.00  0.00     0.148 A 
ATOM     73  C   UNL A   1      51.733  25.467  26.662  1.00  0.00     0.002 A 
ATOM     74  C   UNL A   1      51.387  26.615  24.556  1.00  0.00     0.091 A 
ATOM     75  F   UNL A   1      49.345  27.800  24.201  1.00  0.00    -0.205 F 
ATOM     76  C   UNL A   1      52.197  25.845  25.405  1.00  0.00     0.022 A 
BRANCH  74  77
ATOM     77  S   UNL A   1      52.008  26.943  22.902  1.00  0.00     0.127 S 
ATOM     78  O   UNL A   1      52.519  28.305  23.040  1.00  0.00    -0.237 OA
ATOM     79  O   UNL A   1      53.035  25.912  22.753  1.00  0.00    -0.237 OA
ATOM     80  O   UNL A   1      50.864  26.778  22.017  1.00  0.00    -0.744 OA
ENDBRANCH  74  77
ENDBRANCH  46  70
BRANCH  58  81
ATOM     81  C   UNL A   1      46.721  32.502  28.631  1.00  0.00     0.023 A 
ATOM     82  C   UNL A   1      47.253  32.860  29.885  1.00  0.00     0.012 A 
ATOM     83  C   UNL A   1      46.765  33.428  27.570  1.00  0.00     0.148 A 
ATOM     84  C   UNL A   1      47.803  34.125  30.087  1.00  0.00     0.002 A 
ATOM     85  C   UNL A   1      47.352  34.673  27.767  1.00  0.00     0.091 A 
ATOM     86  F   UNL A   1      46.236  33.075  26.390  1.00  0.00    -0.205 F 
ATOM     87  C   UNL A   1      47.864  35.027  29.027  1.00  0.00     0.022 A 
BRANCH  85  88
ATOM     88  S   UNL A   1      47.554  35.867  26.439  1.00  0.00     0.127 S 
ATOM     89  O   UNL A   1      48.272  36.946  27.116  1.00  0.00    -0.237 OA
ATOM     90  O   UNL A   1      48.350  35.120  25.466  1.00  0.00    -0.237 OA
ATOM     91  O   UNL A   1      46.208  36.198  25.991  1.00  0.00    -0.744 OA
ENDBRANCH  85  88
ENDBRANCH  58  81
ENDBRANCH  32  33
ENDBRANCH  24  27
ENDBRANCH  22  23
ENDBRANCH  21  22
ENDBRANCH   1  21
TORSDOF 18
ENDMDL
