MODEL 1
REMARK VINA RESULT:      -8.1      0.000      0.000
REMARK SMILES COc1ccc(CCN2/C(=[NH+]/C(=O)CCC(=O)NCCCCNC(=O)c3ccc(-c4c5nc(c(-c6cccc(S(=O)(=O)[O-])c6F)c6ccc([nH]6)c(-c6cccc(S(=O)(=O)[O-])c6F)c6nc(c(-c7cccc(S(=O)(=O)[O-])c7F)c7ccc4[nH]7)C=C6)C=C5)cc3)S[C@@H]3CS(=O)(=O)C[C@@H]32)cc1
REMARK SMILES IDX 19 1 18 2 16 3 17 4 15 6 14 7 12 8 9 9 10 10 96 11 11 12
REMARK SMILES IDX 89 13 90 14 95 15 91 17 92 18 13 19 93 20 94 21 8 22 7 23
REMARK SMILES IDX 6 24 3 25 4 26 98 27 5 28 97 29 2 30 1 31 20 32 21 33 22 34
REMARK SMILES IDX 23 35 24 36 25 38 26 39 27 40 88 41 28 42 87 43 29 44 30 45
REMARK SMILES IDX 31 46 81 47 32 48 86 49 80 50 82 51 33 52 85 53 79 54 78 55
REMARK SMILES IDX 34 57 66 58 46 59 65 60 47 61 50 62 64 63 83 64 48 65 49 66
REMARK SMILES IDX 63 68 84 69 51 70 35 71 36 72 44 73 37 74 39 75 45 76 38 77
REMARK SMILES IDX 40 78 41 79 42 80 43 81 67 82 68 83 76 84 69 85 71 86 77 87
REMARK SMILES IDX 70 88 72 89 73 90 74 91 75 92 52 93 53 94 61 95 54 96 56 97
REMARK SMILES IDX 62 98 55 99 57 100 58 101 59 102 60 103
REMARK H PARENT 18 5 11 16 23 37 82 56 50 67
REMARK Flexibility Score: inf
ROOT
ATOM      1  C   UNL A   1      44.445  24.940  25.541  1.00  0.00     0.116 C 
ENDROOT
BRANCH   1   2
ATOM      2  N   UNL A   1      44.689  24.760  26.956  1.00  0.00    -0.356 N 
ATOM      3  C   UNL A   1      45.889  24.870  27.604  1.00  0.00     0.220 C 
ATOM      4  O   UNL A   1      45.983  24.414  28.744  1.00  0.00    -0.275 OA
ATOM      5  H   UNL A   1      43.908  24.535  27.511  1.00  0.00     0.163 HD
BRANCH   3   6
ATOM      6  C   UNL A   1      47.053  25.594  26.931  1.00  0.00     0.112 C 
BRANCH   6   7
ATOM      7  C   UNL A   1      48.389  24.822  26.966  1.00  0.00     0.138 C 
BRANCH   7   8
ATOM      8  C   UNL A   1      49.671  25.635  27.276  1.00  0.00     0.308 C 
ATOM      9  N   UNL A   1      49.830  29.026  28.685  1.00  0.00    -0.251 N 
ATOM     10  C   UNL A   1      50.220  27.730  28.297  1.00  0.00     0.314 C 
ATOM     11  C   UNL A   1      50.504  29.689  29.843  1.00  0.00     0.206 C 
ATOM     12  N   UNL A   1      49.467  26.986  27.521  1.00  0.00    -0.205 N 
ATOM     13  S   UNL A   1      51.706  27.144  29.097  1.00  0.00    -0.030 SA
ATOM     14  C   UNL A   1      51.990  28.536  30.257  1.00  0.00     0.120 C 
ATOM     15  C   UNL A   1      49.339  30.106  31.443  1.00  0.00     0.187 C 
ATOM     16  H   UNL A   1      48.699  27.419  27.081  1.00  0.00     0.316 HD
ATOM     17  C   UNL A   1      52.059  27.958  32.139  1.00  0.00     0.156 C 
ATOM     18  S   UNL A   1      50.355  28.939  33.341  1.00  0.00     0.155 S 
ATOM     19  O   UNL A   1      50.748  25.042  27.301  1.00  0.00    -0.247 OA
ATOM     20  O   UNL A   1      49.525  27.925  33.974  1.00  0.00    -0.229 OA
ATOM     21  O   UNL A   1      51.064  29.736  34.337  1.00  0.00    -0.229 OA
BRANCH   9  22
ATOM     22  C   UNL A   1      48.795  29.740  27.903  1.00  0.00     0.242 C 
BRANCH  22  23
ATOM     23  C   UNL A   1      47.629  30.324  28.694  1.00  0.00     0.081 C 
BRANCH  23  24
ATOM     24  C   UNL A   1      46.257  30.048  28.131  1.00  0.00    -0.044 A 
ATOM     25  C   UNL A   1      43.629  29.796  27.030  1.00  0.00     0.118 A 
ATOM     26  C   UNL A   1      44.578  28.800  26.861  1.00  0.00     0.046 A 
ATOM     27  C   UNL A   1      44.024  30.898  27.741  1.00  0.00     0.046 A 
ATOM     28  C   UNL A   1      45.854  28.891  27.461  1.00  0.00     0.007 A 
ATOM     29  C   UNL A   1      45.333  31.063  28.207  1.00  0.00     0.007 A 
BRANCH  25  30
ATOM     30  O   UNL A   1      42.396  29.631  26.470  1.00  0.00    -0.497 OA
ATOM     31  C   UNL A   1      42.249  28.651  25.433  1.00  0.00     0.278 C 
ENDBRANCH  25  30
ENDBRANCH  23  24
ENDBRANCH  22  23
ENDBRANCH   9  22
ENDBRANCH   7   8
ENDBRANCH   6   7
ENDBRANCH   3   6
ENDBRANCH   1   2
BRANCH   1  32
ATOM     32  C   UNL A   1      44.999  23.753  24.787  1.00  0.00     0.023 C 
BRANCH  32  33
ATOM     33  C   UNL A   1      43.897  22.763  24.420  1.00  0.00     0.023 C 
BRANCH  33  34
ATOM     34  C   UNL A   1      43.516  22.090  25.707  1.00  0.00     0.116 C 
BRANCH  34  35
ATOM     35  N   UNL A   1      41.850  21.509  25.776  1.00  0.00    -0.352 N 
ATOM     36  C   UNL A   1      40.074  22.193  26.190  1.00  0.00     0.251 C 
ATOM     37  H   UNL A   1      41.805  20.556  25.532  1.00  0.00     0.163 HD
ATOM     38  O   UNL A   1      39.010  21.554  26.109  1.00  0.00    -0.269 OA
BRANCH  36  39
ATOM     39  C   UNL A   1      39.613  23.882  26.715  1.00  0.00     0.039 A 
ATOM     40  C   UNL A   1      39.133  24.100  28.003  1.00  0.00     0.014 A 
ATOM     41  C   UNL A   1      39.995  25.099  26.039  1.00  0.00     0.014 A 
ATOM     42  C   UNL A   1      39.336  25.377  28.634  1.00  0.00     0.010 A 
ATOM     43  C   UNL A   1      40.424  26.242  26.734  1.00  0.00     0.010 A 
ATOM     44  C   UNL A   1      40.179  26.378  28.093  1.00  0.00    -0.014 A 
BRANCH  44  45
ATOM     45  C   UNL A   1      40.589  27.662  28.813  1.00  0.00     0.031 A 
ATOM     46  C   UNL A   1      41.969  27.634  29.399  1.00  0.00     0.074 A 
ATOM     47  C   UNL A   1      39.851  28.783  29.083  1.00  0.00     0.049 A 
ATOM     48  N   UNL A   1      42.589  28.557  30.080  1.00  0.00    -0.248 NA
ATOM     49  C   UNL A   1      42.703  26.362  29.283  1.00  0.00     0.031 C 
ATOM     50  C   UNL A   1      38.428  28.963  28.888  1.00  0.00     0.029 A 
ATOM     51  N   UNL A   1      40.184  30.035  29.593  1.00  0.00    -0.354 N 
ATOM     52  C   UNL A   1      43.755  27.960  30.517  1.00  0.00     0.074 A 
ATOM     53  C   UNL A   1      43.726  26.583  30.084  1.00  0.00     0.031 C 
ATOM     54  C   UNL A   1      38.045  30.237  28.995  1.00  0.00     0.029 A 
ATOM     55  C   UNL A   1      39.144  30.962  29.579  1.00  0.00     0.049 A 
ATOM     56  H   UNL A   1      41.083  30.248  29.935  1.00  0.00     0.167 HD
ATOM     57  C   UNL A   1      44.779  28.504  31.204  1.00  0.00     0.034 A 
ATOM     58  C   UNL A   1      38.983  32.215  30.065  1.00  0.00     0.034 A 
ATOM     59  C   UNL A   1      44.807  29.859  31.665  1.00  0.00     0.049 A 
ATOM     60  C   UNL A   1      40.126  32.811  30.809  1.00  0.00     0.074 A 
ATOM     61  C   UNL A   1      45.839  30.516  32.305  1.00  0.00     0.029 A 
ATOM     62  N   UNL A   1      43.746  30.749  31.588  1.00  0.00    -0.354 N 
ATOM     63  N   UNL A   1      41.279  32.256  31.079  1.00  0.00    -0.248 NA
ATOM     64  C   UNL A   1      39.969  34.180  31.315  1.00  0.00     0.031 C 
ATOM     65  C   UNL A   1      45.379  31.783  32.675  1.00  0.00     0.029 A 
ATOM     66  C   UNL A   1      44.089  31.943  32.195  1.00  0.00     0.049 A 
ATOM     67  H   UNL A   1      42.878  30.559  31.163  1.00  0.00     0.167 HD
ATOM     68  C   UNL A   1      42.000  33.210  31.771  1.00  0.00     0.074 A 
ATOM     69  C   UNL A   1      41.160  34.390  31.860  1.00  0.00     0.031 C 
ATOM     70  C   UNL A   1      43.248  33.109  32.281  1.00  0.00     0.034 A 
BRANCH  57  71
ATOM     71  C   UNL A   1      45.921  27.581  31.512  1.00  0.00     0.023 A 
ATOM     72  C   UNL A   1      46.991  27.440  30.600  1.00  0.00     0.012 A 
ATOM     73  C   UNL A   1      45.881  26.786  32.668  1.00  0.00     0.148 A 
ATOM     74  C   UNL A   1      47.961  26.461  30.799  1.00  0.00     0.002 A 
ATOM     75  C   UNL A   1      46.889  25.863  32.894  1.00  0.00     0.091 A 
ATOM     76  F   UNL A   1      44.834  26.910  33.496  1.00  0.00    -0.205 F 
ATOM     77  C   UNL A   1      47.915  25.679  31.950  1.00  0.00     0.022 A 
BRANCH  75  78
ATOM     78  S   UNL A   1      46.964  24.875  34.387  1.00  0.00     0.127 S 
ATOM     79  O   UNL A   1      45.748  24.071  34.270  1.00  0.00    -0.237 OA
ATOM     80  O   UNL A   1      48.210  24.133  34.193  1.00  0.00    -0.237 OA
ATOM     81  O   UNL A   1      46.982  25.819  35.496  1.00  0.00    -0.744 OA
ENDBRANCH  75  78
ENDBRANCH  57  71
BRANCH  58  82
ATOM     82  C   UNL A   1      37.682  32.959  29.908  1.00  0.00     0.023 A 
ATOM     83  C   UNL A   1      37.228  33.329  28.625  1.00  0.00     0.012 A 
ATOM     84  C   UNL A   1      36.856  33.240  31.018  1.00  0.00     0.148 A 
ATOM     85  C   UNL A   1      35.983  33.948  28.454  1.00  0.00     0.002 A 
ATOM     86  C   UNL A   1      35.590  33.792  30.835  1.00  0.00     0.091 A 
ATOM     87  F   UNL A   1      37.308  32.917  32.239  1.00  0.00    -0.205 F 
ATOM     88  C   UNL A   1      35.156  34.160  29.553  1.00  0.00     0.022 A 
BRANCH  86  89
ATOM     89  S   UNL A   1      34.397  33.946  32.174  1.00  0.00     0.127 S 
ATOM     90  O   UNL A   1      34.075  32.549  32.452  1.00  0.00    -0.237 OA
ATOM     91  O   UNL A   1      35.188  34.614  33.208  1.00  0.00    -0.237 OA
ATOM     92  O   UNL A   1      33.307  34.751  31.638  1.00  0.00    -0.744 OA
ENDBRANCH  86  89
ENDBRANCH  58  82
BRANCH  70  93
ATOM     93  C   UNL A   1      43.811  34.332  32.932  1.00  0.00     0.023 A 
ATOM     94  C   UNL A   1      43.685  34.531  34.321  1.00  0.00     0.012 A 
ATOM     95  C   UNL A   1      44.510  35.267  32.149  1.00  0.00     0.148 A 
ATOM     96  C   UNL A   1      44.222  35.672  34.913  1.00  0.00     0.002 A 
ATOM     97  C   UNL A   1      45.096  36.364  32.755  1.00  0.00     0.091 A 
ATOM     98  F   UNL A   1      44.585  35.061  30.825  1.00  0.00    -0.205 F 
ATOM     99  C   UNL A   1      44.939  36.579  34.135  1.00  0.00     0.022 A 
BRANCH  97 100
ATOM    100  S   UNL A   1      46.124  37.517  31.846  1.00  0.00     0.127 S 
ATOM    101  O   UNL A   1      45.176  38.059  30.875  1.00  0.00    -0.237 OA
ATOM    102  O   UNL A   1      46.531  38.453  32.895  1.00  0.00    -0.237 OA
ATOM    103  O   UNL A   1      47.212  36.731  31.279  1.00  0.00    -0.744 OA
ENDBRANCH  97 100
ENDBRANCH  70  93
ENDBRANCH  44  45
ENDBRANCH  36  39
ENDBRANCH  34  35
ENDBRANCH  33  34
ENDBRANCH  32  33
ENDBRANCH   1  32
TORSDOF 20
ENDMDL
MODEL 2
REMARK VINA RESULT:      -7.9      4.111      8.356
REMARK SMILES COc1ccc(CCN2/C(=[NH+]/C(=O)CCC(=O)NCCCCNC(=O)c3ccc(-c4c5nc(c(-c6cccc(S(=O)(=O)[O-])c6F)c6ccc([nH]6)c(-c6cccc(S(=O)(=O)[O-])c6F)c6nc(c(-c7cccc(S(=O)(=O)[O-])c7F)c7ccc4[nH]7)C=C6)C=C5)cc3)S[C@@H]3CS(=O)(=O)C[C@@H]32)cc1
REMARK SMILES IDX 19 1 18 2 16 3 17 4 15 6 14 7 12 8 9 9 10 10 96 11 11 12
REMARK SMILES IDX 89 13 90 14 95 15 91 17 92 18 13 19 93 20 94 21 8 22 7 23
REMARK SMILES IDX 6 24 3 25 4 26 98 27 5 28 97 29 2 30 1 31 20 32 21 33 22 34
REMARK SMILES IDX 23 35 24 36 25 38 26 39 27 40 88 41 28 42 87 43 29 44 30 45
REMARK SMILES IDX 31 46 81 47 32 48 86 49 80 50 82 51 33 52 85 53 79 54 78 55
REMARK SMILES IDX 34 57 66 58 46 59 65 60 47 61 50 62 64 63 83 64 48 65 49 66
REMARK SMILES IDX 63 68 84 69 51 70 35 71 36 72 44 73 37 74 39 75 45 76 38 77
REMARK SMILES IDX 40 78 41 79 42 80 43 81 67 82 68 83 76 84 69 85 71 86 77 87
REMARK SMILES IDX 70 88 72 89 73 90 74 91 75 92 52 93 53 94 61 95 54 96 56 97
REMARK SMILES IDX 62 98 55 99 57 100 58 101 59 102 60 103
REMARK H PARENT 18 5 11 16 23 37 82 56 50 67
REMARK Flexibility Score: inf
ROOT
ATOM      1  C   UNL A   1      38.418  30.163  28.828  1.00  0.00     0.116 C 
ENDROOT
BRANCH   1   2
ATOM      2  N   UNL A   1      38.904  28.857  29.216  1.00  0.00    -0.356 N 
ATOM      3  C   UNL A   1      40.140  28.329  28.959  1.00  0.00     0.220 C 
ATOM      4  O   UNL A   1      40.302  27.117  29.102  1.00  0.00    -0.275 OA
ATOM      5  H   UNL A   1      38.278  28.286  29.719  1.00  0.00     0.163 HD
BRANCH   3   6
ATOM      6  C   UNL A   1      41.290  29.250  28.559  1.00  0.00     0.112 C 
BRANCH   6   7
ATOM      7  C   UNL A   1      42.135  29.766  29.743  1.00  0.00     0.138 C 
BRANCH   7   8
ATOM      8  C   UNL A   1      43.553  29.166  29.918  1.00  0.00     0.308 C 
ATOM      9  N   UNL A   1      44.938  26.258  28.148  1.00  0.00    -0.251 N 
ATOM     10  C   UNL A   1      44.872  27.445  28.903  1.00  0.00     0.314 C 
ATOM     11  C   UNL A   1      46.156  25.963  27.333  1.00  0.00     0.206 C 
ATOM     12  N   UNL A   1      43.734  27.906  29.363  1.00  0.00    -0.205 N 
ATOM     13  S   UNL A   1      46.418  28.334  29.002  1.00  0.00    -0.030 SA
ATOM     14  C   UNL A   1      47.430  27.304  27.872  1.00  0.00     0.120 C 
ATOM     15  C   UNL A   1      45.895  25.860  25.330  1.00  0.00     0.187 C 
ATOM     16  H   UNL A   1      42.948  27.315  29.311  1.00  0.00     0.316 HD
ATOM     17  C   UNL A   1      48.192  28.334  26.376  1.00  0.00     0.156 C 
ATOM     18  S   UNL A   1      47.390  27.542  24.366  1.00  0.00     0.155 S 
ATOM     19  O   UNL A   1      44.404  29.835  30.502  1.00  0.00    -0.247 OA
ATOM     20  O   UNL A   1      46.739  28.609  23.619  1.00  0.00    -0.229 OA
ATOM     21  O   UNL A   1      48.594  27.081  23.683  1.00  0.00    -0.229 OA
BRANCH   9  22
ATOM     22  C   UNL A   1      43.822  25.287  28.217  1.00  0.00     0.242 C 
BRANCH  22  23
ATOM     23  C   UNL A   1      43.020  25.084  26.937  1.00  0.00     0.081 C 
BRANCH  23  24
ATOM     24  C   UNL A   1      42.832  23.650  26.507  1.00  0.00    -0.044 A 
ATOM     25  C   UNL A   1      42.741  20.893  25.748  1.00  0.00     0.118 A 
ATOM     26  C   UNL A   1      41.630  21.530  26.280  1.00  0.00     0.046 A 
ATOM     27  C   UNL A   1      43.872  21.654  25.617  1.00  0.00     0.046 A 
ATOM     28  C   UNL A   1      41.652  22.907  26.592  1.00  0.00     0.007 A 
ATOM     29  C   UNL A   1      43.947  22.977  26.065  1.00  0.00     0.007 A 
BRANCH  25  30
ATOM     30  O   UNL A   1      42.647  19.573  25.418  1.00  0.00    -0.497 OA
ATOM     31  C   UNL A   1      43.848  18.878  25.055  1.00  0.00     0.278 C 
ENDBRANCH  25  30
ENDBRANCH  23  24
ENDBRANCH  22  23
ENDBRANCH   9  22
ENDBRANCH   7   8
ENDBRANCH   6   7
ENDBRANCH   3   6
ENDBRANCH   1   2
BRANCH   1  32
ATOM     32  C   UNL A   1      37.365  30.003  27.755  1.00  0.00     0.023 C 
BRANCH  32  33
ATOM     33  C   UNL A   1      36.104  29.344  28.306  1.00  0.00     0.023 C 
BRANCH  33  34
ATOM     34  C   UNL A   1      35.059  29.524  27.244  1.00  0.00     0.116 C 
BRANCH  34  35
ATOM     35  N   UNL A   1      34.117  31.012  27.373  1.00  0.00    -0.352 N 
ATOM     36  C   UNL A   1      33.927  32.527  28.582  1.00  0.00     0.251 C 
ATOM     37  H   UNL A   1      33.506  31.102  26.606  1.00  0.00     0.163 HD
ATOM     38  O   UNL A   1      33.190  33.513  28.404  1.00  0.00    -0.269 OA
BRANCH  36  39
ATOM     39  C   UNL A   1      34.810  32.830  30.154  1.00  0.00     0.039 A 
ATOM     40  C   UNL A   1      35.702  31.879  30.641  1.00  0.00     0.014 A 
ATOM     41  C   UNL A   1      34.933  34.111  30.808  1.00  0.00     0.014 A 
ATOM     42  C   UNL A   1      36.806  32.292  31.465  1.00  0.00     0.010 A 
ATOM     43  C   UNL A   1      36.138  34.548  31.381  1.00  0.00     0.010 A 
ATOM     44  C   UNL A   1      37.161  33.651  31.652  1.00  0.00    -0.014 A 
BRANCH  44  45
ATOM     45  C   UNL A   1      38.434  34.136  32.344  1.00  0.00     0.031 A 
ATOM     46  C   UNL A   1      39.589  34.383  31.421  1.00  0.00     0.074 A 
ATOM     47  C   UNL A   1      38.698  34.282  33.679  1.00  0.00     0.049 A 
ATOM     48  N   UNL A   1      40.798  34.779  31.708  1.00  0.00    -0.248 NA
ATOM     49  C   UNL A   1      39.377  34.046  30.002  1.00  0.00     0.031 C 
ATOM     50  C   UNL A   1      37.875  33.849  34.788  1.00  0.00     0.029 A 
ATOM     51  N   UNL A   1      39.762  34.849  34.377  1.00  0.00    -0.354 N 
ATOM     52  C   UNL A   1      41.500  34.684  30.522  1.00  0.00     0.074 A 
ATOM     53  C   UNL A   1      40.605  34.133  29.531  1.00  0.00     0.031 C 
ATOM     54  C   UNL A   1      38.266  34.358  35.957  1.00  0.00     0.029 A 
ATOM     55  C   UNL A   1      39.576  34.923  35.756  1.00  0.00     0.049 A 
ATOM     56  H   UNL A   1      40.578  35.174  33.931  1.00  0.00     0.167 HD
ATOM     57  C   UNL A   1      42.773  35.039  30.261  1.00  0.00     0.034 A 
ATOM     58  C   UNL A   1      40.360  35.276  36.801  1.00  0.00     0.034 A 
ATOM     59  C   UNL A   1      43.680  35.557  31.239  1.00  0.00     0.049 A 
ATOM     60  C   UNL A   1      41.760  35.681  36.499  1.00  0.00     0.074 A 
ATOM     61  C   UNL A   1      44.968  36.013  31.046  1.00  0.00     0.029 A 
ATOM     62  N   UNL A   1      43.421  35.641  32.600  1.00  0.00    -0.354 N 
ATOM     63  N   UNL A   1      42.347  35.714  35.331  1.00  0.00    -0.248 NA
ATOM     64  C   UNL A   1      42.608  36.091  37.625  1.00  0.00     0.031 C 
ATOM     65  C   UNL A   1      45.514  36.311  32.298  1.00  0.00     0.029 A 
ATOM     66  C   UNL A   1      44.538  36.115  33.263  1.00  0.00     0.049 A 
ATOM     67  H   UNL A   1      42.568  35.397  33.030  1.00  0.00     0.167 HD
ATOM     68  C   UNL A   1      43.630  36.167  35.570  1.00  0.00     0.074 A 
ATOM     69  C   UNL A   1      43.729  36.418  36.996  1.00  0.00     0.031 C 
ATOM     70  C   UNL A   1      44.629  36.358  34.679  1.00  0.00     0.034 A 
BRANCH  57  71
ATOM     71  C   UNL A   1      43.234  34.824  28.849  1.00  0.00     0.023 A 
ATOM     72  C   UNL A   1      42.894  35.749  27.837  1.00  0.00     0.012 A 
ATOM     73  C   UNL A   1      43.928  33.650  28.515  1.00  0.00     0.148 A 
ATOM     74  C   UNL A   1      43.169  35.466  26.502  1.00  0.00     0.002 A 
ATOM     75  C   UNL A   1      44.261  33.410  27.191  1.00  0.00     0.091 A 
ATOM     76  F   UNL A   1      44.202  32.768  29.487  1.00  0.00    -0.205 F 
ATOM     77  C   UNL A   1      43.861  34.302  26.181  1.00  0.00     0.022 A 
BRANCH  75  78
ATOM     78  S   UNL A   1      45.225  31.985  26.692  1.00  0.00     0.127 S 
ATOM     79  O   UNL A   1      44.427  30.885  27.231  1.00  0.00    -0.237 OA
ATOM     80  O   UNL A   1      45.200  32.103  25.233  1.00  0.00    -0.237 OA
ATOM     81  O   UNL A   1      46.540  32.155  27.295  1.00  0.00    -0.744 OA
ENDBRANCH  75  78
ENDBRANCH  57  71
BRANCH  58  82
ATOM     82  C   UNL A   1      39.855  35.212  38.220  1.00  0.00     0.023 A 
ATOM     83  C   UNL A   1      39.374  36.376  38.854  1.00  0.00     0.012 A 
ATOM     84  C   UNL A   1      39.784  33.988  38.921  1.00  0.00     0.148 A 
ATOM     85  C   UNL A   1      38.826  36.319  40.142  1.00  0.00     0.002 A 
ATOM     86  C   UNL A   1      39.176  33.926  40.173  1.00  0.00     0.091 A 
ATOM     87  F   UNL A   1      40.276  32.891  38.327  1.00  0.00    -0.205 F 
ATOM     88  C   UNL A   1      38.707  35.093  40.792  1.00  0.00     0.022 A 
BRANCH  86  89
ATOM     89  S   UNL A   1      38.833  32.368  41.007  1.00  0.00     0.127 S 
ATOM     90  O   UNL A   1      40.179  31.868  41.276  1.00  0.00    -0.237 OA
ATOM     91  O   UNL A   1      38.094  32.815  42.189  1.00  0.00    -0.237 OA
ATOM     92  O   UNL A   1      38.044  31.584  40.067  1.00  0.00    -0.744 OA
ENDBRANCH  86  89
ENDBRANCH  58  82
BRANCH  70  93
ATOM     93  C   UNL A   1      45.906  36.924  35.212  1.00  0.00     0.023 A 
ATOM     94  C   UNL A   1      46.097  38.317  35.298  1.00  0.00     0.012 A 
ATOM     95  C   UNL A   1      46.906  36.049  35.672  1.00  0.00     0.148 A 
ATOM     96  C   UNL A   1      47.289  38.828  35.805  1.00  0.00     0.002 A 
ATOM     97  C   UNL A   1      48.061  36.565  36.233  1.00  0.00     0.091 A 
ATOM     98  F   UNL A   1      46.705  34.728  35.547  1.00  0.00    -0.205 F 
ATOM     99  C   UNL A   1      48.264  37.954  36.285  1.00  0.00     0.022 A 
BRANCH  97 100
ATOM    100  S   UNL A   1      49.312  35.515  36.972  1.00  0.00     0.127 S 
ATOM    101  O   UNL A   1      48.532  34.779  37.966  1.00  0.00    -0.237 OA
ATOM    102  O   UNL A   1      49.755  34.719  35.827  1.00  0.00    -0.237 OA
ATOM    103  O   UNL A   1      50.323  36.411  37.517  1.00  0.00    -0.744 OA
ENDBRANCH  97 100
ENDBRANCH  70  93
ENDBRANCH  44  45
ENDBRANCH  36  39
ENDBRANCH  34  35
ENDBRANCH  33  34
ENDBRANCH  32  33
ENDBRANCH   1  32
TORSDOF 20
ENDMDL
MODEL 3
REMARK VINA RESULT:      -7.9      4.269      8.523
REMARK SMILES COc1ccc(CCN2/C(=[NH+]/C(=O)CCC(=O)NCCCCNC(=O)c3ccc(-c4c5nc(c(-c6cccc(S(=O)(=O)[O-])c6F)c6ccc([nH]6)c(-c6cccc(S(=O)(=O)[O-])c6F)c6nc(c(-c7cccc(S(=O)(=O)[O-])c7F)c7ccc4[nH]7)C=C6)C=C5)cc3)S[C@@H]3CS(=O)(=O)C[C@@H]32)cc1
REMARK SMILES IDX 19 1 18 2 16 3 17 4 15 6 14 7 12 8 9 9 10 10 96 11 11 12
REMARK SMILES IDX 89 13 90 14 95 15 91 17 92 18 13 19 93 20 94 21 8 22 7 23
REMARK SMILES IDX 6 24 3 25 4 26 98 27 5 28 97 29 2 30 1 31 20 32 21 33 22 34
REMARK SMILES IDX 23 35 24 36 25 38 26 39 27 40 88 41 28 42 87 43 29 44 30 45
REMARK SMILES IDX 31 46 81 47 32 48 86 49 80 50 82 51 33 52 85 53 79 54 78 55
REMARK SMILES IDX 34 57 66 58 46 59 65 60 47 61 50 62 64 63 83 64 48 65 49 66
REMARK SMILES IDX 63 68 84 69 51 70 35 71 36 72 44 73 37 74 39 75 45 76 38 77
REMARK SMILES IDX 40 78 41 79 42 80 43 81 67 82 68 83 76 84 69 85 71 86 77 87
REMARK SMILES IDX 70 88 72 89 73 90 74 91 75 92 52 93 53 94 61 95 54 96 56 97
REMARK SMILES IDX 62 98 55 99 57 100 58 101 59 102 60 103
REMARK H PARENT 18 5 11 16 23 37 82 56 50 67
REMARK Flexibility Score: inf
ROOT
ATOM      1  C   UNL A   1      38.146  30.342  28.494  1.00  0.00     0.116 C 
ENDROOT
BRANCH   1   2
ATOM      2  N   UNL A   1      38.995  29.291  29.012  1.00  0.00    -0.356 N 
ATOM      3  C   UNL A   1      39.741  28.402  28.287  1.00  0.00     0.220 C 
ATOM      4  O   UNL A   1      40.178  27.402  28.857  1.00  0.00    -0.275 OA
ATOM      5  H   UNL A   1      39.041  29.208  29.993  1.00  0.00     0.163 HD
BRANCH   3   6
ATOM      6  C   UNL A   1      40.055  28.692  26.822  1.00  0.00     0.112 C 
BRANCH   6   7
ATOM      7  C   UNL A   1      41.528  29.061  26.547  1.00  0.00     0.138 C 
BRANCH   7   8
ATOM      8  C   UNL A   1      42.413  27.988  25.865  1.00  0.00     0.308 C 
ATOM      9  N   UNL A   1      44.293  25.309  27.538  1.00  0.00    -0.251 N 
ATOM     10  C   UNL A   1      43.644  26.044  26.527  1.00  0.00     0.314 C 
ATOM     11  C   UNL A   1      44.394  23.821  27.427  1.00  0.00     0.206 C 
ATOM     12  N   UNL A   1      43.245  27.279  26.720  1.00  0.00    -0.205 N 
ATOM     13  S   UNL A   1      43.258  25.092  25.066  1.00  0.00    -0.030 SA
ATOM     14  C   UNL A   1      43.785  23.432  25.641  1.00  0.00     0.120 C 
ATOM     15  C   UNL A   1      43.446  22.747  28.852  1.00  0.00     0.187 C 
ATOM     16  H   UNL A   1      43.559  27.737  27.534  1.00  0.00     0.316 HD
ATOM     17  C   UNL A   1      42.335  22.101  25.560  1.00  0.00     0.156 C 
ATOM     18  S   UNL A   1      41.855  21.309  27.670  1.00  0.00     0.155 S 
ATOM     19  O   UNL A   1      42.308  27.828  24.650  1.00  0.00    -0.247 OA
ATOM     20  O   UNL A   1      40.452  21.525  27.990  1.00  0.00    -0.229 OA
ATOM     21  O   UNL A   1      42.159  19.885  27.570  1.00  0.00    -0.229 OA
BRANCH   9  22
ATOM     22  C   UNL A   1      44.920  26.026  28.672  1.00  0.00     0.242 C 
BRANCH  22  23
ATOM     23  C   UNL A   1      46.190  26.810  28.360  1.00  0.00     0.081 C 
BRANCH  23  24
ATOM     24  C   UNL A   1      46.769  26.588  26.985  1.00  0.00    -0.044 A 
ATOM     25  C   UNL A   1      47.915  26.437  24.368  1.00  0.00     0.118 A 
ATOM     26  C   UNL A   1      48.013  25.378  25.258  1.00  0.00     0.046 A 
ATOM     27  C   UNL A   1      47.251  27.548  24.815  1.00  0.00     0.046 A 
ATOM     28  C   UNL A   1      47.390  25.424  26.525  1.00  0.00     0.007 A 
ATOM     29  C   UNL A   1      46.764  27.659  26.122  1.00  0.00     0.007 A 
BRANCH  25  30
ATOM     30  O   UNL A   1      48.493  26.317  23.137  1.00  0.00    -0.497 OA
ATOM     31  C   UNL A   1      49.343  27.378  22.682  1.00  0.00     0.278 C 
ENDBRANCH  25  30
ENDBRANCH  23  24
ENDBRANCH  22  23
ENDBRANCH   9  22
ENDBRANCH   7   8
ENDBRANCH   6   7
ENDBRANCH   3   6
ENDBRANCH   1   2
BRANCH   1  32
ATOM     32  C   UNL A   1      37.114  29.736  27.571  1.00  0.00     0.023 C 
BRANCH  32  33
ATOM     33  C   UNL A   1      35.811  29.442  28.309  1.00  0.00     0.023 C 
BRANCH  33  34
ATOM     34  C   UNL A   1      34.719  29.680  27.309  1.00  0.00     0.116 C 
BRANCH  34  35
ATOM     35  N   UNL A   1      33.892  31.233  27.466  1.00  0.00    -0.352 N 
ATOM     36  C   UNL A   1      33.821  32.737  28.701  1.00  0.00     0.251 C 
ATOM     37  H   UNL A   1      33.289  31.383  26.703  1.00  0.00     0.163 HD
ATOM     38  O   UNL A   1      33.160  33.779  28.543  1.00  0.00    -0.269 OA
BRANCH  36  39
ATOM     39  C   UNL A   1      34.727  32.945  30.275  1.00  0.00     0.039 A 
ATOM     40  C   UNL A   1      35.650  31.983  30.674  1.00  0.00     0.014 A 
ATOM     41  C   UNL A   1      34.834  34.177  31.020  1.00  0.00     0.014 A 
ATOM     42  C   UNL A   1      36.760  32.361  31.506  1.00  0.00     0.010 A 
ATOM     43  C   UNL A   1      36.039  34.600  31.601  1.00  0.00     0.010 A 
ATOM     44  C   UNL A   1      37.088  33.711  31.787  1.00  0.00    -0.014 A 
BRANCH  44  45
ATOM     45  C   UNL A   1      38.363  34.175  32.490  1.00  0.00     0.031 A 
ATOM     46  C   UNL A   1      39.524  34.423  31.574  1.00  0.00     0.074 A 
ATOM     47  C   UNL A   1      38.624  34.300  33.828  1.00  0.00     0.049 A 
ATOM     48  N   UNL A   1      40.735  34.803  31.871  1.00  0.00    -0.248 NA
ATOM     49  C   UNL A   1      39.314  34.107  30.150  1.00  0.00     0.031 C 
ATOM     50  C   UNL A   1      37.792  33.861  34.927  1.00  0.00     0.029 A 
ATOM     51  N   UNL A   1      39.690  34.849  34.537  1.00  0.00    -0.354 N 
ATOM     52  C   UNL A   1      41.440  34.717  30.686  1.00  0.00     0.074 A 
ATOM     53  C   UNL A   1      40.544  34.188  29.685  1.00  0.00     0.031 C 
ATOM     54  C   UNL A   1      38.183  34.351  36.105  1.00  0.00     0.029 A 
ATOM     55  C   UNL A   1      39.499  34.906  35.916  1.00  0.00     0.049 A 
ATOM     56  H   UNL A   1      40.510  35.171  34.098  1.00  0.00     0.167 HD
ATOM     57  C   UNL A   1      42.718  35.063  30.434  1.00  0.00     0.034 A 
ATOM     58  C   UNL A   1      40.283  35.238  36.969  1.00  0.00     0.034 A 
ATOM     59  C   UNL A   1      43.626  35.560  31.423  1.00  0.00     0.049 A 
ATOM     60  C   UNL A   1      41.688  35.633  36.676  1.00  0.00     0.074 A 
ATOM     61  C   UNL A   1      44.919  36.006  31.240  1.00  0.00     0.029 A 
ATOM     62  N   UNL A   1      43.363  35.628  32.784  1.00  0.00    -0.354 N 
ATOM     63  N   UNL A   1      42.279  35.675  35.511  1.00  0.00    -0.248 NA
ATOM     64  C   UNL A   1      42.535  36.020  37.811  1.00  0.00     0.031 C 
ATOM     65  C   UNL A   1      45.463  36.282  32.498  1.00  0.00     0.029 A 
ATOM     66  C   UNL A   1      44.482  36.083  33.456  1.00  0.00     0.049 A 
ATOM     67  H   UNL A   1      42.507  35.387  33.207  1.00  0.00     0.167 HD
ATOM     68  C   UNL A   1      43.566  36.114  35.761  1.00  0.00     0.074 A 
ATOM     69  C   UNL A   1      43.662  36.345  37.190  1.00  0.00     0.031 C 
ATOM     70  C   UNL A   1      44.570  36.307  34.876  1.00  0.00     0.034 A 
BRANCH  57  71
ATOM     71  C   UNL A   1      43.182  34.862  29.021  1.00  0.00     0.023 A 
ATOM     72  C   UNL A   1      42.887  35.823  28.029  1.00  0.00     0.012 A 
ATOM     73  C   UNL A   1      43.832  33.670  28.666  1.00  0.00     0.148 A 
ATOM     74  C   UNL A   1      43.163  35.560  26.690  1.00  0.00     0.002 A 
ATOM     75  C   UNL A   1      44.167  33.448  27.340  1.00  0.00     0.091 A 
ATOM     76  F   UNL A   1      44.064  32.757  29.619  1.00  0.00    -0.205 F 
ATOM     77  C   UNL A   1      43.811  34.377  26.347  1.00  0.00     0.022 A 
BRANCH  75  78
ATOM     78  S   UNL A   1      45.079  31.997  26.815  1.00  0.00     0.127 S 
ATOM     79  O   UNL A   1      45.758  32.493  25.618  1.00  0.00    -0.237 OA
ATOM     80  O   UNL A   1      45.954  31.762  27.963  1.00  0.00    -0.237 OA
ATOM     81  O   UNL A   1      44.086  30.958  26.582  1.00  0.00    -0.744 OA
ENDBRANCH  75  78
ENDBRANCH  57  71
BRANCH  58  82
ATOM     82  C   UNL A   1      39.773  35.160  38.384  1.00  0.00     0.023 A 
ATOM     83  C   UNL A   1      39.245  36.307  39.012  1.00  0.00     0.012 A 
ATOM     84  C   UNL A   1      39.742  33.936  39.090  1.00  0.00     0.148 A 
ATOM     85  C   UNL A   1      38.692  36.234  40.297  1.00  0.00     0.002 A 
ATOM     86  C   UNL A   1      39.129  33.856  40.338  1.00  0.00     0.091 A 
ATOM     87  F   UNL A   1      40.277  32.856  38.502  1.00  0.00    -0.205 F 
ATOM     88  C   UNL A   1      38.614  35.007  40.950  1.00  0.00     0.022 A 
BRANCH  86  89
ATOM     89  S   UNL A   1      38.838  32.289  41.176  1.00  0.00     0.127 S 
ATOM     90  O   UNL A   1      38.204  32.725  42.417  1.00  0.00    -0.237 OA
ATOM     91  O   UNL A   1      37.949  31.605  40.236  1.00  0.00    -0.237 OA
ATOM     92  O   UNL A   1      40.150  31.672  41.320  1.00  0.00    -0.744 OA
ENDBRANCH  86  89
ENDBRANCH  58  82
BRANCH  70  93
ATOM     93  C   UNL A   1      45.851  36.854  35.421  1.00  0.00     0.023 A 
ATOM     94  C   UNL A   1      46.894  35.992  35.812  1.00  0.00     0.012 A 
ATOM     95  C   UNL A   1      46.024  38.247  35.499  1.00  0.00     0.148 A 
ATOM     96  C   UNL A   1      48.084  36.517  36.309  1.00  0.00     0.002 A 
ATOM     97  C   UNL A   1      47.233  38.762  35.934  1.00  0.00     0.091 A 
ATOM     98  F   UNL A   1      45.000  39.038  35.147  1.00  0.00    -0.205 F 
ATOM     99  C   UNL A   1      48.259  37.900  36.357  1.00  0.00     0.022 A 
BRANCH  97 100
ATOM    100  S   UNL A   1      47.578  40.521  35.921  1.00  0.00     0.127 S 
ATOM    101  O   UNL A   1      48.974  40.552  36.356  1.00  0.00    -0.237 OA
ATOM    102  O   UNL A   1      47.365  40.862  34.515  1.00  0.00    -0.237 OA
ATOM    103  O   UNL A   1      46.628  41.127  36.844  1.00  0.00    -0.744 OA
ENDBRANCH  97 100
ENDBRANCH  70  93
ENDBRANCH  44  45
ENDBRANCH  36  39
ENDBRANCH  34  35
ENDBRANCH  33  34
ENDBRANCH  32  33
ENDBRANCH   1  32
TORSDOF 20
ENDMDL
