MODEL 1
REMARK VINA RESULT:      -8.9      0.000      0.000
REMARK SMILES CCN(C(=O)NC[C@]1(C)CCCO1)[C@@H](C)CC(=O)NCCCCNC(=O)c1ccc(-c2c3nc(c(-c4cccc(S(=O)(=O)[O-])c4F)c4ccc([nH]4)c(-c4cccc(S(=O)(=O)[O-])c4F)c4nc(c(-c5cccc(S(=O)(=O)[O-])c5F)c5ccc2[nH]5)C=C4)C=C3)cc1
REMARK SMILES IDX 20 1 19 2 17 3 18 4 16 6 14 7 15 8 3 9 2 10 1 11 4 12 5 13
REMARK SMILES IDX 6 14 7 16 8 17 10 18 13 19 9 20 11 21 12 22 21 23 22 24
REMARK SMILES IDX 23 25 24 26 25 27 26 29 27 30 28 31 89 32 29 33 88 34 30 35
REMARK SMILES IDX 31 36 32 37 82 38 33 39 87 40 81 41 83 42 34 43 86 44 80 45
REMARK SMILES IDX 79 46 35 48 67 49 47 50 66 51 48 52 51 53 65 54 84 55 49 56
REMARK SMILES IDX 50 57 64 59 85 60 52 61 36 62 37 63 45 64 38 65 40 66 46 67
REMARK SMILES IDX 39 68 41 69 42 70 43 71 44 72 68 73 69 74 77 75 70 76 72 77
REMARK SMILES IDX 78 78 71 79 73 80 74 81 75 82 76 83 53 84 54 85 62 86 55 87
REMARK SMILES IDX 57 88 63 89 56 90 58 91 59 92 60 93 61 94
REMARK H PARENT 19 5 6 15 24 28 83 47 51 58
REMARK Flexibility Score: inf
ROOT
ATOM      1  C   UNL A   1      38.948  21.043  25.757  1.00  0.00     0.116 C 
ENDROOT
BRANCH   1   2
ATOM      2  N   UNL A   1      38.952  22.358  26.360  1.00  0.00    -0.356 N 
ATOM      3  C   UNL A   1      38.123  23.410  26.122  1.00  0.00     0.222 C 
ATOM      4  O   UNL A   1      38.325  24.476  26.707  1.00  0.00    -0.275 OA
ATOM      5  H   UNL A   1      39.651  22.511  27.036  1.00  0.00     0.163 HD
BRANCH   3   6
ATOM      6  C   UNL A   1      36.953  23.253  25.171  1.00  0.00     0.124 C 
BRANCH   6   7
ATOM      7  C   UNL A   1      35.635  23.769  25.777  1.00  0.00     0.093 C 
ATOM      8  C   UNL A   1      35.203  22.897  26.967  1.00  0.00     0.031 C 
BRANCH   7   9
ATOM      9  N   UNL A   1      34.483  23.971  24.832  1.00  0.00    -0.322 N 
BRANCH   9  10
ATOM     10  C   UNL A   1      33.821  25.286  24.782  1.00  0.00     0.118 C 
ATOM     11  C   UNL A   1      32.816  25.612  25.871  1.00  0.00     0.027 C 
ENDBRANCH   9  10
BRANCH   9  12
ATOM     12  C   UNL A   1      34.581  23.223  23.663  1.00  0.00     0.317 C 
ATOM     13  O   UNL A   1      34.999  23.698  22.602  1.00  0.00    -0.249 OA
ATOM     14  N   UNL A   1      34.195  21.934  23.606  1.00  0.00    -0.335 N 
ATOM     15  H   UNL A   1      33.873  21.677  22.711  1.00  0.00     0.165 HD
BRANCH  14  16
ATOM     16  C   UNL A   1      34.138  20.827  24.559  1.00  0.00     0.152 C 
BRANCH  16  17
ATOM     17  C   UNL A   1      32.694  20.288  24.703  1.00  0.00     0.083 C 
ATOM     18  C   UNL A   1      32.628  18.965  25.455  1.00  0.00     0.039 C 
ATOM     19  O   UNL A   1      32.193  19.968  23.385  1.00  0.00    -0.373 OA
ATOM     20  C   UNL A   1      31.785  21.333  25.346  1.00  0.00     0.044 C 
ATOM     21  C   UNL A   1      32.998  17.956  24.395  1.00  0.00     0.031 C 
ATOM     22  C   UNL A   1      32.438  18.572  23.128  1.00  0.00     0.161 C 
ENDBRANCH  16  17
ENDBRANCH  14  16
ENDBRANCH   9  12
ENDBRANCH   7   9
ENDBRANCH   6   7
ENDBRANCH   3   6
ENDBRANCH   1   2
BRANCH   1  23
ATOM     23  C   UNL A   1      40.343  20.428  25.758  1.00  0.00     0.023 C 
BRANCH  23  24
ATOM     24  C   UNL A   1      40.711  19.694  27.040  1.00  0.00     0.023 C 
BRANCH  24  25
ATOM     25  C   UNL A   1      42.206  19.573  27.300  1.00  0.00     0.116 C 
BRANCH  25  26
ATOM     26  N   UNL A   1      43.032  19.573  26.095  1.00  0.00    -0.352 N 
ATOM     27  C   UNL A   1      43.581  20.658  25.445  1.00  0.00     0.251 C 
ATOM     28  H   UNL A   1      43.221  18.690  25.701  1.00  0.00     0.163 HD
ATOM     29  O   UNL A   1      44.231  20.518  24.414  1.00  0.00    -0.269 OA
BRANCH  27  30
ATOM     30  C   UNL A   1      43.341  22.003  25.997  1.00  0.00     0.039 A 
ATOM     31  C   UNL A   1      43.625  22.259  27.341  1.00  0.00     0.014 A 
ATOM     32  C   UNL A   1      42.957  23.030  25.135  1.00  0.00     0.014 A 
ATOM     33  C   UNL A   1      43.622  23.580  27.797  1.00  0.00     0.010 A 
ATOM     34  C   UNL A   1      43.060  24.344  25.566  1.00  0.00     0.010 A 
ATOM     35  C   UNL A   1      43.395  24.635  26.899  1.00  0.00    -0.014 A 
BRANCH  35  36
ATOM     36  C   UNL A   1      43.498  26.061  27.301  1.00  0.00     0.031 A 
ATOM     37  C   UNL A   1      44.851  26.720  27.330  1.00  0.00     0.074 A 
ATOM     38  C   UNL A   1      42.415  26.708  27.777  1.00  0.00     0.049 A 
ATOM     39  N   UNL A   1      45.196  27.878  27.825  1.00  0.00    -0.248 NA
ATOM     40  C   UNL A   1      45.978  25.945  26.778  1.00  0.00     0.031 C 
ATOM     41  C   UNL A   1      41.067  26.145  27.891  1.00  0.00     0.029 A 
ATOM     42  N   UNL A   1      42.287  27.973  28.295  1.00  0.00    -0.354 N 
ATOM     43  C   UNL A   1      46.580  27.940  27.708  1.00  0.00     0.074 A 
ATOM     44  C   UNL A   1      47.015  26.689  27.129  1.00  0.00     0.031 C 
ATOM     45  C   UNL A   1      40.251  27.061  28.436  1.00  0.00     0.029 A 
ATOM     46  C   UNL A   1      41.018  28.263  28.743  1.00  0.00     0.049 A 
ATOM     47  H   UNL A   1      43.033  28.614  28.340  1.00  0.00     0.167 HD
ATOM     48  C   UNL A   1      47.412  28.961  28.019  1.00  0.00     0.034 A 
ATOM     49  C   UNL A   1      40.534  29.369  29.339  1.00  0.00     0.034 A 
ATOM     50  C   UNL A   1      46.960  30.235  28.504  1.00  0.00     0.049 A 
ATOM     51  C   UNL A   1      41.461  30.532  29.575  1.00  0.00     0.074 A 
ATOM     52  C   UNL A   1      47.703  31.377  28.743  1.00  0.00     0.029 A 
ATOM     53  N   UNL A   1      45.644  30.541  28.808  1.00  0.00    -0.354 N 
ATOM     54  N   UNL A   1      42.744  30.628  29.318  1.00  0.00    -0.248 NA
ATOM     55  C   UNL A   1      40.872  31.750  30.147  1.00  0.00     0.031 C 
ATOM     56  C   UNL A   1      46.832  32.375  29.191  1.00  0.00     0.029 A 
ATOM     57  C   UNL A   1      45.547  31.856  29.222  1.00  0.00     0.049 A 
ATOM     58  H   UNL A   1      44.888  29.913  28.739  1.00  0.00     0.167 HD
ATOM     59  C   UNL A   1      43.107  31.924  29.661  1.00  0.00     0.074 A 
ATOM     60  C   UNL A   1      41.903  32.584  30.127  1.00  0.00     0.031 C 
ATOM     61  C   UNL A   1      44.326  32.512  29.613  1.00  0.00     0.034 A 
BRANCH  48  62
ATOM     62  C   UNL A   1      48.883  28.764  27.767  1.00  0.00     0.023 A 
ATOM     63  C   UNL A   1      49.423  29.113  26.512  1.00  0.00     0.012 A 
ATOM     64  C   UNL A   1      49.737  28.275  28.774  1.00  0.00     0.148 A 
ATOM     65  C   UNL A   1      50.780  28.939  26.247  1.00  0.00     0.002 A 
ATOM     66  C   UNL A   1      51.098  28.148  28.519  1.00  0.00     0.091 A 
ATOM     67  F   UNL A   1      49.203  27.927  29.953  1.00  0.00    -0.205 F 
ATOM     68  C   UNL A   1      51.619  28.466  27.253  1.00  0.00     0.022 A 
BRANCH  66  69
ATOM     69  S   UNL A   1      52.274  27.623  29.771  1.00  0.00     0.127 S 
ATOM     70  O   UNL A   1      53.539  27.715  29.043  1.00  0.00    -0.237 OA
ATOM     71  O   UNL A   1      52.094  28.638  30.809  1.00  0.00    -0.237 OA
ATOM     72  O   UNL A   1      51.870  26.279  30.160  1.00  0.00    -0.744 OA
ENDBRANCH  66  69
ENDBRANCH  48  62
BRANCH  49  73
ATOM     73  C   UNL A   1      39.083  29.467  29.672  1.00  0.00     0.023 A 
ATOM     74  C   UNL A   1      38.664  29.191  30.989  1.00  0.00     0.012 A 
ATOM     75  C   UNL A   1      38.127  29.858  28.717  1.00  0.00     0.148 A 
ATOM     76  C   UNL A   1      37.315  29.271  31.339  1.00  0.00     0.002 A 
ATOM     77  C   UNL A   1      36.792  29.986  29.085  1.00  0.00     0.091 A 
ATOM     78  F   UNL A   1      38.541  30.104  27.466  1.00  0.00    -0.205 F 
ATOM     79  C   UNL A   1      36.382  29.678  30.392  1.00  0.00     0.022 A 
BRANCH  77  80
ATOM     80  S   UNL A   1      35.545  30.631  27.965  1.00  0.00     0.127 S 
ATOM     81  O   UNL A   1      36.102  31.936  27.615  1.00  0.00    -0.237 OA
ATOM     82  O   UNL A   1      35.562  29.643  26.885  1.00  0.00    -0.237 OA
ATOM     83  O   UNL A   1      34.308  30.652  28.734  1.00  0.00    -0.744 OA
ENDBRANCH  77  80
ENDBRANCH  49  73
BRANCH  61  84
ATOM     84  C   UNL A   1      44.425  33.953  30.034  1.00  0.00     0.023 A 
ATOM     85  C   UNL A   1      44.809  34.271  31.351  1.00  0.00     0.012 A 
ATOM     86  C   UNL A   1      44.230  34.987  29.098  1.00  0.00     0.148 A 
ATOM     87  C   UNL A   1      44.973  35.600  31.737  1.00  0.00     0.002 A 
ATOM     88  C   UNL A   1      44.440  36.308  29.478  1.00  0.00     0.091 A 
ATOM     89  F   UNL A   1      43.845  34.662  27.855  1.00  0.00    -0.205 F 
ATOM     90  C   UNL A   1      44.802  36.615  30.799  1.00  0.00     0.022 A 
BRANCH  88  91
ATOM     91  S   UNL A   1      44.336  37.668  28.309  1.00  0.00     0.127 S 
ATOM     92  O   UNL A   1      44.334  38.826  29.200  1.00  0.00    -0.237 OA
ATOM     93  O   UNL A   1      45.563  37.501  27.527  1.00  0.00    -0.237 OA
ATOM     94  O   UNL A   1      43.109  37.452  27.554  1.00  0.00    -0.744 OA
ENDBRANCH  88  91
ENDBRANCH  61  84
ENDBRANCH  35  36
ENDBRANCH  27  30
ENDBRANCH  25  26
ENDBRANCH  24  25
ENDBRANCH  23  24
ENDBRANCH   1  23
TORSDOF 20
ENDMDL
MODEL 2
REMARK VINA RESULT:      -8.7      4.828      8.947
REMARK SMILES CCN(C(=O)NC[C@]1(C)CCCO1)[C@@H](C)CC(=O)NCCCCNC(=O)c1ccc(-c2c3nc(c(-c4cccc(S(=O)(=O)[O-])c4F)c4ccc([nH]4)c(-c4cccc(S(=O)(=O)[O-])c4F)c4nc(c(-c5cccc(S(=O)(=O)[O-])c5F)c5ccc2[nH]5)C=C4)C=C3)cc1
REMARK SMILES IDX 20 1 19 2 17 3 18 4 16 6 14 7 15 8 3 9 2 10 1 11 4 12 5 13
REMARK SMILES IDX 6 14 7 16 8 17 10 18 13 19 9 20 11 21 12 22 21 23 22 24
REMARK SMILES IDX 23 25 24 26 25 27 26 29 27 30 28 31 89 32 29 33 88 34 30 35
REMARK SMILES IDX 31 36 32 37 82 38 33 39 87 40 81 41 83 42 34 43 86 44 80 45
REMARK SMILES IDX 79 46 35 48 67 49 47 50 66 51 48 52 51 53 65 54 84 55 49 56
REMARK SMILES IDX 50 57 64 59 85 60 52 61 36 62 37 63 45 64 38 65 40 66 46 67
REMARK SMILES IDX 39 68 41 69 42 70 43 71 44 72 68 73 69 74 77 75 70 76 72 77
REMARK SMILES IDX 78 78 71 79 73 80 74 81 75 82 76 83 53 84 54 85 62 86 55 87
REMARK SMILES IDX 57 88 63 89 56 90 58 91 59 92 60 93 61 94
REMARK H PARENT 19 5 6 15 24 28 83 47 51 58
REMARK Flexibility Score: inf
ROOT
ATOM      1  C   UNL A   1      45.961  24.568  27.634  1.00  0.00     0.116 C 
ENDROOT
BRANCH   1   2
ATOM      2  N   UNL A   1      45.327  23.915  28.758  1.00  0.00    -0.356 N 
ATOM      3  C   UNL A   1      44.121  24.177  29.330  1.00  0.00     0.222 C 
ATOM      4  O   UNL A   1      43.778  23.535  30.324  1.00  0.00    -0.275 OA
ATOM      5  H   UNL A   1      45.840  23.178  29.164  1.00  0.00     0.163 HD
BRANCH   3   6
ATOM      6  C   UNL A   1      43.208  25.225  28.726  1.00  0.00     0.124 C 
BRANCH   6   7
ATOM      7  C   UNL A   1      41.898  24.619  28.188  1.00  0.00     0.093 C 
ATOM      8  C   UNL A   1      42.180  23.352  27.364  1.00  0.00     0.031 C 
BRANCH   7   9
ATOM      9  N   UNL A   1      40.980  25.539  27.434  1.00  0.00    -0.322 N 
BRANCH   9  10
ATOM     10  C   UNL A   1      41.132  25.663  25.974  1.00  0.00     0.118 C 
ATOM     11  C   UNL A   1      41.930  26.840  25.444  1.00  0.00     0.027 C 
ENDBRANCH   9  10
BRANCH   9  12
ATOM     12  C   UNL A   1      39.707  25.635  27.988  1.00  0.00     0.317 C 
ATOM     13  O   UNL A   1      38.909  24.693  27.988  1.00  0.00    -0.249 OA
ATOM     14  N   UNL A   1      39.252  26.779  28.535  1.00  0.00    -0.335 N 
ATOM     15  H   UNL A   1      38.275  26.872  28.452  1.00  0.00     0.165 HD
BRANCH  14  16
ATOM     16  C   UNL A   1      39.865  27.915  29.220  1.00  0.00     0.152 C 
BRANCH  16  17
ATOM     17  C   UNL A   1      38.843  28.631  30.138  1.00  0.00     0.083 C 
ATOM     18  C   UNL A   1      37.535  28.953  29.428  1.00  0.00     0.039 C 
ATOM     19  O   UNL A   1      39.379  29.927  30.493  1.00  0.00    -0.373 OA
ATOM     20  C   UNL A   1      38.595  27.823  31.410  1.00  0.00     0.044 C 
ATOM     21  C   UNL A   1      37.867  30.210  28.662  1.00  0.00     0.031 C 
ATOM     22  C   UNL A   1      38.872  30.902  29.562  1.00  0.00     0.161 C 
ENDBRANCH  16  17
ENDBRANCH  14  16
ENDBRANCH   9  12
ENDBRANCH   7   9
ENDBRANCH   6   7
ENDBRANCH   3   6
ENDBRANCH   1   2
BRANCH   1  23
ATOM     23  C   UNL A   1      47.440  24.826  27.904  1.00  0.00     0.023 C 
BRANCH  23  24
ATOM     24  C   UNL A   1      48.252  25.203  26.674  1.00  0.00     0.023 C 
BRANCH  24  25
ATOM     25  C   UNL A   1      47.549  24.963  25.345  1.00  0.00     0.116 C 
BRANCH  25  26
ATOM     26  N   UNL A   1      48.077  25.744  24.230  1.00  0.00    -0.352 N 
ATOM     27  C   UNL A   1      47.930  27.096  24.000  1.00  0.00     0.251 C 
ATOM     28  H   UNL A   1      48.602  25.246  23.563  1.00  0.00     0.163 HD
ATOM     29  O   UNL A   1      48.400  27.624  22.997  1.00  0.00    -0.269 OA
BRANCH  27  30
ATOM     30  C   UNL A   1      47.163  27.895  24.971  1.00  0.00     0.039 A 
ATOM     31  C   UNL A   1      45.785  27.701  25.091  1.00  0.00     0.014 A 
ATOM     32  C   UNL A   1      47.848  28.740  25.844  1.00  0.00     0.014 A 
ATOM     33  C   UNL A   1      45.106  28.283  26.165  1.00  0.00     0.010 A 
ATOM     34  C   UNL A   1      47.192  29.226  26.964  1.00  0.00     0.010 A 
ATOM     35  C   UNL A   1      45.816  29.003  27.140  1.00  0.00    -0.014 A 
BRANCH  35  36
ATOM     36  C   UNL A   1      45.169  29.540  28.363  1.00  0.00     0.031 A 
ATOM     37  C   UNL A   1      44.590  30.929  28.339  1.00  0.00     0.074 A 
ATOM     38  C   UNL A   1      45.237  28.850  29.521  1.00  0.00     0.049 A 
ATOM     39  N   UNL A   1      44.158  31.662  29.330  1.00  0.00    -0.248 NA
ATOM     40  C   UNL A   1      44.544  31.605  27.030  1.00  0.00     0.031 C 
ATOM     41  C   UNL A   1      45.859  27.535  29.694  1.00  0.00     0.029 A 
ATOM     42  N   UNL A   1      44.810  29.181  30.783  1.00  0.00    -0.354 N 
ATOM     43  C   UNL A   1      43.856  32.901  28.778  1.00  0.00     0.074 A 
ATOM     44  C   UNL A   1      44.189  32.834  27.373  1.00  0.00     0.031 C 
ATOM     45  C   UNL A   1      45.768  27.170  30.984  1.00  0.00     0.029 A 
ATOM     46  C   UNL A   1      45.114  28.235  31.736  1.00  0.00     0.049 A 
ATOM     47  H   UNL A   1      44.331  30.016  30.988  1.00  0.00     0.167 HD
ATOM     48  C   UNL A   1      43.316  33.988  29.377  1.00  0.00     0.034 A 
ATOM     49  C   UNL A   1      44.895  28.233  33.065  1.00  0.00     0.034 A 
ATOM     50  C   UNL A   1      42.900  34.013  30.751  1.00  0.00     0.049 A 
ATOM     51  C   UNL A   1      44.194  29.410  33.687  1.00  0.00     0.074 A 
ATOM     52  C   UNL A   1      42.238  35.019  31.432  1.00  0.00     0.029 A 
ATOM     53  N   UNL A   1      43.092  32.978  31.652  1.00  0.00    -0.354 N 
ATOM     54  N   UNL A   1      43.778  30.517  33.118  1.00  0.00    -0.248 NA
ATOM     55  C   UNL A   1      43.896  29.328  35.124  1.00  0.00     0.031 C 
ATOM     56  C   UNL A   1      42.027  34.589  32.746  1.00  0.00     0.029 A 
ATOM     57  C   UNL A   1      42.551  33.312  32.880  1.00  0.00     0.049 A 
ATOM     58  H   UNL A   1      43.546  32.128  31.448  1.00  0.00     0.167 HD
ATOM     59  C   UNL A   1      43.140  31.244  34.115  1.00  0.00     0.074 A 
ATOM     60  C   UNL A   1      43.206  30.442  35.322  1.00  0.00     0.031 C 
ATOM     61  C   UNL A   1      42.567  32.469  34.047  1.00  0.00     0.034 A 
BRANCH  48  62
ATOM     62  C   UNL A   1      43.072  35.206  28.526  1.00  0.00     0.023 A 
ATOM     63  C   UNL A   1      41.786  35.433  27.996  1.00  0.00     0.012 A 
ATOM     64  C   UNL A   1      44.095  36.142  28.283  1.00  0.00     0.148 A 
ATOM     65  C   UNL A   1      41.531  36.550  27.202  1.00  0.00     0.002 A 
ATOM     66  C   UNL A   1      43.821  37.278  27.528  1.00  0.00     0.091 A 
ATOM     67  F   UNL A   1      45.318  35.898  28.775  1.00  0.00    -0.205 F 
ATOM     68  C   UNL A   1      42.545  37.476  26.977  1.00  0.00     0.022 A 
BRANCH  66  69
ATOM     69  S   UNL A   1      45.037  38.570  27.246  1.00  0.00     0.127 S 
ATOM     70  O   UNL A   1      44.252  39.554  26.502  1.00  0.00    -0.237 OA
ATOM     71  O   UNL A   1      45.383  38.971  28.610  1.00  0.00    -0.237 OA
ATOM     72  O   UNL A   1      46.122  37.943  26.505  1.00  0.00    -0.744 OA
ENDBRANCH  66  69
ENDBRANCH  48  62
BRANCH  49  73
ATOM     73  C   UNL A   1      45.261  27.039  33.882  1.00  0.00     0.023 A 
ATOM     74  C   UNL A   1      46.454  27.064  34.632  1.00  0.00     0.012 A 
ATOM     75  C   UNL A   1      44.432  25.904  33.951  1.00  0.00     0.148 A 
ATOM     76  C   UNL A   1      46.831  25.967  35.408  1.00  0.00     0.002 A 
ATOM     77  C   UNL A   1      44.788  24.836  34.768  1.00  0.00     0.091 A 
ATOM     78  F   UNL A   1      43.307  25.892  33.223  1.00  0.00    -0.205 F 
ATOM     79  C   UNL A   1      45.995  24.859  35.484  1.00  0.00     0.022 A 
BRANCH  77  80
ATOM     80  S   UNL A   1      43.706  23.425  35.029  1.00  0.00     0.127 S 
ATOM     81  O   UNL A   1      43.510  22.941  33.665  1.00  0.00    -0.237 OA
ATOM     82  O   UNL A   1      44.527  22.562  35.878  1.00  0.00    -0.237 OA
ATOM     83  O   UNL A   1      42.524  23.963  35.690  1.00  0.00    -0.744 OA
ENDBRANCH  77  80
ENDBRANCH  49  73
BRANCH  61  84
ATOM     84  C   UNL A   1      41.924  33.012  35.295  1.00  0.00     0.023 A 
ATOM     85  C   UNL A   1      42.609  33.964  36.074  1.00  0.00     0.012 A 
ATOM     86  C   UNL A   1      40.608  32.648  35.639  1.00  0.00     0.148 A 
ATOM     87  C   UNL A   1      42.001  34.529  37.194  1.00  0.00     0.002 A 
ATOM     88  C   UNL A   1      39.992  33.249  36.730  1.00  0.00     0.091 A 
ATOM     89  F   UNL A   1      39.983  31.724  34.894  1.00  0.00    -0.205 F 
ATOM     90  C   UNL A   1      40.690  34.182  37.513  1.00  0.00     0.022 A 
BRANCH  88  91
ATOM     91  S   UNL A   1      38.275  32.933  37.153  1.00  0.00     0.127 S 
ATOM     92  O   UNL A   1      38.090  33.798  38.316  1.00  0.00    -0.237 OA
ATOM     93  O   UNL A   1      37.571  33.372  35.947  1.00  0.00    -0.237 OA
ATOM     94  O   UNL A   1      38.186  31.502  37.413  1.00  0.00    -0.744 OA
ENDBRANCH  88  91
ENDBRANCH  61  84
ENDBRANCH  35  36
ENDBRANCH  27  30
ENDBRANCH  25  26
ENDBRANCH  24  25
ENDBRANCH  23  24
ENDBRANCH   1  23
TORSDOF 20
ENDMDL
MODEL 3
REMARK VINA RESULT:      -8.5     10.210     17.656
REMARK SMILES CCN(C(=O)NC[C@]1(C)CCCO1)[C@@H](C)CC(=O)NCCCCNC(=O)c1ccc(-c2c3nc(c(-c4cccc(S(=O)(=O)[O-])c4F)c4ccc([nH]4)c(-c4cccc(S(=O)(=O)[O-])c4F)c4nc(c(-c5cccc(S(=O)(=O)[O-])c5F)c5ccc2[nH]5)C=C4)C=C3)cc1
REMARK SMILES IDX 20 1 19 2 17 3 18 4 16 6 14 7 15 8 3 9 2 10 1 11 4 12 5 13
REMARK SMILES IDX 6 14 7 16 8 17 10 18 13 19 9 20 11 21 12 22 21 23 22 24
REMARK SMILES IDX 23 25 24 26 25 27 26 29 27 30 28 31 89 32 29 33 88 34 30 35
REMARK SMILES IDX 31 36 32 37 82 38 33 39 87 40 81 41 83 42 34 43 86 44 80 45
REMARK SMILES IDX 79 46 35 48 67 49 47 50 66 51 48 52 51 53 65 54 84 55 49 56
REMARK SMILES IDX 50 57 64 59 85 60 52 61 36 62 37 63 45 64 38 65 40 66 46 67
REMARK SMILES IDX 39 68 41 69 42 70 43 71 44 72 68 73 69 74 77 75 70 76 72 77
REMARK SMILES IDX 78 78 71 79 73 80 74 81 75 82 76 83 53 84 54 85 62 86 55 87
REMARK SMILES IDX 57 88 63 89 56 90 58 91 59 92 60 93 61 94
REMARK H PARENT 19 5 6 15 24 28 83 47 51 58
REMARK Flexibility Score: inf
ROOT
ATOM      1  C   UNL A   1      43.137  40.618  26.806  1.00  0.00     0.116 C 
ENDROOT
BRANCH   1   2
ATOM      2  N   UNL A   1      43.931  41.810  26.599  1.00  0.00    -0.356 N 
ATOM      3  C   UNL A   1      44.042  42.580  25.483  1.00  0.00     0.222 C 
ATOM      4  O   UNL A   1      44.820  43.536  25.490  1.00  0.00    -0.275 OA
ATOM      5  H   UNL A   1      44.463  42.104  27.374  1.00  0.00     0.163 HD
BRANCH   3   6
ATOM      6  C   UNL A   1      43.195  42.274  24.264  1.00  0.00     0.124 C 
BRANCH   6   7
ATOM      7  C   UNL A   1      43.234  43.410  23.225  1.00  0.00     0.093 C 
ATOM      8  C   UNL A   1      41.811  43.830  22.820  1.00  0.00     0.031 C 
BRANCH   7   9
ATOM      9  N   UNL A   1      44.081  43.189  22.004  1.00  0.00    -0.322 N 
BRANCH   9  10
ATOM     10  C   UNL A   1      45.524  42.943  22.169  1.00  0.00     0.118 C 
ATOM     11  C   UNL A   1      46.193  41.984  21.202  1.00  0.00     0.027 C 
ENDBRANCH   9  10
BRANCH   9  12
ATOM     12  C   UNL A   1      43.407  42.558  20.962  1.00  0.00     0.317 C 
ATOM     13  O   UNL A   1      42.870  41.453  21.090  1.00  0.00    -0.249 OA
ATOM     14  N   UNL A   1      43.324  43.103  19.734  1.00  0.00    -0.335 N 
ATOM     15  H   UNL A   1      43.266  42.423  19.024  1.00  0.00     0.165 HD
BRANCH  14  16
ATOM     16  C   UNL A   1      43.300  44.465  19.204  1.00  0.00     0.152 C 
BRANCH  16  17
ATOM     17  C   UNL A   1      42.091  44.675  18.258  1.00  0.00     0.083 C 
ATOM     18  C   UNL A   1      42.465  44.563  16.787  1.00  0.00     0.039 C 
ATOM     19  O   UNL A   1      41.633  46.040  18.402  1.00  0.00    -0.373 OA
ATOM     20  C   UNL A   1      40.952  43.722  18.612  1.00  0.00     0.044 C 
ATOM     21  C   UNL A   1      43.056  45.919  16.485  1.00  0.00     0.031 C 
ATOM     22  C   UNL A   1      42.266  46.844  17.389  1.00  0.00     0.161 C 
ENDBRANCH  16  17
ENDBRANCH  14  16
ENDBRANCH   9  12
ENDBRANCH   7   9
ENDBRANCH   6   7
ENDBRANCH   3   6
ENDBRANCH   1   2
BRANCH   1  23
ATOM     23  C   UNL A   1      42.508  40.606  28.195  1.00  0.00     0.023 C 
BRANCH  23  24
ATOM     24  C   UNL A   1      42.584  39.266  28.912  1.00  0.00     0.023 C 
BRANCH  24  25
ATOM     25  C   UNL A   1      43.862  38.478  28.660  1.00  0.00     0.116 C 
BRANCH  25  26
ATOM     26  N   UNL A   1      45.056  39.045  29.281  1.00  0.00    -0.352 N 
ATOM     27  C   UNL A   1      45.434  38.979  30.606  1.00  0.00     0.251 C 
ATOM     28  H   UNL A   1      45.666  39.533  28.681  1.00  0.00     0.163 HD
ATOM     29  O   UNL A   1      46.453  39.534  31.004  1.00  0.00    -0.269 OA
BRANCH  27  30
ATOM     30  C   UNL A   1      44.566  38.251  31.548  1.00  0.00     0.039 A 
ATOM     31  C   UNL A   1      44.720  36.871  31.705  1.00  0.00     0.014 A 
ATOM     32  C   UNL A   1      43.694  38.973  32.362  1.00  0.00     0.014 A 
ATOM     33  C   UNL A   1      44.066  36.228  32.759  1.00  0.00     0.010 A 
ATOM     34  C   UNL A   1      43.135  38.351  33.468  1.00  0.00     0.010 A 
ATOM     35  C   UNL A   1      43.315  36.974  33.681  1.00  0.00    -0.014 A 
BRANCH  35  36
ATOM     36  C   UNL A   1      42.698  36.366  34.887  1.00  0.00     0.031 A 
ATOM     37  C   UNL A   1      41.512  35.454  34.725  1.00  0.00     0.074 A 
ATOM     38  C   UNL A   1      43.103  36.746  36.116  1.00  0.00     0.049 A 
ATOM     39  N   UNL A   1      40.708  34.973  35.636  1.00  0.00    -0.248 NA
ATOM     40  C   UNL A   1      41.147  35.079  33.347  1.00  0.00     0.031 C 
ATOM     41  C   UNL A   1      44.178  37.698  36.403  1.00  0.00     0.029 A 
ATOM     42  N   UNL A   1      42.626  36.406  37.358  1.00  0.00    -0.354 N 
ATOM     43  C   UNL A   1      39.710  34.302  34.940  1.00  0.00     0.074 A 
ATOM     44  C   UNL A   1      39.986  34.468  33.531  1.00  0.00     0.031 C 
ATOM     45  C   UNL A   1      44.282  37.860  37.732  1.00  0.00     0.029 A 
ATOM     46  C   UNL A   1      43.262  37.053  38.393  1.00  0.00     0.049 A 
ATOM     47  H   UNL A   1      41.896  35.758  37.495  1.00  0.00     0.167 HD
ATOM     48  C   UNL A   1      38.674  33.581  35.429  1.00  0.00     0.034 A 
ATOM     49  C   UNL A   1      43.042  37.005  39.721  1.00  0.00     0.034 A 
ATOM     50  C   UNL A   1      38.463  33.342  36.829  1.00  0.00     0.049 A 
ATOM     51  C   UNL A   1      41.951  36.108  40.243  1.00  0.00     0.074 A 
ATOM     52  C   UNL A   1      37.515  32.533  37.431  1.00  0.00     0.029 A 
ATOM     53  N   UNL A   1      39.221  33.897  37.847  1.00  0.00    -0.354 N 
ATOM     54  N   UNL A   1      41.108  35.359  39.572  1.00  0.00    -0.248 NA
ATOM     55  C   UNL A   1      41.802  36.018  41.702  1.00  0.00     0.031 C 
ATOM     56  C   UNL A   1      37.703  32.599  38.815  1.00  0.00     0.029 A 
ATOM     57  C   UNL A   1      38.773  33.443  39.073  1.00  0.00     0.049 A 
ATOM     58  H   UNL A   1      39.969  34.524  37.716  1.00  0.00     0.167 HD
ATOM     59  C   UNL A   1      40.356  34.683  40.525  1.00  0.00     0.074 A 
ATOM     60  C   UNL A   1      40.857  35.096  41.821  1.00  0.00     0.031 C 
ATOM     61  C   UNL A   1      39.333  33.814  40.347  1.00  0.00     0.034 A 
BRANCH  48  62
ATOM     62  C   UNL A   1      37.744  32.934  34.437  1.00  0.00     0.023 A 
ATOM     63  C   UNL A   1      36.606  33.638  33.995  1.00  0.00     0.012 A 
ATOM     64  C   UNL A   1      38.012  31.654  33.914  1.00  0.00     0.148 A 
ATOM     65  C   UNL A   1      35.725  33.063  33.080  1.00  0.00     0.002 A 
ATOM     66  C   UNL A   1      37.154  31.107  32.966  1.00  0.00     0.091 A 
ATOM     67  F   UNL A   1      39.086  30.990  34.362  1.00  0.00    -0.205 F 
ATOM     68  C   UNL A   1      36.004  31.803  32.559  1.00  0.00     0.022 A 
BRANCH  66  69
ATOM     69  S   UNL A   1      37.467  29.524  32.175  1.00  0.00     0.127 S 
ATOM     70  O   UNL A   1      38.804  29.732  31.621  1.00  0.00    -0.237 OA
ATOM     71  O   UNL A   1      37.414  28.598  33.307  1.00  0.00    -0.237 OA
ATOM     72  O   UNL A   1      36.402  29.349  31.198  1.00  0.00    -0.744 OA
ENDBRANCH  66  69
ENDBRANCH  48  62
BRANCH  49  73
ATOM     73  C   UNL A   1      43.927  37.758  40.655  1.00  0.00     0.023 A 
ATOM     74  C   UNL A   1      45.154  37.185  41.044  1.00  0.00     0.012 A 
ATOM     75  C   UNL A   1      43.587  39.037  41.131  1.00  0.00     0.148 A 
ATOM     76  C   UNL A   1      46.010  37.858  41.917  1.00  0.00     0.002 A 
ATOM     77  C   UNL A   1      44.468  39.725  41.960  1.00  0.00     0.091 A 
ATOM     78  F   UNL A   1      42.410  39.562  40.761  1.00  0.00    -0.205 F 
ATOM     79  C   UNL A   1      45.673  39.130  42.367  1.00  0.00     0.022 A 
BRANCH  77  80
ATOM     80  S   UNL A   1      44.174  41.420  42.477  1.00  0.00     0.127 S 
ATOM     81  O   UNL A   1      44.063  42.110  41.194  1.00  0.00    -0.237 OA
ATOM     82  O   UNL A   1      42.921  41.300  43.223  1.00  0.00    -0.237 OA
ATOM     83  O   UNL A   1      45.325  41.779  43.296  1.00  0.00    -0.744 OA
ENDBRANCH  77  80
ENDBRANCH  49  73
BRANCH  61  84
ATOM     84  C   UNL A   1      38.705  33.210  41.574  1.00  0.00     0.023 A 
ATOM     85  C   UNL A   1      39.224  32.014  42.107  1.00  0.00     0.012 A 
ATOM     86  C   UNL A   1      37.666  33.879  42.249  1.00  0.00     0.148 A 
ATOM     87  C   UNL A   1      38.699  31.479  43.281  1.00  0.00     0.002 A 
ATOM     88  C   UNL A   1      37.179  33.363  43.445  1.00  0.00     0.091 A 
ATOM     89  F   UNL A   1      37.173  35.005  41.713  1.00  0.00    -0.205 F 
ATOM     90  C   UNL A   1      37.688  32.159  43.956  1.00  0.00     0.022 A 
BRANCH  88  91
ATOM     91  S   UNL A   1      35.947  34.225  44.428  1.00  0.00     0.127 S 
ATOM     92  O   UNL A   1      36.563  35.540  44.591  1.00  0.00    -0.237 OA
ATOM     93  O   UNL A   1      34.777  34.204  43.548  1.00  0.00    -0.237 OA
ATOM     94  O   UNL A   1      35.794  33.445  45.649  1.00  0.00    -0.744 OA
ENDBRANCH  88  91
ENDBRANCH  61  84
ENDBRANCH  35  36
ENDBRANCH  27  30
ENDBRANCH  25  26
ENDBRANCH  24  25
ENDBRANCH  23  24
ENDBRANCH   1  23
TORSDOF 20
ENDMDL
