MODEL 1
REMARK VINA RESULT:     -13.0      0.000      0.000
REMARK SMILES O=C(NCCCCNC(=O)c1[nH]ncc1C[NH+]1CCC([N@H+]2CCC[C@@H](C(=O)N3CCCC3)C2)CC1)c1ccc(-c2c3nc(c(-c4cccc(S(=O)(=O)[O-])c4F)c4ccc([nH]4)c(-c4cccc(S(=O)(=O)[O-])c4F)c4nc(c(-c5cccc(S(=O)(=O)[O-])c5F)c5ccc2[nH]5)C=C4)C=C3)cc1
REMARK SMILES IDX 6 1 5 2 4 3 3 4 1 5 2 6 36 8 37 9 98 10 38 11 97 12 39 13
REMARK SMILES IDX 40 14 41 15 91 16 42 17 96 18 90 19 92 20 43 21 95 22 89 23
REMARK SMILES IDX 88 24 44 26 76 27 56 28 75 29 57 30 60 31 74 32 93 33 58 34
REMARK SMILES IDX 59 35 73 37 94 38 61 39 45 40 46 41 54 42 47 43 49 44 55 45
REMARK SMILES IDX 48 46 50 47 51 48 52 49 53 50 77 51 78 52 86 53 79 54 81 55
REMARK SMILES IDX 87 56 80 57 82 58 83 59 84 60 85 61 62 62 63 63 71 64 64 65
REMARK SMILES IDX 66 66 72 67 65 68 67 69 68 70 69 71 70 72 7 73 8 74 9 75
REMARK SMILES IDX 10 77 11 78 12 79 15 80 13 81 14 83 16 84 17 85 18 86 35 87
REMARK SMILES IDX 19 89 34 90 20 91 21 92 22 93 33 94 23 96 25 97 24 98 26 99
REMARK SMILES IDX 27 100 28 101 29 102 32 103 30 104 31 105
REMARK H PARENT 3 7 92 25 60 36 8 76 12 82 17 88 21 95
REMARK Flexibility Score: inf
ROOT
ATOM      1  C   UNL A   1      31.978  27.264  26.810  1.00  0.00     0.023 C 
ENDROOT
BRANCH   1   2
ATOM      2  C   UNL A   1      31.773  28.756  27.053  1.00  0.00     0.023 C 
BRANCH   2   3
ATOM      3  C   UNL A   1      32.666  29.674  26.230  1.00  0.00     0.116 C 
BRANCH   3   4
ATOM      4  N   UNL A   1      32.413  31.086  26.472  1.00  0.00    -0.352 N 
ATOM      5  O   UNL A   1      32.698  33.103  27.447  1.00  0.00    -0.269 OA
ATOM      6  C   UNL A   1      33.135  31.977  27.237  1.00  0.00     0.251 C 
ATOM      7  H   UNL A   1      31.617  31.458  26.029  1.00  0.00     0.163 HD
BRANCH   6   8
ATOM      8  C   UNL A   1      34.418  31.542  27.828  1.00  0.00     0.039 A 
ATOM      9  C   UNL A   1      34.577  30.223  28.254  1.00  0.00     0.014 A 
ATOM     10  C   UNL A   1      35.449  32.468  28.004  1.00  0.00     0.014 A 
ATOM     11  C   UNL A   1      35.683  29.878  29.019  1.00  0.00     0.010 A 
ATOM     12  C   UNL A   1      36.613  32.088  28.680  1.00  0.00     0.010 A 
ATOM     13  C   UNL A   1      36.723  30.801  29.229  1.00  0.00    -0.014 A 
BRANCH  13  14
ATOM     14  C   UNL A   1      37.942  30.349  29.950  1.00  0.00     0.031 A 
ATOM     15  C   UNL A   1      38.228  30.768  31.367  1.00  0.00     0.074 A 
ATOM     16  C   UNL A   1      38.784  29.518  29.306  1.00  0.00     0.049 A 
ATOM     17  N   UNL A   1      39.220  30.408  32.141  1.00  0.00    -0.248 NA
ATOM     18  C   UNL A   1      37.293  31.713  31.999  1.00  0.00     0.031 C 
ATOM     19  C   UNL A   1      38.634  29.085  27.913  1.00  0.00     0.029 A 
ATOM     20  N   UNL A   1      39.920  28.878  29.728  1.00  0.00    -0.354 N 
ATOM     21  C   UNL A   1      39.054  31.104  33.332  1.00  0.00     0.074 A 
ATOM     22  C   UNL A   1      37.866  31.916  33.180  1.00  0.00     0.031 C 
ATOM     23  C   UNL A   1      39.613  28.223  27.609  1.00  0.00     0.029 A 
ATOM     24  C   UNL A   1      40.495  28.087  28.762  1.00  0.00     0.049 A 
ATOM     25  H   UNL A   1      40.290  28.976  30.636  1.00  0.00     0.167 HD
ATOM     26  C   UNL A   1      39.814  31.057  34.454  1.00  0.00     0.034 A 
ATOM     27  C   UNL A   1      41.616  27.343  28.788  1.00  0.00     0.034 A 
ATOM     28  C   UNL A   1      40.975  30.218  34.611  1.00  0.00     0.049 A 
ATOM     29  C   UNL A   1      42.413  27.287  30.056  1.00  0.00     0.074 A 
ATOM     30  C   UNL A   1      41.779  30.060  35.727  1.00  0.00     0.029 A 
ATOM     31  N   UNL A   1      41.501  29.398  33.624  1.00  0.00    -0.354 N 
ATOM     32  N   UNL A   1      42.167  27.858  31.210  1.00  0.00    -0.248 NA
ATOM     33  C   UNL A   1      43.629  26.464  30.037  1.00  0.00     0.031 C 
ATOM     34  C   UNL A   1      42.799  29.158  35.410  1.00  0.00     0.029 A 
ATOM     35  C   UNL A   1      42.621  28.737  34.102  1.00  0.00     0.049 A 
ATOM     36  H   UNL A   1      41.134  29.299  32.716  1.00  0.00     0.167 HD
ATOM     37  C   UNL A   1      43.189  27.454  32.059  1.00  0.00     0.074 A 
ATOM     38  C   UNL A   1      44.032  26.555  31.296  1.00  0.00     0.031 C 
ATOM     39  C   UNL A   1      43.425  27.814  33.343  1.00  0.00     0.034 A 
BRANCH  26  40
ATOM     40  C   UNL A   1      39.396  31.898  35.633  1.00  0.00     0.023 A 
ATOM     41  C   UNL A   1      39.758  33.260  35.674  1.00  0.00     0.012 A 
ATOM     42  C   UNL A   1      38.565  31.374  36.643  1.00  0.00     0.148 A 
ATOM     43  C   UNL A   1      39.316  34.083  36.710  1.00  0.00     0.002 A 
ATOM     44  C   UNL A   1      38.097  32.209  37.652  1.00  0.00     0.091 A 
ATOM     45  F   UNL A   1      38.244  30.074  36.596  1.00  0.00    -0.205 F 
ATOM     46  C   UNL A   1      38.477  33.560  37.692  1.00  0.00     0.022 A 
BRANCH  44  47
ATOM     47  S   UNL A   1      36.953  31.655  38.924  1.00  0.00     0.127 S 
ATOM     48  O   UNL A   1      37.804  31.669  40.112  1.00  0.00    -0.237 OA
ATOM     49  O   UNL A   1      35.929  32.700  38.894  1.00  0.00    -0.237 OA
ATOM     50  O   UNL A   1      36.492  30.339  38.504  1.00  0.00    -0.744 OA
ENDBRANCH  44  47
ENDBRANCH  26  40
BRANCH  27  51
ATOM     51  C   UNL A   1      42.021  26.571  27.581  1.00  0.00     0.023 A 
ATOM     52  C   UNL A   1      42.734  27.212  26.551  1.00  0.00     0.012 A 
ATOM     53  C   UNL A   1      41.744  25.195  27.472  1.00  0.00     0.148 A 
ATOM     54  C   UNL A   1      43.139  26.502  25.419  1.00  0.00     0.002 A 
ATOM     55  C   UNL A   1      42.207  24.479  26.374  1.00  0.00     0.091 A 
ATOM     56  F   UNL A   1      41.047  24.603  28.453  1.00  0.00    -0.205 F 
ATOM     57  C   UNL A   1      42.889  25.134  25.337  1.00  0.00     0.022 A 
BRANCH  55  58
ATOM     58  S   UNL A   1      42.058  22.692  26.283  1.00  0.00     0.127 S 
ATOM     59  O   UNL A   1      42.695  22.402  25.002  1.00  0.00    -0.237 OA
ATOM     60  O   UNL A   1      42.813  22.258  27.459  1.00  0.00    -0.237 OA
ATOM     61  O   UNL A   1      40.629  22.424  26.365  1.00  0.00    -0.744 OA
ENDBRANCH  55  58
ENDBRANCH  27  51
BRANCH  39  62
ATOM     62  C   UNL A   1      44.642  27.225  34.006  1.00  0.00     0.023 A 
ATOM     63  C   UNL A   1      45.879  27.893  33.904  1.00  0.00     0.012 A 
ATOM     64  C   UNL A   1      44.556  26.038  34.758  1.00  0.00     0.148 A 
ATOM     65  C   UNL A   1      47.020  27.367  34.506  1.00  0.00     0.002 A 
ATOM     66  C   UNL A   1      45.688  25.544  35.395  1.00  0.00     0.091 A 
ATOM     67  F   UNL A   1      43.375  25.407  34.825  1.00  0.00    -0.205 F 
ATOM     68  C   UNL A   1      46.922  26.199  35.260  1.00  0.00     0.022 A 
BRANCH  66  69
ATOM     69  S   UNL A   1      45.633  24.096  36.455  1.00  0.00     0.127 S 
ATOM     70  O   UNL A   1      44.817  24.572  37.570  1.00  0.00    -0.237 OA
ATOM     71  O   UNL A   1      44.977  23.106  35.599  1.00  0.00    -0.237 OA
ATOM     72  O   UNL A   1      47.020  23.787  36.777  1.00  0.00    -0.744 OA
ENDBRANCH  66  69
ENDBRANCH  39  62
ENDBRANCH  13  14
ENDBRANCH   6   8
ENDBRANCH   3   4
ENDBRANCH   2   3
ENDBRANCH   1   2
BRANCH   1  73
ATOM     73  C   UNL A   1      30.703  26.432  26.800  1.00  0.00     0.116 C 
BRANCH  73  74
ATOM     74  N   UNL A   1      30.781  25.268  25.929  1.00  0.00    -0.351 N 
ATOM     75  C   UNL A   1      30.281  25.112  24.668  1.00  0.00     0.269 C 
ATOM     76  H   UNL A   1      31.259  24.490  26.298  1.00  0.00     0.163 HD
ATOM     77  O   UNL A   1      30.282  23.980  24.163  1.00  0.00    -0.268 OA
BRANCH  75  78
ATOM     78  C   UNL A   1      29.702  26.236  23.999  1.00  0.00     0.131 A 
ATOM     79  N   UNL A   1      28.357  26.480  24.043  1.00  0.00    -0.272 N 
ATOM     80  C   UNL A   1      30.236  27.238  23.192  1.00  0.00     0.057 A 
ATOM     81  N   UNL A   1      28.000  27.654  23.500  1.00  0.00    -0.183 NA
ATOM     82  H   UNL A   1      27.709  25.852  24.438  1.00  0.00     0.190 HD
ATOM     83  C   UNL A   1      29.142  28.112  22.985  1.00  0.00     0.145 A 
BRANCH  80  84
ATOM     84  C   UNL A   1      31.643  27.395  22.718  1.00  0.00     0.303 C 
BRANCH  84  85
ATOM     85  N   UNL A   1      32.521  26.267  23.024  1.00  0.00    -0.331 N 
ATOM     86  C   UNL A   1      32.882  25.467  21.855  1.00  0.00     0.268 C 
ATOM     87  C   UNL A   1      33.668  26.591  23.864  1.00  0.00     0.268 C 
ATOM     88  H   UNL A   1      31.936  25.667  23.605  1.00  0.00     0.348 HD
ATOM     89  C   UNL A   1      33.518  24.148  22.294  1.00  0.00     0.126 C 
ATOM     90  C   UNL A   1      34.307  25.308  24.393  1.00  0.00     0.126 C 
ATOM     91  C   UNL A   1      34.720  24.390  23.229  1.00  0.00     0.195 C 
BRANCH  91  92
ATOM     92  N   UNL A   1      35.424  23.173  23.708  1.00  0.00    -0.331 N 
ATOM     93  C   UNL A   1      36.493  23.430  24.685  1.00  0.00     0.262 C 
ATOM     94  C   UNL A   1      34.455  22.207  24.254  1.00  0.00     0.275 C 
ATOM     95  H   UNL A   1      35.889  22.783  22.887  1.00  0.00     0.348 HD
ATOM     96  C   UNL A   1      37.215  22.134  25.073  1.00  0.00     0.062 C 
ATOM     97  C   UNL A   1      35.114  20.869  24.623  1.00  0.00     0.134 C 
ATOM     98  C   UNL A   1      36.244  21.087  25.620  1.00  0.00     0.025 C 
BRANCH  97  99
ATOM     99  C   UNL A   1      33.991  20.004  25.177  1.00  0.00     0.231 C 
ATOM    100  O   UNL A   1      33.105  20.481  25.888  1.00  0.00    -0.274 OA
ATOM    101  N   UNL A   1      33.905  18.720  24.697  1.00  0.00    -0.342 N 
ATOM    102  C   UNL A   1      34.980  17.822  24.329  1.00  0.00     0.119 C 
ATOM    103  C   UNL A   1      32.612  18.081  24.544  1.00  0.00     0.119 C 
ATOM    104  C   UNL A   1      34.327  16.895  23.322  1.00  0.00     0.023 C 
ATOM    105  C   UNL A   1      32.902  16.751  23.855  1.00  0.00     0.023 C 
ENDBRANCH  97  99
ENDBRANCH  91  92
ENDBRANCH  84  85
ENDBRANCH  80  84
ENDBRANCH  75  78
ENDBRANCH  73  74
ENDBRANCH   1  73
TORSDOF 18
ENDMDL
MODEL 2
REMARK VINA RESULT:     -12.6      5.014     10.609
REMARK SMILES O=C(NCCCCNC(=O)c1[nH]ncc1C[NH+]1CCC([N@H+]2CCC[C@@H](C(=O)N3CCCC3)C2)CC1)c1ccc(-c2c3nc(c(-c4cccc(S(=O)(=O)[O-])c4F)c4ccc([nH]4)c(-c4cccc(S(=O)(=O)[O-])c4F)c4nc(c(-c5cccc(S(=O)(=O)[O-])c5F)c5ccc2[nH]5)C=C4)C=C3)cc1
REMARK SMILES IDX 6 1 5 2 4 3 3 4 1 5 2 6 36 8 37 9 98 10 38 11 97 12 39 13
REMARK SMILES IDX 40 14 41 15 91 16 42 17 96 18 90 19 92 20 43 21 95 22 89 23
REMARK SMILES IDX 88 24 44 26 76 27 56 28 75 29 57 30 60 31 74 32 93 33 58 34
REMARK SMILES IDX 59 35 73 37 94 38 61 39 45 40 46 41 54 42 47 43 49 44 55 45
REMARK SMILES IDX 48 46 50 47 51 48 52 49 53 50 77 51 78 52 86 53 79 54 81 55
REMARK SMILES IDX 87 56 80 57 82 58 83 59 84 60 85 61 62 62 63 63 71 64 64 65
REMARK SMILES IDX 66 66 72 67 65 68 67 69 68 70 69 71 70 72 7 73 8 74 9 75
REMARK SMILES IDX 10 77 11 78 12 79 15 80 13 81 14 83 16 84 17 85 18 86 35 87
REMARK SMILES IDX 19 89 34 90 20 91 21 92 22 93 33 94 23 96 25 97 24 98 26 99
REMARK SMILES IDX 27 100 28 101 29 102 32 103 30 104 31 105
REMARK H PARENT 3 7 92 25 60 36 8 76 12 82 17 88 21 95
REMARK Flexibility Score: inf
ROOT
ATOM      1  C   UNL A   1      36.303  23.207  23.315  1.00  0.00     0.023 C 
ENDROOT
BRANCH   1   2
ATOM      2  C   UNL A   1      37.020  21.980  23.869  1.00  0.00     0.023 C 
BRANCH   2   3
ATOM      3  C   UNL A   1      37.525  22.117  25.299  1.00  0.00     0.116 C 
BRANCH   3   4
ATOM      4  N   UNL A   1      38.417  21.037  25.696  1.00  0.00    -0.352 N 
ATOM      5  O   UNL A   1      40.320  20.105  26.474  1.00  0.00    -0.269 OA
ATOM      6  C   UNL A   1      39.632  21.111  26.342  1.00  0.00     0.251 C 
ATOM      7  H   UNL A   1      38.110  20.129  25.473  1.00  0.00     0.163 HD
BRANCH   6   8
ATOM      8  C   UNL A   1      40.105  22.421  26.836  1.00  0.00     0.039 A 
ATOM      9  C   UNL A   1      39.635  23.598  26.251  1.00  0.00     0.014 A 
ATOM     10  C   UNL A   1      41.061  22.474  27.854  1.00  0.00     0.014 A 
ATOM     11  C   UNL A   1      40.252  24.805  26.547  1.00  0.00     0.010 A 
ATOM     12  C   UNL A   1      41.603  23.707  28.230  1.00  0.00     0.010 A 
ATOM     13  C   UNL A   1      41.233  24.879  27.552  1.00  0.00    -0.014 A 
BRANCH  13  14
ATOM     14  C   UNL A   1      41.777  26.212  27.921  1.00  0.00     0.031 A 
ATOM     15  C   UNL A   1      43.176  26.628  27.554  1.00  0.00     0.074 A 
ATOM     16  C   UNL A   1      40.965  27.066  28.575  1.00  0.00     0.049 A 
ATOM     17  N   UNL A   1      43.766  27.778  27.759  1.00  0.00    -0.248 NA
ATOM     18  C   UNL A   1      44.027  25.635  26.880  1.00  0.00     0.031 C 
ATOM     19  C   UNL A   1      39.606  26.752  29.027  1.00  0.00     0.029 A 
ATOM     20  N   UNL A   1      41.149  28.367  28.965  1.00  0.00    -0.354 N 
ATOM     21  C   UNL A   1      45.062  27.639  27.276  1.00  0.00     0.074 A 
ATOM     22  C   UNL A   1      45.178  26.288  26.771  1.00  0.00     0.031 C 
ATOM     23  C   UNL A   1      39.065  27.838  29.593  1.00  0.00     0.029 A 
ATOM     24  C   UNL A   1      40.057  28.908  29.601  1.00  0.00     0.049 A 
ATOM     25  H   UNL A   1      41.983  28.866  28.805  1.00  0.00     0.167 HD
ATOM     26  C   UNL A   1      46.057  28.560  27.243  1.00  0.00     0.034 A 
ATOM     27  C   UNL A   1      39.871  30.123  30.148  1.00  0.00     0.034 A 
ATOM     28  C   UNL A   1      45.922  29.915  27.714  1.00  0.00     0.049 A 
ATOM     29  C   UNL A   1      40.981  31.128  30.063  1.00  0.00     0.074 A 
ATOM     30  C   UNL A   1      46.855  30.937  27.674  1.00  0.00     0.029 A 
ATOM     31  N   UNL A   1      44.786  30.438  28.313  1.00  0.00    -0.354 N 
ATOM     32  N   UNL A   1      42.155  31.012  29.491  1.00  0.00    -0.248 NA
ATOM     33  C   UNL A   1      40.734  32.439  30.675  1.00  0.00     0.031 C 
ATOM     34  C   UNL A   1      46.290  32.072  28.263  1.00  0.00     0.029 A 
ATOM     35  C   UNL A   1      44.997  31.765  28.653  1.00  0.00     0.049 A 
ATOM     36  H   UNL A   1      43.952  29.941  28.474  1.00  0.00     0.167 HD
ATOM     37  C   UNL A   1      42.782  32.239  29.661  1.00  0.00     0.074 A 
ATOM     38  C   UNL A   1      41.839  33.097  30.352  1.00  0.00     0.031 C 
ATOM     39  C   UNL A   1      44.033  32.615  29.304  1.00  0.00     0.034 A 
BRANCH  26  40
ATOM     40  C   UNL A   1      47.376  28.160  26.632  1.00  0.00     0.023 A 
ATOM     41  C   UNL A   1      48.450  27.809  27.474  1.00  0.00     0.012 A 
ATOM     42  C   UNL A   1      47.524  28.035  25.236  1.00  0.00     0.148 A 
ATOM     43  C   UNL A   1      49.656  27.356  26.938  1.00  0.00     0.002 A 
ATOM     44  C   UNL A   1      48.716  27.547  24.710  1.00  0.00     0.091 A 
ATOM     45  F   UNL A   1      46.498  28.389  24.451  1.00  0.00    -0.205 F 
ATOM     46  C   UNL A   1      49.784  27.215  25.559  1.00  0.00     0.022 A 
BRANCH  44  47
ATOM     47  S   UNL A   1      48.959  27.258  22.953  1.00  0.00     0.127 S 
ATOM     48  O   UNL A   1      50.417  27.215  22.860  1.00  0.00    -0.237 OA
ATOM     49  O   UNL A   1      48.298  25.967  22.758  1.00  0.00    -0.237 OA
ATOM     50  O   UNL A   1      48.324  28.375  22.269  1.00  0.00    -0.744 OA
ENDBRANCH  44  47
ENDBRANCH  26  40
BRANCH  27  51
ATOM     51  C   UNL A   1      38.570  30.456  30.790  1.00  0.00     0.023 A 
ATOM     52  C   UNL A   1      38.360  30.135  32.144  1.00  0.00     0.012 A 
ATOM     53  C   UNL A   1      37.560  31.132  30.079  1.00  0.00     0.148 A 
ATOM     54  C   UNL A   1      37.153  30.455  32.770  1.00  0.00     0.002 A 
ATOM     55  C   UNL A   1      36.388  31.506  30.726  1.00  0.00     0.091 A 
ATOM     56  F   UNL A   1      37.769  31.413  28.784  1.00  0.00    -0.205 F 
ATOM     57  C   UNL A   1      36.174  31.152  32.066  1.00  0.00     0.022 A 
BRANCH  55  58
ATOM     58  S   UNL A   1      35.159  32.541  29.925  1.00  0.00     0.127 S 
ATOM     59  O   UNL A   1      34.223  32.795  31.015  1.00  0.00    -0.237 OA
ATOM     60  O   UNL A   1      35.953  33.699  29.510  1.00  0.00    -0.237 OA
ATOM     61  O   UNL A   1      34.653  31.743  28.816  1.00  0.00    -0.744 OA
ENDBRANCH  55  58
ENDBRANCH  27  51
BRANCH  39  62
ATOM     62  C   UNL A   1      44.449  34.020  29.648  1.00  0.00     0.023 A 
ATOM     63  C   UNL A   1      45.049  34.281  30.896  1.00  0.00     0.012 A 
ATOM     64  C   UNL A   1      44.284  35.073  28.727  1.00  0.00     0.148 A 
ATOM     65  C   UNL A   1      45.440  35.573  31.240  1.00  0.00     0.002 A 
ATOM     66  C   UNL A   1      44.719  36.350  29.057  1.00  0.00     0.091 A 
ATOM     67  F   UNL A   1      43.691  34.809  27.553  1.00  0.00    -0.205 F 
ATOM     68  C   UNL A   1      45.285  36.605  30.317  1.00  0.00     0.022 A 
BRANCH  66  69
ATOM     69  S   UNL A   1      44.636  37.719  27.897  1.00  0.00     0.127 S 
ATOM     70  O   UNL A   1      45.582  37.294  26.867  1.00  0.00    -0.237 OA
ATOM     71  O   UNL A   1      43.233  37.694  27.483  1.00  0.00    -0.237 OA
ATOM     72  O   UNL A   1      45.019  38.904  28.653  1.00  0.00    -0.744 OA
ENDBRANCH  66  69
ENDBRANCH  39  62
ENDBRANCH  13  14
ENDBRANCH   6   8
ENDBRANCH   3   4
ENDBRANCH   2   3
ENDBRANCH   1   2
BRANCH   1  73
ATOM     73  C   UNL A   1      35.009  23.573  24.028  1.00  0.00     0.116 C 
BRANCH  73  74
ATOM     74  N   UNL A   1      33.826  23.414  23.194  1.00  0.00    -0.351 N 
ATOM     75  C   UNL A   1      32.948  22.368  23.151  1.00  0.00     0.269 C 
ATOM     76  H   UNL A   1      33.632  24.158  22.581  1.00  0.00     0.163 HD
ATOM     77  O   UNL A   1      32.112  22.331  22.237  1.00  0.00    -0.268 OA
BRANCH  75  78
ATOM     78  C   UNL A   1      33.068  21.312  24.108  1.00  0.00     0.131 A 
ATOM     79  N   UNL A   1      33.980  20.305  23.952  1.00  0.00    -0.272 N 
ATOM     80  C   UNL A   1      32.377  21.008  25.279  1.00  0.00     0.057 A 
ATOM     81  N   UNL A   1      34.072  19.486  25.010  1.00  0.00    -0.183 NA
ATOM     82  H   UNL A   1      34.521  20.190  23.136  1.00  0.00     0.190 HD
ATOM     83  C   UNL A   1      33.098  19.915  25.815  1.00  0.00     0.145 A 
BRANCH  80  84
ATOM     84  C   UNL A   1      31.200  21.713  25.868  1.00  0.00     0.303 C 
BRANCH  84  85
ATOM     85  N   UNL A   1      31.313  23.170  25.904  1.00  0.00    -0.331 N 
ATOM     86  C   UNL A   1      30.070  23.851  26.260  1.00  0.00     0.268 C 
ATOM     87  C   UNL A   1      32.466  23.678  26.639  1.00  0.00     0.268 C 
ATOM     88  H   UNL A   1      31.499  23.414  24.932  1.00  0.00     0.348 HD
ATOM     89  C   UNL A   1      30.183  25.346  25.963  1.00  0.00     0.126 C 
ATOM     90  C   UNL A   1      32.673  25.159  26.326  1.00  0.00     0.126 C 
ATOM     91  C   UNL A   1      31.408  25.965  26.664  1.00  0.00     0.195 C 
BRANCH  91  92
ATOM     92  N   UNL A   1      31.607  27.422  26.454  1.00  0.00    -0.331 N 
ATOM     93  C   UNL A   1      32.963  27.903  26.758  1.00  0.00     0.262 C 
ATOM     94  C   UNL A   1      31.230  27.794  25.079  1.00  0.00     0.275 C 
ATOM     95  H   UNL A   1      30.994  27.883  27.126  1.00  0.00     0.348 HD
ATOM     96  C   UNL A   1      33.065  29.423  26.584  1.00  0.00     0.062 C 
ATOM     97  C   UNL A   1      31.272  29.312  24.855  1.00  0.00     0.134 C 
ATOM     98  C   UNL A   1      32.656  29.861  25.178  1.00  0.00     0.025 C 
BRANCH  97  99
ATOM     99  C   UNL A   1      30.875  29.519  23.401  1.00  0.00     0.231 C 
ATOM    100  O   UNL A   1      31.466  28.941  22.487  1.00  0.00    -0.274 OA
ATOM    101  N   UNL A   1      29.719  30.222  23.169  1.00  0.00    -0.342 N 
ATOM    102  C   UNL A   1      29.184  31.346  23.911  1.00  0.00     0.119 C 
ATOM    103  C   UNL A   1      28.879  29.896  22.032  1.00  0.00     0.119 C 
ATOM    104  C   UNL A   1      27.695  31.265  23.633  1.00  0.00     0.023 C 
ATOM    105  C   UNL A   1      27.636  30.766  22.191  1.00  0.00     0.023 C 
ENDBRANCH  97  99
ENDBRANCH  91  92
ENDBRANCH  84  85
ENDBRANCH  80  84
ENDBRANCH  75  78
ENDBRANCH  73  74
ENDBRANCH   1  73
TORSDOF 18
ENDMDL
MODEL 3
REMARK VINA RESULT:     -12.5      2.015      2.242
REMARK SMILES O=C(NCCCCNC(=O)c1[nH]ncc1C[NH+]1CCC([N@H+]2CCC[C@@H](C(=O)N3CCCC3)C2)CC1)c1ccc(-c2c3nc(c(-c4cccc(S(=O)(=O)[O-])c4F)c4ccc([nH]4)c(-c4cccc(S(=O)(=O)[O-])c4F)c4nc(c(-c5cccc(S(=O)(=O)[O-])c5F)c5ccc2[nH]5)C=C4)C=C3)cc1
REMARK SMILES IDX 6 1 5 2 4 3 3 4 1 5 2 6 36 8 37 9 98 10 38 11 97 12 39 13
REMARK SMILES IDX 40 14 41 15 91 16 42 17 96 18 90 19 92 20 43 21 95 22 89 23
REMARK SMILES IDX 88 24 44 26 76 27 56 28 75 29 57 30 60 31 74 32 93 33 58 34
REMARK SMILES IDX 59 35 73 37 94 38 61 39 45 40 46 41 54 42 47 43 49 44 55 45
REMARK SMILES IDX 48 46 50 47 51 48 52 49 53 50 77 51 78 52 86 53 79 54 81 55
REMARK SMILES IDX 87 56 80 57 82 58 83 59 84 60 85 61 62 62 63 63 71 64 64 65
REMARK SMILES IDX 66 66 72 67 65 68 67 69 68 70 69 71 70 72 7 73 8 74 9 75
REMARK SMILES IDX 10 77 11 78 12 79 15 80 13 81 14 83 16 84 17 85 18 86 35 87
REMARK SMILES IDX 19 89 34 90 20 91 21 92 22 93 33 94 23 96 25 97 24 98 26 99
REMARK SMILES IDX 27 100 28 101 29 102 32 103 30 104 31 105
REMARK H PARENT 3 7 92 25 60 36 8 76 12 82 17 88 21 95
REMARK Flexibility Score: inf
ROOT
ATOM      1  C   UNL A   1      31.953  27.428  26.383  1.00  0.00     0.023 C 
ENDROOT
BRANCH   1   2
ATOM      2  C   UNL A   1      31.891  28.687  25.525  1.00  0.00     0.023 C 
BRANCH   2   3
ATOM      3  C   UNL A   1      33.020  29.683  25.754  1.00  0.00     0.116 C 
BRANCH   3   4
ATOM      4  N   UNL A   1      32.554  30.976  26.232  1.00  0.00    -0.352 N 
ATOM      5  O   UNL A   1      32.513  32.799  27.563  1.00  0.00    -0.269 OA
ATOM      6  C   UNL A   1      33.117  31.804  27.179  1.00  0.00     0.251 C 
ATOM      7  H   UNL A   1      31.723  31.307  25.821  1.00  0.00     0.163 HD
BRANCH   6   8
ATOM      8  C   UNL A   1      34.436  31.454  27.747  1.00  0.00     0.039 A 
ATOM      9  C   UNL A   1      34.668  30.164  28.226  1.00  0.00     0.014 A 
ATOM     10  C   UNL A   1      35.428  32.432  27.849  1.00  0.00     0.014 A 
ATOM     11  C   UNL A   1      35.810  29.904  28.970  1.00  0.00     0.010 A 
ATOM     12  C   UNL A   1      36.628  32.135  28.503  1.00  0.00     0.010 A 
ATOM     13  C   UNL A   1      36.813  30.881  29.105  1.00  0.00    -0.014 A 
BRANCH  13  14
ATOM     14  C   UNL A   1      38.072  30.517  29.806  1.00  0.00     0.031 A 
ATOM     15  C   UNL A   1      38.379  31.009  31.195  1.00  0.00     0.074 A 
ATOM     16  C   UNL A   1      38.934  29.698  29.172  1.00  0.00     0.049 A 
ATOM     17  N   UNL A   1      39.410  30.729  31.952  1.00  0.00    -0.248 NA
ATOM     18  C   UNL A   1      37.420  31.936  31.816  1.00  0.00     0.031 C 
ATOM     19  C   UNL A   1      38.764  29.200  27.803  1.00  0.00     0.029 A 
ATOM     20  N   UNL A   1      40.111  29.130  29.585  1.00  0.00    -0.354 N 
ATOM     21  C   UNL A   1      39.245  31.467  33.118  1.00  0.00     0.074 A 
ATOM     22  C   UNL A   1      38.016  32.216  32.969  1.00  0.00     0.031 C 
ATOM     23  C   UNL A   1      39.773  28.371  27.505  1.00  0.00     0.029 A 
ATOM     24  C   UNL A   1      40.694  28.325  28.634  1.00  0.00     0.049 A 
ATOM     25  H   UNL A   1      40.501  29.284  30.475  1.00  0.00     0.167 HD
ATOM     26  C   UNL A   1      40.039  31.503  34.217  1.00  0.00     0.034 A 
ATOM     27  C   UNL A   1      41.849  27.636  28.657  1.00  0.00     0.034 A 
ATOM     28  C   UNL A   1      41.242  30.726  34.372  1.00  0.00     0.049 A 
ATOM     29  C   UNL A   1      42.685  27.671  29.901  1.00  0.00     0.074 A 
ATOM     30  C   UNL A   1      42.084  30.653  35.468  1.00  0.00     0.029 A 
ATOM     31  N   UNL A   1      41.777  29.889  33.404  1.00  0.00    -0.354 N 
ATOM     32  N   UNL A   1      42.446  28.280  31.037  1.00  0.00    -0.248 NA
ATOM     33  C   UNL A   1      43.938  26.905  29.878  1.00  0.00     0.031 C 
ATOM     34  C   UNL A   1      43.137  29.786  35.158  1.00  0.00     0.029 A 
ATOM     35  C   UNL A   1      42.941  29.302  33.875  1.00  0.00     0.049 A 
ATOM     36  H   UNL A   1      41.389  29.734  32.513  1.00  0.00     0.167 HD
ATOM     37  C   UNL A   1      43.509  27.959  31.870  1.00  0.00     0.074 A 
ATOM     38  C   UNL A   1      44.372  27.068  31.120  1.00  0.00     0.031 C 
ATOM     39  C   UNL A   1      43.765  28.385  33.130  1.00  0.00     0.034 A 
BRANCH  26  40
ATOM     40  C   UNL A   1      39.615  32.374  35.372  1.00  0.00     0.023 A 
ATOM     41  C   UNL A   1      38.886  31.805  36.436  1.00  0.00     0.012 A 
ATOM     42  C   UNL A   1      40.021  33.721  35.456  1.00  0.00     0.148 A 
ATOM     43  C   UNL A   1      38.551  32.566  37.556  1.00  0.00     0.002 A 
ATOM     44  C   UNL A   1      39.717  34.463  36.592  1.00  0.00     0.091 A 
ATOM     45  F   UNL A   1      40.700  34.248  34.428  1.00  0.00    -0.205 F 
ATOM     46  C   UNL A   1      38.976  33.890  37.639  1.00  0.00     0.022 A 
BRANCH  44  47
ATOM     47  S   UNL A   1      40.279  36.154  36.831  1.00  0.00     0.127 S 
ATOM     48  O   UNL A   1      41.727  35.974  36.914  1.00  0.00    -0.237 OA
ATOM     49  O   UNL A   1      39.815  36.808  35.607  1.00  0.00    -0.237 OA
ATOM     50  O   UNL A   1      39.638  36.622  38.052  1.00  0.00    -0.744 OA
ENDBRANCH  44  47
ENDBRANCH  26  40
BRANCH  27  51
ATOM     51  C   UNL A   1      42.255  26.832  27.471  1.00  0.00     0.023 A 
ATOM     52  C   UNL A   1      43.010  27.434  26.447  1.00  0.00     0.012 A 
ATOM     53  C   UNL A   1      41.938  25.464  27.377  1.00  0.00     0.148 A 
ATOM     54  C   UNL A   1      43.416  26.693  25.335  1.00  0.00     0.002 A 
ATOM     55  C   UNL A   1      42.401  24.716  26.301  1.00  0.00     0.091 A 
ATOM     56  F   UNL A   1      41.201  24.910  28.352  1.00  0.00    -0.205 F 
ATOM     57  C   UNL A   1      43.124  25.333  25.269  1.00  0.00     0.022 A 
BRANCH  55  58
ATOM     58  S   UNL A   1      42.198  22.934  26.234  1.00  0.00     0.127 S 
ATOM     59  O   UNL A   1      42.823  22.607  24.956  1.00  0.00    -0.237 OA
ATOM     60  O   UNL A   1      42.942  22.493  27.415  1.00  0.00    -0.237 OA
ATOM     61  O   UNL A   1      40.761  22.710  26.323  1.00  0.00    -0.744 OA
ENDBRANCH  55  58
ENDBRANCH  27  51
BRANCH  39  62
ATOM     62  C   UNL A   1      45.027  27.882  33.779  1.00  0.00     0.023 A 
ATOM     63  C   UNL A   1      44.992  26.693  34.535  1.00  0.00     0.012 A 
ATOM     64  C   UNL A   1      46.250  28.560  33.611  1.00  0.00     0.148 A 
ATOM     65  C   UNL A   1      46.146  26.208  35.147  1.00  0.00     0.002 A 
ATOM     66  C   UNL A   1      47.406  28.045  34.185  1.00  0.00     0.091 A 
ATOM     67  F   UNL A   1      46.258  29.701  32.906  1.00  0.00    -0.205 F 
ATOM     68  C   UNL A   1      47.354  26.878  34.964  1.00  0.00     0.022 A 
BRANCH  66  69
ATOM     69  S   UNL A   1      49.017  28.795  33.928  1.00  0.00     0.127 S 
ATOM     70  O   UNL A   1      49.888  27.897  34.684  1.00  0.00    -0.237 OA
ATOM     71  O   UNL A   1      49.172  28.714  32.475  1.00  0.00    -0.237 OA
ATOM     72  O   UNL A   1      48.910  30.152  34.447  1.00  0.00    -0.744 OA
ENDBRANCH  66  69
ENDBRANCH  39  62
ENDBRANCH  13  14
ENDBRANCH   6   8
ENDBRANCH   3   4
ENDBRANCH   2   3
ENDBRANCH   1   2
BRANCH   1  73
ATOM     73  C   UNL A   1      30.661  26.626  26.444  1.00  0.00     0.116 C 
BRANCH  73  74
ATOM     74  N   UNL A   1      30.661  25.464  25.566  1.00  0.00    -0.351 N 
ATOM     75  C   UNL A   1      30.157  25.352  24.301  1.00  0.00     0.269 C 
ATOM     76  H   UNL A   1      31.081  24.653  25.931  1.00  0.00     0.163 HD
ATOM     77  O   UNL A   1      30.080  24.226  23.789  1.00  0.00    -0.268 OA
BRANCH  75  78
ATOM     78  C   UNL A   1      29.661  26.518  23.638  1.00  0.00     0.131 A 
ATOM     79  N   UNL A   1      28.362  26.925  23.779  1.00  0.00    -0.272 N 
ATOM     80  C   UNL A   1      30.240  27.426  22.754  1.00  0.00     0.057 A 
ATOM     81  N   UNL A   1      28.102  28.117  23.221  1.00  0.00    -0.183 NA
ATOM     82  H   UNL A   1      27.680  26.391  24.247  1.00  0.00     0.190 HD
ATOM     83  C   UNL A   1      29.244  28.419  22.600  1.00  0.00     0.145 A 
BRANCH  80  84
ATOM     84  C   UNL A   1      31.612  27.398  22.166  1.00  0.00     0.303 C 
BRANCH  84  85
ATOM     85  N   UNL A   1      32.452  26.293  22.622  1.00  0.00    -0.331 N 
ATOM     86  C   UNL A   1      32.702  25.280  21.600  1.00  0.00     0.268 C 
ATOM     87  C   UNL A   1      33.663  26.693  23.330  1.00  0.00     0.268 C 
ATOM     88  H   UNL A   1      31.877  25.840  23.332  1.00  0.00     0.348 HD
ATOM     89  C   UNL A   1      33.300  24.024  22.235  1.00  0.00     0.126 C 
ATOM     90  C   UNL A   1      34.271  25.489  24.047  1.00  0.00     0.126 C 
ATOM     91  C   UNL A   1      34.567  24.358  23.047  1.00  0.00     0.195 C 
BRANCH  91  92
ATOM     92  N   UNL A   1      35.241  23.206  23.699  1.00  0.00    -0.331 N 
ATOM     93  C   UNL A   1      36.129  23.568  24.814  1.00  0.00     0.262 C 
ATOM     94  C   UNL A   1      34.242  22.217  24.143  1.00  0.00     0.275 C 
ATOM     95  H   UNL A   1      35.846  22.800  22.985  1.00  0.00     0.348 HD
ATOM     96  C   UNL A   1      36.837  22.333  25.384  1.00  0.00     0.062 C 
ATOM     97  C   UNL A   1      34.893  20.937  24.687  1.00  0.00     0.134 C 
ATOM     98  C   UNL A   1      35.839  21.265  25.833  1.00  0.00     0.025 C 
BRANCH  97  99
ATOM     99  C   UNL A   1      33.736  20.042  25.109  1.00  0.00     0.231 C 
ATOM    100  O   UNL A   1      32.760  20.496  25.708  1.00  0.00    -0.274 OA
ATOM    101  N   UNL A   1      33.743  18.755  24.628  1.00  0.00    -0.342 N 
ATOM    102  C   UNL A   1      34.878  17.887  24.394  1.00  0.00     0.119 C 
ATOM    103  C   UNL A   1      32.495  18.081  24.326  1.00  0.00     0.119 C 
ATOM    104  C   UNL A   1      34.373  16.941  23.321  1.00  0.00     0.023 C 
ATOM    105  C   UNL A   1      32.900  16.758  23.682  1.00  0.00     0.023 C 
ENDBRANCH  97  99
ENDBRANCH  91  92
ENDBRANCH  84  85
ENDBRANCH  80  84
ENDBRANCH  75  78
ENDBRANCH  73  74
ENDBRANCH   1  73
TORSDOF 18
ENDMDL
