MODEL 1
REMARK VINA RESULT:     -12.4      0.000      0.000
REMARK SMILES CC[C@@]1(C(=O)NCCCCNC(=O)c2ccc(-c3c4nc(c(-c5cccc(S(=O)(=O)[O-])c5F)c5ccc([nH]5)c(-c5cccc(S(=O)(=O)[O-])c5F)c5nc(c(-c6cccc(S(=O)(=O)[O-])c6F)c6ccc3[nH]6)C=C5)C=C4)cc2)CCC[N@@H+](Cc2ccc(C3CC3)cc2)C1
REMARK SMILES IDX 8 1 7 2 6 3 4 4 5 5 3 7 77 8 91 9 78 10 80 11 79 12 2 14
REMARK SMILES IDX 1 15 81 16 82 17 83 18 90 19 84 20 89 21 85 22 86 23 87 24
REMARK SMILES IDX 88 25 9 26 10 27 11 28 12 29 13 31 14 32 15 33 76 34 16 35
REMARK SMILES IDX 75 36 17 37 18 38 19 39 69 40 20 41 74 42 68 43 70 44 21 45
REMARK SMILES IDX 73 46 67 47 66 48 22 50 54 51 34 52 53 53 35 54 38 55 52 56
REMARK SMILES IDX 71 57 36 58 37 59 51 61 72 62 39 63 23 64 24 65 32 66 25 67
REMARK SMILES IDX 27 68 33 69 26 70 28 71 29 72 30 73 31 74 55 75 56 76 64 77
REMARK SMILES IDX 57 78 59 79 65 80 58 81 60 82 61 83 62 84 63 85 40 86 41 87
REMARK SMILES IDX 49 88 42 89 44 90 50 91 43 92 45 93 46 94 47 95 48 96
REMARK H PARENT 6 6 80 13 11 30 70 49 38 60
REMARK Flexibility Score: inf
ROOT
ATOM      1  C   UNL A   1      32.263  27.827  27.239  1.00  0.00     0.023 C 
ENDROOT
BRANCH   1   2
ATOM      2  C   UNL A   1      31.562  26.653  26.568  1.00  0.00     0.116 C 
BRANCH   2   3
ATOM      3  N   UNL A   1      30.851  26.878  25.330  1.00  0.00    -0.355 N 
ATOM      4  C   UNL A   1      31.214  26.370  24.098  1.00  0.00     0.231 C 
ATOM      5  O   UNL A   1      30.283  25.912  23.422  1.00  0.00    -0.274 OA
ATOM      6  H   UNL A   1      30.042  27.438  25.367  1.00  0.00     0.163 HD
BRANCH   4   7
ATOM      7  C   UNL A   1      32.631  26.566  23.445  1.00  0.00     0.098 C 
ATOM      8  C   UNL A   1      32.663  26.079  21.959  1.00  0.00     0.028 C 
ATOM      9  C   UNL A   1      33.817  25.875  24.162  1.00  0.00     0.279 C 
ATOM     10  C   UNL A   1      32.894  24.574  21.778  1.00  0.00     0.063 C 
ATOM     11  N   UNL A   1      33.686  24.423  24.046  1.00  0.00    -0.330 N 
ATOM     12  C   UNL A   1      33.982  24.001  22.685  1.00  0.00     0.262 C 
ATOM     13  H   UNL A   1      32.699  24.296  24.273  1.00  0.00     0.348 HD
BRANCH   7  14
ATOM     14  C   UNL A   1      32.882  28.113  23.455  1.00  0.00     0.019 C 
ATOM     15  C   UNL A   1      34.120  28.603  22.693  1.00  0.00     0.005 C 
ENDBRANCH   7  14
BRANCH  11  16
ATOM     16  C   UNL A   1      34.131  23.509  25.093  1.00  0.00     0.299 C 
BRANCH  16  17
ATOM     17  C   UNL A   1      33.918  22.030  24.923  1.00  0.00     0.006 A 
ATOM     18  C   UNL A   1      34.986  21.149  25.098  1.00  0.00     0.010 A 
ATOM     19  C   UNL A   1      32.707  21.514  24.454  1.00  0.00     0.010 A 
ATOM     20  C   UNL A   1      34.814  19.777  24.894  1.00  0.00     0.004 A 
ATOM     21  C   UNL A   1      32.535  20.141  24.277  1.00  0.00     0.004 A 
ATOM     22  C   UNL A   1      33.573  19.232  24.524  1.00  0.00    -0.045 A 
BRANCH  22  23
ATOM     23  C   UNL A   1      33.402  17.732  24.432  1.00  0.00     0.019 C 
ATOM     24  C   UNL A   1      33.661  17.014  23.127  1.00  0.00     0.009 C 
ATOM     25  C   UNL A   1      34.583  16.806  24.296  1.00  0.00     0.009 C 
ENDBRANCH  22  23
ENDBRANCH  16  17
ENDBRANCH  11  16
ENDBRANCH   4   7
ENDBRANCH   2   3
ENDBRANCH   1   2
BRANCH   1  26
ATOM     26  C   UNL A   1      31.801  29.221  26.850  1.00  0.00     0.023 C 
BRANCH  26  27
ATOM     27  C   UNL A   1      32.880  30.211  26.427  1.00  0.00     0.116 C 
BRANCH  27  28
ATOM     28  N   UNL A   1      32.731  31.564  26.954  1.00  0.00    -0.352 N 
ATOM     29  C   UNL A   1      33.636  32.285  27.709  1.00  0.00     0.251 C 
ATOM     30  H   UNL A   1      31.883  32.017  26.746  1.00  0.00     0.163 HD
ATOM     31  O   UNL A   1      33.352  33.415  28.102  1.00  0.00    -0.269 OA
BRANCH  29  32
ATOM     32  C   UNL A   1      34.930  31.668  28.088  1.00  0.00     0.039 A 
ATOM     33  C   UNL A   1      36.080  32.461  28.109  1.00  0.00     0.014 A 
ATOM     34  C   UNL A   1      34.993  30.335  28.500  1.00  0.00     0.014 A 
ATOM     35  C   UNL A   1      37.269  31.941  28.632  1.00  0.00     0.010 A 
ATOM     36  C   UNL A   1      36.147  29.854  29.112  1.00  0.00     0.010 A 
ATOM     37  C   UNL A   1      37.301  30.649  29.185  1.00  0.00    -0.014 A 
BRANCH  37  38
ATOM     38  C   UNL A   1      38.523  30.125  29.852  1.00  0.00     0.031 A 
ATOM     39  C   UNL A   1      38.927  30.629  31.214  1.00  0.00     0.074 A 
ATOM     40  C   UNL A   1      39.319  29.250  29.202  1.00  0.00     0.049 A 
ATOM     41  N   UNL A   1      39.952  30.282  31.950  1.00  0.00    -0.248 NA
ATOM     42  C   UNL A   1      38.091  31.680  31.816  1.00  0.00     0.031 C 
ATOM     43  C   UNL A   1      39.106  28.764  27.836  1.00  0.00     0.029 A 
ATOM     44  N   UNL A   1      40.477  28.625  29.596  1.00  0.00    -0.354 N 
ATOM     45  C   UNL A   1      39.902  31.092  33.079  1.00  0.00     0.074 A 
ATOM     46  C   UNL A   1      38.775  31.981  32.910  1.00  0.00     0.031 C 
ATOM     47  C   UNL A   1      40.085  27.902  27.517  1.00  0.00     0.029 A 
ATOM     48  C   UNL A   1      41.007  27.787  28.641  1.00  0.00     0.049 A 
ATOM     49  H   UNL A   1      40.890  28.764  30.478  1.00  0.00     0.167 HD
ATOM     50  C   UNL A   1      40.694  31.073  34.178  1.00  0.00     0.034 A 
ATOM     51  C   UNL A   1      42.103  27.003  28.672  1.00  0.00     0.034 A 
ATOM     52  C   UNL A   1      41.785  30.158  34.367  1.00  0.00     0.049 A 
ATOM     53  C   UNL A   1      42.923  26.944  29.934  1.00  0.00     0.074 A 
ATOM     54  C   UNL A   1      42.591  29.996  35.481  1.00  0.00     0.029 A 
ATOM     55  N   UNL A   1      42.227  29.248  33.419  1.00  0.00    -0.354 N 
ATOM     56  N   UNL A   1      42.752  27.591  31.061  1.00  0.00    -0.248 NA
ATOM     57  C   UNL A   1      44.059  26.010  29.946  1.00  0.00     0.031 C 
ATOM     58  C   UNL A   1      43.532  29.000  35.197  1.00  0.00     0.029 A 
ATOM     59  C   UNL A   1      43.294  28.522  33.919  1.00  0.00     0.049 A 
ATOM     60  H   UNL A   1      41.839  29.135  32.522  1.00  0.00     0.167 HD
ATOM     61  C   UNL A   1      43.728  27.113  31.928  1.00  0.00     0.074 A 
ATOM     62  C   UNL A   1      44.475  26.107  31.201  1.00  0.00     0.031 C 
ATOM     63  C   UNL A   1      43.992  27.482  33.206  1.00  0.00     0.034 A 
BRANCH  50  64
ATOM     64  C   UNL A   1      40.364  32.035  35.292  1.00  0.00     0.023 A 
ATOM     65  C   UNL A   1      41.110  33.226  35.422  1.00  0.00     0.012 A 
ATOM     66  C   UNL A   1      39.295  31.791  36.175  1.00  0.00     0.148 A 
ATOM     67  C   UNL A   1      40.824  34.138  36.437  1.00  0.00     0.002 A 
ATOM     68  C   UNL A   1      38.985  32.730  37.154  1.00  0.00     0.091 A 
ATOM     69  F   UNL A   1      38.609  30.647  36.050  1.00  0.00    -0.205 F 
ATOM     70  C   UNL A   1      39.756  33.895  37.295  1.00  0.00     0.022 A 
BRANCH  68  71
ATOM     71  S   UNL A   1      37.577  32.552  38.255  1.00  0.00     0.127 S 
ATOM     72  O   UNL A   1      37.609  31.118  38.546  1.00  0.00    -0.237 OA
ATOM     73  O   UNL A   1      37.953  33.410  39.379  1.00  0.00    -0.237 OA
ATOM     74  O   UNL A   1      36.418  33.011  37.503  1.00  0.00    -0.744 OA
ENDBRANCH  68  71
ENDBRANCH  50  64
BRANCH  51  75
ATOM     75  C   UNL A   1      42.434  26.134  27.507  1.00  0.00     0.023 A 
ATOM     76  C   UNL A   1      43.199  26.661  26.447  1.00  0.00     0.012 A 
ATOM     77  C   UNL A   1      42.022  24.789  27.451  1.00  0.00     0.148 A 
ATOM     78  C   UNL A   1      43.515  25.877  25.337  1.00  0.00     0.002 A 
ATOM     79  C   UNL A   1      42.388  23.997  26.368  1.00  0.00     0.091 A 
ATOM     80  F   UNL A   1      41.287  24.307  28.463  1.00  0.00    -0.205 F 
ATOM     81  C   UNL A   1      43.118  24.543  25.302  1.00  0.00     0.022 A 
BRANCH  79  82
ATOM     82  S   UNL A   1      42.036  22.237  26.299  1.00  0.00     0.127 S 
ATOM     83  O   UNL A   1      40.587  22.228  26.115  1.00  0.00    -0.237 OA
ATOM     84  O   UNL A   1      42.809  21.819  25.128  1.00  0.00    -0.237 OA
ATOM     85  O   UNL A   1      42.518  21.691  27.560  1.00  0.00    -0.744 OA
ENDBRANCH  79  82
ENDBRANCH  51  75
BRANCH  63  86
ATOM     86  C   UNL A   1      45.103  26.764  33.926  1.00  0.00     0.023 A 
ATOM     87  C   UNL A   1      46.421  27.260  33.862  1.00  0.00     0.012 A 
ATOM     88  C   UNL A   1      44.828  25.633  34.719  1.00  0.00     0.148 A 
ATOM     89  C   UNL A   1      47.454  26.614  34.541  1.00  0.00     0.002 A 
ATOM     90  C   UNL A   1      45.854  25.026  35.434  1.00  0.00     0.091 A 
ATOM     91  F   UNL A   1      43.572  25.163  34.753  1.00  0.00    -0.205 F 
ATOM     92  C   UNL A   1      47.169  25.506  35.335  1.00  0.00     0.022 A 
BRANCH  90  93
ATOM     93  S   UNL A   1      45.556  23.656  36.558  1.00  0.00     0.127 S 
ATOM     94  O   UNL A   1      46.908  23.348  37.019  1.00  0.00    -0.237 OA
ATOM     95  O   UNL A   1      44.690  24.263  37.569  1.00  0.00    -0.237 OA
ATOM     96  O   UNL A   1      44.912  22.620  35.760  1.00  0.00    -0.744 OA
ENDBRANCH  90  93
ENDBRANCH  63  86
ENDBRANCH  37  38
ENDBRANCH  29  32
ENDBRANCH  27  28
ENDBRANCH  26  27
ENDBRANCH   1  26
TORSDOF 18
ENDMDL
MODEL 2
REMARK VINA RESULT:     -12.1      4.898      9.888
REMARK SMILES CC[C@@]1(C(=O)NCCCCNC(=O)c2ccc(-c3c4nc(c(-c5cccc(S(=O)(=O)[O-])c5F)c5ccc([nH]5)c(-c5cccc(S(=O)(=O)[O-])c5F)c5nc(c(-c6cccc(S(=O)(=O)[O-])c6F)c6ccc3[nH]6)C=C5)C=C4)cc2)CCC[N@@H+](Cc2ccc(C3CC3)cc2)C1
REMARK SMILES IDX 8 1 7 2 6 3 4 4 5 5 3 7 77 8 91 9 78 10 80 11 79 12 2 14
REMARK SMILES IDX 1 15 81 16 82 17 83 18 90 19 84 20 89 21 85 22 86 23 87 24
REMARK SMILES IDX 88 25 9 26 10 27 11 28 12 29 13 31 14 32 15 33 76 34 16 35
REMARK SMILES IDX 75 36 17 37 18 38 19 39 69 40 20 41 74 42 68 43 70 44 21 45
REMARK SMILES IDX 73 46 67 47 66 48 22 50 54 51 34 52 53 53 35 54 38 55 52 56
REMARK SMILES IDX 71 57 36 58 37 59 51 61 72 62 39 63 23 64 24 65 32 66 25 67
REMARK SMILES IDX 27 68 33 69 26 70 28 71 29 72 30 73 31 74 55 75 56 76 64 77
REMARK SMILES IDX 57 78 59 79 65 80 58 81 60 82 61 83 62 84 63 85 40 86 41 87
REMARK SMILES IDX 49 88 42 89 44 90 50 91 43 92 45 93 46 94 47 95 48 96
REMARK H PARENT 6 6 80 13 11 30 70 49 38 60
REMARK Flexibility Score: inf
ROOT
ATOM      1  C   UNL A   1      35.791  23.592  23.796  1.00  0.00     0.023 C 
ENDROOT
BRANCH   1   2
ATOM      2  C   UNL A   1      34.549  24.012  24.572  1.00  0.00     0.116 C 
BRANCH   2   3
ATOM      3  N   UNL A   1      34.566  25.262  25.297  1.00  0.00    -0.355 N 
ATOM      4  C   UNL A   1      33.563  26.211  25.276  1.00  0.00     0.231 C 
ATOM      5  O   UNL A   1      33.270  26.692  26.380  1.00  0.00    -0.274 OA
ATOM      6  H   UNL A   1      35.357  25.454  25.852  1.00  0.00     0.163 HD
BRANCH   4   7
ATOM      7  C   UNL A   1      32.985  26.856  23.965  1.00  0.00     0.098 C 
ATOM      8  C   UNL A   1      32.021  28.049  24.274  1.00  0.00     0.028 C 
ATOM      9  C   UNL A   1      32.219  25.905  23.013  1.00  0.00     0.279 C 
ATOM     10  C   UNL A   1      30.577  27.645  24.596  1.00  0.00     0.063 C 
ATOM     11  N   UNL A   1      30.975  25.468  23.647  1.00  0.00    -0.330 N 
ATOM     12  C   UNL A   1      30.017  26.563  23.674  1.00  0.00     0.262 C 
ATOM     13  H   UNL A   1      31.304  25.233  24.584  1.00  0.00     0.348 HD
BRANCH   7  14
ATOM     14  C   UNL A   1      34.230  27.423  23.198  1.00  0.00     0.019 C 
ATOM     15  C   UNL A   1      33.960  28.588  22.237  1.00  0.00     0.005 C 
ENDBRANCH   7  14
BRANCH  11  16
ATOM     16  C   UNL A   1      30.403  24.144  23.425  1.00  0.00     0.299 C 
BRANCH  16  17
ATOM     17  C   UNL A   1      31.201  22.924  23.790  1.00  0.00     0.006 A 
ATOM     18  C   UNL A   1      31.310  22.539  25.127  1.00  0.00     0.010 A 
ATOM     19  C   UNL A   1      31.961  22.234  22.842  1.00  0.00     0.010 A 
ATOM     20  C   UNL A   1      32.089  21.436  25.486  1.00  0.00     0.004 A 
ATOM     21  C   UNL A   1      32.717  21.119  23.203  1.00  0.00     0.004 A 
ATOM     22  C   UNL A   1      32.775  20.670  24.529  1.00  0.00    -0.045 A 
BRANCH  22  23
ATOM     23  C   UNL A   1      33.508  19.414  24.947  1.00  0.00     0.019 C 
ATOM     24  C   UNL A   1      32.755  18.266  25.581  1.00  0.00     0.009 C 
ATOM     25  C   UNL A   1      33.341  18.113  24.205  1.00  0.00     0.009 C 
ENDBRANCH  22  23
ENDBRANCH  16  17
ENDBRANCH  11  16
ENDBRANCH   4   7
ENDBRANCH   2   3
ENDBRANCH   1   2
BRANCH   1  26
ATOM     26  C   UNL A   1      36.394  22.240  24.138  1.00  0.00     0.023 C 
BRANCH  26  27
ATOM     27  C   UNL A   1      37.048  22.104  25.507  1.00  0.00     0.116 C 
BRANCH  27  28
ATOM     28  N   UNL A   1      38.149  21.150  25.584  1.00  0.00    -0.352 N 
ATOM     29  C   UNL A   1      39.403  21.341  26.132  1.00  0.00     0.251 C 
ATOM     30  H   UNL A   1      37.978  20.261  25.198  1.00  0.00     0.163 HD
ATOM     31  O   UNL A   1      40.237  20.439  26.099  1.00  0.00    -0.269 OA
BRANCH  29  32
ATOM     32  C   UNL A   1      39.754  22.659  26.715  1.00  0.00     0.039 A 
ATOM     33  C   UNL A   1      40.691  22.717  27.749  1.00  0.00     0.014 A 
ATOM     34  C   UNL A   1      39.223  23.838  26.186  1.00  0.00     0.014 A 
ATOM     35  C   UNL A   1      41.163  23.960  28.186  1.00  0.00     0.010 A 
ATOM     36  C   UNL A   1      39.768  25.066  26.551  1.00  0.00     0.010 A 
ATOM     37  C   UNL A   1      40.742  25.144  27.557  1.00  0.00    -0.014 A 
BRANCH  37  38
ATOM     38  C   UNL A   1      41.323  26.463  27.928  1.00  0.00     0.031 A 
ATOM     39  C   UNL A   1      42.752  26.795  27.581  1.00  0.00     0.074 A 
ATOM     40  C   UNL A   1      40.591  27.338  28.649  1.00  0.00     0.049 A 
ATOM     41  N   UNL A   1      43.423  27.894  27.816  1.00  0.00    -0.248 NA
ATOM     42  C   UNL A   1      43.540  25.749  26.910  1.00  0.00     0.031 C 
ATOM     43  C   UNL A   1      39.235  27.099  29.149  1.00  0.00     0.029 A 
ATOM     44  N   UNL A   1      40.891  28.599  29.104  1.00  0.00    -0.354 N 
ATOM     45  C   UNL A   1      44.713  27.659  27.355  1.00  0.00     0.074 A 
ATOM     46  C   UNL A   1      44.746  26.297  26.871  1.00  0.00     0.031 C 
ATOM     47  C   UNL A   1      38.812  28.185  29.816  1.00  0.00     0.029 A 
ATOM     48  C   UNL A   1      39.870  29.189  29.815  1.00  0.00     0.049 A 
ATOM     49  H   UNL A   1      41.755  29.040  28.936  1.00  0.00     0.167 HD
ATOM     50  C   UNL A   1      45.766  28.509  27.298  1.00  0.00     0.034 A 
ATOM     51  C   UNL A   1      39.790  30.407  30.388  1.00  0.00     0.034 A 
ATOM     52  C   UNL A   1      45.721  29.876  27.737  1.00  0.00     0.049 A 
ATOM     53  C   UNL A   1      40.947  31.359  30.246  1.00  0.00     0.074 A 
ATOM     54  C   UNL A   1      46.704  30.846  27.640  1.00  0.00     0.029 A 
ATOM     55  N   UNL A   1      44.633  30.472  28.357  1.00  0.00    -0.354 N 
ATOM     56  N   UNL A   1      42.099  31.176  29.646  1.00  0.00    -0.248 NA
ATOM     57  C   UNL A   1      40.777  32.704  30.816  1.00  0.00     0.031 C 
ATOM     58  C   UNL A   1      46.216  32.022  28.219  1.00  0.00     0.029 A 
ATOM     59  C   UNL A   1      44.919  31.794  28.649  1.00  0.00     0.049 A 
ATOM     60  H   UNL A   1      43.782  30.021  28.558  1.00  0.00     0.167 HD
ATOM     61  C   UNL A   1      42.770  32.390  29.729  1.00  0.00     0.074 A 
ATOM     62  C   UNL A   1      41.888  33.309  30.419  1.00  0.00     0.031 C 
ATOM     63  C   UNL A   1      44.010  32.714  29.285  1.00  0.00     0.034 A 
BRANCH  50  64
ATOM     64  C   UNL A   1      47.043  27.996  26.681  1.00  0.00     0.023 A 
ATOM     65  C   UNL A   1      48.070  27.507  27.518  1.00  0.00     0.012 A 
ATOM     66  C   UNL A   1      47.212  27.951  25.284  1.00  0.00     0.148 A 
ATOM     67  C   UNL A   1      49.259  27.020  26.976  1.00  0.00     0.002 A 
ATOM     68  C   UNL A   1      48.382  27.419  24.750  1.00  0.00     0.091 A 
ATOM     69  F   UNL A   1      46.237  28.437  24.505  1.00  0.00    -0.205 F 
ATOM     70  C   UNL A   1      49.410  26.966  25.594  1.00  0.00     0.022 A 
BRANCH  68  71
ATOM     71  S   UNL A   1      48.639  27.226  22.983  1.00  0.00     0.127 S 
ATOM     72  O   UNL A   1      50.065  27.526  22.858  1.00  0.00    -0.237 OA
ATOM     73  O   UNL A   1      48.292  25.820  22.773  1.00  0.00    -0.237 OA
ATOM     74  O   UNL A   1      47.742  28.175  22.340  1.00  0.00    -0.744 OA
ENDBRANCH  68  71
ENDBRANCH  50  64
BRANCH  51  75
ATOM     75  C   UNL A   1      38.531  30.833  31.065  1.00  0.00     0.023 A 
ATOM     76  C   UNL A   1      38.380  30.607  32.448  1.00  0.00     0.012 A 
ATOM     77  C   UNL A   1      37.499  31.478  30.359  1.00  0.00     0.148 A 
ATOM     78  C   UNL A   1      37.209  30.983  33.108  1.00  0.00     0.002 A 
ATOM     79  C   UNL A   1      36.359  31.902  31.034  1.00  0.00     0.091 A 
ATOM     80  F   UNL A   1      37.656  31.676  29.043  1.00  0.00    -0.205 F 
ATOM     81  C   UNL A   1      36.203  31.638  32.403  1.00  0.00     0.022 A 
BRANCH  79  82
ATOM     82  S   UNL A   1      35.071  32.869  30.237  1.00  0.00     0.127 S 
ATOM     83  O   UNL A   1      34.158  33.125  31.348  1.00  0.00    -0.237 OA
ATOM     84  O   UNL A   1      35.817  34.039  29.770  1.00  0.00    -0.237 OA
ATOM     85  O   UNL A   1      34.551  32.026  29.170  1.00  0.00    -0.744 OA
ENDBRANCH  79  82
ENDBRANCH  51  75
BRANCH  63  86
ATOM     86  C   UNL A   1      44.476  34.132  29.484  1.00  0.00     0.023 A 
ATOM     87  C   UNL A   1      45.208  34.479  30.637  1.00  0.00     0.012 A 
ATOM     88  C   UNL A   1      44.241  35.108  28.496  1.00  0.00     0.148 A 
ATOM     89  C   UNL A   1      45.662  35.785  30.823  1.00  0.00     0.002 A 
ATOM     90  C   UNL A   1      44.741  36.394  28.664  1.00  0.00     0.091 A 
ATOM     91  F   UNL A   1      43.526  34.767  27.414  1.00  0.00    -0.205 F 
ATOM     92  C   UNL A   1      45.439  36.738  29.832  1.00  0.00     0.022 A 
BRANCH  90  93
ATOM     93  S   UNL A   1      44.584  37.655  27.393  1.00  0.00     0.127 S 
ATOM     94  O   UNL A   1      44.665  38.884  28.179  1.00  0.00    -0.237 OA
ATOM     95  O   UNL A   1      45.749  37.394  26.547  1.00  0.00    -0.237 OA
ATOM     96  O   UNL A   1      43.303  37.408  26.743  1.00  0.00    -0.744 OA
ENDBRANCH  90  93
ENDBRANCH  63  86
ENDBRANCH  37  38
ENDBRANCH  29  32
ENDBRANCH  27  28
ENDBRANCH  26  27
ENDBRANCH   1  26
TORSDOF 18
ENDMDL
MODEL 3
REMARK VINA RESULT:     -12.0      2.360      8.110
REMARK SMILES CC[C@@]1(C(=O)NCCCCNC(=O)c2ccc(-c3c4nc(c(-c5cccc(S(=O)(=O)[O-])c5F)c5ccc([nH]5)c(-c5cccc(S(=O)(=O)[O-])c5F)c5nc(c(-c6cccc(S(=O)(=O)[O-])c6F)c6ccc3[nH]6)C=C5)C=C4)cc2)CCC[N@@H+](Cc2ccc(C3CC3)cc2)C1
REMARK SMILES IDX 8 1 7 2 6 3 4 4 5 5 3 7 77 8 91 9 78 10 80 11 79 12 2 14
REMARK SMILES IDX 1 15 81 16 82 17 83 18 90 19 84 20 89 21 85 22 86 23 87 24
REMARK SMILES IDX 88 25 9 26 10 27 11 28 12 29 13 31 14 32 15 33 76 34 16 35
REMARK SMILES IDX 75 36 17 37 18 38 19 39 69 40 20 41 74 42 68 43 70 44 21 45
REMARK SMILES IDX 73 46 67 47 66 48 22 50 54 51 34 52 53 53 35 54 38 55 52 56
REMARK SMILES IDX 71 57 36 58 37 59 51 61 72 62 39 63 23 64 24 65 32 66 25 67
REMARK SMILES IDX 27 68 33 69 26 70 28 71 29 72 30 73 31 74 55 75 56 76 64 77
REMARK SMILES IDX 57 78 59 79 65 80 58 81 60 82 61 83 62 84 63 85 40 86 41 87
REMARK SMILES IDX 49 88 42 89 44 90 50 91 43 92 45 93 46 94 47 95 48 96
REMARK H PARENT 6 6 80 13 11 30 70 49 38 60
REMARK Flexibility Score: inf
ROOT
ATOM      1  C   UNL A   1      32.157  30.372  26.768  1.00  0.00     0.023 C 
ENDROOT
BRANCH   1   2
ATOM      2  C   UNL A   1      32.048  29.735  25.389  1.00  0.00     0.116 C 
BRANCH   2   3
ATOM      3  N   UNL A   1      33.016  28.732  25.003  1.00  0.00    -0.355 N 
ATOM      4  C   UNL A   1      32.818  27.762  24.041  1.00  0.00     0.231 C 
ATOM      5  O   UNL A   1      33.770  27.584  23.269  1.00  0.00    -0.274 OA
ATOM      6  H   UNL A   1      33.886  28.742  25.463  1.00  0.00     0.163 HD
BRANCH   4   7
ATOM      7  C   UNL A   1      31.612  26.754  24.038  1.00  0.00     0.098 C 
ATOM      8  C   UNL A   1      31.060  26.496  25.479  1.00  0.00     0.028 C 
ATOM      9  C   UNL A   1      31.883  25.363  23.415  1.00  0.00     0.279 C 
ATOM     10  C   UNL A   1      31.821  25.435  26.282  1.00  0.00     0.063 C 
ATOM     11  N   UNL A   1      32.828  24.622  24.252  1.00  0.00    -0.330 N 
ATOM     12  C   UNL A   1      32.174  24.185  25.477  1.00  0.00     0.262 C 
ATOM     13  H   UNL A   1      33.531  25.338  24.435  1.00  0.00     0.348 HD
BRANCH   7  14
ATOM     14  C   UNL A   1      30.485  27.456  23.205  1.00  0.00     0.019 C 
ATOM     15  C   UNL A   1      29.041  27.120  23.600  1.00  0.00     0.005 C 
ENDBRANCH   7  14
BRANCH  11  16
ATOM     16  C   UNL A   1      33.802  23.688  23.698  1.00  0.00     0.299 C 
BRANCH  16  17
ATOM     17  C   UNL A   1      33.547  22.209  23.794  1.00  0.00     0.006 A 
ATOM     18  C   UNL A   1      32.520  21.631  23.048  1.00  0.00     0.010 A 
ATOM     19  C   UNL A   1      34.219  21.409  24.722  1.00  0.00     0.010 A 
ATOM     20  C   UNL A   1      32.239  20.267  23.166  1.00  0.00     0.004 A 
ATOM     21  C   UNL A   1      33.950  20.044  24.818  1.00  0.00     0.004 A 
ATOM     22  C   UNL A   1      32.977  19.429  24.018  1.00  0.00    -0.045 A 
BRANCH  22  23
ATOM     23  C   UNL A   1      32.719  17.938  24.026  1.00  0.00     0.019 C 
ATOM     24  C   UNL A   1      33.666  16.997  23.318  1.00  0.00     0.009 C 
ATOM     25  C   UNL A   1      33.580  16.988  24.818  1.00  0.00     0.009 C 
ENDBRANCH  22  23
ENDBRANCH  16  17
ENDBRANCH  11  16
ENDBRANCH   4   7
ENDBRANCH   2   3
ENDBRANCH   1   2
BRANCH   1  26
ATOM     26  C   UNL A   1      31.831  31.852  26.872  1.00  0.00     0.023 C 
BRANCH  26  27
ATOM     27  C   UNL A   1      32.918  32.760  27.436  1.00  0.00     0.116 C 
BRANCH  27  28
ATOM     28  N   UNL A   1      32.508  34.131  27.715  1.00  0.00    -0.352 N 
ATOM     29  C   UNL A   1      33.075  35.022  28.607  1.00  0.00     0.251 C 
ATOM     30  H   UNL A   1      31.733  34.463  27.208  1.00  0.00     0.163 HD
ATOM     31  O   UNL A   1      32.596  36.146  28.748  1.00  0.00    -0.269 OA
BRANCH  29  32
ATOM     32  C   UNL A   1      34.232  34.598  29.431  1.00  0.00     0.039 A 
ATOM     33  C   UNL A   1      34.008  34.129  30.727  1.00  0.00     0.014 A 
ATOM     34  C   UNL A   1      35.523  34.585  28.897  1.00  0.00     0.014 A 
ATOM     35  C   UNL A   1      35.064  33.561  31.449  1.00  0.00     0.010 A 
ATOM     36  C   UNL A   1      36.546  33.930  29.576  1.00  0.00     0.010 A 
ATOM     37  C   UNL A   1      36.332  33.411  30.862  1.00  0.00    -0.014 A 
BRANCH  37  38
ATOM     38  C   UNL A   1      37.432  32.702  31.570  1.00  0.00     0.031 A 
ATOM     39  C   UNL A   1      38.147  31.549  30.915  1.00  0.00     0.074 A 
ATOM     40  C   UNL A   1      37.740  33.043  32.840  1.00  0.00     0.049 A 
ATOM     41  N   UNL A   1      39.132  30.821  31.376  1.00  0.00    -0.248 NA
ATOM     42  C   UNL A   1      37.677  31.139  29.582  1.00  0.00     0.031 C 
ATOM     43  C   UNL A   1      37.052  34.065  33.633  1.00  0.00     0.029 A 
ATOM     44  N   UNL A   1      38.699  32.555  33.693  1.00  0.00    -0.354 N 
ATOM     45  C   UNL A   1      39.374  29.852  30.409  1.00  0.00     0.074 A 
ATOM     46  C   UNL A   1      38.403  30.053  29.358  1.00  0.00     0.031 C 
ATOM     47  C   UNL A   1      37.627  34.144  34.844  1.00  0.00     0.029 A 
ATOM     48  C   UNL A   1      38.707  33.168  34.926  1.00  0.00     0.049 A 
ATOM     49  H   UNL A   1      39.323  31.835  33.446  1.00  0.00     0.167 HD
ATOM     50  C   UNL A   1      40.343  28.905  30.375  1.00  0.00     0.034 A 
ATOM     51  C   UNL A   1      39.503  32.974  35.997  1.00  0.00     0.034 A 
ATOM     52  C   UNL A   1      41.338  28.735  31.398  1.00  0.00     0.049 A 
ATOM     53  C   UNL A   1      40.620  31.968  35.904  1.00  0.00     0.074 A 
ATOM     54  C   UNL A   1      42.415  27.867  31.416  1.00  0.00     0.029 A 
ATOM     55  N   UNL A   1      41.378  29.446  32.587  1.00  0.00    -0.354 N 
ATOM     56  N   UNL A   1      40.943  31.183  34.906  1.00  0.00    -0.248 NA
ATOM     57  C   UNL A   1      41.512  31.856  37.068  1.00  0.00     0.031 C 
ATOM     58  C   UNL A   1      43.096  28.042  32.626  1.00  0.00     0.029 A 
ATOM     59  C   UNL A   1      42.460  29.038  33.347  1.00  0.00     0.049 A 
ATOM     60  H   UNL A   1      40.733  30.140  32.851  1.00  0.00     0.167 HD
ATOM     61  C   UNL A   1      42.097  30.516  35.302  1.00  0.00     0.074 A 
ATOM     62  C   UNL A   1      42.428  31.006  36.625  1.00  0.00     0.031 C 
ATOM     63  C   UNL A   1      42.812  29.575  34.637  1.00  0.00     0.034 A 
BRANCH  50  64
ATOM     64  C   UNL A   1      40.410  28.020  29.156  1.00  0.00     0.023 A 
ATOM     65  C   UNL A   1      39.482  26.966  29.014  1.00  0.00     0.012 A 
ATOM     66  C   UNL A   1      41.349  28.254  28.134  1.00  0.00     0.148 A 
ATOM     67  C   UNL A   1      39.514  26.135  27.894  1.00  0.00     0.002 A 
ATOM     68  C   UNL A   1      41.343  27.450  26.998  1.00  0.00     0.091 A 
ATOM     69  F   UNL A   1      42.235  29.246  28.293  1.00  0.00    -0.205 F 
ATOM     70  C   UNL A   1      40.436  26.384  26.883  1.00  0.00     0.022 A 
BRANCH  68  71
ATOM     71  S   UNL A   1      42.434  27.741  25.600  1.00  0.00     0.127 S 
ATOM     72  O   UNL A   1      42.203  26.544  24.793  1.00  0.00    -0.237 OA
ATOM     73  O   UNL A   1      41.885  28.973  25.033  1.00  0.00    -0.237 OA
ATOM     74  O   UNL A   1      43.773  27.872  26.156  1.00  0.00    -0.744 OA
ENDBRANCH  68  71
ENDBRANCH  50  64
BRANCH  51  75
ATOM     75  C   UNL A   1      39.338  33.820  37.213  1.00  0.00     0.023 A 
ATOM     76  C   UNL A   1      39.818  35.145  37.204  1.00  0.00     0.012 A 
ATOM     77  C   UNL A   1      38.691  33.334  38.365  1.00  0.00     0.148 A 
ATOM     78  C   UNL A   1      39.688  35.958  38.331  1.00  0.00     0.002 A 
ATOM     79  C   UNL A   1      38.515  34.168  39.464  1.00  0.00     0.091 A 
ATOM     80  F   UNL A   1      38.249  32.068  38.359  1.00  0.00    -0.205 F 
ATOM     81  C   UNL A   1      39.029  35.473  39.457  1.00  0.00     0.022 A 
BRANCH  79  82
ATOM     82  S   UNL A   1      37.564  33.673  40.906  1.00  0.00     0.127 S 
ATOM     83  O   UNL A   1      38.459  32.710  41.540  1.00  0.00    -0.237 OA
ATOM     84  O   UNL A   1      37.416  34.942  41.621  1.00  0.00    -0.237 OA
ATOM     85  O   UNL A   1      36.316  33.131  40.385  1.00  0.00    -0.744 OA
ENDBRANCH  79  82
ENDBRANCH  51  75
BRANCH  63  86
ATOM     86  C   UNL A   1      44.054  29.041  35.302  1.00  0.00     0.023 A 
ATOM     87  C   UNL A   1      45.302  29.647  35.053  1.00  0.00     0.012 A 
ATOM     88  C   UNL A   1      43.973  27.978  36.222  1.00  0.00     0.148 A 
ATOM     89  C   UNL A   1      46.456  29.174  35.679  1.00  0.00     0.002 A 
ATOM     90  C   UNL A   1      45.119  27.546  36.880  1.00  0.00     0.091 A 
ATOM     91  F   UNL A   1      42.781  27.401  36.432  1.00  0.00    -0.205 F 
ATOM     92  C   UNL A   1      46.362  28.133  36.599  1.00  0.00     0.022 A 
BRANCH  90  93
ATOM     93  S   UNL A   1      45.071  26.279  38.152  1.00  0.00     0.127 S 
ATOM     94  O   UNL A   1      44.603  25.117  37.400  1.00  0.00    -0.237 OA
ATOM     95  O   UNL A   1      46.469  26.208  38.577  1.00  0.00    -0.237 OA
ATOM     96  O   UNL A   1      44.158  26.776  39.174  1.00  0.00    -0.744 OA
ENDBRANCH  90  93
ENDBRANCH  63  86
ENDBRANCH  37  38
ENDBRANCH  29  32
ENDBRANCH  27  28
ENDBRANCH  26  27
ENDBRANCH   1  26
TORSDOF 18
ENDMDL
