MODEL 1
REMARK VINA RESULT:     -10.6      0.000      0.000
REMARK SMILES C[C@H]([NH2+]CCc1ccco1)[C@@H](C)C(=O)NCCCCNC(=O)c1ccc(-c2c3nc(c(-c4cccc(S(=O)(=O)[O-])c4F)c4ccc([nH]4)c(-c4cccc(S(=O)(=O)[O-])c4F)c4nc(c(-c5cccc(S(=O)(=O)[O-])c5F)c5ccc2[nH]5)C=C4)C=C3)cc1
REMARK SMILES IDX 16 1 15 2 13 3 14 4 11 6 12 7 2 8 1 9 3 10 4 13 5 14 6 15
REMARK SMILES IDX 7 16 10 17 8 18 9 19 17 20 18 21 19 22 20 23 21 24 22 26
REMARK SMILES IDX 23 27 24 28 85 29 25 30 84 31 26 32 27 33 28 34 78 35 29 36
REMARK SMILES IDX 83 37 77 38 79 39 30 40 82 41 76 42 75 43 31 45 63 46 43 47
REMARK SMILES IDX 62 48 44 49 47 50 61 51 80 52 45 53 46 54 60 56 81 57 48 58
REMARK SMILES IDX 32 59 33 60 41 61 34 62 36 63 42 64 35 65 37 66 38 67 39 68
REMARK SMILES IDX 40 69 64 70 65 71 73 72 66 73 68 74 74 75 67 76 69 77 70 78
REMARK SMILES IDX 71 79 72 80 49 81 50 82 58 83 51 84 53 85 59 86 52 87 54 88
REMARK SMILES IDX 55 89 56 90 57 91
REMARK H PARENT 15 5 3 11 3 12 20 25 79 44 47 55
REMARK Flexibility Score: inf
ROOT
ATOM      1  C   UNL A   1      36.431  21.905  25.766  1.00  0.00     0.116 C 
ENDROOT
BRANCH   1   2
ATOM      2  N   UNL A   1      35.351  21.987  26.734  1.00  0.00    -0.356 N 
ATOM      3  C   UNL A   1      34.195  22.707  26.730  1.00  0.00     0.228 C 
ATOM      4  O   UNL A   1      33.436  22.578  27.695  1.00  0.00    -0.275 OA
ATOM      5  H   UNL A   1      35.477  21.425  27.531  1.00  0.00     0.163 HD
BRANCH   3   6
ATOM      6  C   UNL A   1      33.811  23.634  25.573  1.00  0.00     0.133 C 
ATOM      7  C   UNL A   1      33.114  24.879  26.133  1.00  0.00     0.024 C 
BRANCH   6   8
ATOM      8  C   UNL A   1      33.082  22.863  24.445  1.00  0.00     0.191 C 
ATOM      9  C   UNL A   1      32.261  23.808  23.553  1.00  0.00     0.076 C 
BRANCH   8  10
ATOM     10  N   UNL A   1      32.255  21.719  24.841  1.00  0.00    -0.343 N 
ATOM     11  H   UNL A   1      31.291  21.936  24.585  1.00  0.00     0.346 HD
ATOM     12  H   UNL A   1      32.427  21.608  25.840  1.00  0.00     0.346 HD
BRANCH  10  13
ATOM     13  C   UNL A   1      32.579  20.419  24.260  1.00  0.00     0.268 C 
BRANCH  13  14
ATOM     14  C   UNL A   1      32.844  19.383  25.367  1.00  0.00     0.136 C 
BRANCH  14  15
ATOM     15  C   UNL A   1      33.294  18.063  24.841  1.00  0.00     0.109 A 
ATOM     16  C   UNL A   1      33.717  17.621  23.605  1.00  0.00     0.046 A 
ATOM     17  O   UNL A   1      33.328  17.033  25.736  1.00  0.00    -0.469 OA
ATOM     18  C   UNL A   1      34.020  16.246  23.754  1.00  0.00     0.042 A 
ATOM     19  C   UNL A   1      33.765  15.936  25.069  1.00  0.00     0.195 A 
ENDBRANCH  14  15
ENDBRANCH  13  14
ENDBRANCH  10  13
ENDBRANCH   8  10
ENDBRANCH   6   8
ENDBRANCH   3   6
ENDBRANCH   1   2
BRANCH   1  20
ATOM     20  C   UNL A   1      36.412  20.594  24.984  1.00  0.00     0.023 C 
BRANCH  20  21
ATOM     21  C   UNL A   1      37.787  19.989  24.710  1.00  0.00     0.023 C 
BRANCH  21  22
ATOM     22  C   UNL A   1      38.863  20.334  25.732  1.00  0.00     0.116 C 
BRANCH  22  23
ATOM     23  N   UNL A   1      39.855  19.280  25.899  1.00  0.00    -0.352 N 
ATOM     24  C   UNL A   1      41.196  19.388  26.171  1.00  0.00     0.251 C 
ATOM     25  H   UNL A   1      39.515  18.361  25.805  1.00  0.00     0.163 HD
ATOM     26  O   UNL A   1      41.904  18.384  26.160  1.00  0.00    -0.269 OA
BRANCH  24  27
ATOM     27  C   UNL A   1      41.789  20.715  26.440  1.00  0.00     0.039 A 
ATOM     28  C   UNL A   1      42.232  21.481  25.361  1.00  0.00     0.014 A 
ATOM     29  C   UNL A   1      41.884  21.214  27.743  1.00  0.00     0.014 A 
ATOM     30  C   UNL A   1      42.707  22.774  25.583  1.00  0.00     0.010 A 
ATOM     31  C   UNL A   1      42.278  22.533  27.953  1.00  0.00     0.010 A 
ATOM     32  C   UNL A   1      42.695  23.328  26.876  1.00  0.00    -0.014 A 
BRANCH  32  33
ATOM     33  C   UNL A   1      43.074  24.747  27.093  1.00  0.00     0.031 A 
ATOM     34  C   UNL A   1      42.112  25.720  27.720  1.00  0.00     0.074 A 
ATOM     35  C   UNL A   1      44.278  25.178  26.664  1.00  0.00     0.049 A 
ATOM     36  N   UNL A   1      42.296  26.980  28.016  1.00  0.00    -0.248 NA
ATOM     37  C   UNL A   1      40.761  25.224  28.028  1.00  0.00     0.031 C 
ATOM     38  C   UNL A   1      45.258  24.361  25.945  1.00  0.00     0.029 A 
ATOM     39  N   UNL A   1      44.875  26.409  26.755  1.00  0.00    -0.354 N 
ATOM     40  C   UNL A   1      41.082  27.435  28.517  1.00  0.00     0.074 A 
ATOM     41  C   UNL A   1      40.157  26.326  28.449  1.00  0.00     0.031 C 
ATOM     42  C   UNL A   1      46.342  25.107  25.678  1.00  0.00     0.029 A 
ATOM     43  C   UNL A   1      46.124  26.459  26.181  1.00  0.00     0.049 A 
ATOM     44  H   UNL A   1      44.451  27.184  27.188  1.00  0.00     0.167 HD
ATOM     45  C   UNL A   1      40.772  28.657  29.016  1.00  0.00     0.034 A 
ATOM     46  C   UNL A   1      47.001  27.477  26.074  1.00  0.00     0.034 A 
ATOM     47  C   UNL A   1      41.704  29.750  29.108  1.00  0.00     0.049 A 
ATOM     48  C   UNL A   1      46.658  28.803  26.693  1.00  0.00     0.074 A 
ATOM     49  C   UNL A   1      41.518  30.993  29.686  1.00  0.00     0.029 A 
ATOM     50  N   UNL A   1      42.992  29.739  28.594  1.00  0.00    -0.354 N 
ATOM     51  N   UNL A   1      45.569  29.160  27.329  1.00  0.00    -0.248 NA
ATOM     52  C   UNL A   1      47.682  29.853  26.619  1.00  0.00     0.031 C 
ATOM     53  C   UNL A   1      42.681  31.746  29.490  1.00  0.00     0.029 A 
ATOM     54  C   UNL A   1      43.608  30.958  28.827  1.00  0.00     0.049 A 
ATOM     55  H   UNL A   1      43.409  28.977  28.130  1.00  0.00     0.167 HD
ATOM     56  C   UNL A   1      45.788  30.463  27.759  1.00  0.00     0.074 A 
ATOM     57  C   UNL A   1      47.126  30.821  27.334  1.00  0.00     0.031 C 
ATOM     58  C   UNL A   1      44.952  31.294  28.432  1.00  0.00     0.034 A 
BRANCH  45  59
ATOM     59  C   UNL A   1      39.374  28.863  29.542  1.00  0.00     0.023 A 
ATOM     60  C   UNL A   1      39.057  28.473  30.859  1.00  0.00     0.012 A 
ATOM     61  C   UNL A   1      38.389  29.493  28.755  1.00  0.00     0.148 A 
ATOM     62  C   UNL A   1      37.775  28.666  31.371  1.00  0.00     0.002 A 
ATOM     63  C   UNL A   1      37.128  29.727  29.288  1.00  0.00     0.091 A 
ATOM     64  F   UNL A   1      38.700  29.839  27.497  1.00  0.00    -0.205 F 
ATOM     65  C   UNL A   1      36.814  29.303  30.590  1.00  0.00     0.022 A 
BRANCH  63  66
ATOM     66  S   UNL A   1      35.847  30.615  28.394  1.00  0.00     0.127 S 
ATOM     67  O   UNL A   1      34.876  30.880  29.455  1.00  0.00    -0.237 OA
ATOM     68  O   UNL A   1      36.567  31.797  27.920  1.00  0.00    -0.237 OA
ATOM     69  O   UNL A   1      35.394  29.717  27.341  1.00  0.00    -0.744 OA
ENDBRANCH  63  66
ENDBRANCH  45  59
BRANCH  46  70
ATOM     70  C   UNL A   1      48.317  27.253  25.413  1.00  0.00     0.023 A 
ATOM     71  C   UNL A   1      49.410  26.796  26.174  1.00  0.00     0.012 A 
ATOM     72  C   UNL A   1      48.477  27.452  24.028  1.00  0.00     0.148 A 
ATOM     73  C   UNL A   1      50.649  26.571  25.573  1.00  0.00     0.002 A 
ATOM     74  C   UNL A   1      49.697  27.169  23.426  1.00  0.00     0.091 A 
ATOM     75  F   UNL A   1      47.425  27.895  23.325  1.00  0.00    -0.205 F 
ATOM     76  C   UNL A   1      50.790  26.747  24.199  1.00  0.00     0.022 A 
BRANCH  74  77
ATOM     77  S   UNL A   1      49.930  27.232  21.647  1.00  0.00     0.127 S 
ATOM     78  O   UNL A   1      48.856  26.363  21.173  1.00  0.00    -0.237 OA
ATOM     79  O   UNL A   1      49.737  28.657  21.371  1.00  0.00    -0.237 OA
ATOM     80  O   UNL A   1      51.284  26.752  21.409  1.00  0.00    -0.744 OA
ENDBRANCH  74  77
ENDBRANCH  46  70
BRANCH  58  81
ATOM     81  C   UNL A   1      45.472  32.665  28.782  1.00  0.00     0.023 A 
ATOM     82  C   UNL A   1      46.187  32.864  29.980  1.00  0.00     0.012 A 
ATOM     83  C   UNL A   1      45.283  33.749  27.904  1.00  0.00     0.148 A 
ATOM     84  C   UNL A   1      46.663  34.130  30.321  1.00  0.00     0.002 A 
ATOM     85  C   UNL A   1      45.807  34.996  28.224  1.00  0.00     0.091 A 
ATOM     86  F   UNL A   1      44.584  33.549  26.778  1.00  0.00    -0.205 F 
ATOM     87  C   UNL A   1      46.482  35.193  29.440  1.00  0.00     0.022 A 
BRANCH  85  88
ATOM     88  S   UNL A   1      45.706  36.396  27.103  1.00  0.00     0.127 S 
ATOM     89  O   UNL A   1      46.404  37.434  27.859  1.00  0.00    -0.237 OA
ATOM     90  O   UNL A   1      46.430  35.907  25.928  1.00  0.00    -0.237 OA
ATOM     91  O   UNL A   1      44.286  36.628  26.880  1.00  0.00    -0.744 OA
ENDBRANCH  85  88
ENDBRANCH  58  81
ENDBRANCH  32  33
ENDBRANCH  24  27
ENDBRANCH  22  23
ENDBRANCH  21  22
ENDBRANCH  20  21
ENDBRANCH   1  20
TORSDOF 19
ENDMDL
MODEL 2
REMARK VINA RESULT:     -10.6      6.927     12.261
REMARK SMILES C[C@H]([NH2+]CCc1ccco1)[C@@H](C)C(=O)NCCCCNC(=O)c1ccc(-c2c3nc(c(-c4cccc(S(=O)(=O)[O-])c4F)c4ccc([nH]4)c(-c4cccc(S(=O)(=O)[O-])c4F)c4nc(c(-c5cccc(S(=O)(=O)[O-])c5F)c5ccc2[nH]5)C=C4)C=C3)cc1
REMARK SMILES IDX 16 1 15 2 13 3 14 4 11 6 12 7 2 8 1 9 3 10 4 13 5 14 6 15
REMARK SMILES IDX 7 16 10 17 8 18 9 19 17 20 18 21 19 22 20 23 21 24 22 26
REMARK SMILES IDX 23 27 24 28 85 29 25 30 84 31 26 32 27 33 28 34 78 35 29 36
REMARK SMILES IDX 83 37 77 38 79 39 30 40 82 41 76 42 75 43 31 45 63 46 43 47
REMARK SMILES IDX 62 48 44 49 47 50 61 51 80 52 45 53 46 54 60 56 81 57 48 58
REMARK SMILES IDX 32 59 33 60 41 61 34 62 36 63 42 64 35 65 37 66 38 67 39 68
REMARK SMILES IDX 40 69 64 70 65 71 73 72 66 73 68 74 74 75 67 76 69 77 70 78
REMARK SMILES IDX 71 79 72 80 49 81 50 82 58 83 51 84 53 85 59 86 52 87 54 88
REMARK SMILES IDX 55 89 56 90 57 91
REMARK H PARENT 15 5 3 11 3 12 20 25 79 44 47 55
REMARK Flexibility Score: inf
ROOT
ATOM      1  C   UNL A   1      32.778  29.369  26.913  1.00  0.00     0.116 C 
ENDROOT
BRANCH   1   2
ATOM      2  N   UNL A   1      33.515  28.439  26.076  1.00  0.00    -0.356 N 
ATOM      3  C   UNL A   1      33.175  27.218  25.575  1.00  0.00     0.228 C 
ATOM      4  O   UNL A   1      34.005  26.637  24.870  1.00  0.00    -0.275 OA
ATOM      5  H   UNL A   1      34.417  28.743  25.827  1.00  0.00     0.163 HD
BRANCH   3   6
ATOM      6  C   UNL A   1      31.812  26.575  25.839  1.00  0.00     0.133 C 
ATOM      7  C   UNL A   1      32.018  25.177  26.430  1.00  0.00     0.024 C 
BRANCH   6   8
ATOM      8  C   UNL A   1      30.880  26.691  24.607  1.00  0.00     0.191 C 
ATOM      9  C   UNL A   1      29.540  25.977  24.843  1.00  0.00     0.076 C 
BRANCH   8  10
ATOM     10  N   UNL A   1      31.430  26.288  23.310  1.00  0.00    -0.343 N 
ATOM     11  H   UNL A   1      31.055  25.365  23.093  1.00  0.00     0.346 HD
ATOM     12  H   UNL A   1      32.442  26.331  23.433  1.00  0.00     0.346 HD
BRANCH  10  13
ATOM     13  C   UNL A   1      31.158  27.151  22.163  1.00  0.00     0.268 C 
BRANCH  13  14
ATOM     14  C   UNL A   1      31.097  28.626  22.599  1.00  0.00     0.136 C 
BRANCH  14  15
ATOM     15  C   UNL A   1      29.748  29.236  22.421  1.00  0.00     0.109 A 
ATOM     16  C   UNL A   1      28.548  29.112  23.091  1.00  0.00     0.046 A 
ATOM     17  O   UNL A   1      29.615  30.126  21.396  1.00  0.00    -0.469 OA
ATOM     18  C   UNL A   1      27.634  29.972  22.435  1.00  0.00     0.042 A 
ATOM     19  C   UNL A   1      28.332  30.564  21.409  1.00  0.00     0.195 A 
ENDBRANCH  14  15
ENDBRANCH  13  14
ENDBRANCH  10  13
ENDBRANCH   8  10
ENDBRANCH   6   8
ENDBRANCH   3   6
ENDBRANCH   1   2
BRANCH   1  20
ATOM     20  C   UNL A   1      31.970  30.372  26.094  1.00  0.00     0.023 C 
BRANCH  20  21
ATOM     21  C   UNL A   1      31.678  31.693  26.802  1.00  0.00     0.023 C 
BRANCH  21  22
ATOM     22  C   UNL A   1      32.907  32.493  27.218  1.00  0.00     0.116 C 
BRANCH  22  23
ATOM     23  N   UNL A   1      32.602  33.874  27.565  1.00  0.00    -0.352 N 
ATOM     24  C   UNL A   1      33.155  34.663  28.544  1.00  0.00     0.251 C 
ATOM     25  H   UNL A   1      31.902  34.303  27.022  1.00  0.00     0.163 HD
ATOM     26  O   UNL A   1      32.684  35.775  28.770  1.00  0.00    -0.269 OA
BRANCH  24  27
ATOM     27  C   UNL A   1      34.288  34.157  29.346  1.00  0.00     0.039 A 
ATOM     28  C   UNL A   1      34.015  33.408  30.491  1.00  0.00     0.014 A 
ATOM     29  C   UNL A   1      35.610  34.394  28.959  1.00  0.00     0.014 A 
ATOM     30  C   UNL A   1      35.068  32.840  31.210  1.00  0.00     0.010 A 
ATOM     31  C   UNL A   1      36.653  33.757  29.627  1.00  0.00     0.010 A 
ATOM     32  C   UNL A   1      36.394  32.975  30.761  1.00  0.00    -0.014 A 
BRANCH  32  33
ATOM     33  C   UNL A   1      37.500  32.261  31.449  1.00  0.00     0.031 A 
ATOM     34  C   UNL A   1      38.232  31.131  30.775  1.00  0.00     0.074 A 
ATOM     35  C   UNL A   1      37.807  32.594  32.719  1.00  0.00     0.049 A 
ATOM     36  N   UNL A   1      39.244  30.430  31.216  1.00  0.00    -0.248 NA
ATOM     37  C   UNL A   1      37.750  30.716  29.448  1.00  0.00     0.031 C 
ATOM     38  C   UNL A   1      37.102  33.596  33.521  1.00  0.00     0.029 A 
ATOM     39  N   UNL A   1      38.778  32.117  33.563  1.00  0.00    -0.354 N 
ATOM     40  C   UNL A   1      39.502  29.476  30.240  1.00  0.00     0.074 A 
ATOM     41  C   UNL A   1      38.515  29.663  29.199  1.00  0.00     0.031 C 
ATOM     42  C   UNL A   1      37.675  33.675  34.732  1.00  0.00     0.029 A 
ATOM     43  C   UNL A   1      38.770  32.712  34.803  1.00  0.00     0.049 A 
ATOM     44  H   UNL A   1      39.419  31.417  33.306  1.00  0.00     0.167 HD
ATOM     45  C   UNL A   1      40.487  28.546  30.198  1.00  0.00     0.034 A 
ATOM     46  C   UNL A   1      39.555  32.509  35.878  1.00  0.00     0.034 A 
ATOM     47  C   UNL A   1      41.484  28.382  31.223  1.00  0.00     0.049 A 
ATOM     48  C   UNL A   1      40.682  31.517  35.782  1.00  0.00     0.074 A 
ATOM     49  C   UNL A   1      42.581  27.538  31.230  1.00  0.00     0.029 A 
ATOM     50  N   UNL A   1      41.498  29.061  32.432  1.00  0.00    -0.354 N 
ATOM     51  N   UNL A   1      41.023  30.752  34.775  1.00  0.00    -0.248 NA
ATOM     52  C   UNL A   1      41.558  31.395  36.955  1.00  0.00     0.031 C 
ATOM     53  C   UNL A   1      43.237  27.682  32.457  1.00  0.00     0.029 A 
ATOM     54  C   UNL A   1      42.573  28.646  33.199  1.00  0.00     0.049 A 
ATOM     55  H   UNL A   1      40.838  29.739  32.706  1.00  0.00     0.167 HD
ATOM     56  C   UNL A   1      42.171  30.080  35.179  1.00  0.00     0.074 A 
ATOM     57  C   UNL A   1      42.481  30.553  36.513  1.00  0.00     0.031 C 
ATOM     58  C   UNL A   1      42.895  29.147  34.511  1.00  0.00     0.034 A 
BRANCH  45  59
ATOM     59  C   UNL A   1      40.561  27.660  28.980  1.00  0.00     0.023 A 
ATOM     60  C   UNL A   1      39.616  26.627  28.807  1.00  0.00     0.012 A 
ATOM     61  C   UNL A   1      41.528  27.882  27.980  1.00  0.00     0.148 A 
ATOM     62  C   UNL A   1      39.657  25.805  27.682  1.00  0.00     0.002 A 
ATOM     63  C   UNL A   1      41.532  27.090  26.838  1.00  0.00     0.091 A 
ATOM     64  F   UNL A   1      42.432  28.854  28.169  1.00  0.00    -0.205 F 
ATOM     65  C   UNL A   1      40.607  26.043  26.693  1.00  0.00     0.022 A 
BRANCH  63  66
ATOM     66  S   UNL A   1      42.660  27.371  25.468  1.00  0.00     0.127 S 
ATOM     67  O   UNL A   1      43.921  27.610  26.170  1.00  0.00    -0.237 OA
ATOM     68  O   UNL A   1      42.596  26.098  24.750  1.00  0.00    -0.237 OA
ATOM     69  O   UNL A   1      42.127  28.510  24.734  1.00  0.00    -0.744 OA
ENDBRANCH  63  66
ENDBRANCH  45  59
BRANCH  46  70
ATOM     70  C   UNL A   1      39.344  33.316  37.112  1.00  0.00     0.023 A 
ATOM     71  C   UNL A   1      39.924  34.596  37.216  1.00  0.00     0.012 A 
ATOM     72  C   UNL A   1      38.537  32.839  38.164  1.00  0.00     0.148 A 
ATOM     73  C   UNL A   1      39.731  35.373  38.359  1.00  0.00     0.002 A 
ATOM     74  C   UNL A   1      38.301  33.642  39.272  1.00  0.00     0.091 A 
ATOM     75  F   UNL A   1      38.002  31.616  38.046  1.00  0.00    -0.205 F 
ATOM     76  C   UNL A   1      38.912  34.901  39.381  1.00  0.00     0.022 A 
BRANCH  74  77
ATOM     77  S   UNL A   1      37.150  33.177  40.570  1.00  0.00     0.127 S 
ATOM     78  O   UNL A   1      37.827  32.031  41.173  1.00  0.00    -0.237 OA
ATOM     79  O   UNL A   1      37.125  34.385  41.396  1.00  0.00    -0.237 OA
ATOM     80  O   UNL A   1      35.893  32.885  39.895  1.00  0.00    -0.744 OA
ENDBRANCH  74  77
ENDBRANCH  46  70
BRANCH  58  81
ATOM     81  C   UNL A   1      44.117  28.595  35.200  1.00  0.00     0.023 A 
ATOM     82  C   UNL A   1      45.391  29.119  34.904  1.00  0.00     0.012 A 
ATOM     83  C   UNL A   1      43.998  27.582  36.171  1.00  0.00     0.148 A 
ATOM     84  C   UNL A   1      46.531  28.609  35.525  1.00  0.00     0.002 A 
ATOM     85  C   UNL A   1      45.132  27.116  36.826  1.00  0.00     0.091 A 
ATOM     86  F   UNL A   1      42.781  27.080  36.428  1.00  0.00    -0.205 F 
ATOM     87  C   UNL A   1      46.401  27.616  36.493  1.00  0.00     0.022 A 
BRANCH  85  88
ATOM     88  S   UNL A   1      45.044  25.910  38.154  1.00  0.00     0.127 S 
ATOM     89  O   UNL A   1      44.547  24.729  37.452  1.00  0.00    -0.237 OA
ATOM     90  O   UNL A   1      46.440  25.819  38.586  1.00  0.00    -0.237 OA
ATOM     91  O   UNL A   1      44.143  26.475  39.149  1.00  0.00    -0.744 OA
ENDBRANCH  85  88
ENDBRANCH  58  81
ENDBRANCH  32  33
ENDBRANCH  24  27
ENDBRANCH  22  23
ENDBRANCH  21  22
ENDBRANCH  20  21
ENDBRANCH   1  20
TORSDOF 19
ENDMDL
MODEL 3
REMARK VINA RESULT:     -10.5      5.610      8.647
REMARK SMILES C[C@H]([NH2+]CCc1ccco1)[C@@H](C)C(=O)NCCCCNC(=O)c1ccc(-c2c3nc(c(-c4cccc(S(=O)(=O)[O-])c4F)c4ccc([nH]4)c(-c4cccc(S(=O)(=O)[O-])c4F)c4nc(c(-c5cccc(S(=O)(=O)[O-])c5F)c5ccc2[nH]5)C=C4)C=C3)cc1
REMARK SMILES IDX 16 1 15 2 13 3 14 4 11 6 12 7 2 8 1 9 3 10 4 13 5 14 6 15
REMARK SMILES IDX 7 16 10 17 8 18 9 19 17 20 18 21 19 22 20 23 21 24 22 26
REMARK SMILES IDX 23 27 24 28 85 29 25 30 84 31 26 32 27 33 28 34 78 35 29 36
REMARK SMILES IDX 83 37 77 38 79 39 30 40 82 41 76 42 75 43 31 45 63 46 43 47
REMARK SMILES IDX 62 48 44 49 47 50 61 51 80 52 45 53 46 54 60 56 81 57 48 58
REMARK SMILES IDX 32 59 33 60 41 61 34 62 36 63 42 64 35 65 37 66 38 67 39 68
REMARK SMILES IDX 40 69 64 70 65 71 73 72 66 73 68 74 74 75 67 76 69 77 70 78
REMARK SMILES IDX 71 79 72 80 49 81 50 82 58 83 51 84 53 85 59 86 52 87 54 88
REMARK SMILES IDX 55 89 56 90 57 91
REMARK H PARENT 15 5 3 11 3 12 20 25 79 44 47 55
REMARK Flexibility Score: inf
ROOT
ATOM      1  C   UNL A   1      32.608  27.082  24.179  1.00  0.00     0.116 C 
ENDROOT
BRANCH   1   2
ATOM      2  N   UNL A   1      33.297  26.197  23.257  1.00  0.00    -0.356 N 
ATOM      3  C   UNL A   1      33.835  24.958  23.435  1.00  0.00     0.228 C 
ATOM      4  O   UNL A   1      34.364  24.417  22.460  1.00  0.00    -0.275 OA
ATOM      5  H   UNL A   1      33.393  26.554  22.346  1.00  0.00     0.163 HD
BRANCH   3   6
ATOM      6  C   UNL A   1      33.779  24.226  24.778  1.00  0.00     0.133 C 
ATOM      7  C   UNL A   1      35.199  24.085  25.337  1.00  0.00     0.024 C 
BRANCH   6   8
ATOM      8  C   UNL A   1      32.924  22.938  24.689  1.00  0.00     0.191 C 
ATOM      9  C   UNL A   1      31.447  23.259  24.409  1.00  0.00     0.076 C 
BRANCH   8  10
ATOM     10  N   UNL A   1      33.018  21.992  25.804  1.00  0.00    -0.343 N 
ATOM     11  H   UNL A   1      32.076  21.856  26.170  1.00  0.00     0.346 HD
ATOM     12  H   UNL A   1      33.681  22.419  26.451  1.00  0.00     0.346 HD
BRANCH  10  13
ATOM     13  C   UNL A   1      33.572  20.670  25.523  1.00  0.00     0.268 C 
BRANCH  13  14
ATOM     14  C   UNL A   1      32.528  19.783  24.823  1.00  0.00     0.136 C 
BRANCH  14  15
ATOM     15  C   UNL A   1      32.959  18.361  24.689  1.00  0.00     0.109 A 
ATOM     16  C   UNL A   1      33.649  17.661  23.722  1.00  0.00     0.046 A 
ATOM     17  O   UNL A   1      32.637  17.530  25.722  1.00  0.00    -0.469 OA
ATOM     18  C   UNL A   1      33.751  16.328  24.191  1.00  0.00     0.042 A 
ATOM     19  C   UNL A   1      33.117  16.300  25.410  1.00  0.00     0.195 A 
ENDBRANCH  14  15
ENDBRANCH  13  14
ENDBRANCH  10  13
ENDBRANCH   8  10
ENDBRANCH   6   8
ENDBRANCH   3   6
ENDBRANCH   1   2
BRANCH   1  20
ATOM     20  C   UNL A   1      33.574  27.943  24.989  1.00  0.00     0.023 C 
BRANCH  20  21
ATOM     21  C   UNL A   1      33.123  29.385  25.205  1.00  0.00     0.023 C 
BRANCH  21  22
ATOM     22  C   UNL A   1      32.762  29.745  26.642  1.00  0.00     0.116 C 
BRANCH  22  23
ATOM     23  N   UNL A   1      32.715  31.182  26.879  1.00  0.00    -0.352 N 
ATOM     24  C   UNL A   1      33.620  31.981  27.533  1.00  0.00     0.251 C 
ATOM     25  H   UNL A   1      31.924  31.645  26.520  1.00  0.00     0.163 HD
ATOM     26  O   UNL A   1      33.353  33.162  27.741  1.00  0.00    -0.269 OA
BRANCH  24  27
ATOM     27  C   UNL A   1      34.894  31.409  28.016  1.00  0.00     0.039 A 
ATOM     28  C   UNL A   1      36.009  32.243  28.111  1.00  0.00     0.014 A 
ATOM     29  C   UNL A   1      34.985  30.067  28.400  1.00  0.00     0.014 A 
ATOM     30  C   UNL A   1      37.196  31.748  28.654  1.00  0.00     0.010 A 
ATOM     31  C   UNL A   1      36.142  29.600  29.018  1.00  0.00     0.010 A 
ATOM     32  C   UNL A   1      37.261  30.434  29.151  1.00  0.00    -0.014 A 
BRANCH  32  33
ATOM     33  C   UNL A   1      38.479  29.950  29.848  1.00  0.00     0.031 A 
ATOM     34  C   UNL A   1      38.845  30.461  31.216  1.00  0.00     0.074 A 
ATOM     35  C   UNL A   1      39.299  29.087  29.215  1.00  0.00     0.049 A 
ATOM     36  N   UNL A   1      39.849  30.116  31.980  1.00  0.00    -0.248 NA
ATOM     37  C   UNL A   1      37.992  31.514  31.790  1.00  0.00     0.031 C 
ATOM     38  C   UNL A   1      39.115  28.599  27.846  1.00  0.00     0.029 A 
ATOM     39  N   UNL A   1      40.456  28.478  29.630  1.00  0.00    -0.354 N 
ATOM     40  C   UNL A   1      39.766  30.924  33.107  1.00  0.00     0.074 A 
ATOM     41  C   UNL A   1      38.637  31.805  32.910  1.00  0.00     0.031 C 
ATOM     42  C   UNL A   1      40.110  27.752  27.542  1.00  0.00     0.029 A 
ATOM     43  C   UNL A   1      41.017  27.656  28.681  1.00  0.00     0.049 A 
ATOM     44  H   UNL A   1      40.848  28.617  30.522  1.00  0.00     0.167 HD
ATOM     45  C   UNL A   1      40.543  30.916  34.218  1.00  0.00     0.034 A 
ATOM     46  C   UNL A   1      42.135  26.906  28.721  1.00  0.00     0.034 A 
ATOM     47  C   UNL A   1      41.649  30.018  34.421  1.00  0.00     0.049 A 
ATOM     48  C   UNL A   1      42.942  26.865  29.989  1.00  0.00     0.074 A 
ATOM     49  C   UNL A   1      42.435  29.862  35.550  1.00  0.00     0.029 A 
ATOM     50  N   UNL A   1      42.139  29.136  33.471  1.00  0.00    -0.354 N 
ATOM     51  N   UNL A   1      42.740  27.503  31.116  1.00  0.00    -0.248 NA
ATOM     52  C   UNL A   1      44.105  25.967  30.006  1.00  0.00     0.031 C 
ATOM     53  C   UNL A   1      43.422  28.912  35.269  1.00  0.00     0.029 A 
ATOM     54  C   UNL A   1      43.226  28.444  33.980  1.00  0.00     0.049 A 
ATOM     55  H   UNL A   1      41.770  29.019  32.566  1.00  0.00     0.167 HD
ATOM     56  C   UNL A   1      43.730  27.061  31.987  1.00  0.00     0.074 A 
ATOM     57  C   UNL A   1      44.512  26.080  31.263  1.00  0.00     0.031 C 
ATOM     58  C   UNL A   1      43.977  27.444  33.265  1.00  0.00     0.034 A 
BRANCH  45  59
ATOM     59  C   UNL A   1      40.194  31.883  35.321  1.00  0.00     0.023 A 
ATOM     60  C   UNL A   1      40.897  33.100  35.435  1.00  0.00     0.012 A 
ATOM     61  C   UNL A   1      39.135  31.615  36.212  1.00  0.00     0.148 A 
ATOM     62  C   UNL A   1      40.583  34.015  36.438  1.00  0.00     0.002 A 
ATOM     63  C   UNL A   1      38.794  32.554  37.178  1.00  0.00     0.091 A 
ATOM     64  F   UNL A   1      38.490  30.445  36.104  1.00  0.00    -0.205 F 
ATOM     65  C   UNL A   1      39.525  33.747  37.303  1.00  0.00     0.022 A 
BRANCH  63  66
ATOM     66  S   UNL A   1      37.394  32.341  38.284  1.00  0.00     0.127 S 
ATOM     67  O   UNL A   1      37.882  32.984  39.504  1.00  0.00    -0.237 OA
ATOM     68  O   UNL A   1      36.339  33.077  37.589  1.00  0.00    -0.237 OA
ATOM     69  O   UNL A   1      37.171  30.905  38.380  1.00  0.00    -0.744 OA
ENDBRANCH  63  66
ENDBRANCH  45  59
BRANCH  46  70
ATOM     70  C   UNL A   1      42.512  26.076  27.542  1.00  0.00     0.023 A 
ATOM     71  C   UNL A   1      43.353  26.617  26.550  1.00  0.00     0.012 A 
ATOM     72  C   UNL A   1      42.075  24.743  27.422  1.00  0.00     0.148 A 
ATOM     73  C   UNL A   1      43.726  25.855  25.442  1.00  0.00     0.002 A 
ATOM     74  C   UNL A   1      42.498  23.971  26.347  1.00  0.00     0.091 A 
ATOM     75  F   UNL A   1      41.269  24.252  28.374  1.00  0.00    -0.205 F 
ATOM     76  C   UNL A   1      43.308  24.530  25.346  1.00  0.00     0.022 A 
BRANCH  74  77
ATOM     77  S   UNL A   1      42.125  22.220  26.214  1.00  0.00     0.127 S 
ATOM     78  O   UNL A   1      42.670  21.702  27.467  1.00  0.00    -0.237 OA
ATOM     79  O   UNL A   1      40.664  22.231  26.134  1.00  0.00    -0.237 OA
ATOM     80  O   UNL A   1      42.789  21.766  25.000  1.00  0.00    -0.744 OA
ENDBRANCH  74  77
ENDBRANCH  46  70
BRANCH  58  81
ATOM     81  C   UNL A   1      45.124  26.774  33.978  1.00  0.00     0.023 A 
ATOM     82  C   UNL A   1      46.414  27.339  33.927  1.00  0.00     0.012 A 
ATOM     83  C   UNL A   1      44.914  25.603  34.732  1.00  0.00     0.148 A 
ATOM     84  C   UNL A   1      47.486  26.722  34.573  1.00  0.00     0.002 A 
ATOM     85  C   UNL A   1      45.975  25.024  35.417  1.00  0.00     0.091 A 
ATOM     86  F   UNL A   1      43.686  25.066  34.754  1.00  0.00    -0.205 F 
ATOM     87  C   UNL A   1      47.265  25.571  35.326  1.00  0.00     0.022 A 
BRANCH  85  88
ATOM     88  S   UNL A   1      45.761  23.598  36.489  1.00  0.00     0.127 S 
ATOM     89  O   UNL A   1      45.143  22.633  35.582  1.00  0.00    -0.237 OA
ATOM     90  O   UNL A   1      47.139  23.283  36.869  1.00  0.00    -0.237 OA
ATOM     91  O   UNL A   1      44.923  24.050  37.592  1.00  0.00    -0.744 OA
ENDBRANCH  85  88
ENDBRANCH  58  81
ENDBRANCH  32  33
ENDBRANCH  24  27
ENDBRANCH  22  23
ENDBRANCH  21  22
ENDBRANCH  20  21
ENDBRANCH   1  20
TORSDOF 19
ENDMDL
