MODEL 1
REMARK VINA RESULT:     -12.0      0.000      0.000
REMARK SMILES C[C@@H](C(=O)NCCCCNC(=O)c1ccc(-c2c3nc(c(-c4cccc(S(=O)(=O)[O-])c4F)c4ccc([nH]4)c(-c4cccc(S(=O)(=O)[O-])c4F)c4nc(c(-c5cccc(S(=O)(=O)[O-])c5F)c5ccc2[nH]5)C=C4)C=C3)cc1)c1ccc(Cc2ccco2)cc1F
REMARK SMILES IDX 7 1 6 2 5 3 3 4 4 5 2 7 1 8 76 9 77 10 87 11 78 12 86 13
REMARK SMILES IDX 88 14 79 15 80 16 81 17 82 18 85 19 83 20 84 21 8 22 9 23
REMARK SMILES IDX 10 24 11 25 12 27 13 28 14 29 75 30 15 31 74 32 16 33 17 34
REMARK SMILES IDX 18 35 68 36 19 37 73 38 67 39 69 40 20 41 72 42 66 43 65 44
REMARK SMILES IDX 21 46 53 47 33 48 52 49 34 50 37 51 51 52 70 53 35 54 36 55
REMARK SMILES IDX 50 57 71 58 38 59 22 60 23 61 31 62 24 63 26 64 32 65 25 66
REMARK SMILES IDX 27 67 28 68 29 69 30 70 54 71 55 72 63 73 56 74 58 75 64 76
REMARK SMILES IDX 57 77 59 78 60 79 61 80 62 81 39 82 40 83 48 84 41 85 43 86
REMARK SMILES IDX 49 87 42 88 44 89 45 90 46 91 47 92
REMARK H PARENT 5 6 10 26 69 45 37 56
REMARK Flexibility Score: inf
ROOT
ATOM      1  C   UNL A   1      36.580  23.270  23.749  1.00  0.00     0.023 C 
ENDROOT
BRANCH   1   2
ATOM      2  C   UNL A   1      35.215  23.940  23.911  1.00  0.00     0.116 C 
BRANCH   2   3
ATOM      3  N   UNL A   1      34.801  24.015  25.296  1.00  0.00    -0.356 N 
ATOM      4  C   UNL A   1      33.577  23.817  25.871  1.00  0.00     0.227 C 
ATOM      5  O   UNL A   1      33.539  23.821  27.104  1.00  0.00    -0.274 OA
ATOM      6  H   UNL A   1      35.520  24.247  25.929  1.00  0.00     0.163 HD
BRANCH   4   7
ATOM      7  C   UNL A   1      32.348  23.516  24.996  1.00  0.00     0.108 C 
ATOM      8  C   UNL A   1      31.016  23.804  25.698  1.00  0.00     0.023 C 
BRANCH   7   9
ATOM      9  C   UNL A   1      32.337  22.084  24.474  1.00  0.00    -0.000 A 
ATOM     10  C   UNL A   1      32.522  21.008  25.351  1.00  0.00     0.008 A 
ATOM     11  C   UNL A   1      32.178  21.805  23.111  1.00  0.00     0.127 A 
ATOM     12  C   UNL A   1      32.572  19.697  24.867  1.00  0.00     0.005 A 
ATOM     13  C   UNL A   1      32.236  20.502  22.620  1.00  0.00     0.043 A 
ATOM     14  F   UNL A   1      31.999  22.803  22.235  1.00  0.00    -0.207 F 
ATOM     15  C   UNL A   1      32.446  19.429  23.494  1.00  0.00    -0.038 A 
BRANCH  15  16
ATOM     16  C   UNL A   1      32.551  18.018  22.964  1.00  0.00     0.111 C 
BRANCH  16  17
ATOM     17  C   UNL A   1      33.341  17.111  23.845  1.00  0.00     0.108 A 
ATOM     18  C   UNL A   1      34.693  16.941  24.075  1.00  0.00     0.046 A 
ATOM     19  O   UNL A   1      32.631  16.260  24.641  1.00  0.00    -0.469 OA
ATOM     20  C   UNL A   1      34.813  15.925  25.052  1.00  0.00     0.042 A 
ATOM     21  C   UNL A   1      33.530  15.543  25.364  1.00  0.00     0.195 A 
ENDBRANCH  16  17
ENDBRANCH  15  16
ENDBRANCH   7   9
ENDBRANCH   4   7
ENDBRANCH   2   3
ENDBRANCH   1   2
BRANCH   1  22
ATOM     22  C   UNL A   1      36.655  21.823  24.241  1.00  0.00     0.023 C 
BRANCH  22  23
ATOM     23  C   UNL A   1      37.213  21.628  25.649  1.00  0.00     0.116 C 
BRANCH  23  24
ATOM     24  N   UNL A   1      38.332  20.697  25.699  1.00  0.00    -0.352 N 
ATOM     25  C   UNL A   1      39.613  20.906  26.153  1.00  0.00     0.251 C 
ATOM     26  H   UNL A   1      38.145  19.792  25.360  1.00  0.00     0.163 HD
ATOM     27  O   UNL A   1      40.465  20.032  26.020  1.00  0.00    -0.269 OA
BRANCH  25  28
ATOM     28  C   UNL A   1      39.968  22.203  26.768  1.00  0.00     0.039 A 
ATOM     29  C   UNL A   1      40.866  22.218  27.840  1.00  0.00     0.014 A 
ATOM     30  C   UNL A   1      39.457  23.399  26.258  1.00  0.00     0.014 A 
ATOM     31  C   UNL A   1      41.328  23.440  28.337  1.00  0.00     0.010 A 
ATOM     32  C   UNL A   1      39.960  24.614  26.717  1.00  0.00     0.010 A 
ATOM     33  C   UNL A   1      40.917  24.646  27.744  1.00  0.00    -0.014 A 
BRANCH  33  34
ATOM     34  C   UNL A   1      41.538  25.944  28.114  1.00  0.00     0.031 A 
ATOM     35  C   UNL A   1      40.715  27.037  28.736  1.00  0.00     0.074 A 
ATOM     36  C   UNL A   1      42.817  26.182  27.758  1.00  0.00     0.049 A 
ATOM     37  N   UNL A   1      41.060  28.266  29.017  1.00  0.00    -0.248 NA
ATOM     38  C   UNL A   1      39.315  26.719  29.060  1.00  0.00     0.031 C 
ATOM     39  C   UNL A   1      43.693  25.232  27.068  1.00  0.00     0.029 A 
ATOM     40  N   UNL A   1      43.588  27.312  27.880  1.00  0.00    -0.354 N 
ATOM     41  C   UNL A   1      39.917  28.881  29.510  1.00  0.00     0.074 A 
ATOM     42  C   UNL A   1      38.861  27.892  29.482  1.00  0.00     0.031 C 
ATOM     43  C   UNL A   1      44.870  25.824  26.808  1.00  0.00     0.029 A 
ATOM     44  C   UNL A   1      44.825  27.202  27.284  1.00  0.00     0.049 A 
ATOM     45  H   UNL A   1      43.285  28.123  28.349  1.00  0.00     0.167 HD
ATOM     46  C   UNL A   1      39.768  30.148  29.965  1.00  0.00     0.034 A 
ATOM     47  C   UNL A   1      45.803  28.113  27.116  1.00  0.00     0.034 A 
ATOM     48  C   UNL A   1      40.835  31.109  30.048  1.00  0.00     0.049 A 
ATOM     49  C   UNL A   1      45.617  29.501  27.668  1.00  0.00     0.074 A 
ATOM     50  C   UNL A   1      40.812  32.365  30.628  1.00  0.00     0.029 A 
ATOM     51  N   UNL A   1      42.103  30.932  29.524  1.00  0.00    -0.354 N 
ATOM     52  N   UNL A   1      44.596  29.996  28.323  1.00  0.00    -0.248 NA
ATOM     53  C   UNL A   1      46.727  30.447  27.481  1.00  0.00     0.031 C 
ATOM     54  C   UNL A   1      42.063  32.959  30.433  1.00  0.00     0.029 A 
ATOM     55  C   UNL A   1      42.866  32.067  29.742  1.00  0.00     0.049 A 
ATOM     56  H   UNL A   1      42.418  30.120  29.064  1.00  0.00     0.167 HD
ATOM     57  C   UNL A   1      44.948  31.302  28.646  1.00  0.00     0.074 A 
ATOM     58  C   UNL A   1      46.290  31.511  28.142  1.00  0.00     0.031 C 
ATOM     59  C   UNL A   1      44.218  32.249  29.282  1.00  0.00     0.034 A 
BRANCH  46  60
ATOM     60  C   UNL A   1      38.415  30.565  30.476  1.00  0.00     0.023 A 
ATOM     61  C   UNL A   1      38.082  30.323  31.822  1.00  0.00     0.012 A 
ATOM     62  C   UNL A   1      37.527  31.290  29.658  1.00  0.00     0.148 A 
ATOM     63  C   UNL A   1      36.875  30.786  32.347  1.00  0.00     0.002 A 
ATOM     64  C   UNL A   1      36.342  31.779  30.197  1.00  0.00     0.091 A 
ATOM     65  F   UNL A   1      37.858  31.491  28.375  1.00  0.00    -0.205 F 
ATOM     66  C   UNL A   1      36.014  31.522  31.539  1.00  0.00     0.022 A 
BRANCH  64  67
ATOM     67  S   UNL A   1      35.195  32.798  29.263  1.00  0.00     0.127 S 
ATOM     68  O   UNL A   1      34.050  32.859  30.171  1.00  0.00    -0.237 OA
ATOM     69  O   UNL A   1      35.936  34.053  29.133  1.00  0.00    -0.237 OA
ATOM     70  O   UNL A   1      34.959  32.095  28.011  1.00  0.00    -0.744 OA
ENDBRANCH  64  67
ENDBRANCH  46  60
BRANCH  47  71
ATOM     71  C   UNL A   1      47.068  27.734  26.425  1.00  0.00     0.023 A 
ATOM     72  C   UNL A   1      48.145  27.235  27.181  1.00  0.00     0.012 A 
ATOM     73  C   UNL A   1      47.206  27.851  25.029  1.00  0.00     0.148 A 
ATOM     74  C   UNL A   1      49.349  26.890  26.564  1.00  0.00     0.002 A 
ATOM     75  C   UNL A   1      48.388  27.455  24.414  1.00  0.00     0.091 A 
ATOM     76  F   UNL A   1      46.179  28.350  24.325  1.00  0.00    -0.205 F 
ATOM     77  C   UNL A   1      49.466  26.989  25.180  1.00  0.00     0.022 A 
BRANCH  75  78
ATOM     78  S   UNL A   1      48.556  27.424  22.626  1.00  0.00     0.127 S 
ATOM     79  O   UNL A   1      48.367  26.007  22.330  1.00  0.00    -0.237 OA
ATOM     80  O   UNL A   1      47.462  28.295  22.195  1.00  0.00    -0.237 OA
ATOM     81  O   UNL A   1      49.882  27.967  22.362  1.00  0.00    -0.744 OA
ENDBRANCH  75  78
ENDBRANCH  47  71
BRANCH  59  82
ATOM     82  C   UNL A   1      44.846  33.602  29.480  1.00  0.00     0.023 A 
ATOM     83  C   UNL A   1      45.534  33.875  30.679  1.00  0.00     0.012 A 
ATOM     84  C   UNL A   1      44.830  34.568  28.455  1.00  0.00     0.148 A 
ATOM     85  C   UNL A   1      46.176  35.099  30.864  1.00  0.00     0.002 A 
ATOM     86  C   UNL A   1      45.509  35.769  28.630  1.00  0.00     0.091 A 
ATOM     87  F   UNL A   1      44.155  34.295  27.328  1.00  0.00    -0.205 F 
ATOM     88  C   UNL A   1      46.174  36.039  29.837  1.00  0.00     0.022 A 
BRANCH  86  89
ATOM     89  S   UNL A   1      45.637  37.002  27.330  1.00  0.00     0.127 S 
ATOM     90  O   UNL A   1      46.294  36.248  26.265  1.00  0.00    -0.237 OA
ATOM     91  O   UNL A   1      44.233  37.328  27.070  1.00  0.00    -0.237 OA
ATOM     92  O   UNL A   1      46.415  38.097  27.893  1.00  0.00    -0.744 OA
ENDBRANCH  86  89
ENDBRANCH  59  82
ENDBRANCH  33  34
ENDBRANCH  25  28
ENDBRANCH  23  24
ENDBRANCH  22  23
ENDBRANCH   1  22
TORSDOF 17
ENDMDL
MODEL 2
REMARK VINA RESULT:     -11.7      5.430     10.187
REMARK SMILES C[C@@H](C(=O)NCCCCNC(=O)c1ccc(-c2c3nc(c(-c4cccc(S(=O)(=O)[O-])c4F)c4ccc([nH]4)c(-c4cccc(S(=O)(=O)[O-])c4F)c4nc(c(-c5cccc(S(=O)(=O)[O-])c5F)c5ccc2[nH]5)C=C4)C=C3)cc1)c1ccc(Cc2ccco2)cc1F
REMARK SMILES IDX 7 1 6 2 5 3 3 4 4 5 2 7 1 8 76 9 77 10 87 11 78 12 86 13
REMARK SMILES IDX 88 14 79 15 80 16 81 17 82 18 85 19 83 20 84 21 8 22 9 23
REMARK SMILES IDX 10 24 11 25 12 27 13 28 14 29 75 30 15 31 74 32 16 33 17 34
REMARK SMILES IDX 18 35 68 36 19 37 73 38 67 39 69 40 20 41 72 42 66 43 65 44
REMARK SMILES IDX 21 46 53 47 33 48 52 49 34 50 37 51 51 52 70 53 35 54 36 55
REMARK SMILES IDX 50 57 71 58 38 59 22 60 23 61 31 62 24 63 26 64 32 65 25 66
REMARK SMILES IDX 27 67 28 68 29 69 30 70 54 71 55 72 63 73 56 74 58 75 64 76
REMARK SMILES IDX 57 77 59 78 60 79 61 80 62 81 39 82 40 83 48 84 41 85 43 86
REMARK SMILES IDX 49 87 42 88 44 89 45 90 46 91 47 92
REMARK H PARENT 5 6 10 26 69 45 37 56
REMARK Flexibility Score: inf
ROOT
ATOM      1  C   UNL A   1      31.297  28.055  26.422  1.00  0.00     0.023 C 
ENDROOT
BRANCH   1   2
ATOM      2  C   UNL A   1      31.046  28.283  24.931  1.00  0.00     0.116 C 
BRANCH   2   3
ATOM      3  N   UNL A   1      30.604  27.079  24.258  1.00  0.00    -0.356 N 
ATOM      4  C   UNL A   1      31.321  26.053  23.708  1.00  0.00     0.227 C 
ATOM      5  O   UNL A   1      30.676  25.081  23.308  1.00  0.00    -0.274 OA
ATOM      6  H   UNL A   1      29.626  26.983  24.187  1.00  0.00     0.163 HD
BRANCH   4   7
ATOM      7  C   UNL A   1      32.858  26.104  23.686  1.00  0.00     0.108 C 
ATOM      8  C   UNL A   1      33.432  26.584  22.348  1.00  0.00     0.023 C 
BRANCH   7   9
ATOM      9  C   UNL A   1      33.493  24.767  24.050  1.00  0.00    -0.000 A 
ATOM     10  C   UNL A   1      34.135  23.996  23.072  1.00  0.00     0.008 A 
ATOM     11  C   UNL A   1      33.424  24.256  25.352  1.00  0.00     0.127 A 
ATOM     12  C   UNL A   1      34.667  22.743  23.391  1.00  0.00     0.005 A 
ATOM     13  C   UNL A   1      33.942  23.004  25.675  1.00  0.00     0.043 A 
ATOM     14  F   UNL A   1      32.818  24.957  26.320  1.00  0.00    -0.207 F 
ATOM     15  C   UNL A   1      34.561  22.224  24.692  1.00  0.00    -0.038 A 
BRANCH  15  16
ATOM     16  C   UNL A   1      35.089  20.847  25.024  1.00  0.00     0.111 C 
BRANCH  16  17
ATOM     17  C   UNL A   1      34.160  19.747  24.638  1.00  0.00     0.108 A 
ATOM     18  C   UNL A   1      32.837  19.708  24.242  1.00  0.00     0.046 A 
ATOM     19  O   UNL A   1      34.678  18.484  24.627  1.00  0.00    -0.469 OA
ATOM     20  C   UNL A   1      32.529  18.350  23.990  1.00  0.00     0.042 A 
ATOM     21  C   UNL A   1      33.683  17.646  24.238  1.00  0.00     0.195 A 
ENDBRANCH  16  17
ENDBRANCH  15  16
ENDBRANCH   7   9
ENDBRANCH   4   7
ENDBRANCH   2   3
ENDBRANCH   1   2
BRANCH   1  22
ATOM     22  C   UNL A   1      31.878  29.255  27.173  1.00  0.00     0.023 C 
BRANCH  22  23
ATOM     23  C   UNL A   1      32.553  30.317  26.309  1.00  0.00     0.116 C 
BRANCH  23  24
ATOM     24  N   UNL A   1      32.335  31.674  26.793  1.00  0.00    -0.352 N 
ATOM     25  C   UNL A   1      33.142  32.447  27.596  1.00  0.00     0.251 C 
ATOM     26  H   UNL A   1      31.493  32.095  26.507  1.00  0.00     0.163 HD
ATOM     27  O   UNL A   1      32.748  33.539  27.996  1.00  0.00    -0.269 OA
BRANCH  25  28
ATOM     28  C   UNL A   1      34.470  31.941  28.002  1.00  0.00     0.039 A 
ATOM     29  C   UNL A   1      35.545  32.833  28.056  1.00  0.00     0.014 A 
ATOM     30  C   UNL A   1      34.641  30.606  28.377  1.00  0.00     0.014 A 
ATOM     31  C   UNL A   1      36.770  32.409  28.579  1.00  0.00     0.010 A 
ATOM     32  C   UNL A   1      35.844  30.200  28.948  1.00  0.00     0.010 A 
ATOM     33  C   UNL A   1      36.912  31.103  29.077  1.00  0.00    -0.014 A 
BRANCH  33  34
ATOM     34  C   UNL A   1      38.130  30.683  29.817  1.00  0.00     0.031 A 
ATOM     35  C   UNL A   1      39.062  29.656  29.239  1.00  0.00     0.074 A 
ATOM     36  C   UNL A   1      38.315  31.130  31.076  1.00  0.00     0.049 A 
ATOM     37  N   UNL A   1      40.104  29.089  29.789  1.00  0.00    -0.248 NA
ATOM     38  C   UNL A   1      38.773  29.183  27.875  1.00  0.00     0.031 C 
ATOM     39  C   UNL A   1      37.431  32.060  31.783  1.00  0.00     0.029 A 
ATOM     40  N   UNL A   1      39.281  30.823  32.005  1.00  0.00    -0.354 N 
ATOM     41  C   UNL A   1      40.570  28.166  28.863  1.00  0.00     0.074 A 
ATOM     42  C   UNL A   1      39.693  28.240  27.714  1.00  0.00     0.031 C 
ATOM     43  C   UNL A   1      37.880  32.230  33.037  1.00  0.00     0.029 A 
ATOM     44  C   UNL A   1      39.064  31.402  33.236  1.00  0.00     0.049 A 
ATOM     45  H   UNL A   1      40.054  30.245  31.809  1.00  0.00     0.167 HD
ATOM     46  C   UNL A   1      41.646  27.348  28.953  1.00  0.00     0.034 A 
ATOM     47  C   UNL A   1      39.727  31.263  34.401  1.00  0.00     0.034 A 
ATOM     48  C   UNL A   1      42.551  27.322  30.071  1.00  0.00     0.049 A 
ATOM     49  C   UNL A   1      40.940  30.374  34.454  1.00  0.00     0.074 A 
ATOM     50  C   UNL A   1      43.746  26.633  30.189  1.00  0.00     0.029 A 
ATOM     51  N   UNL A   1      42.356  27.993  31.265  1.00  0.00    -0.354 N 
ATOM     52  N   UNL A   1      41.487  29.669  33.494  1.00  0.00    -0.248 NA
ATOM     53  C   UNL A   1      41.642  30.280  35.743  1.00  0.00     0.031 C 
ATOM     54  C   UNL A   1      44.262  26.870  31.466  1.00  0.00     0.029 A 
ATOM     55  C   UNL A   1      43.394  27.716  32.138  1.00  0.00     0.049 A 
ATOM     56  H   UNL A   1      41.592  28.582  31.465  1.00  0.00     0.167 HD
ATOM     57  C   UNL A   1      42.608  29.068  34.055  1.00  0.00     0.074 A 
ATOM     58  C   UNL A   1      42.680  29.516  35.430  1.00  0.00     0.031 C 
ATOM     59  C   UNL A   1      43.486  28.205  33.488  1.00  0.00     0.034 A 
BRANCH  46  60
ATOM     60  C   UNL A   1      41.955  26.450  27.786  1.00  0.00     0.023 A 
ATOM     61  C   UNL A   1      42.797  26.919  26.760  1.00  0.00     0.012 A 
ATOM     62  C   UNL A   1      41.508  25.115  27.764  1.00  0.00     0.148 A 
ATOM     63  C   UNL A   1      43.179  26.075  25.717  1.00  0.00     0.002 A 
ATOM     64  C   UNL A   1      41.921  24.270  26.741  1.00  0.00     0.091 A 
ATOM     65  F   UNL A   1      40.692  24.698  28.743  1.00  0.00    -0.205 F 
ATOM     66  C   UNL A   1      42.752  24.750  25.715  1.00  0.00     0.022 A 
BRANCH  64  67
ATOM     67  S   UNL A   1      41.485  22.528  26.680  1.00  0.00     0.127 S 
ATOM     68  O   UNL A   1      42.223  22.001  27.828  1.00  0.00    -0.237 OA
ATOM     69  O   UNL A   1      40.033  22.569  26.856  1.00  0.00    -0.237 OA
ATOM     70  O   UNL A   1      41.929  22.046  25.380  1.00  0.00    -0.744 OA
ENDBRANCH  64  67
ENDBRANCH  46  60
BRANCH  47  71
ATOM     71  C   UNL A   1      39.282  32.014  35.608  1.00  0.00     0.023 A 
ATOM     72  C   UNL A   1      39.624  33.373  35.742  1.00  0.00     0.012 A 
ATOM     73  C   UNL A   1      38.515  31.398  36.615  1.00  0.00     0.148 A 
ATOM     74  C   UNL A   1      39.239  34.096  36.872  1.00  0.00     0.002 A 
ATOM     75  C   UNL A   1      38.088  32.138  37.712  1.00  0.00     0.091 A 
ATOM     76  F   UNL A   1      38.217  30.097  36.486  1.00  0.00    -0.205 F 
ATOM     77  C   UNL A   1      38.461  33.483  37.851  1.00  0.00     0.022 A 
BRANCH  75  78
ATOM     78  S   UNL A   1      36.969  31.449  38.937  1.00  0.00     0.127 S 
ATOM     79  O   UNL A   1      37.770  31.529  40.154  1.00  0.00    -0.237 OA
ATOM     80  O   UNL A   1      35.837  32.376  38.881  1.00  0.00    -0.237 OA
ATOM     81  O   UNL A   1      36.659  30.110  38.453  1.00  0.00    -0.744 OA
ENDBRANCH  75  78
ENDBRANCH  47  71
BRANCH  59  82
ATOM     82  C   UNL A   1      44.608  27.685  34.345  1.00  0.00     0.023 A 
ATOM     83  C   UNL A   1      45.783  28.450  34.483  1.00  0.00     0.012 A 
ATOM     84  C   UNL A   1      44.470  26.489  35.075  1.00  0.00     0.148 A 
ATOM     85  C   UNL A   1      46.814  28.020  35.317  1.00  0.00     0.002 A 
ATOM     86  C   UNL A   1      45.484  26.089  35.939  1.00  0.00     0.091 A 
ATOM     87  F   UNL A   1      43.351  25.766  34.916  1.00  0.00    -0.205 F 
ATOM     88  C   UNL A   1      46.660  26.848  36.053  1.00  0.00     0.022 A 
BRANCH  86  89
ATOM     89  S   UNL A   1      45.338  24.642  36.993  1.00  0.00     0.127 S 
ATOM     90  O   UNL A   1      44.714  23.676  36.092  1.00  0.00    -0.237 OA
ATOM     91  O   UNL A   1      46.734  24.354  37.323  1.00  0.00    -0.237 OA
ATOM     92  O   UNL A   1      44.523  25.055  38.129  1.00  0.00    -0.744 OA
ENDBRANCH  86  89
ENDBRANCH  59  82
ENDBRANCH  33  34
ENDBRANCH  25  28
ENDBRANCH  23  24
ENDBRANCH  22  23
ENDBRANCH   1  22
TORSDOF 17
ENDMDL
MODEL 3
REMARK VINA RESULT:     -11.6      6.137     11.214
REMARK SMILES C[C@@H](C(=O)NCCCCNC(=O)c1ccc(-c2c3nc(c(-c4cccc(S(=O)(=O)[O-])c4F)c4ccc([nH]4)c(-c4cccc(S(=O)(=O)[O-])c4F)c4nc(c(-c5cccc(S(=O)(=O)[O-])c5F)c5ccc2[nH]5)C=C4)C=C3)cc1)c1ccc(Cc2ccco2)cc1F
REMARK SMILES IDX 7 1 6 2 5 3 3 4 4 5 2 7 1 8 76 9 77 10 87 11 78 12 86 13
REMARK SMILES IDX 88 14 79 15 80 16 81 17 82 18 85 19 83 20 84 21 8 22 9 23
REMARK SMILES IDX 10 24 11 25 12 27 13 28 14 29 75 30 15 31 74 32 16 33 17 34
REMARK SMILES IDX 18 35 68 36 19 37 73 38 67 39 69 40 20 41 72 42 66 43 65 44
REMARK SMILES IDX 21 46 53 47 33 48 52 49 34 50 37 51 51 52 70 53 35 54 36 55
REMARK SMILES IDX 50 57 71 58 38 59 22 60 23 61 31 62 24 63 26 64 32 65 25 66
REMARK SMILES IDX 27 67 28 68 29 69 30 70 54 71 55 72 63 73 56 74 58 75 64 76
REMARK SMILES IDX 57 77 59 78 60 79 61 80 62 81 39 82 40 83 48 84 41 85 43 86
REMARK SMILES IDX 49 87 42 88 44 89 45 90 46 91 47 92
REMARK H PARENT 5 6 10 26 69 45 37 56
REMARK Flexibility Score: inf
ROOT
ATOM      1  C   UNL A   1      31.785  28.865  26.499  1.00  0.00     0.023 C 
ENDROOT
BRANCH   1   2
ATOM      2  C   UNL A   1      32.619  27.583  26.473  1.00  0.00     0.116 C 
BRANCH   2   3
ATOM      3  N   UNL A   1      33.557  27.561  25.371  1.00  0.00    -0.356 N 
ATOM      4  C   UNL A   1      33.494  26.927  24.162  1.00  0.00     0.227 C 
ATOM      5  O   UNL A   1      34.388  27.189  23.354  1.00  0.00    -0.274 OA
ATOM      6  H   UNL A   1      34.375  28.091  25.516  1.00  0.00     0.163 HD
BRANCH   4   7
ATOM      7  C   UNL A   1      32.305  26.010  23.827  1.00  0.00     0.108 C 
ATOM      8  C   UNL A   1      32.595  25.031  22.684  1.00  0.00     0.023 C 
BRANCH   7   9
ATOM      9  C   UNL A   1      31.036  26.791  23.504  1.00  0.00    -0.000 A 
ATOM     10  C   UNL A   1      31.079  27.886  22.632  1.00  0.00     0.008 A 
ATOM     11  C   UNL A   1      29.807  26.463  24.091  1.00  0.00     0.127 A 
ATOM     12  C   UNL A   1      29.929  28.640  22.380  1.00  0.00     0.005 A 
ATOM     13  C   UNL A   1      28.659  27.215  23.852  1.00  0.00     0.043 A 
ATOM     14  F   UNL A   1      29.719  25.424  24.932  1.00  0.00    -0.207 F 
ATOM     15  C   UNL A   1      28.709  28.324  23.001  1.00  0.00    -0.038 A 
BRANCH  15  16
ATOM     16  C   UNL A   1      27.477  29.170  22.770  1.00  0.00     0.111 C 
BRANCH  16  17
ATOM     17  C   UNL A   1      27.777  30.621  22.605  1.00  0.00     0.108 A 
ATOM     18  C   UNL A   1      28.023  31.652  23.491  1.00  0.00     0.046 A 
ATOM     19  O   UNL A   1      27.867  31.085  21.325  1.00  0.00    -0.469 OA
ATOM     20  C   UNL A   1      28.263  32.808  22.711  1.00  0.00     0.042 A 
ATOM     21  C   UNL A   1      28.157  32.410  21.399  1.00  0.00     0.195 A 
ENDBRANCH  16  17
ENDBRANCH  15  16
ENDBRANCH   7   9
ENDBRANCH   4   7
ENDBRANCH   2   3
ENDBRANCH   1   2
BRANCH   1  22
ATOM     22  C   UNL A   1      32.349  29.990  27.369  1.00  0.00     0.023 C 
BRANCH  22  23
ATOM     23  C   UNL A   1      33.123  31.078  26.629  1.00  0.00     0.116 C 
BRANCH  23  24
ATOM     24  N   UNL A   1      32.621  32.420  26.893  1.00  0.00    -0.352 N 
ATOM     25  C   UNL A   1      33.091  33.361  27.780  1.00  0.00     0.251 C 
ATOM     26  H   UNL A   1      31.836  32.690  26.365  1.00  0.00     0.163 HD
ATOM     27  O   UNL A   1      32.475  34.409  27.950  1.00  0.00    -0.269 OA
BRANCH  25  28
ATOM     28  C   UNL A   1      34.321  33.087  28.553  1.00  0.00     0.039 A 
ATOM     29  C   UNL A   1      34.209  32.474  29.804  1.00  0.00     0.014 A 
ATOM     30  C   UNL A   1      35.579  33.388  28.023  1.00  0.00     0.014 A 
ATOM     31  C   UNL A   1      35.363  32.072  30.483  1.00  0.00     0.010 A 
ATOM     32  C   UNL A   1      36.725  32.938  28.675  1.00  0.00     0.010 A 
ATOM     33  C   UNL A   1      36.627  32.255  29.898  1.00  0.00    -0.014 A 
BRANCH  33  34
ATOM     34  C   UNL A   1      37.852  31.665  30.496  1.00  0.00     0.031 A 
ATOM     35  C   UNL A   1      38.604  30.575  29.784  1.00  0.00     0.074 A 
ATOM     36  C   UNL A   1      38.202  32.018  31.750  1.00  0.00     0.049 A 
ATOM     37  N   UNL A   1      39.621  29.869  30.205  1.00  0.00    -0.248 NA
ATOM     38  C   UNL A   1      38.140  30.213  28.435  1.00  0.00     0.031 C 
ATOM     39  C   UNL A   1      37.498  32.998  32.580  1.00  0.00     0.029 A 
ATOM     40  N   UNL A   1      39.208  31.557  32.565  1.00  0.00    -0.354 N 
ATOM     41  C   UNL A   1      39.893  28.953  29.197  1.00  0.00     0.074 A 
ATOM     42  C   UNL A   1      38.928  29.186  28.144  1.00  0.00     0.031 C 
ATOM     43  C   UNL A   1      38.076  33.049  33.791  1.00  0.00     0.029 A 
ATOM     44  C   UNL A   1      39.172  32.087  33.836  1.00  0.00     0.049 A 
ATOM     45  H   UNL A   1      39.889  30.910  32.269  1.00  0.00     0.167 HD
ATOM     46  C   UNL A   1      40.872  28.020  29.145  1.00  0.00     0.034 A 
ATOM     47  C   UNL A   1      39.920  31.813  34.924  1.00  0.00     0.034 A 
ATOM     48  C   UNL A   1      41.867  27.833  30.167  1.00  0.00     0.049 A 
ATOM     49  C   UNL A   1      41.023  30.795  34.819  1.00  0.00     0.074 A 
ATOM     50  C   UNL A   1      42.982  27.012  30.138  1.00  0.00     0.029 A 
ATOM     51  N   UNL A   1      41.860  28.455  31.403  1.00  0.00    -0.354 N 
ATOM     52  N   UNL A   1      41.396  30.090  33.779  1.00  0.00    -0.248 NA
ATOM     53  C   UNL A   1      41.825  30.554  36.028  1.00  0.00     0.031 C 
ATOM     54  C   UNL A   1      43.637  27.122  31.368  1.00  0.00     0.029 A 
ATOM     55  C   UNL A   1      42.936  28.018  32.158  1.00  0.00     0.049 A 
ATOM     56  H   UNL A   1      41.190  29.111  31.703  1.00  0.00     0.167 HD
ATOM     57  C   UNL A   1      42.489  29.340  34.201  1.00  0.00     0.074 A 
ATOM     58  C   UNL A   1      42.737  29.701  35.581  1.00  0.00     0.031 C 
ATOM     59  C   UNL A   1      43.206  28.419  33.513  1.00  0.00     0.034 A 
BRANCH  46  60
ATOM     60  C   UNL A   1      40.969  27.159  27.915  1.00  0.00     0.023 A 
ATOM     61  C   UNL A   1      41.601  27.669  26.765  1.00  0.00     0.012 A 
ATOM     62  C   UNL A   1      40.539  25.818  27.936  1.00  0.00     0.148 A 
ATOM     63  C   UNL A   1      41.791  26.861  25.644  1.00  0.00     0.002 A 
ATOM     64  C   UNL A   1      40.764  25.008  26.829  1.00  0.00     0.091 A 
ATOM     65  F   UNL A   1      39.924  25.361  29.036  1.00  0.00    -0.205 F 
ATOM     66  C   UNL A   1      41.385  25.530  25.682  1.00  0.00     0.022 A 
BRANCH  64  67
ATOM     67  S   UNL A   1      40.343  23.262  26.798  1.00  0.00     0.127 S 
ATOM     68  O   UNL A   1      38.903  23.311  26.541  1.00  0.00    -0.237 OA
ATOM     69  O   UNL A   1      41.145  22.773  25.677  1.00  0.00    -0.237 OA
ATOM     70  O   UNL A   1      40.725  22.732  28.099  1.00  0.00    -0.744 OA
ENDBRANCH  64  67
ENDBRANCH  46  60
BRANCH  47  71
ATOM     71  C   UNL A   1      39.676  32.540  36.201  1.00  0.00     0.023 A 
ATOM     72  C   UNL A   1      40.330  33.764  36.436  1.00  0.00     0.012 A 
ATOM     73  C   UNL A   1      38.794  32.036  37.177  1.00  0.00     0.148 A 
ATOM     74  C   UNL A   1      40.136  34.457  37.631  1.00  0.00     0.002 A 
ATOM     75  C   UNL A   1      38.564  32.758  38.342  1.00  0.00     0.091 A 
ATOM     76  F   UNL A   1      38.196  30.857  36.950  1.00  0.00    -0.205 F 
ATOM     77  C   UNL A   1      39.246  33.960  38.579  1.00  0.00     0.022 A 
BRANCH  75  78
ATOM     78  S   UNL A   1      37.325  32.247  39.539  1.00  0.00     0.127 S 
ATOM     79  O   UNL A   1      38.127  31.493  40.497  1.00  0.00    -0.237 OA
ATOM     80  O   UNL A   1      36.820  33.530  40.031  1.00  0.00    -0.237 OA
ATOM     81  O   UNL A   1      36.350  31.485  38.770  1.00  0.00    -0.744 OA
ENDBRANCH  75  78
ENDBRANCH  47  71
BRANCH  59  82
ATOM     82  C   UNL A   1      44.336  27.733  34.232  1.00  0.00     0.023 A 
ATOM     83  C   UNL A   1      45.588  28.373  34.321  1.00  0.00     0.012 A 
ATOM     84  C   UNL A   1      44.139  26.502  34.888  1.00  0.00     0.148 A 
ATOM     85  C   UNL A   1      46.635  27.788  35.031  1.00  0.00     0.002 A 
ATOM     86  C   UNL A   1      45.174  25.945  35.631  1.00  0.00     0.091 A 
ATOM     87  F   UNL A   1      42.946  25.901  34.777  1.00  0.00    -0.205 F 
ATOM     88  C   UNL A   1      46.425  26.582  35.696  1.00  0.00     0.022 A 
BRANCH  86  89
ATOM     89  S   UNL A   1      44.970  24.442  36.593  1.00  0.00     0.127 S 
ATOM     90  O   UNL A   1      44.425  23.522  35.598  1.00  0.00    -0.237 OA
ATOM     91  O   UNL A   1      46.343  24.149  37.008  1.00  0.00    -0.237 OA
ATOM     92  O   UNL A   1      44.070  24.785  37.687  1.00  0.00    -0.744 OA
ENDBRANCH  86  89
ENDBRANCH  59  82
ENDBRANCH  33  34
ENDBRANCH  25  28
ENDBRANCH  23  24
ENDBRANCH  22  23
ENDBRANCH   1  22
TORSDOF 17
ENDMDL
