MODEL 1
REMARK VINA RESULT:     -11.3      0.000      0.000
REMARK SMILES CN(C)S(=O)(=O)c1c[nH]c(C(=O)NCCCCNC(=O)c2ccc(-c3c4nc(c(-c5cccc(S(=O)(=O)[O-])c5F)c5ccc([nH]5)c(-c5cccc(S(=O)(=O)[O-])c5F)c5nc(c(-c6cccc(S(=O)(=O)[O-])c6F)c6ccc3[nH]6)C=C5)C=C4)cc2)c1
REMARK SMILES IDX 16 1 15 2 14 3 13 4 11 5 12 6 10 8 7 9 8 10 84 11 9 12 4 14
REMARK SMILES IDX 5 15 6 16 2 17 1 18 3 19 17 20 18 21 19 22 20 24 21 25 22 26
REMARK SMILES IDX 83 27 23 28 82 29 24 30 25 31 26 32 76 33 27 34 81 35 75 36
REMARK SMILES IDX 77 37 28 38 80 39 74 40 73 41 29 43 61 44 41 45 60 46 42 47
REMARK SMILES IDX 45 48 59 49 78 50 43 51 44 52 58 54 79 55 46 56 30 57 31 58
REMARK SMILES IDX 39 59 32 60 34 61 40 62 33 63 35 64 36 65 37 66 38 67 62 68
REMARK SMILES IDX 63 69 71 70 64 71 66 72 72 73 65 74 67 75 68 76 69 77 70 78
REMARK SMILES IDX 47 79 48 80 56 81 49 82 51 83 57 84 50 85 52 86 53 87 54 88
REMARK SMILES IDX 55 89
REMARK H PARENT 13 7 9 13 18 23 77 42 45 53
REMARK Flexibility Score: inf
ROOT
ATOM      1  C   UNL A   1      33.573  28.217  26.821  1.00  0.00     0.023 C 
ENDROOT
BRANCH   1   2
ATOM      2  C   UNL A   1      33.320  26.890  26.084  1.00  0.00     0.023 C 
BRANCH   2   3
ATOM      3  C   UNL A   1      32.295  27.002  24.954  1.00  0.00     0.116 C 
BRANCH   3   4
ATOM      4  N   UNL A   1      32.944  26.933  23.660  1.00  0.00    -0.351 N 
ATOM      5  C   UNL A   1      33.300  25.880  22.864  1.00  0.00     0.267 C 
ATOM      6  O   UNL A   1      33.856  26.144  21.797  1.00  0.00    -0.268 OA
ATOM      7  H   UNL A   1      33.173  27.812  23.282  1.00  0.00     0.163 HD
BRANCH   5   8
ATOM      8  C   UNL A   1      33.029  24.500  23.218  1.00  0.00     0.105 A 
ATOM      9  C   UNL A   1      32.761  22.402  24.053  1.00  0.00     0.100 A 
ATOM     10  C   UNL A   1      31.904  22.540  22.985  1.00  0.00     0.104 A 
ATOM     11  C   UNL A   1      33.503  23.608  24.164  1.00  0.00     0.055 A 
ATOM     12  N   UNL A   1      32.079  23.800  22.486  1.00  0.00    -0.356 N 
ATOM     13  H   UNL A   1      31.596  24.164  21.709  1.00  0.00     0.166 HD
BRANCH   9  14
ATOM     14  S   UNL A   1      32.956  21.027  25.079  1.00  0.00     0.244 S 
ATOM     15  O   UNL A   1      31.634  20.701  25.553  1.00  0.00    -0.207 OA
ATOM     16  O   UNL A   1      34.027  21.405  25.985  1.00  0.00    -0.207 OA
BRANCH  14  17
ATOM     17  N   UNL A   1      33.509  19.735  24.108  1.00  0.00    -0.204 NA
ATOM     18  C   UNL A   1      34.642  19.004  24.706  1.00  0.00     0.124 C 
ATOM     19  C   UNL A   1      32.436  18.835  23.638  1.00  0.00     0.124 C 
ENDBRANCH  14  17
ENDBRANCH   9  14
ENDBRANCH   5   8
ENDBRANCH   3   4
ENDBRANCH   2   3
ENDBRANCH   1   2
BRANCH   1  20
ATOM     20  C   UNL A   1      34.943  28.840  26.535  1.00  0.00     0.116 C 
BRANCH  20  21
ATOM     21  N   UNL A   1      35.099  30.108  27.231  1.00  0.00    -0.352 N 
ATOM     22  C   UNL A   1      36.013  30.466  28.188  1.00  0.00     0.251 C 
ATOM     23  H   UNL A   1      34.457  30.810  26.979  1.00  0.00     0.163 HD
ATOM     24  O   UNL A   1      35.772  31.429  28.914  1.00  0.00    -0.269 OA
BRANCH  22  25
ATOM     25  C   UNL A   1      37.268  29.709  28.371  1.00  0.00     0.039 A 
ATOM     26  C   UNL A   1      38.233  29.778  27.357  1.00  0.00     0.014 A 
ATOM     27  C   UNL A   1      37.463  28.882  29.481  1.00  0.00     0.014 A 
ATOM     28  C   UNL A   1      39.420  29.066  27.489  1.00  0.00     0.010 A 
ATOM     29  C   UNL A   1      38.658  28.184  29.625  1.00  0.00     0.010 A 
ATOM     30  C   UNL A   1      39.641  28.289  28.635  1.00  0.00    -0.014 A 
BRANCH  30  31
ATOM     31  C   UNL A   1      40.993  27.727  28.861  1.00  0.00     0.031 A 
ATOM     32  C   UNL A   1      41.055  26.246  28.397  1.00  0.00     0.074 A 
ATOM     33  C   UNL A   1      41.908  28.559  29.453  1.00  0.00     0.049 A 
ATOM     34  N   UNL A   1      41.691  25.225  28.897  1.00  0.00    -0.248 NA
ATOM     35  C   UNL A   1      40.168  25.809  27.281  1.00  0.00     0.031 C 
ATOM     36  C   UNL A   1      41.673  29.988  29.774  1.00  0.00     0.029 A 
ATOM     37  N   UNL A   1      43.204  28.404  29.903  1.00  0.00    -0.354 N 
ATOM     38  C   UNL A   1      41.469  24.118  28.029  1.00  0.00     0.074 A 
ATOM     39  C   UNL A   1      40.402  24.500  27.160  1.00  0.00     0.031 C 
ATOM     40  C   UNL A   1      42.730  30.526  30.425  1.00  0.00     0.029 A 
ATOM     41  C   UNL A   1      43.762  29.520  30.586  1.00  0.00     0.049 A 
ATOM     42  H   UNL A   1      43.711  27.572  29.761  1.00  0.00     0.167 HD
ATOM     43  C   UNL A   1      42.289  23.024  27.976  1.00  0.00     0.034 A 
ATOM     44  C   UNL A   1      44.947  29.608  31.274  1.00  0.00     0.034 A 
ATOM     45  C   UNL A   1      43.370  23.214  28.886  1.00  0.00     0.049 A 
ATOM     46  C   UNL A   1      45.622  28.329  31.034  1.00  0.00     0.074 A 
ATOM     47  C   UNL A   1      43.463  23.157  30.250  1.00  0.00     0.029 A 
ATOM     48  N   UNL A   1      44.451  23.889  28.371  1.00  0.00    -0.354 N 
ATOM     49  N   UNL A   1      46.173  27.985  29.909  1.00  0.00    -0.248 NA
ATOM     50  C   UNL A   1      45.565  27.297  32.078  1.00  0.00     0.031 C 
ATOM     51  C   UNL A   1      44.345  24.214  30.547  1.00  0.00     0.029 A 
ATOM     52  C   UNL A   1      44.928  24.698  29.367  1.00  0.00     0.049 A 
ATOM     53  H   UNL A   1      44.814  23.806  27.460  1.00  0.00     0.167 HD
ATOM     54  C   UNL A   1      46.175  26.616  30.004  1.00  0.00     0.074 A 
ATOM     55  C   UNL A   1      46.137  26.300  31.414  1.00  0.00     0.031 C 
ATOM     56  C   UNL A   1      45.676  25.870  28.987  1.00  0.00     0.034 A 
BRANCH  43  57
ATOM     57  C   UNL A   1      42.444  21.847  27.030  1.00  0.00     0.023 A 
ATOM     58  C   UNL A   1      41.651  20.702  27.344  1.00  0.00     0.012 A 
ATOM     59  C   UNL A   1      43.471  21.669  26.089  1.00  0.00     0.148 A 
ATOM     60  C   UNL A   1      41.940  19.425  26.863  1.00  0.00     0.002 A 
ATOM     61  C   UNL A   1      43.727  20.394  25.568  1.00  0.00     0.091 A 
ATOM     62  F   UNL A   1      44.247  22.706  25.759  1.00  0.00    -0.205 F 
ATOM     63  C   UNL A   1      42.994  19.270  25.983  1.00  0.00     0.022 A 
BRANCH  61  64
ATOM     64  S   UNL A   1      45.009  20.070  24.350  1.00  0.00     0.127 S 
ATOM     65  O   UNL A   1      44.611  20.945  23.250  1.00  0.00    -0.237 OA
ATOM     66  O   UNL A   1      46.215  20.504  25.062  1.00  0.00    -0.237 OA
ATOM     67  O   UNL A   1      44.957  18.639  24.091  1.00  0.00    -0.744 OA
ENDBRANCH  61  64
ENDBRANCH  43  57
BRANCH  44  68
ATOM     68  C   UNL A   1      45.615  30.558  32.253  1.00  0.00     0.023 A 
ATOM     69  C   UNL A   1      46.894  31.104  32.086  1.00  0.00     0.012 A 
ATOM     70  C   UNL A   1      44.894  31.023  33.401  1.00  0.00     0.148 A 
ATOM     71  C   UNL A   1      47.375  32.121  32.941  1.00  0.00     0.002 A 
ATOM     72  C   UNL A   1      45.309  32.112  34.157  1.00  0.00     0.091 A 
ATOM     73  F   UNL A   1      43.800  30.373  33.808  1.00  0.00    -0.205 F 
ATOM     74  C   UNL A   1      46.565  32.663  33.939  1.00  0.00     0.022 A 
BRANCH  72  75
ATOM     75  S   UNL A   1      44.197  32.944  35.314  1.00  0.00     0.127 S 
ATOM     76  O   UNL A   1      44.082  31.967  36.395  1.00  0.00    -0.237 OA
ATOM     77  O   UNL A   1      44.968  34.142  35.648  1.00  0.00    -0.237 OA
ATOM     78  O   UNL A   1      42.964  33.206  34.584  1.00  0.00    -0.744 OA
ENDBRANCH  72  75
ENDBRANCH  44  68
BRANCH  56  79
ATOM     79  C   UNL A   1      45.713  26.541  27.613  1.00  0.00     0.023 A 
ATOM     80  C   UNL A   1      44.479  26.967  27.082  1.00  0.00     0.012 A 
ATOM     81  C   UNL A   1      46.851  26.672  26.779  1.00  0.00     0.148 A 
ATOM     82  C   UNL A   1      44.372  27.488  25.789  1.00  0.00     0.002 A 
ATOM     83  C   UNL A   1      46.744  27.179  25.477  1.00  0.00     0.091 A 
ATOM     84  F   UNL A   1      48.037  26.303  27.253  1.00  0.00    -0.205 F 
ATOM     85  C   UNL A   1      45.501  27.592  24.986  1.00  0.00     0.022 A 
BRANCH  83  86
ATOM     86  S   UNL A   1      48.128  27.277  24.317  1.00  0.00     0.127 S 
ATOM     87  O   UNL A   1      48.550  25.879  24.208  1.00  0.00    -0.237 OA
ATOM     88  O   UNL A   1      47.485  27.800  23.115  1.00  0.00    -0.237 OA
ATOM     89  O   UNL A   1      49.126  28.151  24.925  1.00  0.00    -0.744 OA
ENDBRANCH  83  86
ENDBRANCH  56  79
ENDBRANCH  30  31
ENDBRANCH  22  25
ENDBRANCH  20  21
ENDBRANCH   1  20
TORSDOF 16
ENDMDL
MODEL 2
REMARK VINA RESULT:     -11.3      4.319     10.197
REMARK SMILES CN(C)S(=O)(=O)c1c[nH]c(C(=O)NCCCCNC(=O)c2ccc(-c3c4nc(c(-c5cccc(S(=O)(=O)[O-])c5F)c5ccc([nH]5)c(-c5cccc(S(=O)(=O)[O-])c5F)c5nc(c(-c6cccc(S(=O)(=O)[O-])c6F)c6ccc3[nH]6)C=C5)C=C4)cc2)c1
REMARK SMILES IDX 16 1 15 2 14 3 13 4 11 5 12 6 10 8 7 9 8 10 84 11 9 12 4 14
REMARK SMILES IDX 5 15 6 16 2 17 1 18 3 19 17 20 18 21 19 22 20 24 21 25 22 26
REMARK SMILES IDX 83 27 23 28 82 29 24 30 25 31 26 32 76 33 27 34 81 35 75 36
REMARK SMILES IDX 77 37 28 38 80 39 74 40 73 41 29 43 61 44 41 45 60 46 42 47
REMARK SMILES IDX 45 48 59 49 78 50 43 51 44 52 58 54 79 55 46 56 30 57 31 58
REMARK SMILES IDX 39 59 32 60 34 61 40 62 33 63 35 64 36 65 37 66 38 67 62 68
REMARK SMILES IDX 63 69 71 70 64 71 66 72 72 73 65 74 67 75 68 76 69 77 70 78
REMARK SMILES IDX 47 79 48 80 56 81 49 82 51 83 57 84 50 85 52 86 53 87 54 88
REMARK SMILES IDX 55 89
REMARK H PARENT 13 7 9 13 18 23 77 42 45 53
REMARK Flexibility Score: inf
ROOT
ATOM      1  C   UNL A   1      36.659  23.246  25.078  1.00  0.00     0.023 C 
ENDROOT
BRANCH   1   2
ATOM      2  C   UNL A   1      35.248  22.813  25.511  1.00  0.00     0.023 C 
BRANCH   2   3
ATOM      3  C   UNL A   1      34.370  23.972  25.990  1.00  0.00     0.116 C 
BRANCH   3   4
ATOM      4  N   UNL A   1      33.248  23.483  26.764  1.00  0.00    -0.351 N 
ATOM      5  C   UNL A   1      31.946  23.891  26.857  1.00  0.00     0.267 C 
ATOM      6  O   UNL A   1      31.213  23.265  27.624  1.00  0.00    -0.268 OA
ATOM      7  H   UNL A   1      33.463  22.709  27.332  1.00  0.00     0.163 HD
BRANCH   5   8
ATOM      8  C   UNL A   1      31.411  24.995  26.083  1.00  0.00     0.105 A 
ATOM      9  C   UNL A   1      30.873  26.857  24.895  1.00  0.00     0.100 A 
ATOM     10  C   UNL A   1      29.879  25.927  24.689  1.00  0.00     0.104 A 
ATOM     11  C   UNL A   1      31.803  26.294  25.810  1.00  0.00     0.055 A 
ATOM     12  N   UNL A   1      30.209  24.816  25.414  1.00  0.00    -0.356 N 
ATOM     13  H   UNL A   1      29.664  23.997  25.457  1.00  0.00     0.166 HD
BRANCH   9  14
ATOM     14  S   UNL A   1      30.995  28.439  24.214  1.00  0.00     0.244 S 
ATOM     15  O   UNL A   1      31.350  29.311  25.306  1.00  0.00    -0.207 OA
ATOM     16  O   UNL A   1      29.760  28.604  23.468  1.00  0.00    -0.207 OA
BRANCH  14  17
ATOM     17  N   UNL A   1      32.292  28.421  23.101  1.00  0.00    -0.204 NA
ATOM     18  C   UNL A   1      33.580  28.811  23.705  1.00  0.00     0.124 C 
ATOM     19  C   UNL A   1      32.388  27.176  22.313  1.00  0.00     0.124 C 
ENDBRANCH  14  17
ENDBRANCH   9  14
ENDBRANCH   5   8
ENDBRANCH   3   4
ENDBRANCH   2   3
ENDBRANCH   1   2
BRANCH   1  20
ATOM     20  C   UNL A   1      37.420  24.050  26.138  1.00  0.00     0.116 C 
BRANCH  20  21
ATOM     21  N   UNL A   1      38.708  23.442  26.433  1.00  0.00    -0.352 N 
ATOM     22  C   UNL A   1      39.875  24.037  26.842  1.00  0.00     0.251 C 
ATOM     23  H   UNL A   1      38.748  22.465  26.325  1.00  0.00     0.163 HD
ATOM     24  O   UNL A   1      40.937  23.435  26.690  1.00  0.00    -0.269 OA
BRANCH  22  25
ATOM     25  C   UNL A   1      39.878  25.385  27.442  1.00  0.00     0.039 A 
ATOM     26  C   UNL A   1      39.326  25.539  28.720  1.00  0.00     0.014 A 
ATOM     27  C   UNL A   1      40.344  26.497  26.733  1.00  0.00     0.014 A 
ATOM     28  C   UNL A   1      39.299  26.798  29.311  1.00  0.00     0.010 A 
ATOM     29  C   UNL A   1      40.337  27.753  27.329  1.00  0.00     0.010 A 
ATOM     30  C   UNL A   1      39.827  27.900  28.623  1.00  0.00    -0.014 A 
BRANCH  30  31
ATOM     31  C   UNL A   1      39.997  29.177  29.354  1.00  0.00     0.031 A 
ATOM     32  C   UNL A   1      38.766  30.100  29.137  1.00  0.00     0.074 A 
ATOM     33  C   UNL A   1      41.176  29.339  30.034  1.00  0.00     0.049 A 
ATOM     34  N   UNL A   1      38.686  31.393  29.010  1.00  0.00    -0.248 NA
ATOM     35  C   UNL A   1      37.436  29.471  28.895  1.00  0.00     0.031 C 
ATOM     36  C   UNL A   1      42.225  28.298  30.175  1.00  0.00     0.029 A 
ATOM     37  N   UNL A   1      41.747  30.377  30.743  1.00  0.00    -0.354 N 
ATOM     38  C   UNL A   1      37.305  31.728  28.917  1.00  0.00     0.074 A 
ATOM     39  C   UNL A   1      36.612  30.501  28.687  1.00  0.00     0.031 C 
ATOM     40  C   UNL A   1      43.306  28.776  30.832  1.00  0.00     0.029 A 
ATOM     41  C   UNL A   1      43.078  30.162  31.196  1.00  0.00     0.049 A 
ATOM     42  H   UNL A   1      41.263  31.216  30.923  1.00  0.00     0.167 HD
ATOM     43  C   UNL A   1      36.808  32.971  29.202  1.00  0.00     0.034 A 
ATOM     44  C   UNL A   1      43.949  31.051  31.776  1.00  0.00     0.034 A 
ATOM     45  C   UNL A   1      37.882  33.811  29.619  1.00  0.00     0.049 A 
ATOM     46  C   UNL A   1      43.162  32.272  31.984  1.00  0.00     0.074 A 
ATOM     47  C   UNL A   1      38.902  34.426  28.945  1.00  0.00     0.029 A 
ATOM     48  N   UNL A   1      38.171  33.761  30.961  1.00  0.00    -0.354 N 
ATOM     49  N   UNL A   1      42.241  32.411  32.890  1.00  0.00    -0.248 NA
ATOM     50  C   UNL A   1      43.314  33.376  31.028  1.00  0.00     0.031 C 
ATOM     51  C   UNL A   1      39.986  34.295  29.835  1.00  0.00     0.029 A 
ATOM     52  C   UNL A   1      39.533  33.838  31.079  1.00  0.00     0.049 A 
ATOM     53  H   UNL A   1      37.523  33.685  31.698  1.00  0.00     0.167 HD
ATOM     54  C   UNL A   1      41.486  33.431  32.368  1.00  0.00     0.074 A 
ATOM     55  C   UNL A   1      42.351  34.172  31.479  1.00  0.00     0.031 C 
ATOM     56  C   UNL A   1      40.141  33.288  32.266  1.00  0.00     0.034 A 
BRANCH  43  57
ATOM     57  C   UNL A   1      35.420  33.546  29.418  1.00  0.00     0.023 A 
ATOM     58  C   UNL A   1      34.659  33.769  28.230  1.00  0.00     0.012 A 
ATOM     59  C   UNL A   1      34.942  34.136  30.599  1.00  0.00     0.148 A 
ATOM     60  C   UNL A   1      33.569  34.637  28.182  1.00  0.00     0.002 A 
ATOM     61  C   UNL A   1      33.814  34.967  30.557  1.00  0.00     0.091 A 
ATOM     62  F   UNL A   1      35.616  33.963  31.740  1.00  0.00    -0.205 F 
ATOM     63  C   UNL A   1      33.156  35.250  29.349  1.00  0.00     0.022 A 
BRANCH  61  64
ATOM     64  S   UNL A   1      33.121  35.755  32.016  1.00  0.00     0.127 S 
ATOM     65  O   UNL A   1      32.672  34.605  32.798  1.00  0.00    -0.237 OA
ATOM     66  O   UNL A   1      34.291  36.443  32.570  1.00  0.00    -0.237 OA
ATOM     67  O   UNL A   1      32.083  36.651  31.527  1.00  0.00    -0.744 OA
ENDBRANCH  61  64
ENDBRANCH  43  57
BRANCH  44  68
ATOM     68  C   UNL A   1      45.430  31.132  32.100  1.00  0.00     0.023 A 
ATOM     69  C   UNL A   1      45.956  31.289  33.389  1.00  0.00     0.012 A 
ATOM     70  C   UNL A   1      46.398  30.957  31.059  1.00  0.00     0.148 A 
ATOM     71  C   UNL A   1      47.342  31.170  33.634  1.00  0.00     0.002 A 
ATOM     72  C   UNL A   1      47.741  30.707  31.316  1.00  0.00     0.091 A 
ATOM     73  F   UNL A   1      46.030  31.077  29.780  1.00  0.00    -0.205 F 
ATOM     74  C   UNL A   1      48.227  30.826  32.611  1.00  0.00     0.022 A 
BRANCH  72  75
ATOM     75  S   UNL A   1      48.851  30.071  30.039  1.00  0.00     0.127 S 
ATOM     76  O   UNL A   1      48.638  31.012  28.942  1.00  0.00    -0.237 OA
ATOM     77  O   UNL A   1      50.150  30.182  30.702  1.00  0.00    -0.237 OA
ATOM     78  O   UNL A   1      48.428  28.702  29.771  1.00  0.00    -0.744 OA
ENDBRANCH  72  75
ENDBRANCH  44  68
BRANCH  56  79
ATOM     79  C   UNL A   1      39.516  32.305  33.257  1.00  0.00     0.023 A 
ATOM     80  C   UNL A   1      39.113  31.056  32.742  1.00  0.00     0.012 A 
ATOM     81  C   UNL A   1      39.205  32.571  34.613  1.00  0.00     0.148 A 
ATOM     82  C   UNL A   1      38.428  30.122  33.525  1.00  0.00     0.002 A 
ATOM     83  C   UNL A   1      38.505  31.644  35.395  1.00  0.00     0.091 A 
ATOM     84  F   UNL A   1      39.592  33.729  35.141  1.00  0.00    -0.205 F 
ATOM     85  C   UNL A   1      38.121  30.415  34.848  1.00  0.00     0.022 A 
BRANCH  83  86
ATOM     86  S   UNL A   1      37.978  31.954  37.097  1.00  0.00     0.127 S 
ATOM     87  O   UNL A   1      39.235  32.306  37.760  1.00  0.00    -0.237 OA
ATOM     88  O   UNL A   1      37.057  33.076  36.934  1.00  0.00    -0.237 OA
ATOM     89  O   UNL A   1      37.379  30.716  37.584  1.00  0.00    -0.744 OA
ENDBRANCH  83  86
ENDBRANCH  56  79
ENDBRANCH  30  31
ENDBRANCH  22  25
ENDBRANCH  20  21
ENDBRANCH   1  20
TORSDOF 16
ENDMDL
MODEL 3
REMARK VINA RESULT:     -11.3      4.482      9.855
REMARK SMILES CN(C)S(=O)(=O)c1c[nH]c(C(=O)NCCCCNC(=O)c2ccc(-c3c4nc(c(-c5cccc(S(=O)(=O)[O-])c5F)c5ccc([nH]5)c(-c5cccc(S(=O)(=O)[O-])c5F)c5nc(c(-c6cccc(S(=O)(=O)[O-])c6F)c6ccc3[nH]6)C=C5)C=C4)cc2)c1
REMARK SMILES IDX 16 1 15 2 14 3 13 4 11 5 12 6 10 8 7 9 8 10 84 11 9 12 4 14
REMARK SMILES IDX 5 15 6 16 2 17 1 18 3 19 17 20 18 21 19 22 20 24 21 25 22 26
REMARK SMILES IDX 83 27 23 28 82 29 24 30 25 31 26 32 76 33 27 34 81 35 75 36
REMARK SMILES IDX 77 37 28 38 80 39 74 40 73 41 29 43 61 44 41 45 60 46 42 47
REMARK SMILES IDX 45 48 59 49 78 50 43 51 44 52 58 54 79 55 46 56 30 57 31 58
REMARK SMILES IDX 39 59 32 60 34 61 40 62 33 63 35 64 36 65 37 66 38 67 62 68
REMARK SMILES IDX 63 69 71 70 64 71 66 72 72 73 65 74 67 75 68 76 69 77 70 78
REMARK SMILES IDX 47 79 48 80 56 81 49 82 51 83 57 84 50 85 52 86 53 87 54 88
REMARK SMILES IDX 55 89
REMARK H PARENT 13 7 9 13 18 23 77 42 45 53
REMARK Flexibility Score: inf
ROOT
ATOM      1  C   UNL A   1      36.529  23.283  25.652  1.00  0.00     0.023 C 
ENDROOT
BRANCH   1   2
ATOM      2  C   UNL A   1      36.479  22.944  24.152  1.00  0.00     0.023 C 
BRANCH   2   3
ATOM      3  C   UNL A   1      35.185  23.386  23.465  1.00  0.00     0.116 C 
BRANCH   3   4
ATOM      4  N   UNL A   1      34.093  23.447  24.415  1.00  0.00    -0.351 N 
ATOM      5  C   UNL A   1      33.228  22.499  24.886  1.00  0.00     0.267 C 
ATOM      6  O   UNL A   1      32.382  22.865  25.704  1.00  0.00    -0.268 OA
ATOM      7  H   UNL A   1      33.945  24.343  24.795  1.00  0.00     0.163 HD
BRANCH   5   8
ATOM      8  C   UNL A   1      33.290  21.108  24.481  1.00  0.00     0.105 A 
ATOM      9  C   UNL A   1      33.590  18.886  24.103  1.00  0.00     0.100 A 
ATOM     10  C   UNL A   1      32.507  19.295  23.358  1.00  0.00     0.104 A 
ATOM     11  C   UNL A   1      34.112  20.030  24.763  1.00  0.00     0.055 A 
ATOM     12  N   UNL A   1      32.342  20.632  23.586  1.00  0.00    -0.356 N 
ATOM     13  H   UNL A   1      31.642  21.186  23.170  1.00  0.00     0.166 HD
BRANCH   9  14
ATOM     14  S   UNL A   1      34.247  17.294  24.224  1.00  0.00     0.244 S 
ATOM     15  O   UNL A   1      35.636  17.467  24.567  1.00  0.00    -0.207 OA
ATOM     16  O   UNL A   1      33.834  16.642  22.993  1.00  0.00    -0.207 OA
BRANCH  14  17
ATOM     17  N   UNL A   1      33.467  16.513  25.528  1.00  0.00    -0.204 NA
ATOM     18  C   UNL A   1      32.356  17.300  26.096  1.00  0.00     0.124 C 
ATOM     19  C   UNL A   1      33.088  15.113  25.249  1.00  0.00     0.124 C 
ENDBRANCH  14  17
ENDBRANCH   9  14
ENDBRANCH   5   8
ENDBRANCH   3   4
ENDBRANCH   2   3
ENDBRANCH   1   2
BRANCH   1  20
ATOM     20  C   UNL A   1      37.579  24.335  26.022  1.00  0.00     0.116 C 
BRANCH  20  21
ATOM     21  N   UNL A   1      38.862  23.714  26.317  1.00  0.00    -0.352 N 
ATOM     22  C   UNL A   1      40.023  24.292  26.763  1.00  0.00     0.251 C 
ATOM     23  H   UNL A   1      38.902  22.741  26.177  1.00  0.00     0.163 HD
ATOM     24  O   UNL A   1      41.086  23.693  26.607  1.00  0.00    -0.269 OA
BRANCH  22  25
ATOM     25  C   UNL A   1      40.020  25.620  27.407  1.00  0.00     0.039 A 
ATOM     26  C   UNL A   1      39.522  25.718  28.713  1.00  0.00     0.014 A 
ATOM     27  C   UNL A   1      40.425  26.766  26.715  1.00  0.00     0.014 A 
ATOM     28  C   UNL A   1      39.491  26.955  29.346  1.00  0.00     0.010 A 
ATOM     29  C   UNL A   1      40.413  28.002  27.353  1.00  0.00     0.010 A 
ATOM     30  C   UNL A   1      39.959  28.093  28.673  1.00  0.00    -0.014 A 
BRANCH  30  31
ATOM     31  C   UNL A   1      40.130  29.350  29.438  1.00  0.00     0.031 A 
ATOM     32  C   UNL A   1      38.917  30.295  29.216  1.00  0.00     0.074 A 
ATOM     33  C   UNL A   1      41.296  29.478  30.147  1.00  0.00     0.049 A 
ATOM     34  N   UNL A   1      38.858  31.592  29.118  1.00  0.00    -0.248 NA
ATOM     35  C   UNL A   1      37.584  29.691  28.929  1.00  0.00     0.031 C 
ATOM     36  C   UNL A   1      42.326  28.420  30.287  1.00  0.00     0.029 A 
ATOM     37  N   UNL A   1      41.864  30.492  30.894  1.00  0.00    -0.354 N 
ATOM     38  C   UNL A   1      37.484  31.948  29.003  1.00  0.00     0.074 A 
ATOM     39  C   UNL A   1      36.779  30.737  28.728  1.00  0.00     0.031 C 
ATOM     40  C   UNL A   1      43.399  28.867  30.979  1.00  0.00     0.029 A 
ATOM     41  C   UNL A   1      43.182  30.247  31.372  1.00  0.00     0.049 A 
ATOM     42  H   UNL A   1      41.388  31.332  31.083  1.00  0.00     0.167 HD
ATOM     43  C   UNL A   1      36.997  33.191  29.306  1.00  0.00     0.034 A 
ATOM     44  C   UNL A   1      44.051  31.109  31.992  1.00  0.00     0.034 A 
ATOM     45  C   UNL A   1      38.073  34.006  29.767  1.00  0.00     0.049 A 
ATOM     46  C   UNL A   1      43.277  32.336  32.211  1.00  0.00     0.074 A 
ATOM     47  C   UNL A   1      39.116  34.622  29.131  1.00  0.00     0.029 A 
ATOM     48  N   UNL A   1      38.331  33.920  31.114  1.00  0.00    -0.354 N 
ATOM     49  N   UNL A   1      42.338  32.467  33.100  1.00  0.00    -0.248 NA
ATOM     50  C   UNL A   1      43.465  33.460  31.286  1.00  0.00     0.031 C 
ATOM     51  C   UNL A   1      40.178  34.454  30.041  1.00  0.00     0.029 A 
ATOM     52  C   UNL A   1      39.690  33.974  31.264  1.00  0.00     0.049 A 
ATOM     53  H   UNL A   1      37.665  33.835  31.834  1.00  0.00     0.167 HD
ATOM     54  C   UNL A   1      41.609  33.509  32.586  1.00  0.00     0.074 A 
ATOM     55  C   UNL A   1      42.504  34.259  31.734  1.00  0.00     0.031 C 
ATOM     56  C   UNL A   1      40.264  33.388  32.450  1.00  0.00     0.034 A 
BRANCH  43  57
ATOM     57  C   UNL A   1      35.613  33.780  29.505  1.00  0.00     0.023 A 
ATOM     58  C   UNL A   1      34.991  34.292  28.326  1.00  0.00     0.012 A 
ATOM     59  C   UNL A   1      35.030  34.130  30.733  1.00  0.00     0.148 A 
ATOM     60  C   UNL A   1      33.940  35.207  28.361  1.00  0.00     0.002 A 
ATOM     61  C   UNL A   1      33.939  35.011  30.763  1.00  0.00     0.091 A 
ATOM     62  F   UNL A   1      35.571  33.682  31.870  1.00  0.00    -0.205 F 
ATOM     63  C   UNL A   1      33.423  35.579  29.587  1.00  0.00     0.022 A 
BRANCH  61  64
ATOM     64  S   UNL A   1      33.119  35.506  32.283  1.00  0.00     0.127 S 
ATOM     65  O   UNL A   1      32.779  34.216  32.879  1.00  0.00    -0.237 OA
ATOM     66  O   UNL A   1      34.186  36.230  32.978  1.00  0.00    -0.237 OA
ATOM     67  O   UNL A   1      32.002  36.345  31.875  1.00  0.00    -0.744 OA
ENDBRANCH  61  64
ENDBRANCH  43  57
BRANCH  44  68
ATOM     68  C   UNL A   1      45.525  31.162  32.351  1.00  0.00     0.023 A 
ATOM     69  C   UNL A   1      46.563  31.344  31.428  1.00  0.00     0.012 A 
ATOM     70  C   UNL A   1      45.928  31.110  33.725  1.00  0.00     0.148 A 
ATOM     71  C   UNL A   1      47.892  31.567  31.853  1.00  0.00     0.002 A 
ATOM     72  C   UNL A   1      47.204  31.462  34.147  1.00  0.00     0.091 A 
ATOM     73  F   UNL A   1      45.074  30.667  34.652  1.00  0.00    -0.205 F 
ATOM     74  C   UNL A   1      48.203  31.681  33.209  1.00  0.00     0.022 A 
BRANCH  72  75
ATOM     75  S   UNL A   1      47.569  31.803  35.884  1.00  0.00     0.127 S 
ATOM     76  O   UNL A   1      48.941  32.302  35.824  1.00  0.00    -0.237 OA
ATOM     77  O   UNL A   1      46.560  32.815  36.200  1.00  0.00    -0.237 OA
ATOM     78  O   UNL A   1      47.399  30.543  36.596  1.00  0.00    -0.744 OA
ENDBRANCH  72  75
ENDBRANCH  44  68
BRANCH  56  79
ATOM     79  C   UNL A   1      39.604  32.390  33.403  1.00  0.00     0.023 A 
ATOM     80  C   UNL A   1      39.200  31.158  32.851  1.00  0.00     0.012 A 
ATOM     81  C   UNL A   1      39.262  32.631  34.757  1.00  0.00     0.148 A 
ATOM     82  C   UNL A   1      38.484  30.215  33.595  1.00  0.00     0.002 A 
ATOM     83  C   UNL A   1      38.532  31.694  35.500  1.00  0.00     0.091 A 
ATOM     84  F   UNL A   1      39.647  33.772  35.320  1.00  0.00    -0.205 F 
ATOM     85  C   UNL A   1      38.148  30.482  34.916  1.00  0.00     0.022 A 
BRANCH  83  86
ATOM     86  S   UNL A   1      37.965  31.973  37.195  1.00  0.00     0.127 S 
ATOM     87  O   UNL A   1      39.199  32.362  37.882  1.00  0.00    -0.237 OA
ATOM     88  O   UNL A   1      37.010  33.064  37.024  1.00  0.00    -0.237 OA
ATOM     89  O   UNL A   1      37.400  30.712  37.663  1.00  0.00    -0.744 OA
ENDBRANCH  83  86
ENDBRANCH  56  79
ENDBRANCH  30  31
ENDBRANCH  22  25
ENDBRANCH  20  21
ENDBRANCH   1  20
TORSDOF 16
ENDMDL
