MODEL 1
REMARK VINA RESULT:     -11.1      0.000      0.000
REMARK SMILES C[C@@H]([C@H](C)O)[C@@H](Cc1ccccc1)C(=O)NCCCCNC(=O)c1ccc(-c2c3nc(c(-c4cccc(S(=O)(=O)[O-])c4F)c4ccc([nH]4)c(-c4cccc(S(=O)(=O)[O-])c4F)c4nc(c(-c5cccc(S(=O)(=O)[O-])c5F)c5ccc2[nH]5)C=C4)C=C3)cc1
REMARK SMILES IDX 18 1 17 2 16 3 14 4 15 5 6 7 2 8 1 9 3 10 4 11 5 12 7 14
REMARK SMILES IDX 8 15 9 16 13 17 10 18 12 19 11 20 19 21 20 22 21 23 22 24
REMARK SMILES IDX 23 26 24 27 25 28 86 29 26 30 85 31 27 32 28 33 29 34 79 35
REMARK SMILES IDX 30 36 84 37 78 38 80 39 31 40 83 41 77 42 76 43 32 45 64 46
REMARK SMILES IDX 44 47 63 48 45 49 48 50 62 51 81 52 46 53 47 54 61 56 82 57
REMARK SMILES IDX 49 58 33 59 34 60 42 61 35 62 37 63 43 64 36 65 38 66 39 67
REMARK SMILES IDX 40 68 41 69 65 70 66 71 74 72 67 73 69 74 75 75 68 76 70 77
REMARK SMILES IDX 71 78 72 79 73 80 50 81 51 82 59 83 52 84 54 85 60 86 53 87
REMARK SMILES IDX 55 88 56 89 57 90 58 91
REMARK H PARENT 16 6 5 13 21 25 80 44 48 55
REMARK Flexibility Score: inf
ROOT
ATOM      1  C   UNL A   1      34.388  22.307  26.477  1.00  0.00     0.023 C 
ENDROOT
BRANCH   1   2
ATOM      2  C   UNL A   1      33.049  21.624  26.248  1.00  0.00     0.116 C 
BRANCH   2   3
ATOM      3  N   UNL A   1      31.951  22.175  27.012  1.00  0.00    -0.356 N 
ATOM      4  C   UNL A   1      31.164  23.255  26.751  1.00  0.00     0.223 C 
ATOM      5  O   UNL A   1      30.144  23.391  27.434  1.00  0.00    -0.275 OA
ATOM      6  H   UNL A   1      31.740  21.697  27.847  1.00  0.00     0.163 HD
BRANCH   4   7
ATOM      7  C   UNL A   1      31.505  24.316  25.693  1.00  0.00     0.088 C 
BRANCH   7   8
ATOM      8  C   UNL A   1      31.395  23.808  24.225  1.00  0.00     0.027 C 
ATOM      9  C   UNL A   1      30.346  24.582  23.408  1.00  0.00     0.011 C 
BRANCH   8  10
ATOM     10  C   UNL A   1      32.778  23.803  23.502  1.00  0.00     0.115 C 
ATOM     11  C   UNL A   1      33.062  25.015  22.615  1.00  0.00     0.038 C 
BRANCH  10  12
ATOM     12  O   UNL A   1      32.892  22.616  22.710  1.00  0.00    -0.393 OA
ATOM     13  H   UNL A   1      32.153  22.021  22.913  1.00  0.00     0.210 HD
ENDBRANCH  10  12
ENDBRANCH   8  10
ENDBRANCH   7   8
BRANCH   7  14
ATOM     14  C   UNL A   1      30.956  25.721  26.052  1.00  0.00     0.049 C 
BRANCH  14  15
ATOM     15  C   UNL A   1      31.915  26.835  26.389  1.00  0.00    -0.047 A 
ATOM     16  C   UNL A   1      31.456  27.967  27.084  1.00  0.00     0.004 A 
ATOM     17  C   UNL A   1      33.264  26.784  26.009  1.00  0.00     0.004 A 
ATOM     18  C   UNL A   1      32.308  29.045  27.334  1.00  0.00     0.000 A 
ATOM     19  C   UNL A   1      34.111  27.870  26.248  1.00  0.00     0.000 A 
ATOM     20  C   UNL A   1      33.631  29.005  26.898  1.00  0.00     0.000 A 
ENDBRANCH  14  15
ENDBRANCH   7  14
ENDBRANCH   4   7
ENDBRANCH   2   3
ENDBRANCH   1   2
BRANCH   1  21
ATOM     21  C   UNL A   1      35.525  21.815  25.586  1.00  0.00     0.023 C 
BRANCH  21  22
ATOM     22  C   UNL A   1      36.911  22.392  25.873  1.00  0.00     0.116 C 
BRANCH  22  23
ATOM     23  N   UNL A   1      37.983  21.407  25.888  1.00  0.00    -0.352 N 
ATOM     24  C   UNL A   1      39.302  21.576  26.252  1.00  0.00     0.251 C 
ATOM     25  H   UNL A   1      37.732  20.500  25.601  1.00  0.00     0.163 HD
ATOM     26  O   UNL A   1      40.092  20.649  26.158  1.00  0.00    -0.269 OA
BRANCH  24  27
ATOM     27  C   UNL A   1      39.757  22.902  26.735  1.00  0.00     0.039 A 
ATOM     28  C   UNL A   1      40.621  22.964  27.831  1.00  0.00     0.014 A 
ATOM     29  C   UNL A   1      39.351  24.075  26.092  1.00  0.00     0.014 A 
ATOM     30  C   UNL A   1      41.125  24.201  28.245  1.00  0.00     0.010 A 
ATOM     31  C   UNL A   1      39.913  25.294  26.458  1.00  0.00     0.010 A 
ATOM     32  C   UNL A   1      40.796  25.374  27.545  1.00  0.00    -0.014 A 
BRANCH  32  33
ATOM     33  C   UNL A   1      41.346  26.695  27.949  1.00  0.00     0.031 A 
ATOM     34  C   UNL A   1      42.793  27.022  27.683  1.00  0.00     0.074 A 
ATOM     35  C   UNL A   1      40.572  27.570  28.622  1.00  0.00     0.049 A 
ATOM     36  N   UNL A   1      43.463  28.104  27.986  1.00  0.00    -0.248 NA
ATOM     37  C   UNL A   1      43.600  25.986  27.018  1.00  0.00     0.031 C 
ATOM     38  C   UNL A   1      39.183  27.339  29.022  1.00  0.00     0.029 A 
ATOM     39  N   UNL A   1      40.853  28.823  29.109  1.00  0.00    -0.354 N 
ATOM     40  C   UNL A   1      44.772  27.864  27.585  1.00  0.00     0.074 A 
ATOM     41  C   UNL A   1      44.812  26.519  27.054  1.00  0.00     0.031 C 
ATOM     42  C   UNL A   1      38.731  28.416  29.686  1.00  0.00     0.029 A 
ATOM     43  C   UNL A   1      39.800  29.406  29.774  1.00  0.00     0.049 A 
ATOM     44  H   UNL A   1      41.726  29.262  28.994  1.00  0.00     0.167 HD
ATOM     45  C   UNL A   1      45.839  28.699  27.617  1.00  0.00     0.034 A 
ATOM     46  C   UNL A   1      39.705  30.608  30.379  1.00  0.00     0.034 A 
ATOM     47  C   UNL A   1      45.785  30.054  28.092  1.00  0.00     0.049 A 
ATOM     48  C   UNL A   1      40.882  31.546  30.334  1.00  0.00     0.074 A 
ATOM     49  C   UNL A   1      46.787  31.008  28.089  1.00  0.00     0.029 A 
ATOM     50  N   UNL A   1      44.666  30.650  28.652  1.00  0.00    -0.354 N 
ATOM     51  N   UNL A   1      42.065  31.361  29.799  1.00  0.00    -0.248 NA
ATOM     52  C   UNL A   1      40.697  32.876  30.930  1.00  0.00     0.031 C 
ATOM     53  C   UNL A   1      46.276  32.180  28.657  1.00  0.00     0.029 A 
ATOM     54  C   UNL A   1      44.949  31.962  28.994  1.00  0.00     0.049 A 
ATOM     55  H   UNL A   1      43.798  30.207  28.787  1.00  0.00     0.167 HD
ATOM     56  C   UNL A   1      42.746  32.562  29.953  1.00  0.00     0.074 A 
ATOM     57  C   UNL A   1      41.838  33.474  30.617  1.00  0.00     0.031 C 
ATOM     58  C   UNL A   1      44.014  32.879  29.589  1.00  0.00     0.034 A 
BRANCH  45  59
ATOM     59  C   UNL A   1      47.142  28.185  27.062  1.00  0.00     0.023 A 
ATOM     60  C   UNL A   1      48.195  27.869  27.947  1.00  0.00     0.012 A 
ATOM     61  C   UNL A   1      47.314  27.971  25.681  1.00  0.00     0.148 A 
ATOM     62  C   UNL A   1      49.410  27.386  27.464  1.00  0.00     0.002 A 
ATOM     63  C   UNL A   1      48.513  27.446  25.211  1.00  0.00     0.091 A 
ATOM     64  F   UNL A   1      46.312  28.297  24.853  1.00  0.00    -0.205 F 
ATOM     65  C   UNL A   1      49.564  27.166  26.099  1.00  0.00     0.022 A 
BRANCH  63  66
ATOM     66  S   UNL A   1      48.784  27.050  23.479  1.00  0.00     0.127 S 
ATOM     67  O   UNL A   1      48.027  25.807  23.339  1.00  0.00    -0.237 OA
ATOM     68  O   UNL A   1      48.189  28.204  22.804  1.00  0.00    -0.237 OA
ATOM     69  O   UNL A   1      50.225  26.929  23.317  1.00  0.00    -0.744 OA
ENDBRANCH  63  66
ENDBRANCH  45  59
BRANCH  46  70
ATOM     70  C   UNL A   1      38.415  31.033  30.995  1.00  0.00     0.023 A 
ATOM     71  C   UNL A   1      38.211  30.833  32.374  1.00  0.00     0.012 A 
ATOM     72  C   UNL A   1      37.403  31.649  30.234  1.00  0.00     0.148 A 
ATOM     73  C   UNL A   1      37.009  31.205  32.979  1.00  0.00     0.002 A 
ATOM     74  C   UNL A   1      36.228  32.066  30.853  1.00  0.00     0.091 A 
ATOM     75  F   UNL A   1      37.610  31.822  28.921  1.00  0.00    -0.205 F 
ATOM     76  C   UNL A   1      36.023  31.829  32.221  1.00  0.00     0.022 A 
BRANCH  74  77
ATOM     77  S   UNL A   1      34.957  32.989  29.983  1.00  0.00     0.127 S 
ATOM     78  O   UNL A   1      34.041  33.331  31.067  1.00  0.00    -0.237 OA
ATOM     79  O   UNL A   1      35.718  34.115  29.441  1.00  0.00    -0.237 OA
ATOM     80  O   UNL A   1      34.434  32.079  28.973  1.00  0.00    -0.744 OA
ENDBRANCH  74  77
ENDBRANCH  46  70
BRANCH  58  81
ATOM     81  C   UNL A   1      44.487  34.285  29.847  1.00  0.00     0.023 A 
ATOM     82  C   UNL A   1      45.116  34.604  31.066  1.00  0.00     0.012 A 
ATOM     83  C   UNL A   1      44.376  35.272  28.848  1.00  0.00     0.148 A 
ATOM     84  C   UNL A   1      45.597  35.892  31.300  1.00  0.00     0.002 A 
ATOM     85  C   UNL A   1      44.900  36.540  29.068  1.00  0.00     0.091 A 
ATOM     86  F   UNL A   1      43.755  34.957  27.701  1.00  0.00    -0.205 F 
ATOM     87  C   UNL A   1      45.500  36.855  30.298  1.00  0.00     0.022 A 
BRANCH  85  88
ATOM     88  S   UNL A   1      44.906  37.807  27.793  1.00  0.00     0.127 S 
ATOM     89  O   UNL A   1      45.705  38.857  28.421  1.00  0.00    -0.237 OA
ATOM     90  O   UNL A   1      45.562  37.126  26.677  1.00  0.00    -0.237 OA
ATOM     91  O   UNL A   1      43.507  38.136  27.556  1.00  0.00    -0.744 OA
ENDBRANCH  85  88
ENDBRANCH  58  81
ENDBRANCH  32  33
ENDBRANCH  24  27
ENDBRANCH  22  23
ENDBRANCH  21  22
ENDBRANCH   1  21
TORSDOF 19
ENDMDL
MODEL 2
REMARK VINA RESULT:     -11.1      4.646      9.368
REMARK SMILES C[C@@H]([C@H](C)O)[C@@H](Cc1ccccc1)C(=O)NCCCCNC(=O)c1ccc(-c2c3nc(c(-c4cccc(S(=O)(=O)[O-])c4F)c4ccc([nH]4)c(-c4cccc(S(=O)(=O)[O-])c4F)c4nc(c(-c5cccc(S(=O)(=O)[O-])c5F)c5ccc2[nH]5)C=C4)C=C3)cc1
REMARK SMILES IDX 18 1 17 2 16 3 14 4 15 5 6 7 2 8 1 9 3 10 4 11 5 12 7 14
REMARK SMILES IDX 8 15 9 16 13 17 10 18 12 19 11 20 19 21 20 22 21 23 22 24
REMARK SMILES IDX 23 26 24 27 25 28 86 29 26 30 85 31 27 32 28 33 29 34 79 35
REMARK SMILES IDX 30 36 84 37 78 38 80 39 31 40 83 41 77 42 76 43 32 45 64 46
REMARK SMILES IDX 44 47 63 48 45 49 48 50 62 51 81 52 46 53 47 54 61 56 82 57
REMARK SMILES IDX 49 58 33 59 34 60 42 61 35 62 37 63 43 64 36 65 38 66 39 67
REMARK SMILES IDX 40 68 41 69 65 70 66 71 74 72 67 73 69 74 75 75 68 76 70 77
REMARK SMILES IDX 71 78 72 79 73 80 50 81 51 82 59 83 52 84 54 85 60 86 53 87
REMARK SMILES IDX 55 88 56 89 57 90 58 91
REMARK H PARENT 16 6 5 13 21 25 80 44 48 55
REMARK Flexibility Score: inf
ROOT
ATOM      1  C   UNL A   1      33.479  26.428  25.241  1.00  0.00     0.023 C 
ENDROOT
BRANCH   1   2
ATOM      2  C   UNL A   1      33.678  25.199  26.114  1.00  0.00     0.116 C 
BRANCH   2   3
ATOM      3  N   UNL A   1      32.466  24.674  26.704  1.00  0.00    -0.356 N 
ATOM      4  C   UNL A   1      31.711  23.604  26.335  1.00  0.00     0.223 C 
ATOM      5  O   UNL A   1      30.850  23.215  27.131  1.00  0.00    -0.275 OA
ATOM      6  H   UNL A   1      32.137  25.166  27.492  1.00  0.00     0.163 HD
BRANCH   4   7
ATOM      7  C   UNL A   1      31.850  22.895  24.979  1.00  0.00     0.088 C 
BRANCH   7   8
ATOM      8  C   UNL A   1      32.221  21.386  25.084  1.00  0.00     0.027 C 
ATOM      9  C   UNL A   1      32.437  20.732  23.708  1.00  0.00     0.011 C 
BRANCH   8  10
ATOM     10  C   UNL A   1      33.447  21.148  26.018  1.00  0.00     0.115 C 
ATOM     11  C   UNL A   1      34.816  21.241  25.346  1.00  0.00     0.038 C 
BRANCH  10  12
ATOM     12  O   UNL A   1      33.326  19.863  26.637  1.00  0.00    -0.393 OA
ATOM     13  H   UNL A   1      32.524  19.422  26.313  1.00  0.00     0.210 HD
ENDBRANCH  10  12
ENDBRANCH   8  10
ENDBRANCH   7   8
BRANCH   7  14
ATOM     14  C   UNL A   1      30.776  23.341  23.954  1.00  0.00     0.049 C 
BRANCH  14  15
ATOM     15  C   UNL A   1      30.773  24.761  23.444  1.00  0.00    -0.047 A 
ATOM     16  C   UNL A   1      31.610  25.121  22.374  1.00  0.00     0.004 A 
ATOM     17  C   UNL A   1      29.966  25.750  24.024  1.00  0.00     0.004 A 
ATOM     18  C   UNL A   1      31.684  26.447  21.941  1.00  0.00     0.000 A 
ATOM     19  C   UNL A   1      30.052  27.078  23.598  1.00  0.00     0.000 A 
ATOM     20  C   UNL A   1      30.919  27.429  22.566  1.00  0.00     0.000 A 
ENDBRANCH  14  15
ENDBRANCH   7  14
ENDBRANCH   4   7
ENDBRANCH   2   3
ENDBRANCH   1   2
BRANCH   1  21
ATOM     21  C   UNL A   1      33.117  27.705  25.996  1.00  0.00     0.023 C 
BRANCH  21  22
ATOM     22  C   UNL A   1      34.263  28.678  26.271  1.00  0.00     0.116 C 
BRANCH  22  23
ATOM     23  N   UNL A   1      33.845  29.964  26.809  1.00  0.00    -0.352 N 
ATOM     24  C   UNL A   1      34.498  30.771  27.718  1.00  0.00     0.251 C 
ATOM     25  H   UNL A   1      32.981  30.304  26.481  1.00  0.00     0.163 HD
ATOM     26  O   UNL A   1      33.981  31.806  28.108  1.00  0.00    -0.269 OA
BRANCH  24  27
ATOM     27  C   UNL A   1      35.824  30.354  28.236  1.00  0.00     0.039 A 
ATOM     28  C   UNL A   1      35.889  29.652  29.442  1.00  0.00     0.014 A 
ATOM     29  C   UNL A   1      36.991  30.635  27.521  1.00  0.00     0.014 A 
ATOM     30  C   UNL A   1      37.123  29.180  29.901  1.00  0.00     0.010 A 
ATOM     31  C   UNL A   1      38.205  30.099  27.940  1.00  0.00     0.010 A 
ATOM     32  C   UNL A   1      38.288  29.376  29.140  1.00  0.00    -0.014 A 
BRANCH  32  33
ATOM     33  C   UNL A   1      39.604  28.854  29.593  1.00  0.00     0.031 A 
ATOM     34  C   UNL A   1      40.350  29.550  30.702  1.00  0.00     0.074 A 
ATOM     35  C   UNL A   1      40.167  27.805  28.961  1.00  0.00     0.049 A 
ATOM     36  N   UNL A   1      41.519  29.266  31.214  1.00  0.00    -0.248 NA
ATOM     37  C   UNL A   1      39.712  30.739  31.292  1.00  0.00     0.031 C 
ATOM     38  C   UNL A   1      39.592  27.099  27.814  1.00  0.00     0.029 A 
ATOM     39  N   UNL A   1      41.362  27.165  29.178  1.00  0.00    -0.354 N 
ATOM     40  C   UNL A   1      41.773  30.258  32.155  1.00  0.00     0.074 A 
ATOM     41  C   UNL A   1      40.655  31.174  32.114  1.00  0.00     0.031 C 
ATOM     42  C   UNL A   1      40.430  26.120  27.434  1.00  0.00     0.029 A 
ATOM     43  C   UNL A   1      41.608  26.137  28.297  1.00  0.00     0.049 A 
ATOM     44  H   UNL A   1      41.985  27.417  29.897  1.00  0.00     0.167 HD
ATOM     45  C   UNL A   1      42.821  30.378  33.005  1.00  0.00     0.034 A 
ATOM     46  C   UNL A   1      42.659  25.299  28.201  1.00  0.00     0.034 A 
ATOM     47  C   UNL A   1      43.904  29.436  33.084  1.00  0.00     0.049 A 
ATOM     48  C   UNL A   1      43.775  25.406  29.206  1.00  0.00     0.074 A 
ATOM     49  C   UNL A   1      44.969  29.420  33.966  1.00  0.00     0.029 A 
ATOM     50  N   UNL A   1      44.058  28.339  32.251  1.00  0.00    -0.354 N 
ATOM     51  N   UNL A   1      43.914  26.253  30.198  1.00  0.00    -0.248 NA
ATOM     52  C   UNL A   1      44.854  24.412  29.113  1.00  0.00     0.031 C 
ATOM     53  C   UNL A   1      45.773  28.317  33.660  1.00  0.00     0.029 A 
ATOM     54  C   UNL A   1      45.197  27.634  32.601  1.00  0.00     0.049 A 
ATOM     55  H   UNL A   1      43.446  28.096  31.518  1.00  0.00     0.167 HD
ATOM     56  C   UNL A   1      45.067  25.866  30.871  1.00  0.00     0.074 A 
ATOM     57  C   UNL A   1      45.580  24.699  30.184  1.00  0.00     0.031 C 
ATOM     58  C   UNL A   1      45.656  26.434  31.953  1.00  0.00     0.034 A 
BRANCH  45  59
ATOM     59  C   UNL A   1      42.811  31.540  33.964  1.00  0.00     0.023 A 
ATOM     60  C   UNL A   1      43.352  32.778  33.557  1.00  0.00     0.012 A 
ATOM     61  C   UNL A   1      42.231  31.427  35.241  1.00  0.00     0.148 A 
ATOM     62  C   UNL A   1      43.351  33.873  34.419  1.00  0.00     0.002 A 
ATOM     63  C   UNL A   1      42.192  32.537  36.079  1.00  0.00     0.091 A 
ATOM     64  F   UNL A   1      41.741  30.238  35.620  1.00  0.00    -0.205 F 
ATOM     65  C   UNL A   1      42.763  33.755  35.675  1.00  0.00     0.022 A 
BRANCH  63  66
ATOM     66  S   UNL A   1      41.387  32.510  37.685  1.00  0.00     0.127 S 
ATOM     67  O   UNL A   1      41.517  33.905  38.103  1.00  0.00    -0.237 OA
ATOM     68  O   UNL A   1      40.024  32.103  37.339  1.00  0.00    -0.237 OA
ATOM     69  O   UNL A   1      42.123  31.543  38.486  1.00  0.00    -0.744 OA
ENDBRANCH  63  66
ENDBRANCH  45  59
BRANCH  46  70
ATOM     70  C   UNL A   1      42.661  24.219  27.173  1.00  0.00     0.023 A 
ATOM     71  C   UNL A   1      43.326  24.433  25.949  1.00  0.00     0.012 A 
ATOM     72  C   UNL A   1      42.031  22.980  27.403  1.00  0.00     0.148 A 
ATOM     73  C   UNL A   1      43.334  23.450  24.959  1.00  0.00     0.002 A 
ATOM     74  C   UNL A   1      42.088  21.985  26.432  1.00  0.00     0.091 A 
ATOM     75  F   UNL A   1      41.394  22.797  28.568  1.00  0.00    -0.205 F 
ATOM     76  C   UNL A   1      42.723  22.224  25.204  1.00  0.00     0.022 A 
BRANCH  74  77
ATOM     77  S   UNL A   1      41.440  20.333  26.710  1.00  0.00     0.127 S 
ATOM     78  O   UNL A   1      42.209  19.901  27.873  1.00  0.00    -0.237 OA
ATOM     79  O   UNL A   1      40.025  20.603  26.972  1.00  0.00    -0.237 OA
ATOM     80  O   UNL A   1      41.690  19.601  25.476  1.00  0.00    -0.744 OA
ENDBRANCH  74  77
ENDBRANCH  46  70
BRANCH  58  81
ATOM     81  C   UNL A   1      46.893  25.776  32.504  1.00  0.00     0.023 A 
ATOM     82  C   UNL A   1      46.800  24.930  33.627  1.00  0.00     0.012 A 
ATOM     83  C   UNL A   1      48.137  25.937  31.862  1.00  0.00     0.148 A 
ATOM     84  C   UNL A   1      47.932  24.282  34.121  1.00  0.00     0.002 A 
ATOM     85  C   UNL A   1      49.250  25.251  32.330  1.00  0.00     0.091 A 
ATOM     86  F   UNL A   1      48.211  26.764  30.807  1.00  0.00    -0.205 F 
ATOM     87  C   UNL A   1      49.152  24.432  33.466  1.00  0.00     0.022 A 
BRANCH  85  88
ATOM     88  S   UNL A   1      50.835  25.311  31.485  1.00  0.00     0.127 S 
ATOM     89  O   UNL A   1      51.613  24.333  32.243  1.00  0.00    -0.237 OA
ATOM     90  O   UNL A   1      50.484  24.891  30.128  1.00  0.00    -0.237 OA
ATOM     91  O   UNL A   1      51.286  26.692  31.587  1.00  0.00    -0.744 OA
ENDBRANCH  85  88
ENDBRANCH  58  81
ENDBRANCH  32  33
ENDBRANCH  24  27
ENDBRANCH  22  23
ENDBRANCH  21  22
ENDBRANCH   1  21
TORSDOF 19
ENDMDL
MODEL 3
REMARK VINA RESULT:     -11.0      2.619      3.437
REMARK SMILES C[C@@H]([C@H](C)O)[C@@H](Cc1ccccc1)C(=O)NCCCCNC(=O)c1ccc(-c2c3nc(c(-c4cccc(S(=O)(=O)[O-])c4F)c4ccc([nH]4)c(-c4cccc(S(=O)(=O)[O-])c4F)c4nc(c(-c5cccc(S(=O)(=O)[O-])c5F)c5ccc2[nH]5)C=C4)C=C3)cc1
REMARK SMILES IDX 18 1 17 2 16 3 14 4 15 5 6 7 2 8 1 9 3 10 4 11 5 12 7 14
REMARK SMILES IDX 8 15 9 16 13 17 10 18 12 19 11 20 19 21 20 22 21 23 22 24
REMARK SMILES IDX 23 26 24 27 25 28 86 29 26 30 85 31 27 32 28 33 29 34 79 35
REMARK SMILES IDX 30 36 84 37 78 38 80 39 31 40 83 41 77 42 76 43 32 45 64 46
REMARK SMILES IDX 44 47 63 48 45 49 48 50 62 51 81 52 46 53 47 54 61 56 82 57
REMARK SMILES IDX 49 58 33 59 34 60 42 61 35 62 37 63 43 64 36 65 38 66 39 67
REMARK SMILES IDX 40 68 41 69 65 70 66 71 74 72 67 73 69 74 75 75 68 76 70 77
REMARK SMILES IDX 71 78 72 79 73 80 50 81 51 82 59 83 52 84 54 85 60 86 53 87
REMARK SMILES IDX 55 88 56 89 57 90 58 91
REMARK H PARENT 16 6 5 13 21 25 80 44 48 55
REMARK Flexibility Score: inf
ROOT
ATOM      1  C   UNL A   1      34.946  24.819  25.737  1.00  0.00     0.023 C 
ENDROOT
BRANCH   1   2
ATOM      2  C   UNL A   1      33.616  24.741  25.005  1.00  0.00     0.116 C 
BRANCH   2   3
ATOM      3  N   UNL A   1      32.452  24.755  25.864  1.00  0.00    -0.356 N 
ATOM      4  C   UNL A   1      31.472  25.692  25.987  1.00  0.00     0.223 C 
ATOM      5  O   UNL A   1      30.460  25.375  26.620  1.00  0.00    -0.275 OA
ATOM      6  H   UNL A   1      32.353  23.970  26.449  1.00  0.00     0.163 HD
BRANCH   4   7
ATOM      7  C   UNL A   1      31.584  27.116  25.419  1.00  0.00     0.088 C 
BRANCH   7   8
ATOM      8  C   UNL A   1      32.733  27.962  26.043  1.00  0.00     0.027 C 
ATOM      9  C   UNL A   1      33.762  28.425  24.998  1.00  0.00     0.011 C 
BRANCH   8  10
ATOM     10  C   UNL A   1      32.189  29.168  26.870  1.00  0.00     0.115 C 
ATOM     11  C   UNL A   1      31.611  30.322  26.050  1.00  0.00     0.038 C 
BRANCH  10  12
ATOM     12  O   UNL A   1      33.234  29.677  27.706  1.00  0.00    -0.393 OA
ATOM     13  H   UNL A   1      32.859  30.301  28.347  1.00  0.00     0.210 HD
ENDBRANCH  10  12
ENDBRANCH   8  10
ENDBRANCH   7   8
BRANCH   7  14
ATOM     14  C   UNL A   1      31.349  27.173  23.887  1.00  0.00     0.049 C 
BRANCH  14  15
ATOM     15  C   UNL A   1      30.267  28.065  23.330  1.00  0.00    -0.047 A 
ATOM     16  C   UNL A   1      28.917  27.704  23.479  1.00  0.00     0.004 A 
ATOM     17  C   UNL A   1      30.572  29.247  22.641  1.00  0.00     0.004 A 
ATOM     18  C   UNL A   1      27.905  28.473  22.899  1.00  0.00     0.000 A 
ATOM     19  C   UNL A   1      29.558  30.007  22.050  1.00  0.00     0.000 A 
ATOM     20  C   UNL A   1      28.227  29.614  22.168  1.00  0.00     0.000 A 
ENDBRANCH  14  15
ENDBRANCH   7  14
ENDBRANCH   4   7
ENDBRANCH   2   3
ENDBRANCH   1   2
BRANCH   1  21
ATOM     21  C   UNL A   1      35.734  23.512  25.784  1.00  0.00     0.023 C 
BRANCH  21  22
ATOM     22  C   UNL A   1      37.050  23.484  25.007  1.00  0.00     0.116 C 
BRANCH  22  23
ATOM     23  N   UNL A   1      38.011  22.500  25.484  1.00  0.00    -0.352 N 
ATOM     24  C   UNL A   1      39.135  22.699  26.258  1.00  0.00     0.251 C 
ATOM     25  H   UNL A   1      37.834  21.569  25.220  1.00  0.00     0.163 HD
ATOM     26  O   UNL A   1      39.870  21.763  26.531  1.00  0.00    -0.269 OA
BRANCH  24  27
ATOM     27  C   UNL A   1      39.455  24.067  26.733  1.00  0.00     0.039 A 
ATOM     28  C   UNL A   1      39.163  24.411  28.055  1.00  0.00     0.014 A 
ATOM     29  C   UNL A   1      40.062  24.996  25.883  1.00  0.00     0.014 A 
ATOM     30  C   UNL A   1      39.536  25.668  28.542  1.00  0.00     0.010 A 
ATOM     31  C   UNL A   1      40.499  26.215  26.390  1.00  0.00     0.010 A 
ATOM     32  C   UNL A   1      40.231  26.571  27.721  1.00  0.00    -0.014 A 
BRANCH  32  33
ATOM     33  C   UNL A   1      40.665  27.900  28.227  1.00  0.00     0.031 A 
ATOM     34  C   UNL A   1      42.131  28.240  28.293  1.00  0.00     0.074 A 
ATOM     35  C   UNL A   1      39.751  28.772  28.700  1.00  0.00     0.049 A 
ATOM     36  N   UNL A   1      42.706  29.330  28.730  1.00  0.00    -0.248 NA
ATOM     37  C   UNL A   1      43.076  27.207  27.836  1.00  0.00     0.031 C 
ATOM     38  C   UNL A   1      38.309  28.529  28.777  1.00  0.00     0.029 A 
ATOM     39  N   UNL A   1      39.904  30.030  29.228  1.00  0.00    -0.354 N 
ATOM     40  C   UNL A   1      44.074  29.101  28.638  1.00  0.00     0.074 A 
ATOM     41  C   UNL A   1      44.244  27.753  28.141  1.00  0.00     0.031 C 
ATOM     42  C   UNL A   1      37.710  29.606  29.313  1.00  0.00     0.029 A 
ATOM     43  C   UNL A   1      38.723  30.607  29.633  1.00  0.00     0.049 A 
ATOM     44  H   UNL A   1      40.777  30.477  29.310  1.00  0.00     0.167 HD
ATOM     45  C   UNL A   1      45.099  29.946  28.904  1.00  0.00     0.034 A 
ATOM     46  C   UNL A   1      38.484  31.812  30.191  1.00  0.00     0.034 A 
ATOM     47  C   UNL A   1      44.928  31.303  29.343  1.00  0.00     0.049 A 
ATOM     48  C   UNL A   1      39.633  32.761  30.405  1.00  0.00     0.074 A 
ATOM     49  C   UNL A   1      45.897  32.267  29.559  1.00  0.00     0.029 A 
ATOM     50  N   UNL A   1      43.707  31.892  29.631  1.00  0.00    -0.354 N 
ATOM     51  N   UNL A   1      40.907  32.584  30.153  1.00  0.00    -0.248 NA
ATOM     52  C   UNL A   1      39.307  34.093  30.933  1.00  0.00     0.031 C 
ATOM     53  C   UNL A   1      45.261  33.438  29.987  1.00  0.00     0.029 A 
ATOM     54  C   UNL A   1      43.894  33.208  30.016  1.00  0.00     0.049 A 
ATOM     55  H   UNL A   1      42.834  31.441  29.569  1.00  0.00     0.167 HD
ATOM     56  C   UNL A   1      41.526  33.793  30.447  1.00  0.00     0.074 A 
ATOM     57  C   UNL A   1      40.484  34.700  30.881  1.00  0.00     0.031 C 
ATOM     58  C   UNL A   1      42.841  34.120  30.377  1.00  0.00     0.034 A 
BRANCH  45  59
ATOM     59  C   UNL A   1      46.498  29.442  28.662  1.00  0.00     0.023 A 
ATOM     60  C   UNL A   1      47.097  29.644  27.400  1.00  0.00     0.012 A 
ATOM     61  C   UNL A   1      47.237  28.816  29.684  1.00  0.00     0.148 A 
ATOM     62  C   UNL A   1      48.393  29.195  27.148  1.00  0.00     0.002 A 
ATOM     63  C   UNL A   1      48.545  28.412  29.438  1.00  0.00     0.091 A 
ATOM     64  F   UNL A   1      46.645  28.613  30.870  1.00  0.00    -0.205 F 
ATOM     65  C   UNL A   1      49.118  28.589  28.169  1.00  0.00     0.022 A 
BRANCH  63  66
ATOM     66  S   UNL A   1      49.591  27.695  30.710  1.00  0.00     0.127 S 
ATOM     67  O   UNL A   1      48.853  26.479  31.047  1.00  0.00    -0.237 OA
ATOM     68  O   UNL A   1      50.843  27.467  29.987  1.00  0.00    -0.237 OA
ATOM     69  O   UNL A   1      49.676  28.691  31.768  1.00  0.00    -0.744 OA
ENDBRANCH  63  66
ENDBRANCH  45  59
BRANCH  46  70
ATOM     70  C   UNL A   1      37.085  32.228  30.495  1.00  0.00     0.023 A 
ATOM     71  C   UNL A   1      36.601  32.107  31.812  1.00  0.00     0.012 A 
ATOM     72  C   UNL A   1      36.240  32.759  29.500  1.00  0.00     0.148 A 
ATOM     73  C   UNL A   1      35.291  32.473  32.128  1.00  0.00     0.002 A 
ATOM     74  C   UNL A   1      34.953  33.170  29.833  1.00  0.00     0.091 A 
ATOM     75  F   UNL A   1      36.713  32.856  28.250  1.00  0.00    -0.205 F 
ATOM     76  C   UNL A   1      34.472  33.012  31.141  1.00  0.00     0.022 A 
BRANCH  74  77
ATOM     77  S   UNL A   1      33.872  33.992  28.657  1.00  0.00     0.127 S 
ATOM     78  O   UNL A   1      34.773  34.972  28.057  1.00  0.00    -0.237 OA
ATOM     79  O   UNL A   1      33.488  32.888  27.776  1.00  0.00    -0.237 OA
ATOM     80  O   UNL A   1      32.776  34.536  29.447  1.00  0.00    -0.744 OA
ENDBRANCH  74  77
ENDBRANCH  46  70
BRANCH  58  81
ATOM     81  C   UNL A   1      43.232  35.532  30.724  1.00  0.00     0.023 A 
ATOM     82  C   UNL A   1      43.551  35.869  32.054  1.00  0.00     0.012 A 
ATOM     83  C   UNL A   1      43.357  36.509  29.715  1.00  0.00     0.148 A 
ATOM     84  C   UNL A   1      43.956  37.163  32.380  1.00  0.00     0.002 A 
ATOM     85  C   UNL A   1      43.807  37.782  30.039  1.00  0.00     0.091 A 
ATOM     86  F   UNL A   1      43.028  36.177  28.457  1.00  0.00    -0.205 F 
ATOM     87  C   UNL A   1      44.095  38.115  31.373  1.00  0.00     0.022 A 
BRANCH  85  88
ATOM     88  S   UNL A   1      44.110  39.036  28.788  1.00  0.00     0.127 S 
ATOM     89  O   UNL A   1      42.780  39.201  28.204  1.00  0.00    -0.237 OA
ATOM     90  O   UNL A   1      44.570  40.172  29.586  1.00  0.00    -0.237 OA
ATOM     91  O   UNL A   1      45.122  38.476  27.902  1.00  0.00    -0.744 OA
ENDBRANCH  85  88
ENDBRANCH  58  81
ENDBRANCH  32  33
ENDBRANCH  24  27
ENDBRANCH  22  23
ENDBRANCH  21  22
ENDBRANCH   1  21
TORSDOF 19
ENDMDL
