MODEL 1
REMARK VINA RESULT:     -12.5      0.000      0.000
REMARK SMILES C[NH+]1CCN(c2nc3c(cc2F)c(=O)c(C(=O)NCCCCNC(=O)c2ccc(-c4c5nc(c(-c6cccc(S(=O)(=O)[O-])c6F)c6ccc([nH]6)c(-c6cccc(S(=O)(=O)[O-])c6F)c6nc(c(-c7cccc(S(=O)(=O)[O-])c7F)c7ccc4[nH]7)C=C6)C=C5)cc2)cn3-c2ccc(F)cc2F)CC1
REMARK SMILES IDX 21 1 20 2 19 3 18 4 16 5 17 6 15 8 6 9 7 10 11 11 8 12 10 13
REMARK SMILES IDX 12 14 9 15 90 16 13 17 89 18 14 19 5 20 1 21 2 22 3 23
REMARK SMILES IDX 100 24 4 26 99 27 91 28 92 29 97 30 93 31 96 32 98 33 94 34
REMARK SMILES IDX 95 35 22 36 23 37 24 38 25 40 26 41 27 42 88 43 28 44 87 45
REMARK SMILES IDX 29 46 30 47 31 48 81 49 32 50 86 51 80 52 82 53 33 54 85 55
REMARK SMILES IDX 79 56 78 57 34 59 66 60 46 61 65 62 47 63 50 64 64 65 83 66
REMARK SMILES IDX 48 67 49 68 63 70 84 71 51 72 35 73 36 74 44 75 37 76 39 77
REMARK SMILES IDX 45 78 38 79 40 80 41 81 42 82 43 83 67 84 68 85 76 86 69 87
REMARK SMILES IDX 71 88 77 89 70 90 72 91 73 92 74 93 75 94 52 95 53 96 61 97
REMARK SMILES IDX 54 98 56 99 62 100 55 101 57 102 58 103 59 104 60 105
REMARK H PARENT 18 7 2 25 23 39 82 58 50 69
REMARK Flexibility Score: inf
ROOT
ATOM      1  C   UNL A   1      33.834  28.324  25.710  1.00  0.00     0.023 C 
ENDROOT
BRANCH   1   2
ATOM      2  C   UNL A   1      32.818  28.688  24.633  1.00  0.00     0.023 C 
BRANCH   2   3
ATOM      3  C   UNL A   1      32.117  27.496  23.977  1.00  0.00     0.116 C 
BRANCH   3   4
ATOM      4  N   UNL A   1      32.606  27.277  22.631  1.00  0.00    -0.352 N 
ATOM      5  C   UNL A   1      33.102  26.175  22.011  1.00  0.00     0.256 C 
ATOM      6  O   UNL A   1      33.419  26.309  20.824  1.00  0.00    -0.269 OA
ATOM      7  H   UNL A   1      32.571  28.077  22.058  1.00  0.00     0.163 HD
BRANCH   5   8
ATOM      8  C   UNL A   1      33.207  24.835  22.656  1.00  0.00     0.104 A 
ATOM      9  C   UNL A   1      33.402  20.002  24.232  1.00  0.00     0.167 A 
ATOM     10  N   UNL A   1      34.168  21.097  24.462  1.00  0.00    -0.209 NA
ATOM     11  C   UNL A   1      32.264  20.076  23.425  1.00  0.00     0.166 A 
ATOM     12  C   UNL A   1      33.839  22.285  23.890  1.00  0.00     0.151 A 
ATOM     13  C   UNL A   1      31.874  21.289  22.895  1.00  0.00     0.059 A 
ATOM     14  F   UNL A   1      31.493  18.998  23.207  1.00  0.00    -0.203 F 
ATOM     15  C   UNL A   1      32.668  22.406  23.143  1.00  0.00     0.069 A 
ATOM     16  N   UNL A   1      34.676  23.438  24.048  1.00  0.00    -0.297 N 
ATOM     17  C   UNL A   1      32.226  23.729  22.684  1.00  0.00     0.203 A 
ATOM     18  C   UNL A   1      34.324  24.606  23.373  1.00  0.00     0.111 A 
ATOM     19  O   UNL A   1      31.042  23.844  22.398  1.00  0.00    -0.288 OA
BRANCH   9  20
ATOM     20  N   UNL A   1      33.772  18.838  24.853  1.00  0.00    -0.343 N 
ATOM     21  C   UNL A   1      32.755  14.744  25.319  1.00  0.00     0.332 C 
ATOM     22  N   UNL A   1      33.422  16.035  25.460  1.00  0.00    -0.334 N 
ATOM     23  C   UNL A   1      32.482  17.065  25.970  1.00  0.00     0.283 C 
ATOM     24  C   UNL A   1      33.969  16.478  24.154  1.00  0.00     0.283 C 
ATOM     25  H   UNL A   1      34.185  15.922  26.128  1.00  0.00     0.347 HD
ATOM     26  C   UNL A   1      33.138  18.463  26.112  1.00  0.00     0.179 C 
ATOM     27  C   UNL A   1      34.654  17.857  24.234  1.00  0.00     0.179 C 
ENDBRANCH   9  20
BRANCH  16  28
ATOM     28  C   UNL A   1      35.883  23.408  24.811  1.00  0.00     0.083 A 
ATOM     29  C   UNL A   1      35.966  24.053  26.058  1.00  0.00     0.033 A 
ATOM     30  C   UNL A   1      37.022  22.724  24.347  1.00  0.00     0.150 A 
ATOM     31  C   UNL A   1      37.142  24.005  26.808  1.00  0.00     0.041 A 
ATOM     32  C   UNL A   1      38.201  22.683  25.082  1.00  0.00     0.080 A 
ATOM     33  F   UNL A   1      36.998  22.112  23.153  1.00  0.00    -0.205 F 
ATOM     34  C   UNL A   1      38.249  23.325  26.310  1.00  0.00     0.126 A 
ATOM     35  F   UNL A   1      39.378  23.291  27.029  1.00  0.00    -0.207 F 
ENDBRANCH  16  28
ENDBRANCH   5   8
ENDBRANCH   3   4
ENDBRANCH   2   3
ENDBRANCH   1   2
BRANCH   1  36
ATOM     36  C   UNL A   1      33.494  28.834  27.103  1.00  0.00     0.116 C 
BRANCH  36  37
ATOM     37  N   UNL A   1      33.595  30.282  27.232  1.00  0.00    -0.352 N 
ATOM     38  C   UNL A   1      34.655  31.003  27.728  1.00  0.00     0.251 C 
ATOM     39  H   UNL A   1      32.817  30.803  26.931  1.00  0.00     0.163 HD
ATOM     40  O   UNL A   1      34.595  32.221  27.852  1.00  0.00    -0.269 OA
BRANCH  38  41
ATOM     41  C   UNL A   1      35.857  30.260  28.148  1.00  0.00     0.039 A 
ATOM     42  C   UNL A   1      36.971  30.250  27.305  1.00  0.00     0.014 A 
ATOM     43  C   UNL A   1      35.906  29.678  29.417  1.00  0.00     0.014 A 
ATOM     44  C   UNL A   1      38.167  29.702  27.764  1.00  0.00     0.010 A 
ATOM     45  C   UNL A   1      37.114  29.181  29.892  1.00  0.00     0.010 A 
ATOM     46  C   UNL A   1      38.250  29.189  29.068  1.00  0.00    -0.014 A 
BRANCH  46  47
ATOM     47  C   UNL A   1      39.520  28.634  29.589  1.00  0.00     0.031 A 
ATOM     48  C   UNL A   1      40.149  29.246  30.807  1.00  0.00     0.074 A 
ATOM     49  C   UNL A   1      40.138  27.638  28.927  1.00  0.00     0.049 A 
ATOM     50  N   UNL A   1      41.265  28.925  31.403  1.00  0.00    -0.248 NA
ATOM     51  C   UNL A   1      39.441  30.383  31.423  1.00  0.00     0.031 C 
ATOM     52  C   UNL A   1      39.656  27.009  27.695  1.00  0.00     0.029 A 
ATOM     53  N   UNL A   1      41.318  26.990  29.190  1.00  0.00    -0.354 N 
ATOM     54  C   UNL A   1      41.412  29.836  32.440  1.00  0.00     0.074 A 
ATOM     55  C   UNL A   1      40.283  30.738  32.382  1.00  0.00     0.031 C 
ATOM     56  C   UNL A   1      40.527  26.059  27.317  1.00  0.00     0.029 A 
ATOM     57  C   UNL A   1      41.633  26.020  28.269  1.00  0.00     0.049 A 
ATOM     58  H   UNL A   1      41.887  27.201  29.966  1.00  0.00     0.167 HD
ATOM     59  C   UNL A   1      42.382  29.892  33.380  1.00  0.00     0.034 A 
ATOM     60  C   UNL A   1      42.690  25.185  28.209  1.00  0.00     0.034 A 
ATOM     61  C   UNL A   1      43.460  28.952  33.479  1.00  0.00     0.049 A 
ATOM     62  C   UNL A   1      43.734  25.245  29.290  1.00  0.00     0.074 A 
ATOM     63  C   UNL A   1      44.425  28.854  34.464  1.00  0.00     0.029 A 
ATOM     64  N   UNL A   1      43.715  27.946  32.561  1.00  0.00    -0.354 N 
ATOM     65  N   UNL A   1      43.771  26.007  30.355  1.00  0.00    -0.248 NA
ATOM     66  C   UNL A   1      44.866  24.312  29.178  1.00  0.00     0.031 C 
ATOM     67  C   UNL A   1      45.269  27.787  34.140  1.00  0.00     0.029 A 
ATOM     68  C   UNL A   1      44.828  27.227  32.951  1.00  0.00     0.049 A 
ATOM     69  H   UNL A   1      43.182  27.771  31.752  1.00  0.00     0.167 HD
ATOM     70  C   UNL A   1      44.911  25.630  31.055  1.00  0.00     0.074 A 
ATOM     71  C   UNL A   1      45.534  24.564  30.297  1.00  0.00     0.031 C 
ATOM     72  C   UNL A   1      45.402  26.131  32.214  1.00  0.00     0.034 A 
BRANCH  59  73
ATOM     73  C   UNL A   1      42.274  30.964  34.425  1.00  0.00     0.023 A 
ATOM     74  C   UNL A   1      41.626  30.669  35.641  1.00  0.00     0.012 A 
ATOM     75  C   UNL A   1      42.861  32.228  34.235  1.00  0.00     0.148 A 
ATOM     76  C   UNL A   1      41.549  31.625  36.650  1.00  0.00     0.002 A 
ATOM     77  C   UNL A   1      42.803  33.168  35.256  1.00  0.00     0.091 A 
ATOM     78  F   UNL A   1      43.450  32.489  33.059  1.00  0.00    -0.205 F 
ATOM     79  C   UNL A   1      42.144  32.870  36.462  1.00  0.00     0.022 A 
BRANCH  77  80
ATOM     80  S   UNL A   1      43.574  34.786  35.134  1.00  0.00     0.127 S 
ATOM     81  O   UNL A   1      43.501  35.252  36.518  1.00  0.00    -0.237 OA
ATOM     82  O   UNL A   1      44.921  34.450  34.672  1.00  0.00    -0.237 OA
ATOM     83  O   UNL A   1      42.773  35.541  34.180  1.00  0.00    -0.744 OA
ENDBRANCH  77  80
ENDBRANCH  59  73
BRANCH  60  84
ATOM     84  C   UNL A   1      42.757  24.153  27.140  1.00  0.00     0.023 A 
ATOM     85  C   UNL A   1      43.421  24.465  25.938  1.00  0.00     0.012 A 
ATOM     86  C   UNL A   1      42.215  22.866  27.315  1.00  0.00     0.148 A 
ATOM     87  C   UNL A   1      43.532  23.517  24.920  1.00  0.00     0.002 A 
ATOM     88  C   UNL A   1      42.357  21.915  26.311  1.00  0.00     0.091 A 
ATOM     89  F   UNL A   1      41.583  22.596  28.466  1.00  0.00    -0.205 F 
ATOM     90  C   UNL A   1      43.007  22.242  25.109  1.00  0.00     0.022 A 
BRANCH  88  91
ATOM     91  S   UNL A   1      41.796  20.218  26.492  1.00  0.00     0.127 S 
ATOM     92  O   UNL A   1      42.391  19.842  27.772  1.00  0.00    -0.237 OA
ATOM     93  O   UNL A   1      40.342  20.384  26.514  1.00  0.00    -0.237 OA
ATOM     94  O   UNL A   1      42.305  19.507  25.328  1.00  0.00    -0.744 OA
ENDBRANCH  88  91
ENDBRANCH  60  84
BRANCH  72  95
ATOM     95  C   UNL A   1      46.670  25.539  32.760  1.00  0.00     0.023 A 
ATOM     96  C   UNL A   1      47.901  26.139  32.432  1.00  0.00     0.012 A 
ATOM     97  C   UNL A   1      46.631  24.492  33.700  1.00  0.00     0.148 A 
ATOM     98  C   UNL A   1      49.079  25.703  33.034  1.00  0.00     0.002 A 
ATOM     99  C   UNL A   1      47.804  24.085  34.320  1.00  0.00     0.091 A 
ATOM    100  F   UNL A   1      45.445  23.934  33.984  1.00  0.00    -0.205 F 
ATOM    101  C   UNL A   1      49.030  24.685  33.986  1.00  0.00     0.022 A 
BRANCH  99 102
ATOM    102  S   UNL A   1      47.831  22.842  35.618  1.00  0.00     0.127 S 
ATOM    103  O   UNL A   1      46.921  23.424  36.604  1.00  0.00    -0.237 OA
ATOM    104  O   UNL A   1      47.312  21.662  34.928  1.00  0.00    -0.237 OA
ATOM    105  O   UNL A   1      49.220  22.733  36.043  1.00  0.00    -0.744 OA
ENDBRANCH  99 102
ENDBRANCH  72  95
ENDBRANCH  46  47
ENDBRANCH  38  41
ENDBRANCH  36  37
ENDBRANCH   1  36
TORSDOF 16
ENDMDL
MODEL 2
REMARK VINA RESULT:     -12.1      1.746      2.351
REMARK SMILES C[NH+]1CCN(c2nc3c(cc2F)c(=O)c(C(=O)NCCCCNC(=O)c2ccc(-c4c5nc(c(-c6cccc(S(=O)(=O)[O-])c6F)c6ccc([nH]6)c(-c6cccc(S(=O)(=O)[O-])c6F)c6nc(c(-c7cccc(S(=O)(=O)[O-])c7F)c7ccc4[nH]7)C=C6)C=C5)cc2)cn3-c2ccc(F)cc2F)CC1
REMARK SMILES IDX 21 1 20 2 19 3 18 4 16 5 17 6 15 8 6 9 7 10 11 11 8 12 10 13
REMARK SMILES IDX 12 14 9 15 90 16 13 17 89 18 14 19 5 20 1 21 2 22 3 23
REMARK SMILES IDX 100 24 4 26 99 27 91 28 92 29 97 30 93 31 96 32 98 33 94 34
REMARK SMILES IDX 95 35 22 36 23 37 24 38 25 40 26 41 27 42 88 43 28 44 87 45
REMARK SMILES IDX 29 46 30 47 31 48 81 49 32 50 86 51 80 52 82 53 33 54 85 55
REMARK SMILES IDX 79 56 78 57 34 59 66 60 46 61 65 62 47 63 50 64 64 65 83 66
REMARK SMILES IDX 48 67 49 68 63 70 84 71 51 72 35 73 36 74 44 75 37 76 39 77
REMARK SMILES IDX 45 78 38 79 40 80 41 81 42 82 43 83 67 84 68 85 76 86 69 87
REMARK SMILES IDX 71 88 77 89 70 90 72 91 73 92 74 93 75 94 52 95 53 96 61 97
REMARK SMILES IDX 54 98 56 99 62 100 55 101 57 102 58 103 59 104 60 105
REMARK H PARENT 18 7 2 25 23 39 82 58 50 69
REMARK Flexibility Score: inf
ROOT
ATOM      1  C   UNL A   1      32.644  28.679  25.321  1.00  0.00     0.023 C 
ENDROOT
BRANCH   1   2
ATOM      2  C   UNL A   1      31.898  27.363  25.127  1.00  0.00     0.023 C 
BRANCH   2   3
ATOM      3  C   UNL A   1      31.224  27.198  23.763  1.00  0.00     0.116 C 
BRANCH   3   4
ATOM      4  N   UNL A   1      32.200  27.208  22.692  1.00  0.00    -0.352 N 
ATOM      5  C   UNL A   1      33.089  26.276  22.262  1.00  0.00     0.256 C 
ATOM      6  O   UNL A   1      33.783  26.587  21.288  1.00  0.00    -0.269 OA
ATOM      7  H   UNL A   1      32.222  28.049  22.179  1.00  0.00     0.163 HD
BRANCH   5   8
ATOM      8  C   UNL A   1      33.208  24.909  22.847  1.00  0.00     0.104 A 
ATOM      9  C   UNL A   1      33.444  20.013  24.208  1.00  0.00     0.167 A 
ATOM     10  N   UNL A   1      34.209  21.101  24.474  1.00  0.00    -0.209 NA
ATOM     11  C   UNL A   1      32.294  20.117  23.420  1.00  0.00     0.166 A 
ATOM     12  C   UNL A   1      33.867  22.311  23.959  1.00  0.00     0.151 A 
ATOM     13  C   UNL A   1      31.892  21.350  22.950  1.00  0.00     0.059 A 
ATOM     14  F   UNL A   1      31.525  19.047  23.167  1.00  0.00    -0.203 F 
ATOM     15  C   UNL A   1      32.686  22.460  23.235  1.00  0.00     0.069 A 
ATOM     16  N   UNL A   1      34.702  23.460  24.155  1.00  0.00    -0.297 N 
ATOM     17  C   UNL A   1      32.232  23.799  22.840  1.00  0.00     0.203 A 
ATOM     18  C   UNL A   1      34.336  24.654  23.537  1.00  0.00     0.111 A 
ATOM     19  O   UNL A   1      31.044  23.921  22.577  1.00  0.00    -0.288 OA
BRANCH   9  20
ATOM     20  N   UNL A   1      33.828  18.825  24.771  1.00  0.00    -0.343 N 
ATOM     21  C   UNL A   1      32.702  14.764  25.276  1.00  0.00     0.332 C 
ATOM     22  N   UNL A   1      33.430  16.027  25.369  1.00  0.00    -0.334 N 
ATOM     23  C   UNL A   1      32.585  17.081  25.984  1.00  0.00     0.283 C 
ATOM     24  C   UNL A   1      33.863  16.473  24.022  1.00  0.00     0.283 C 
ATOM     25  H   UNL A   1      34.250  15.873  25.957  1.00  0.00     0.347 HD
ATOM     26  C   UNL A   1      33.306  18.451  26.081  1.00  0.00     0.179 C 
ATOM     27  C   UNL A   1      34.607  17.824  24.055  1.00  0.00     0.179 C 
ENDBRANCH   9  20
BRANCH  16  28
ATOM     28  C   UNL A   1      35.921  23.402  24.899  1.00  0.00     0.083 A 
ATOM     29  C   UNL A   1      36.037  24.042  26.145  1.00  0.00     0.033 A 
ATOM     30  C   UNL A   1      37.037  22.694  24.416  1.00  0.00     0.150 A 
ATOM     31  C   UNL A   1      37.224  23.968  26.876  1.00  0.00     0.041 A 
ATOM     32  C   UNL A   1      38.227  22.626  25.132  1.00  0.00     0.080 A 
ATOM     33  F   UNL A   1      36.981  22.086  23.221  1.00  0.00    -0.205 F 
ATOM     34  C   UNL A   1      38.307  23.264  26.360  1.00  0.00     0.126 A 
ATOM     35  F   UNL A   1      39.447  23.205  27.061  1.00  0.00    -0.207 F 
ENDBRANCH  16  28
ENDBRANCH   5   8
ENDBRANCH   3   4
ENDBRANCH   2   3
ENDBRANCH   1   2
BRANCH   1  36
ATOM     36  C   UNL A   1      32.573  29.247  26.731  1.00  0.00     0.116 C 
BRANCH  36  37
ATOM     37  N   UNL A   1      32.373  30.690  26.766  1.00  0.00    -0.352 N 
ATOM     38  C   UNL A   1      33.240  31.640  27.251  1.00  0.00     0.251 C 
ATOM     39  H   UNL A   1      31.522  31.022  26.402  1.00  0.00     0.163 HD
ATOM     40  O   UNL A   1      32.929  32.825  27.291  1.00  0.00    -0.269 OA
BRANCH  38  41
ATOM     41  C   UNL A   1      34.545  31.185  27.764  1.00  0.00     0.039 A 
ATOM     42  C   UNL A   1      35.546  32.131  27.993  1.00  0.00     0.014 A 
ATOM     43  C   UNL A   1      34.724  29.844  28.116  1.00  0.00     0.014 A 
ATOM     44  C   UNL A   1      36.717  31.741  28.639  1.00  0.00     0.010 A 
ATOM     45  C   UNL A   1      35.870  29.469  28.806  1.00  0.00     0.010 A 
ATOM     46  C   UNL A   1      36.873  30.413  29.070  1.00  0.00    -0.014 A 
BRANCH  46  47
ATOM     47  C   UNL A   1      38.094  29.985  29.789  1.00  0.00     0.031 A 
ATOM     48  C   UNL A   1      38.353  30.499  31.175  1.00  0.00     0.074 A 
ATOM     49  C   UNL A   1      38.997  29.201  29.169  1.00  0.00     0.049 A 
ATOM     50  N   UNL A   1      39.370  30.264  31.960  1.00  0.00    -0.248 NA
ATOM     51  C   UNL A   1      37.349  31.413  31.747  1.00  0.00     0.031 C 
ATOM     52  C   UNL A   1      38.884  28.695  27.800  1.00  0.00     0.029 A 
ATOM     53  N   UNL A   1      40.198  28.705  29.608  1.00  0.00    -0.354 N 
ATOM     54  C   UNL A   1      39.147  31.024  33.100  1.00  0.00     0.074 A 
ATOM     55  C   UNL A   1      37.910  31.745  32.900  1.00  0.00     0.031 C 
ATOM     56  C   UNL A   1      39.967  27.952  27.515  1.00  0.00     0.029 A 
ATOM     57  C   UNL A   1      40.854  27.940  28.675  1.00  0.00     0.049 A 
ATOM     58  H   UNL A   1      40.557  28.883  30.508  1.00  0.00     0.167 HD
ATOM     59  C   UNL A   1      39.889  31.086  34.228  1.00  0.00     0.034 A 
ATOM     60  C   UNL A   1      42.033  27.291  28.753  1.00  0.00     0.034 A 
ATOM     61  C   UNL A   1      41.076  30.314  34.453  1.00  0.00     0.049 A 
ATOM     62  C   UNL A   1      42.818  27.346  30.035  1.00  0.00     0.074 A 
ATOM     63  C   UNL A   1      41.831  30.218  35.608  1.00  0.00     0.029 A 
ATOM     64  N   UNL A   1      41.680  29.504  33.506  1.00  0.00    -0.354 N 
ATOM     65  N   UNL A   1      42.510  27.941  31.161  1.00  0.00    -0.248 NA
ATOM     66  C   UNL A   1      44.097  26.621  30.067  1.00  0.00     0.031 C 
ATOM     67  C   UNL A   1      42.898  29.348  35.357  1.00  0.00     0.029 A 
ATOM     68  C   UNL A   1      42.805  28.909  34.045  1.00  0.00     0.049 A 
ATOM     69  H   UNL A   1      41.355  29.371  32.586  1.00  0.00     0.167 HD
ATOM     70  C   UNL A   1      43.539  27.639  32.045  1.00  0.00     0.074 A 
ATOM     71  C   UNL A   1      44.477  26.802  31.326  1.00  0.00     0.031 C 
ATOM     72  C   UNL A   1      43.697  28.032  33.332  1.00  0.00     0.034 A 
BRANCH  59  73
ATOM     73  C   UNL A   1      39.391  31.964  35.340  1.00  0.00     0.023 A 
ATOM     74  C   UNL A   1      38.475  31.434  36.270  1.00  0.00     0.012 A 
ATOM     75  C   UNL A   1      39.869  33.278  35.500  1.00  0.00     0.148 A 
ATOM     76  C   UNL A   1      38.027  32.206  37.339  1.00  0.00     0.002 A 
ATOM     77  C   UNL A   1      39.438  34.033  36.583  1.00  0.00     0.091 A 
ATOM     78  F   UNL A   1      40.721  33.763  34.586  1.00  0.00    -0.205 F 
ATOM     79  C   UNL A   1      38.515  33.501  37.500  1.00  0.00     0.022 A 
BRANCH  77  80
ATOM     80  S   UNL A   1      40.037  35.695  36.909  1.00  0.00     0.127 S 
ATOM     81  O   UNL A   1      39.329  36.025  38.145  1.00  0.00    -0.237 OA
ATOM     82  O   UNL A   1      41.475  35.478  37.067  1.00  0.00    -0.237 OA
ATOM     83  O   UNL A   1      39.664  36.490  35.748  1.00  0.00    -0.744 OA
ENDBRANCH  77  80
ENDBRANCH  59  73
BRANCH  60  84
ATOM     84  C   UNL A   1      42.490  26.448  27.615  1.00  0.00     0.023 A 
ATOM     85  C   UNL A   1      43.111  27.074  26.516  1.00  0.00     0.012 A 
ATOM     86  C   UNL A   1      42.358  25.047  27.627  1.00  0.00     0.148 A 
ATOM     87  C   UNL A   1      43.580  26.320  25.440  1.00  0.00     0.002 A 
ATOM     88  C   UNL A   1      42.856  24.298  26.567  1.00  0.00     0.091 A 
ATOM     89  F   UNL A   1      41.757  24.477  28.682  1.00  0.00    -0.205 F 
ATOM     90  C   UNL A   1      43.460  24.934  25.469  1.00  0.00     0.022 A 
BRANCH  88  91
ATOM     91  S   UNL A   1      42.830  22.502  26.550  1.00  0.00     0.127 S 
ATOM     92  O   UNL A   1      41.923  22.227  25.438  1.00  0.00    -0.237 OA
ATOM     93  O   UNL A   1      44.235  22.184  26.292  1.00  0.00    -0.237 OA
ATOM     94  O   UNL A   1      42.352  22.101  27.866  1.00  0.00    -0.744 OA
ENDBRANCH  88  91
ENDBRANCH  60  84
BRANCH  72  95
ATOM     95  C   UNL A   1      44.918  27.564  34.071  1.00  0.00     0.023 A 
ATOM     96  C   UNL A   1      46.040  28.410  34.144  1.00  0.00     0.012 A 
ATOM     97  C   UNL A   1      44.900  26.362  34.803  1.00  0.00     0.148 A 
ATOM     98  C   UNL A   1      47.132  28.066  34.938  1.00  0.00     0.002 A 
ATOM     99  C   UNL A   1      45.977  26.041  35.618  1.00  0.00     0.091 A 
ATOM    100  F   UNL A   1      43.821  25.571  34.706  1.00  0.00    -0.205 F 
ATOM    101  C   UNL A   1      47.095  26.889  35.684  1.00  0.00     0.022 A 
BRANCH  99 102
ATOM    102  S   UNL A   1      45.988  24.592  36.681  1.00  0.00     0.127 S 
ATOM    103  O   UNL A   1      47.363  24.600  37.179  1.00  0.00    -0.237 OA
ATOM    104  O   UNL A   1      44.975  24.931  37.678  1.00  0.00    -0.237 OA
ATOM    105  O   UNL A   1      45.644  23.463  35.826  1.00  0.00    -0.744 OA
ENDBRANCH  99 102
ENDBRANCH  72  95
ENDBRANCH  46  47
ENDBRANCH  38  41
ENDBRANCH  36  37
ENDBRANCH   1  36
TORSDOF 16
ENDMDL
MODEL 3
REMARK VINA RESULT:     -11.6      2.354      2.793
REMARK SMILES C[NH+]1CCN(c2nc3c(cc2F)c(=O)c(C(=O)NCCCCNC(=O)c2ccc(-c4c5nc(c(-c6cccc(S(=O)(=O)[O-])c6F)c6ccc([nH]6)c(-c6cccc(S(=O)(=O)[O-])c6F)c6nc(c(-c7cccc(S(=O)(=O)[O-])c7F)c7ccc4[nH]7)C=C6)C=C5)cc2)cn3-c2ccc(F)cc2F)CC1
REMARK SMILES IDX 21 1 20 2 19 3 18 4 16 5 17 6 15 8 6 9 7 10 11 11 8 12 10 13
REMARK SMILES IDX 12 14 9 15 90 16 13 17 89 18 14 19 5 20 1 21 2 22 3 23
REMARK SMILES IDX 100 24 4 26 99 27 91 28 92 29 97 30 93 31 96 32 98 33 94 34
REMARK SMILES IDX 95 35 22 36 23 37 24 38 25 40 26 41 27 42 88 43 28 44 87 45
REMARK SMILES IDX 29 46 30 47 31 48 81 49 32 50 86 51 80 52 82 53 33 54 85 55
REMARK SMILES IDX 79 56 78 57 34 59 66 60 46 61 65 62 47 63 50 64 64 65 83 66
REMARK SMILES IDX 48 67 49 68 63 70 84 71 51 72 35 73 36 74 44 75 37 76 39 77
REMARK SMILES IDX 45 78 38 79 40 80 41 81 42 82 43 83 67 84 68 85 76 86 69 87
REMARK SMILES IDX 71 88 77 89 70 90 72 91 73 92 74 93 75 94 52 95 53 96 61 97
REMARK SMILES IDX 54 98 56 99 62 100 55 101 57 102 58 103 59 104 60 105
REMARK H PARENT 18 7 2 25 23 39 82 58 50 69
REMARK Flexibility Score: inf
ROOT
ATOM      1  C   UNL A   1      33.199  29.023  25.281  1.00  0.00     0.023 C 
ENDROOT
BRANCH   1   2
ATOM      2  C   UNL A   1      32.802  27.550  25.286  1.00  0.00     0.023 C 
BRANCH   2   3
ATOM      3  C   UNL A   1      31.857  27.132  24.158  1.00  0.00     0.116 C 
BRANCH   3   4
ATOM      4  N   UNL A   1      32.559  27.039  22.893  1.00  0.00    -0.352 N 
ATOM      5  C   UNL A   1      33.221  26.017  22.294  1.00  0.00     0.256 C 
ATOM      6  O   UNL A   1      33.705  26.253  21.181  1.00  0.00    -0.269 OA
ATOM      7  H   UNL A   1      32.556  27.874  22.371  1.00  0.00     0.163 HD
BRANCH   5   8
ATOM      8  C   UNL A   1      33.321  24.642  22.865  1.00  0.00     0.104 A 
ATOM      9  C   UNL A   1      33.455  19.732  24.187  1.00  0.00     0.167 A 
ATOM     10  N   UNL A   1      34.268  20.792  24.424  1.00  0.00    -0.209 NA
ATOM     11  C   UNL A   1      32.275  19.879  23.453  1.00  0.00     0.166 A 
ATOM     12  C   UNL A   1      33.943  22.016  23.932  1.00  0.00     0.151 A 
ATOM     13  C   UNL A   1      31.893  21.128  23.008  1.00  0.00     0.059 A 
ATOM     14  F   UNL A   1      31.460  18.837  23.230  1.00  0.00    -0.203 F 
ATOM     15  C   UNL A   1      32.736  22.209  23.263  1.00  0.00     0.069 A 
ATOM     16  N   UNL A   1      34.824  23.135  24.095  1.00  0.00    -0.297 N 
ATOM     17  C   UNL A   1      32.309  23.565  22.896  1.00  0.00     0.203 A 
ATOM     18  C   UNL A   1      34.470  24.346  23.501  1.00  0.00     0.111 A 
ATOM     19  O   UNL A   1      31.115  23.728  22.689  1.00  0.00    -0.288 OA
BRANCH   9  20
ATOM     20  N   UNL A   1      33.825  18.527  24.726  1.00  0.00    -0.343 N 
ATOM     21  C   UNL A   1      32.539  14.533  25.362  1.00  0.00     0.332 C 
ATOM     22  N   UNL A   1      33.336  15.757  25.381  1.00  0.00    -0.334 N 
ATOM     23  C   UNL A   1      32.604  16.856  26.057  1.00  0.00     0.283 C 
ATOM     24  C   UNL A   1      33.673  16.173  23.998  1.00  0.00     0.283 C 
ATOM     25  H   UNL A   1      34.195  15.563  25.897  1.00  0.00     0.347 HD
ATOM     26  C   UNL A   1      33.400  18.188  26.079  1.00  0.00     0.179 C 
ATOM     27  C   UNL A   1      34.486  17.484  23.953  1.00  0.00     0.179 C 
ENDBRANCH   9  20
BRANCH  16  28
ATOM     28  C   UNL A   1      36.073  23.031  24.783  1.00  0.00     0.083 A 
ATOM     29  C   UNL A   1      36.952  21.966  24.525  1.00  0.00     0.033 A 
ATOM     30  C   UNL A   1      36.465  23.996  25.729  1.00  0.00     0.150 A 
ATOM     31  C   UNL A   1      38.178  21.879  25.187  1.00  0.00     0.041 A 
ATOM     32  C   UNL A   1      37.679  23.910  26.401  1.00  0.00     0.080 A 
ATOM     33  F   UNL A   1      35.649  25.019  26.024  1.00  0.00    -0.205 F 
ATOM     34  C   UNL A   1      38.527  22.849  26.121  1.00  0.00     0.126 A 
ATOM     35  F   UNL A   1      39.700  22.755  26.760  1.00  0.00    -0.207 F 
ENDBRANCH  16  28
ENDBRANCH   5   8
ENDBRANCH   3   4
ENDBRANCH   2   3
ENDBRANCH   1   2
BRANCH   1  36
ATOM     36  C   UNL A   1      34.017  29.465  26.484  1.00  0.00     0.116 C 
BRANCH  36  37
ATOM     37  N   UNL A   1      33.729  30.827  26.914  1.00  0.00    -0.352 N 
ATOM     38  C   UNL A   1      34.465  31.604  27.777  1.00  0.00     0.251 C 
ATOM     39  H   UNL A   1      32.914  31.239  26.545  1.00  0.00     0.163 HD
ATOM     40  O   UNL A   1      34.081  32.716  28.119  1.00  0.00    -0.269 OA
BRANCH  38  41
ATOM     41  C   UNL A   1      35.715  31.038  28.316  1.00  0.00     0.039 A 
ATOM     42  C   UNL A   1      36.900  31.762  28.167  1.00  0.00     0.014 A 
ATOM     43  C   UNL A   1      35.680  29.854  29.058  1.00  0.00     0.014 A 
ATOM     44  C   UNL A   1      38.050  31.326  28.821  1.00  0.00     0.010 A 
ATOM     45  C   UNL A   1      36.814  29.451  29.750  1.00  0.00     0.010 A 
ATOM     46  C   UNL A   1      38.006  30.182  29.635  1.00  0.00    -0.014 A 
BRANCH  46  47
ATOM     47  C   UNL A   1      39.208  29.720  30.366  1.00  0.00     0.031 A 
ATOM     48  C   UNL A   1      39.593  30.393  31.652  1.00  0.00     0.074 A 
ATOM     49  C   UNL A   1      39.985  28.756  29.838  1.00  0.00     0.049 A 
ATOM     50  N   UNL A   1      40.617  30.156  32.426  1.00  0.00    -0.248 NA
ATOM     51  C   UNL A   1      38.727  31.491  32.117  1.00  0.00     0.031 C 
ATOM     52  C   UNL A   1      39.746  28.077  28.563  1.00  0.00     0.029 A 
ATOM     53  N   UNL A   1      41.145  28.191  30.304  1.00  0.00    -0.354 N 
ATOM     54  C   UNL A   1      40.539  31.091  33.449  1.00  0.00     0.074 A 
ATOM     55  C   UNL A   1      39.381  31.916  33.187  1.00  0.00     0.031 C 
ATOM     56  C   UNL A   1      40.724  27.179  28.354  1.00  0.00     0.029 A 
ATOM     57  C   UNL A   1      41.663  27.229  29.471  1.00  0.00     0.049 A 
ATOM     58  H   UNL A   1      41.567  28.452  31.154  1.00  0.00     0.167 HD
ATOM     59  C   UNL A   1      41.340  31.227  34.529  1.00  0.00     0.034 A 
ATOM     60  C   UNL A   1      42.766  26.464  29.603  1.00  0.00     0.034 A 
ATOM     61  C   UNL A   1      42.444  30.361  34.824  1.00  0.00     0.049 A 
ATOM     62  C   UNL A   1      43.616  26.609  30.834  1.00  0.00     0.074 A 
ATOM     63  C   UNL A   1      43.243  30.343  35.953  1.00  0.00     0.029 A 
ATOM     64  N   UNL A   1      42.905  29.358  33.986  1.00  0.00    -0.354 N 
ATOM     65  N   UNL A   1      43.434  27.391  31.871  1.00  0.00    -0.248 NA
ATOM     66  C   UNL A   1      44.807  25.751  30.929  1.00  0.00     0.031 C 
ATOM     67  C   UNL A   1      44.192  29.328  35.796  1.00  0.00     0.029 A 
ATOM     68  C   UNL A   1      43.983  28.720  34.568  1.00  0.00     0.049 A 
ATOM     69  H   UNL A   1      42.521  29.135  33.108  1.00  0.00     0.167 HD
ATOM     70  C   UNL A   1      44.468  27.100  32.753  1.00  0.00     0.074 A 
ATOM     71  C   UNL A   1      45.269  26.065  32.134  1.00  0.00     0.031 C 
ATOM     72  C   UNL A   1      44.734  27.651  33.961  1.00  0.00     0.034 A 
BRANCH  59  73
ATOM     73  C   UNL A   1      41.000  32.306  35.515  1.00  0.00     0.023 A 
ATOM     74  C   UNL A   1      41.688  33.534  35.449  1.00  0.00     0.012 A 
ATOM     75  C   UNL A   1      39.969  32.133  36.457  1.00  0.00     0.148 A 
ATOM     76  C   UNL A   1      41.366  34.572  36.319  1.00  0.00     0.002 A 
ATOM     77  C   UNL A   1      39.635  33.182  37.304  1.00  0.00     0.091 A 
ATOM     78  F   UNL A   1      39.348  30.946  36.513  1.00  0.00    -0.205 F 
ATOM     79  C   UNL A   1      40.335  34.400  37.240  1.00  0.00     0.022 A 
BRANCH  77  80
ATOM     80  S   UNL A   1      38.296  33.081  38.497  1.00  0.00     0.127 S 
ATOM     81  O   UNL A   1      38.310  34.426  39.070  1.00  0.00    -0.237 OA
ATOM     82  O   UNL A   1      37.144  32.793  37.641  1.00  0.00    -0.237 OA
ATOM     83  O   UNL A   1      38.656  32.009  39.415  1.00  0.00    -0.744 OA
ENDBRANCH  77  80
ENDBRANCH  59  73
BRANCH  60  84
ATOM     84  C   UNL A   1      43.067  25.420  28.587  1.00  0.00     0.023 A 
ATOM     85  C   UNL A   1      42.327  24.222  28.607  1.00  0.00     0.012 A 
ATOM     86  C   UNL A   1      44.037  25.616  27.586  1.00  0.00     0.148 A 
ATOM     87  C   UNL A   1      42.557  23.228  27.655  1.00  0.00     0.002 A 
ATOM     88  C   UNL A   1      44.240  24.636  26.621  1.00  0.00     0.091 A 
ATOM     89  F   UNL A   1      44.733  26.762  27.593  1.00  0.00    -0.205 F 
ATOM     90  C   UNL A   1      43.507  23.438  26.659  1.00  0.00     0.022 A 
BRANCH  88  91
ATOM     91  S   UNL A   1      45.376  24.847  25.245  1.00  0.00     0.127 S 
ATOM     92  O   UNL A   1      46.651  24.471  25.851  1.00  0.00    -0.237 OA
ATOM     93  O   UNL A   1      44.850  23.889  24.272  1.00  0.00    -0.237 OA
ATOM     94  O   UNL A   1      45.256  26.241  24.844  1.00  0.00    -0.744 OA
ENDBRANCH  88  91
ENDBRANCH  60  84
BRANCH  72  95
ATOM     95  C   UNL A   1      45.933  27.154  34.718  1.00  0.00     0.023 A 
ATOM     96  C   UNL A   1      47.155  27.842  34.595  1.00  0.00     0.012 A 
ATOM     97  C   UNL A   1      45.812  26.105  35.650  1.00  0.00     0.148 A 
ATOM     98  C   UNL A   1      48.244  27.492  35.390  1.00  0.00     0.002 A 
ATOM     99  C   UNL A   1      46.891  25.783  36.462  1.00  0.00     0.091 A 
ATOM    100  F   UNL A   1      44.639  25.462  35.738  1.00  0.00    -0.205 F 
ATOM    101  C   UNL A   1      48.109  26.472  36.331  1.00  0.00     0.022 A 
BRANCH  99 102
ATOM    102  S   UNL A   1      46.790  24.545  37.760  1.00  0.00     0.127 S 
ATOM    103  O   UNL A   1      45.759  25.110  38.629  1.00  0.00    -0.237 OA
ATOM    104  O   UNL A   1      46.379  23.353  37.019  1.00  0.00    -0.237 OA
ATOM    105  O   UNL A   1      48.121  24.465  38.346  1.00  0.00    -0.744 OA
ENDBRANCH  99 102
ENDBRANCH  72  95
ENDBRANCH  46  47
ENDBRANCH  38  41
ENDBRANCH  36  37
ENDBRANCH   1  36
TORSDOF 16
ENDMDL
