MODEL 1
REMARK VINA RESULT:     -11.3      0.000      0.000
REMARK SMILES COc1ccc(C[C@H](C(=O)Nc2ccccc2)[C@@H](C)C(=O)NCCCCNC(=O)c2ccc(-c3c4nc(c(-c5cccc(S(=O)(=O)[O-])c5F)c5ccc([nH]5)c(-c5cccc(S(=O)(=O)[O-])c5F)c5nc(c(-c6cccc(S(=O)(=O)[O-])c6F)c6ccc3[nH]6)C=C5)C=C4)cc2)cc1
REMARK SMILES IDX 24 1 23 2 22 3 20 4 21 5 18 7 19 8 8 9 7 10 6 11 3 12 4 13
REMARK SMILES IDX 94 14 5 15 93 16 2 17 1 18 9 19 10 20 11 21 12 23 13 24
REMARK SMILES IDX 17 25 14 26 16 27 15 28 25 29 26 30 27 31 28 32 29 34 30 35
REMARK SMILES IDX 31 36 92 37 32 38 91 39 33 40 34 41 35 42 85 43 36 44 90 45
REMARK SMILES IDX 84 46 86 47 37 48 89 49 83 50 82 51 38 53 70 54 50 55 69 56
REMARK SMILES IDX 51 57 54 58 68 59 87 60 52 61 53 62 67 64 88 65 55 66 39 67
REMARK SMILES IDX 40 68 48 69 41 70 43 71 49 72 42 73 44 74 45 75 46 76 47 77
REMARK SMILES IDX 71 78 72 79 80 80 73 81 75 82 81 83 74 84 76 85 77 86 78 87
REMARK SMILES IDX 79 88 56 89 57 90 65 91 58 92 60 93 66 94 59 95 61 96 62 97
REMARK SMILES IDX 63 98 64 99
REMARK H PARENT 22 6 11 22 27 33 86 52 54 63
REMARK Flexibility Score: inf
ROOT
ATOM      1  C   UNL A   1      34.768  24.449  24.491  1.00  0.00     0.023 C 
ENDROOT
BRANCH   1   2
ATOM      2  C   UNL A   1      34.023  24.847  23.215  1.00  0.00     0.116 C 
BRANCH   2   3
ATOM      3  N   UNL A   1      33.700  26.257  23.123  1.00  0.00    -0.356 N 
ATOM      4  C   UNL A   1      32.529  26.926  23.323  1.00  0.00     0.223 C 
ATOM      5  O   UNL A   1      32.571  28.159  23.283  1.00  0.00    -0.275 OA
ATOM      6  H   UNL A   1      34.459  26.832  22.873  1.00  0.00     0.163 HD
BRANCH   4   7
ATOM      7  C   UNL A   1      31.195  26.225  23.619  1.00  0.00     0.088 C 
ATOM      8  C   UNL A   1      30.071  27.250  23.565  1.00  0.00     0.019 C 
BRANCH   7   9
ATOM      9  C   UNL A   1      31.304  25.244  24.819  1.00  0.00     0.095 C 
BRANCH   9  10
ATOM     10  C   UNL A   1      30.643  23.882  24.358  1.00  0.00     0.049 C 
BRANCH  10  11
ATOM     11  C   UNL A   1      31.494  22.638  24.500  1.00  0.00    -0.047 A 
ATOM     12  C   UNL A   1      33.118  20.366  24.760  1.00  0.00     0.118 A 
ATOM     13  C   UNL A   1      32.681  20.761  23.502  1.00  0.00     0.046 A 
ATOM     14  C   UNL A   1      32.718  21.065  25.895  1.00  0.00     0.046 A 
ATOM     15  C   UNL A   1      31.842  21.870  23.379  1.00  0.00     0.007 A 
ATOM     16  C   UNL A   1      31.908  22.198  25.765  1.00  0.00     0.007 A 
BRANCH  12  17
ATOM     17  O   UNL A   1      34.037  19.359  24.850  1.00  0.00    -0.497 OA
ATOM     18  C   UNL A   1      33.623  18.217  24.103  1.00  0.00     0.278 C 
ENDBRANCH  12  17
ENDBRANCH  10  11
ENDBRANCH   9  10
BRANCH   9  19
ATOM     19  C   UNL A   1      30.607  25.708  26.114  1.00  0.00     0.228 C 
ATOM     20  O   UNL A   1      29.537  25.207  26.472  1.00  0.00    -0.274 OA
ATOM     21  N   UNL A   1      31.257  26.541  26.999  1.00  0.00    -0.326 N 
ATOM     22  H   UNL A   1      31.128  26.300  27.944  1.00  0.00     0.169 HD
BRANCH  21  23
ATOM     23  C   UNL A   1      32.072  27.674  26.804  1.00  0.00     0.041 A 
ATOM     24  C   UNL A   1      31.474  28.913  26.561  1.00  0.00     0.026 A 
ATOM     25  C   UNL A   1      33.454  27.589  26.686  1.00  0.00     0.026 A 
ATOM     26  C   UNL A   1      32.261  30.056  26.344  1.00  0.00     0.002 A 
ATOM     27  C   UNL A   1      34.250  28.723  26.487  1.00  0.00     0.002 A 
ATOM     28  C   UNL A   1      33.652  29.966  26.336  1.00  0.00     0.000 A 
ENDBRANCH  21  23
ENDBRANCH   9  19
ENDBRANCH   7   9
ENDBRANCH   4   7
ENDBRANCH   2   3
ENDBRANCH   1   2
BRANCH   1  29
ATOM     29  C   UNL A   1      35.506  23.118  24.403  1.00  0.00     0.023 C 
BRANCH  29  30
ATOM     30  C   UNL A   1      36.001  22.609  25.748  1.00  0.00     0.116 C 
BRANCH  30  31
ATOM     31  N   UNL A   1      36.918  21.484  25.617  1.00  0.00    -0.352 N 
ATOM     32  C   UNL A   1      38.280  21.460  25.825  1.00  0.00     0.251 C 
ATOM     33  H   UNL A   1      36.511  20.630  25.345  1.00  0.00     0.163 HD
ATOM     34  O   UNL A   1      38.937  20.478  25.535  1.00  0.00    -0.269 OA
BRANCH  32  35
ATOM     35  C   UNL A   1      38.925  22.665  26.389  1.00  0.00     0.039 A 
ATOM     36  C   UNL A   1      40.013  22.513  27.251  1.00  0.00     0.014 A 
ATOM     37  C   UNL A   1      38.486  23.937  26.013  1.00  0.00     0.014 A 
ATOM     38  C   UNL A   1      40.699  23.645  27.693  1.00  0.00     0.010 A 
ATOM     39  C   UNL A   1      39.223  25.054  26.383  1.00  0.00     0.010 A 
ATOM     40  C   UNL A   1      40.329  24.922  27.236  1.00  0.00    -0.014 A 
BRANCH  40  41
ATOM     41  C   UNL A   1      41.078  26.137  27.639  1.00  0.00     0.031 A 
ATOM     42  C   UNL A   1      40.380  27.228  28.403  1.00  0.00     0.074 A 
ATOM     43  C   UNL A   1      42.355  26.298  27.236  1.00  0.00     0.049 A 
ATOM     44  N   UNL A   1      40.838  28.390  28.785  1.00  0.00    -0.248 NA
ATOM     45  C   UNL A   1      38.967  26.999  28.753  1.00  0.00     0.031 C 
ATOM     46  C   UNL A   1      43.111  25.349  26.416  1.00  0.00     0.029 A 
ATOM     47  N   UNL A   1      43.232  27.333  27.440  1.00  0.00    -0.354 N 
ATOM     48  C   UNL A   1      39.768  29.043  29.384  1.00  0.00     0.074 A 
ATOM     49  C   UNL A   1      38.623  28.166  29.277  1.00  0.00     0.031 C 
ATOM     50  C   UNL A   1      44.340  25.842  26.193  1.00  0.00     0.029 A 
ATOM     51  C   UNL A   1      44.451  27.151  26.828  1.00  0.00     0.049 A 
ATOM     52  H   UNL A   1      43.012  28.130  27.973  1.00  0.00     0.167 HD
ATOM     53  C   UNL A   1      39.746  30.248  29.998  1.00  0.00     0.034 A 
ATOM     54  C   UNL A   1      45.533  27.953  26.779  1.00  0.00     0.034 A 
ATOM     55  C   UNL A   1      40.899  31.092  30.147  1.00  0.00     0.049 A 
ATOM     56  C   UNL A   1      45.497  29.267  27.513  1.00  0.00     0.074 A 
ATOM     57  C   UNL A   1      41.008  32.287  30.837  1.00  0.00     0.029 A 
ATOM     58  N   UNL A   1      42.143  30.832  29.595  1.00  0.00    -0.354 N 
ATOM     59  N   UNL A   1      44.524  29.792  28.218  1.00  0.00    -0.248 NA
ATOM     60  C   UNL A   1      46.719  30.083  27.477  1.00  0.00     0.031 C 
ATOM     61  C   UNL A   1      42.315  32.760  30.682  1.00  0.00     0.029 A 
ATOM     62  C   UNL A   1      43.026  31.848  29.919  1.00  0.00     0.049 A 
ATOM     63  H   UNL A   1      42.367  30.042  29.052  1.00  0.00     0.167 HD
ATOM     64  C   UNL A   1      45.026  30.980  28.737  1.00  0.00     0.074 A 
ATOM     65  C   UNL A   1      46.398  31.085  28.285  1.00  0.00     0.031 C 
ATOM     66  C   UNL A   1      44.405  31.909  29.505  1.00  0.00     0.034 A 
BRANCH  53  67
ATOM     67  C   UNL A   1      38.444  30.699  30.610  1.00  0.00     0.023 A 
ATOM     68  C   UNL A   1      38.149  30.356  31.947  1.00  0.00     0.012 A 
ATOM     69  C   UNL A   1      37.541  31.503  29.888  1.00  0.00     0.148 A 
ATOM     70  C   UNL A   1      36.960  30.772  32.542  1.00  0.00     0.002 A 
ATOM     71  C   UNL A   1      36.379  31.954  30.505  1.00  0.00     0.091 A 
ATOM     72  F   UNL A   1      37.828  31.802  28.614  1.00  0.00    -0.205 F 
ATOM     73  C   UNL A   1      36.081  31.580  31.825  1.00  0.00     0.022 A 
BRANCH  71  74
ATOM     74  S   UNL A   1      35.220  33.062  29.696  1.00  0.00     0.127 S 
ATOM     75  O   UNL A   1      36.077  34.206  29.383  1.00  0.00    -0.237 OA
ATOM     76  O   UNL A   1      34.804  32.277  28.533  1.00  0.00    -0.237 OA
ATOM     77  O   UNL A   1      34.164  33.319  30.665  1.00  0.00    -0.744 OA
ENDBRANCH  71  74
ENDBRANCH  53  67
BRANCH  54  78
ATOM     78  C   UNL A   1      46.765  27.506  26.068  1.00  0.00     0.023 A 
ATOM     79  C   UNL A   1      46.926  27.821  24.705  1.00  0.00     0.012 A 
ATOM     80  C   UNL A   1      47.782  26.796  26.734  1.00  0.00     0.148 A 
ATOM     81  C   UNL A   1      48.061  27.406  24.007  1.00  0.00     0.002 A 
ATOM     82  C   UNL A   1      48.936  26.434  26.047  1.00  0.00     0.091 A 
ATOM     83  F   UNL A   1      47.606  26.497  28.028  1.00  0.00    -0.205 F 
ATOM     84  C   UNL A   1      49.070  26.721  24.680  1.00  0.00     0.022 A 
BRANCH  82  85
ATOM     85  S   UNL A   1      50.340  25.667  26.863  1.00  0.00     0.127 S 
ATOM     86  O   UNL A   1      51.264  25.470  25.749  1.00  0.00    -0.237 OA
ATOM     87  O   UNL A   1      50.737  26.702  27.819  1.00  0.00    -0.237 OA
ATOM     88  O   UNL A   1      49.820  24.453  27.478  1.00  0.00    -0.744 OA
ENDBRANCH  82  85
ENDBRANCH  54  78
BRANCH  66  89
ATOM     89  C   UNL A   1      45.206  33.108  29.936  1.00  0.00     0.023 A 
ATOM     90  C   UNL A   1      45.971  33.050  31.118  1.00  0.00     0.012 A 
ATOM     91  C   UNL A   1      45.264  34.261  29.129  1.00  0.00     0.148 A 
ATOM     92  C   UNL A   1      46.758  34.135  31.504  1.00  0.00     0.002 A 
ATOM     93  C   UNL A   1      46.088  35.318  29.495  1.00  0.00     0.091 A 
ATOM     94  F   UNL A   1      44.514  34.302  28.017  1.00  0.00    -0.205 F 
ATOM     95  C   UNL A   1      46.826  35.261  30.688  1.00  0.00     0.022 A 
BRANCH  93  96
ATOM     96  S   UNL A   1      46.316  36.765  28.456  1.00  0.00     0.127 S 
ATOM     97  O   UNL A   1      44.977  37.353  28.469  1.00  0.00    -0.237 OA
ATOM     98  O   UNL A   1      47.323  37.525  29.198  1.00  0.00    -0.237 OA
ATOM     99  O   UNL A   1      46.767  36.266  27.164  1.00  0.00    -0.744 OA
ENDBRANCH  93  96
ENDBRANCH  66  89
ENDBRANCH  40  41
ENDBRANCH  32  35
ENDBRANCH  30  31
ENDBRANCH  29  30
ENDBRANCH   1  29
TORSDOF 20
ENDMDL
MODEL 2
REMARK VINA RESULT:     -11.2      0.879      7.621
REMARK SMILES COc1ccc(C[C@H](C(=O)Nc2ccccc2)[C@@H](C)C(=O)NCCCCNC(=O)c2ccc(-c3c4nc(c(-c5cccc(S(=O)(=O)[O-])c5F)c5ccc([nH]5)c(-c5cccc(S(=O)(=O)[O-])c5F)c5nc(c(-c6cccc(S(=O)(=O)[O-])c6F)c6ccc3[nH]6)C=C5)C=C4)cc2)cc1
REMARK SMILES IDX 24 1 23 2 22 3 20 4 21 5 18 7 19 8 8 9 7 10 6 11 3 12 4 13
REMARK SMILES IDX 94 14 5 15 93 16 2 17 1 18 9 19 10 20 11 21 12 23 13 24
REMARK SMILES IDX 17 25 14 26 16 27 15 28 25 29 26 30 27 31 28 32 29 34 30 35
REMARK SMILES IDX 31 36 92 37 32 38 91 39 33 40 34 41 35 42 85 43 36 44 90 45
REMARK SMILES IDX 84 46 86 47 37 48 89 49 83 50 82 51 38 53 70 54 50 55 69 56
REMARK SMILES IDX 51 57 54 58 68 59 87 60 52 61 53 62 67 64 88 65 55 66 39 67
REMARK SMILES IDX 40 68 48 69 41 70 43 71 49 72 42 73 44 74 45 75 46 76 47 77
REMARK SMILES IDX 71 78 72 79 80 80 73 81 75 82 81 83 74 84 76 85 77 86 78 87
REMARK SMILES IDX 79 88 56 89 57 90 65 91 58 92 60 93 66 94 59 95 61 96 62 97
REMARK SMILES IDX 63 98 64 99
REMARK H PARENT 22 6 11 22 27 33 86 52 54 63
REMARK Flexibility Score: inf
ROOT
ATOM      1  C   UNL A   1      35.553  23.694  23.971  1.00  0.00     0.023 C 
ENDROOT
BRANCH   1   2
ATOM      2  C   UNL A   1      34.441  24.715  23.721  1.00  0.00     0.116 C 
BRANCH   2   3
ATOM      3  N   UNL A   1      34.030  24.827  22.336  1.00  0.00    -0.356 N 
ATOM      4  C   UNL A   1      33.087  25.610  21.738  1.00  0.00     0.223 C 
ATOM      5  O   UNL A   1      33.026  25.577  20.506  1.00  0.00    -0.275 OA
ATOM      6  H   UNL A   1      34.516  24.235  21.718  1.00  0.00     0.163 HD
BRANCH   4   7
ATOM      7  C   UNL A   1      32.138  26.533  22.517  1.00  0.00     0.088 C 
ATOM      8  C   UNL A   1      32.815  27.882  22.723  1.00  0.00     0.019 C 
BRANCH   7   9
ATOM      9  C   UNL A   1      31.464  25.805  23.712  1.00  0.00     0.095 C 
BRANCH   9  10
ATOM     10  C   UNL A   1      30.807  24.487  23.132  1.00  0.00     0.049 C 
BRANCH  10  11
ATOM     11  C   UNL A   1      31.258  23.180  23.749  1.00  0.00    -0.047 A 
ATOM     12  C   UNL A   1      32.149  20.783  24.901  1.00  0.00     0.118 A 
ATOM     13  C   UNL A   1      32.224  20.957  23.524  1.00  0.00     0.046 A 
ATOM     14  C   UNL A   1      31.593  21.774  25.705  1.00  0.00     0.046 A 
ATOM     15  C   UNL A   1      31.745  22.136  22.950  1.00  0.00     0.007 A 
ATOM     16  C   UNL A   1      31.150  22.970  25.131  1.00  0.00     0.007 A 
BRANCH  12  17
ATOM     17  O   UNL A   1      32.735  19.681  25.457  1.00  0.00    -0.497 OA
ATOM     18  C   UNL A   1      33.785  19.185  24.631  1.00  0.00     0.278 C 
ENDBRANCH  12  17
ENDBRANCH  10  11
ENDBRANCH   9  10
BRANCH   9  19
ATOM     19  C   UNL A   1      30.372  26.612  24.443  1.00  0.00     0.228 C 
ATOM     20  O   UNL A   1      29.191  26.545  24.089  1.00  0.00    -0.274 OA
ATOM     21  N   UNL A   1      30.654  27.260  25.626  1.00  0.00    -0.326 N 
ATOM     22  H   UNL A   1      29.948  27.177  26.306  1.00  0.00     0.169 HD
BRANCH  21  23
ATOM     23  C   UNL A   1      31.765  28.020  26.043  1.00  0.00     0.041 A 
ATOM     24  C   UNL A   1      31.734  29.410  25.906  1.00  0.00     0.026 A 
ATOM     25  C   UNL A   1      32.961  27.437  26.445  1.00  0.00     0.026 A 
ATOM     26  C   UNL A   1      32.833  30.191  26.296  1.00  0.00     0.002 A 
ATOM     27  C   UNL A   1      34.058  28.206  26.851  1.00  0.00     0.002 A 
ATOM     28  C   UNL A   1      33.986  29.590  26.797  1.00  0.00     0.000 A 
ENDBRANCH  21  23
ENDBRANCH   9  19
ENDBRANCH   7   9
ENDBRANCH   4   7
ENDBRANCH   2   3
ENDBRANCH   1   2
BRANCH   1  29
ATOM     29  C   UNL A   1      35.173  22.567  24.926  1.00  0.00     0.023 C 
BRANCH  29  30
ATOM     30  C   UNL A   1      36.102  22.449  26.124  1.00  0.00     0.116 C 
BRANCH  30  31
ATOM     31  N   UNL A   1      37.115  21.417  25.947  1.00  0.00    -0.352 N 
ATOM     32  C   UNL A   1      38.485  21.537  26.032  1.00  0.00     0.251 C 
ATOM     33  H   UNL A   1      36.777  20.516  25.738  1.00  0.00     0.163 HD
ATOM     34  O   UNL A   1      39.213  20.615  25.714  1.00  0.00    -0.269 OA
BRANCH  32  35
ATOM     35  C   UNL A   1      39.049  22.822  26.498  1.00  0.00     0.039 A 
ATOM     36  C   UNL A   1      40.050  22.812  27.471  1.00  0.00     0.014 A 
ATOM     37  C   UNL A   1      38.624  24.023  25.927  1.00  0.00     0.014 A 
ATOM     38  C   UNL A   1      40.668  24.010  27.830  1.00  0.00     0.010 A 
ATOM     39  C   UNL A   1      39.299  25.200  26.221  1.00  0.00     0.010 A 
ATOM     40  C   UNL A   1      40.319  25.209  27.184  1.00  0.00    -0.014 A 
BRANCH  40  41
ATOM     41  C   UNL A   1      41.003  26.487  27.500  1.00  0.00     0.031 A 
ATOM     42  C   UNL A   1      42.434  26.694  27.084  1.00  0.00     0.074 A 
ATOM     43  C   UNL A   1      40.369  27.417  28.241  1.00  0.00     0.049 A 
ATOM     44  N   UNL A   1      43.224  27.706  27.324  1.00  0.00    -0.248 NA
ATOM     45  C   UNL A   1      43.074  25.603  26.328  1.00  0.00     0.031 C 
ATOM     46  C   UNL A   1      39.012  27.293  28.778  1.00  0.00     0.029 A 
ATOM     47  N   UNL A   1      40.793  28.641  28.694  1.00  0.00    -0.354 N 
ATOM     48  C   UNL A   1      44.458  27.362  26.785  1.00  0.00     0.074 A 
ATOM     49  C   UNL A   1      44.325  26.028  26.243  1.00  0.00     0.031 C 
ATOM     50  C   UNL A   1      38.713  28.398  29.480  1.00  0.00     0.029 A 
ATOM     51  C   UNL A   1      39.863  29.296  29.469  1.00  0.00     0.049 A 
ATOM     52  H   UNL A   1      41.679  29.016  28.484  1.00  0.00     0.167 HD
ATOM     53  C   UNL A   1      45.589  28.100  26.716  1.00  0.00     0.034 A 
ATOM     54  C   UNL A   1      39.934  30.483  30.102  1.00  0.00     0.034 A 
ATOM     55  C   UNL A   1      45.698  29.445  27.211  1.00  0.00     0.049 A 
ATOM     56  C   UNL A   1      41.187  31.305  29.968  1.00  0.00     0.074 A 
ATOM     57  C   UNL A   1      46.768  30.316  27.104  1.00  0.00     0.029 A 
ATOM     58  N   UNL A   1      44.704  30.112  27.908  1.00  0.00    -0.354 N 
ATOM     59  N   UNL A   1      42.288  31.031  29.309  1.00  0.00    -0.248 NA
ATOM     60  C   UNL A   1      41.197  32.617  30.631  1.00  0.00     0.031 C 
ATOM     61  C   UNL A   1      46.427  31.505  27.758  1.00  0.00     0.029 A 
ATOM     62  C   UNL A   1      45.136  31.382  28.248  1.00  0.00     0.049 A 
ATOM     63  H   UNL A   1      43.821  29.739  28.129  1.00  0.00     0.167 HD
ATOM     64  C   UNL A   1      43.105  32.145  29.450  1.00  0.00     0.074 A 
ATOM     65  C   UNL A   1      42.363  33.110  30.236  1.00  0.00     0.031 C 
ATOM     66  C   UNL A   1      44.363  32.350  28.985  1.00  0.00     0.034 A 
BRANCH  53  67
ATOM     67  C   UNL A   1      46.782  27.490  26.028  1.00  0.00     0.023 A 
ATOM     68  C   UNL A   1      46.918  27.617  24.629  1.00  0.00     0.012 A 
ATOM     69  C   UNL A   1      47.794  26.843  26.764  1.00  0.00     0.148 A 
ATOM     70  C   UNL A   1      48.019  27.076  23.969  1.00  0.00     0.002 A 
ATOM     71  C   UNL A   1      48.913  26.347  26.103  1.00  0.00     0.091 A 
ATOM     72  F   UNL A   1      47.639  26.713  28.088  1.00  0.00    -0.205 F 
ATOM     73  C   UNL A   1      49.021  26.451  24.707  1.00  0.00     0.022 A 
BRANCH  71  74
ATOM     74  S   UNL A   1      50.296  25.596  26.969  1.00  0.00     0.127 S 
ATOM     75  O   UNL A   1      50.692  26.671  27.877  1.00  0.00    -0.237 OA
ATOM     76  O   UNL A   1      49.663  24.449  27.621  1.00  0.00    -0.237 OA
ATOM     77  O   UNL A   1      51.272  25.250  25.945  1.00  0.00    -0.744 OA
ENDBRANCH  71  74
ENDBRANCH  53  67
BRANCH  54  78
ATOM     78  C   UNL A   1      38.758  30.996  30.862  1.00  0.00     0.023 A 
ATOM     79  C   UNL A   1      38.756  30.911  32.268  1.00  0.00     0.012 A 
ATOM     80  C   UNL A   1      37.660  31.586  30.208  1.00  0.00     0.148 A 
ATOM     81  C   UNL A   1      37.666  31.370  33.008  1.00  0.00     0.002 A 
ATOM     82  C   UNL A   1      36.601  32.094  30.955  1.00  0.00     0.091 A 
ATOM     83  F   UNL A   1      37.676  31.649  28.870  1.00  0.00    -0.205 F 
ATOM     84  C   UNL A   1      36.594  31.970  32.353  1.00  0.00     0.022 A 
BRANCH  82  85
ATOM     85  S   UNL A   1      35.242  32.997  30.206  1.00  0.00     0.127 S 
ATOM     86  O   UNL A   1      34.409  33.302  31.365  1.00  0.00    -0.237 OA
ATOM     87  O   UNL A   1      35.930  34.148  29.620  1.00  0.00    -0.237 OA
ATOM     88  O   UNL A   1      34.660  32.088  29.227  1.00  0.00    -0.744 OA
ENDBRANCH  82  85
ENDBRANCH  54  78
BRANCH  66  89
ATOM     89  C   UNL A   1      45.011  33.675  29.282  1.00  0.00     0.023 A 
ATOM     90  C   UNL A   1      45.767  33.837  30.460  1.00  0.00     0.012 A 
ATOM     91  C   UNL A   1      44.938  34.734  28.355  1.00  0.00     0.148 A 
ATOM     92  C   UNL A   1      46.414  35.043  30.725  1.00  0.00     0.002 A 
ATOM     93  C   UNL A   1      45.626  35.914  28.602  1.00  0.00     0.091 A 
ATOM     94  F   UNL A   1      44.199  34.564  27.248  1.00  0.00    -0.205 F 
ATOM     95  C   UNL A   1      46.354  36.075  29.792  1.00  0.00     0.022 A 
BRANCH  93  96
ATOM     96  S   UNL A   1      45.689  37.259  27.413  1.00  0.00     0.127 S 
ATOM     97  O   UNL A   1      46.322  36.611  26.265  1.00  0.00    -0.237 OA
ATOM     98  O   UNL A   1      44.273  37.578  27.229  1.00  0.00    -0.237 OA
ATOM     99  O   UNL A   1      46.469  38.316  28.042  1.00  0.00    -0.744 OA
ENDBRANCH  93  96
ENDBRANCH  66  89
ENDBRANCH  40  41
ENDBRANCH  32  35
ENDBRANCH  30  31
ENDBRANCH  29  30
ENDBRANCH   1  29
TORSDOF 20
ENDMDL
MODEL 3
REMARK VINA RESULT:     -11.2      1.221      8.161
REMARK SMILES COc1ccc(C[C@H](C(=O)Nc2ccccc2)[C@@H](C)C(=O)NCCCCNC(=O)c2ccc(-c3c4nc(c(-c5cccc(S(=O)(=O)[O-])c5F)c5ccc([nH]5)c(-c5cccc(S(=O)(=O)[O-])c5F)c5nc(c(-c6cccc(S(=O)(=O)[O-])c6F)c6ccc3[nH]6)C=C5)C=C4)cc2)cc1
REMARK SMILES IDX 24 1 23 2 22 3 20 4 21 5 18 7 19 8 8 9 7 10 6 11 3 12 4 13
REMARK SMILES IDX 94 14 5 15 93 16 2 17 1 18 9 19 10 20 11 21 12 23 13 24
REMARK SMILES IDX 17 25 14 26 16 27 15 28 25 29 26 30 27 31 28 32 29 34 30 35
REMARK SMILES IDX 31 36 92 37 32 38 91 39 33 40 34 41 35 42 85 43 36 44 90 45
REMARK SMILES IDX 84 46 86 47 37 48 89 49 83 50 82 51 38 53 70 54 50 55 69 56
REMARK SMILES IDX 51 57 54 58 68 59 87 60 52 61 53 62 67 64 88 65 55 66 39 67
REMARK SMILES IDX 40 68 48 69 41 70 43 71 49 72 42 73 44 74 45 75 46 76 47 77
REMARK SMILES IDX 71 78 72 79 80 80 73 81 75 82 81 83 74 84 76 85 77 86 78 87
REMARK SMILES IDX 79 88 56 89 57 90 65 91 58 92 60 93 66 94 59 95 61 96 62 97
REMARK SMILES IDX 63 98 64 99
REMARK H PARENT 22 6 11 22 27 33 86 52 54 63
REMARK Flexibility Score: inf
ROOT
ATOM      1  C   UNL A   1      35.808  23.608  23.861  1.00  0.00     0.023 C 
ENDROOT
BRANCH   1   2
ATOM      2  C   UNL A   1      34.597  24.107  23.070  1.00  0.00     0.116 C 
BRANCH   2   3
ATOM      3  N   UNL A   1      33.419  23.270  23.184  1.00  0.00    -0.356 N 
ATOM      4  C   UNL A   1      32.337  23.348  24.010  1.00  0.00     0.223 C 
ATOM      5  O   UNL A   1      31.417  22.551  23.809  1.00  0.00    -0.275 OA
ATOM      6  H   UNL A   1      33.396  22.513  22.554  1.00  0.00     0.163 HD
BRANCH   4   7
ATOM      7  C   UNL A   1      32.209  24.382  25.138  1.00  0.00     0.088 C 
ATOM      8  C   UNL A   1      32.505  23.706  26.470  1.00  0.00     0.019 C 
BRANCH   7   9
ATOM      9  C   UNL A   1      30.945  25.270  24.975  1.00  0.00     0.095 C 
BRANCH   9  10
ATOM     10  C   UNL A   1      31.353  26.479  24.038  1.00  0.00     0.049 C 
BRANCH  10  11
ATOM     11  C   UNL A   1      30.252  27.453  23.675  1.00  0.00    -0.047 A 
ATOM     12  C   UNL A   1      28.208  29.272  23.059  1.00  0.00     0.118 A 
ATOM     13  C   UNL A   1      27.892  27.948  23.336  1.00  0.00     0.046 A 
ATOM     14  C   UNL A   1      29.536  29.689  23.042  1.00  0.00     0.046 A 
ATOM     15  C   UNL A   1      28.914  27.036  23.605  1.00  0.00     0.007 A 
ATOM     16  C   UNL A   1      30.555  28.782  23.349  1.00  0.00     0.007 A 
BRANCH  12  17
ATOM     17  O   UNL A   1      27.192  30.175  22.922  1.00  0.00    -0.497 OA
ATOM     18  C   UNL A   1      27.489  31.390  23.608  1.00  0.00     0.278 C 
ENDBRANCH  12  17
ENDBRANCH  10  11
ENDBRANCH   9  10
BRANCH   9  19
ATOM     19  C   UNL A   1      30.369  25.844  26.285  1.00  0.00     0.228 C 
ATOM     20  O   UNL A   1      29.283  25.454  26.724  1.00  0.00    -0.274 OA
ATOM     21  N   UNL A   1      31.140  26.648  27.096  1.00  0.00    -0.326 N 
ATOM     22  H   UNL A   1      31.047  26.455  28.057  1.00  0.00     0.169 HD
BRANCH  21  23
ATOM     23  C   UNL A   1      32.038  27.695  26.807  1.00  0.00     0.041 A 
ATOM     24  C   UNL A   1      33.392  27.407  26.631  1.00  0.00     0.026 A 
ATOM     25  C   UNL A   1      31.662  29.034  26.843  1.00  0.00     0.026 A 
ATOM     26  C   UNL A   1      34.313  28.432  26.360  1.00  0.00     0.002 A 
ATOM     27  C   UNL A   1      32.566  30.063  26.559  1.00  0.00     0.002 A 
ATOM     28  C   UNL A   1      33.894  29.759  26.295  1.00  0.00     0.000 A 
ENDBRANCH  21  23
ENDBRANCH   9  19
ENDBRANCH   7   9
ENDBRANCH   4   7
ENDBRANCH   2   3
ENDBRANCH   1   2
BRANCH   1  29
ATOM     29  C   UNL A   1      35.655  22.201  24.430  1.00  0.00     0.023 C 
BRANCH  29  30
ATOM     30  C   UNL A   1      36.367  22.004  25.759  1.00  0.00     0.116 C 
BRANCH  30  31
ATOM     31  N   UNL A   1      37.382  20.960  25.701  1.00  0.00    -0.352 N 
ATOM     32  C   UNL A   1      38.737  21.069  25.930  1.00  0.00     0.251 C 
ATOM     33  H   UNL A   1      37.058  20.061  25.467  1.00  0.00     0.163 HD
ATOM     34  O   UNL A   1      39.484  20.136  25.701  1.00  0.00    -0.269 OA
BRANCH  32  35
ATOM     35  C   UNL A   1      39.262  22.353  26.440  1.00  0.00     0.039 A 
ATOM     36  C   UNL A   1      40.300  22.340  27.373  1.00  0.00     0.014 A 
ATOM     37  C   UNL A   1      38.762  23.561  25.948  1.00  0.00     0.014 A 
ATOM     38  C   UNL A   1      40.879  23.547  27.770  1.00  0.00     0.010 A 
ATOM     39  C   UNL A   1      39.396  24.751  26.277  1.00  0.00     0.010 A 
ATOM     40  C   UNL A   1      40.452  24.758  27.200  1.00  0.00    -0.014 A 
BRANCH  40  41
ATOM     41  C   UNL A   1      41.091  26.049  27.556  1.00  0.00     0.031 A 
ATOM     42  C   UNL A   1      42.517  26.314  27.156  1.00  0.00     0.074 A 
ATOM     43  C   UNL A   1      40.422  26.938  28.317  1.00  0.00     0.049 A 
ATOM     44  N   UNL A   1      43.271  27.346  27.429  1.00  0.00    -0.248 NA
ATOM     45  C   UNL A   1      43.198  25.266  26.376  1.00  0.00     0.031 C 
ATOM     46  C   UNL A   1      39.066  26.755  28.840  1.00  0.00     0.029 A 
ATOM     47  N   UNL A   1      40.802  28.162  28.805  1.00  0.00    -0.354 N 
ATOM     48  C   UNL A   1      44.520  27.057  26.891  1.00  0.00     0.074 A 
ATOM     49  C   UNL A   1      44.435  25.734  26.311  1.00  0.00     0.031 C 
ATOM     50  C   UNL A   1      38.726  27.830  29.569  1.00  0.00     0.029 A 
ATOM     51  C   UNL A   1      39.846  28.765  29.591  1.00  0.00     0.049 A 
ATOM     52  H   UNL A   1      41.676  28.572  28.613  1.00  0.00     0.167 HD
ATOM     53  C   UNL A   1      45.626  27.834  26.850  1.00  0.00     0.034 A 
ATOM     54  C   UNL A   1      39.873  29.936  30.257  1.00  0.00     0.034 A 
ATOM     55  C   UNL A   1      45.688  29.167  27.382  1.00  0.00     0.049 A 
ATOM     56  C   UNL A   1      41.100  30.802  30.154  1.00  0.00     0.074 A 
ATOM     57  C   UNL A   1      46.729  30.076  27.307  1.00  0.00     0.029 A 
ATOM     58  N   UNL A   1      44.668  29.782  28.090  1.00  0.00    -0.354 N 
ATOM     59  N   UNL A   1      42.213  30.582  29.497  1.00  0.00    -0.248 NA
ATOM     60  C   UNL A   1      41.062  32.095  30.853  1.00  0.00     0.031 C 
ATOM     61  C   UNL A   1      46.344  31.234  27.990  1.00  0.00     0.029 A 
ATOM     62  C   UNL A   1      45.055  31.056  28.467  1.00  0.00     0.049 A 
ATOM     63  H   UNL A   1      43.795  29.374  28.294  1.00  0.00     0.167 HD
ATOM     64  C   UNL A   1      42.992  31.719  29.673  1.00  0.00     0.074 A 
ATOM     65  C   UNL A   1      42.214  32.636  30.480  1.00  0.00     0.031 C 
ATOM     66  C   UNL A   1      44.246  31.977  29.224  1.00  0.00     0.034 A 
BRANCH  53  67
ATOM     67  C   UNL A   1      46.844  27.282  26.155  1.00  0.00     0.023 A 
ATOM     68  C   UNL A   1      46.982  27.448  24.760  1.00  0.00     0.012 A 
ATOM     69  C   UNL A   1      47.873  26.651  26.881  1.00  0.00     0.148 A 
ATOM     70  C   UNL A   1      48.106  26.961  24.094  1.00  0.00     0.002 A 
ATOM     71  C   UNL A   1      49.012  26.211  26.215  1.00  0.00     0.091 A 
ATOM     72  F   UNL A   1      47.715  26.484  28.200  1.00  0.00    -0.205 F 
ATOM     73  C   UNL A   1      49.124  26.353  24.823  1.00  0.00     0.022 A 
BRANCH  71  74
ATOM     74  S   UNL A   1      50.415  25.486  27.071  1.00  0.00     0.127 S 
ATOM     75  O   UNL A   1      51.332  25.222  25.962  1.00  0.00    -0.237 OA
ATOM     76  O   UNL A   1      50.830  26.574  27.957  1.00  0.00    -0.237 OA
ATOM     77  O   UNL A   1      49.905  24.306  27.754  1.00  0.00    -0.744 OA
ENDBRANCH  71  74
ENDBRANCH  53  67
BRANCH  54  78
ATOM     78  C   UNL A   1      38.676  30.389  31.021  1.00  0.00     0.023 A 
ATOM     79  C   UNL A   1      38.597  30.119  32.402  1.00  0.00     0.012 A 
ATOM     80  C   UNL A   1      37.633  31.102  30.401  1.00  0.00     0.148 A 
ATOM     81  C   UNL A   1      37.485  30.519  33.143  1.00  0.00     0.002 A 
ATOM     82  C   UNL A   1      36.553  31.547  31.156  1.00  0.00     0.091 A 
ATOM     83  F   UNL A   1      37.721  31.340  29.085  1.00  0.00    -0.205 F 
ATOM     84  C   UNL A   1      36.468  31.240  32.524  1.00  0.00     0.022 A 
BRANCH  82  85
ATOM     85  S   UNL A   1      35.264  32.593  30.471  1.00  0.00     0.127 S 
ATOM     86  O   UNL A   1      34.345  32.714  31.598  1.00  0.00    -0.237 OA
ATOM     87  O   UNL A   1      36.006  33.812  30.145  1.00  0.00    -0.237 OA
ATOM     88  O   UNL A   1      34.755  31.875  29.310  1.00  0.00    -0.744 OA
ENDBRANCH  82  85
ENDBRANCH  54  78
BRANCH  66  89
ATOM     89  C   UNL A   1      44.848  33.314  29.562  1.00  0.00     0.023 A 
ATOM     90  C   UNL A   1      45.519  33.491  30.787  1.00  0.00     0.012 A 
ATOM     91  C   UNL A   1      44.818  34.371  28.630  1.00  0.00     0.148 A 
ATOM     92  C   UNL A   1      46.125  34.709  31.093  1.00  0.00     0.002 A 
ATOM     93  C   UNL A   1      45.466  35.564  28.920  1.00  0.00     0.091 A 
ATOM     94  F   UNL A   1      44.159  34.187  27.476  1.00  0.00    -0.205 F 
ATOM     95  C   UNL A   1      46.109  35.739  30.157  1.00  0.00     0.022 A 
BRANCH  93  96
ATOM     96  S   UNL A   1      45.584  36.909  27.736  1.00  0.00     0.127 S 
ATOM     97  O   UNL A   1      44.374  37.675  28.034  1.00  0.00    -0.237 OA
ATOM     98  O   UNL A   1      46.832  37.562  28.130  1.00  0.00    -0.237 OA
ATOM     99  O   UNL A   1      45.619  36.284  26.420  1.00  0.00    -0.744 OA
ENDBRANCH  93  96
ENDBRANCH  66  89
ENDBRANCH  40  41
ENDBRANCH  32  35
ENDBRANCH  30  31
ENDBRANCH  29  30
ENDBRANCH   1  29
TORSDOF 20
ENDMDL
