MODEL 1
REMARK VINA RESULT:     -13.0      0.000      0.000
REMARK SMILES Nc1ncccc1C[N@@H+]1CC2(CC[NH2+]CC2)C[C@H]1C(=O)NCCCCNC(=O)c1ccc(-c2c3nc(c(-c4cccc(S(=O)(=O)[O-])c4F)c4ccc([nH]4)c(-c4cccc(S(=O)(=O)[O-])c4F)c4nc(c(-c5cccc(S(=O)(=O)[O-])c5F)c5ccc2[nH]5)C=C4)C=C3)cc1
REMARK SMILES IDX 23 1 22 2 21 3 19 4 20 5 18 7 9 8 10 9 11 11 17 12 12 13
REMARK SMILES IDX 16 14 13 15 15 16 14 17 8 20 7 21 2 22 3 23 4 24 6 25 5 26
REMARK SMILES IDX 1 27 24 30 25 31 26 32 27 33 28 35 29 36 30 37 91 38 31 39
REMARK SMILES IDX 90 40 32 41 33 42 34 43 84 44 35 45 89 46 83 47 85 48 36 49
REMARK SMILES IDX 88 50 82 51 81 52 37 54 69 55 49 56 68 57 50 58 53 59 67 60
REMARK SMILES IDX 86 61 51 62 52 63 66 65 87 66 54 67 38 68 39 69 47 70 40 71
REMARK SMILES IDX 42 72 48 73 41 74 43 75 44 76 45 77 46 78 70 79 71 80 79 81
REMARK SMILES IDX 72 82 74 83 80 84 73 85 75 86 76 87 77 88 78 89 55 90 56 91
REMARK SMILES IDX 64 92 57 93 59 94 65 95 58 96 60 97 61 98 62 99 63 100
REMARK H PARENT 21 6 9 10 14 18 14 19 1 28 1 29 26 34 85 53 53 64
REMARK Flexibility Score: inf
ROOT
ATOM      1  C   UNL A   1      36.277  22.882  23.425  1.00  0.00     0.023 C 
ENDROOT
BRANCH   1   2
ATOM      2  C   UNL A   1      34.970  23.630  23.199  1.00  0.00     0.116 C 
BRANCH   2   3
ATOM      3  N   UNL A   1      33.955  23.462  24.198  1.00  0.00    -0.351 N 
ATOM      4  C   UNL A   1      32.883  24.257  24.479  1.00  0.00     0.278 C 
ATOM      5  O   UNL A   1      32.042  23.765  25.246  1.00  0.00    -0.268 OA
ATOM      6  H   UNL A   1      34.045  22.659  24.760  1.00  0.00     0.163 HD
BRANCH   4   7
ATOM      7  C   UNL A   1      32.675  25.716  23.951  1.00  0.00     0.275 C 
ATOM      8  N   UNL A   1      31.333  26.218  24.283  1.00  0.00    -0.320 N 
ATOM      9  C   UNL A   1      31.465  27.341  25.219  1.00  0.00     0.270 C 
ATOM     10  H   UNL A   1      30.797  25.506  24.778  1.00  0.00     0.349 HD
ATOM     11  C   UNL A   1      32.941  27.839  25.227  1.00  0.00     0.036 C 
ATOM     12  C   UNL A   1      33.656  26.849  24.280  1.00  0.00     0.089 C 
ATOM     13  C   UNL A   1      33.729  27.888  26.569  1.00  0.00     0.074 C 
ATOM     14  C   UNL A   1      32.959  29.328  24.794  1.00  0.00     0.074 C 
ATOM     15  C   UNL A   1      33.047  28.744  27.626  1.00  0.00     0.261 C 
ATOM     16  C   UNL A   1      32.286  30.221  25.859  1.00  0.00     0.261 C 
ATOM     17  N   UNL A   1      32.927  30.127  27.169  1.00  0.00    -0.346 N 
ATOM     18  H   UNL A   1      33.860  30.535  27.108  1.00  0.00     0.346 HD
ATOM     19  H   UNL A   1      32.347  30.631  27.839  1.00  0.00     0.346 HD
BRANCH   8  20
ATOM     20  C   UNL A   1      30.466  26.417  23.097  1.00  0.00     0.303 C 
BRANCH  20  21
ATOM     21  C   UNL A   1      29.494  27.586  23.121  1.00  0.00     0.048 A 
ATOM     22  C   UNL A   1      28.151  27.467  23.501  1.00  0.00     0.132 A 
ATOM     23  N   UNL A   1      27.240  28.438  23.287  1.00  0.00    -0.239 NA
ATOM     24  C   UNL A   1      27.666  29.596  22.747  1.00  0.00     0.113 A 
ATOM     25  C   UNL A   1      29.916  28.849  22.689  1.00  0.00     0.015 A 
ATOM     26  C   UNL A   1      28.989  29.864  22.473  1.00  0.00     0.021 A 
BRANCH  22  27
ATOM     27  N   UNL A   1      27.630  26.328  24.073  1.00  0.00    -0.383 N 
ATOM     28  H   UNL A   1      26.777  25.960  23.745  1.00  0.00     0.158 HD
ATOM     29  H   UNL A   1      28.108  25.883  24.809  1.00  0.00     0.158 HD
ENDBRANCH  22  27
ENDBRANCH  20  21
ENDBRANCH   8  20
ENDBRANCH   4   7
ENDBRANCH   2   3
ENDBRANCH   1   2
BRANCH   1  30
ATOM     30  C   UNL A   1      36.179  21.676  24.356  1.00  0.00     0.023 C 
BRANCH  30  31
ATOM     31  C   UNL A   1      37.044  21.709  25.616  1.00  0.00     0.116 C 
BRANCH  31  32
ATOM     32  N   UNL A   1      38.144  20.755  25.641  1.00  0.00    -0.352 N 
ATOM     33  C   UNL A   1      39.424  20.960  26.126  1.00  0.00     0.251 C 
ATOM     34  H   UNL A   1      37.957  19.862  25.269  1.00  0.00     0.163 HD
ATOM     35  O   UNL A   1      40.270  20.085  26.055  1.00  0.00    -0.269 OA
BRANCH  33  36
ATOM     36  C   UNL A   1      39.762  22.291  26.688  1.00  0.00     0.039 A 
ATOM     37  C   UNL A   1      40.749  22.377  27.673  1.00  0.00     0.014 A 
ATOM     38  C   UNL A   1      39.182  23.448  26.165  1.00  0.00     0.014 A 
ATOM     39  C   UNL A   1      41.224  23.633  28.064  1.00  0.00     0.010 A 
ATOM     40  C   UNL A   1      39.710  24.692  26.500  1.00  0.00     0.010 A 
ATOM     41  C   UNL A   1      40.744  24.798  27.443  1.00  0.00    -0.014 A 
BRANCH  41  42
ATOM     42  C   UNL A   1      41.330  26.133  27.739  1.00  0.00     0.031 A 
ATOM     43  C   UNL A   1      42.739  26.453  27.320  1.00  0.00     0.074 A 
ATOM     44  C   UNL A   1      40.630  27.023  28.471  1.00  0.00     0.049 A 
ATOM     45  N   UNL A   1      43.437  27.538  27.534  1.00  0.00    -0.248 NA
ATOM     46  C   UNL A   1      43.471  25.403  26.591  1.00  0.00     0.031 C 
ATOM     47  C   UNL A   1      39.288  26.802  29.018  1.00  0.00     0.029 A 
ATOM     48  N   UNL A   1      40.958  28.285  28.904  1.00  0.00    -0.354 N 
ATOM     49  C   UNL A   1      44.696  27.291  27.001  1.00  0.00     0.074 A 
ATOM     50  C   UNL A   1      44.680  25.937  26.491  1.00  0.00     0.031 C 
ATOM     51  C   UNL A   1      38.903  27.895  29.696  1.00  0.00     0.029 A 
ATOM     52  C   UNL A   1      39.974  28.886  29.655  1.00  0.00     0.049 A 
ATOM     53  H   UNL A   1      41.816  28.718  28.696  1.00  0.00     0.167 HD
ATOM     54  C   UNL A   1      45.758  28.126  26.905  1.00  0.00     0.034 A 
ATOM     55  C   UNL A   1      39.936  30.102  30.237  1.00  0.00     0.034 A 
ATOM     56  C   UNL A   1      45.756  29.489  27.362  1.00  0.00     0.049 A 
ATOM     57  C   UNL A   1      41.110  31.029  30.071  1.00  0.00     0.074 A 
ATOM     58  C   UNL A   1      46.749  30.443  27.231  1.00  0.00     0.029 A 
ATOM     59  N   UNL A   1      44.707  30.093  28.035  1.00  0.00    -0.354 N 
ATOM     60  N   UNL A   1      42.230  30.835  29.419  1.00  0.00    -0.248 NA
ATOM     61  C   UNL A   1      41.000  32.359  30.691  1.00  0.00     0.031 C 
ATOM     62  C   UNL A   1      46.303  31.624  27.834  1.00  0.00     0.029 A 
ATOM     63  C   UNL A   1      45.026  31.408  28.328  1.00  0.00     0.049 A 
ATOM     64  H   UNL A   1      43.858  29.653  28.271  1.00  0.00     0.167 HD
ATOM     65  C   UNL A   1      42.940  32.026  29.514  1.00  0.00     0.074 A 
ATOM     66  C   UNL A   1      42.115  32.944  30.273  1.00  0.00     0.031 C 
ATOM     67  C   UNL A   1      44.170  32.329  29.031  1.00  0.00     0.034 A 
BRANCH  54  68
ATOM     68  C   UNL A   1      46.989  27.602  26.210  1.00  0.00     0.023 A 
ATOM     69  C   UNL A   1      47.925  26.847  26.946  1.00  0.00     0.012 A 
ATOM     70  C   UNL A   1      47.207  27.823  24.837  1.00  0.00     0.148 A 
ATOM     71  C   UNL A   1      49.079  26.355  26.340  1.00  0.00     0.002 A 
ATOM     72  C   UNL A   1      48.340  27.293  24.228  1.00  0.00     0.091 A 
ATOM     73  F   UNL A   1      46.320  28.562  24.157  1.00  0.00    -0.205 F 
ATOM     74  C   UNL A   1      49.282  26.570  24.979  1.00  0.00     0.022 A 
BRANCH  72  75
ATOM     75  S   UNL A   1      48.651  27.453  22.466  1.00  0.00     0.127 S 
ATOM     76  O   UNL A   1      47.531  28.294  22.045  1.00  0.00    -0.237 OA
ATOM     77  O   UNL A   1      49.955  28.116  22.439  1.00  0.00    -0.237 OA
ATOM     78  O   UNL A   1      48.653  26.096  21.939  1.00  0.00    -0.744 OA
ENDBRANCH  72  75
ENDBRANCH  54  68
BRANCH  55  79
ATOM     79  C   UNL A   1      38.702  30.552  30.944  1.00  0.00     0.023 A 
ATOM     80  C   UNL A   1      38.600  30.348  32.334  1.00  0.00     0.012 A 
ATOM     81  C   UNL A   1      37.653  31.201  30.267  1.00  0.00     0.148 A 
ATOM     82  C   UNL A   1      37.465  30.756  33.034  1.00  0.00     0.002 A 
ATOM     83  C   UNL A   1      36.545  31.650  30.978  1.00  0.00     0.091 A 
ATOM     84  F   UNL A   1      37.762  31.374  28.942  1.00  0.00    -0.205 F 
ATOM     85  C   UNL A   1      36.442  31.415  32.358  1.00  0.00     0.022 A 
BRANCH  83  86
ATOM     86  S   UNL A   1      35.237  32.617  30.215  1.00  0.00     0.127 S 
ATOM     87  O   UNL A   1      34.320  32.818  31.333  1.00  0.00    -0.237 OA
ATOM     88  O   UNL A   1      35.958  33.816  29.785  1.00  0.00    -0.237 OA
ATOM     89  O   UNL A   1      34.734  31.798  29.119  1.00  0.00    -0.744 OA
ENDBRANCH  83  86
ENDBRANCH  55  79
BRANCH  67  90
ATOM     90  C   UNL A   1      44.696  33.718  29.276  1.00  0.00     0.023 A 
ATOM     91  C   UNL A   1      45.402  33.998  30.463  1.00  0.00     0.012 A 
ATOM     92  C   UNL A   1      44.564  34.722  28.297  1.00  0.00     0.148 A 
ATOM     93  C   UNL A   1      45.945  35.263  30.683  1.00  0.00     0.002 A 
ATOM     94  C   UNL A   1      45.145  35.968  28.504  1.00  0.00     0.091 A 
ATOM     95  F   UNL A   1      43.869  34.444  27.183  1.00  0.00    -0.205 F 
ATOM     96  C   UNL A   1      45.828  36.243  29.699  1.00  0.00     0.022 A 
BRANCH  94  97
ATOM     97  S   UNL A   1      45.125  37.256  27.251  1.00  0.00     0.127 S 
ATOM     98  O   UNL A   1      45.724  38.379  27.970  1.00  0.00    -0.237 OA
ATOM     99  O   UNL A   1      45.968  36.685  26.201  1.00  0.00    -0.237 OA
ATOM    100  O   UNL A   1      43.727  37.425  26.876  1.00  0.00    -0.744 OA
ENDBRANCH  94  97
ENDBRANCH  67  90
ENDBRANCH  41  42
ENDBRANCH  33  36
ENDBRANCH  31  32
ENDBRANCH  30  31
ENDBRANCH   1  30
TORSDOF 17
ENDMDL
MODEL 2
REMARK VINA RESULT:     -12.8      0.929      7.510
REMARK SMILES Nc1ncccc1C[N@@H+]1CC2(CC[NH2+]CC2)C[C@H]1C(=O)NCCCCNC(=O)c1ccc(-c2c3nc(c(-c4cccc(S(=O)(=O)[O-])c4F)c4ccc([nH]4)c(-c4cccc(S(=O)(=O)[O-])c4F)c4nc(c(-c5cccc(S(=O)(=O)[O-])c5F)c5ccc2[nH]5)C=C4)C=C3)cc1
REMARK SMILES IDX 23 1 22 2 21 3 19 4 20 5 18 7 9 8 10 9 11 11 17 12 12 13
REMARK SMILES IDX 16 14 13 15 15 16 14 17 8 20 7 21 2 22 3 23 4 24 6 25 5 26
REMARK SMILES IDX 1 27 24 30 25 31 26 32 27 33 28 35 29 36 30 37 91 38 31 39
REMARK SMILES IDX 90 40 32 41 33 42 34 43 84 44 35 45 89 46 83 47 85 48 36 49
REMARK SMILES IDX 88 50 82 51 81 52 37 54 69 55 49 56 68 57 50 58 53 59 67 60
REMARK SMILES IDX 86 61 51 62 52 63 66 65 87 66 54 67 38 68 39 69 47 70 40 71
REMARK SMILES IDX 42 72 48 73 41 74 43 75 44 76 45 77 46 78 70 79 71 80 79 81
REMARK SMILES IDX 72 82 74 83 80 84 73 85 75 86 76 87 77 88 78 89 55 90 56 91
REMARK SMILES IDX 64 92 57 93 59 94 65 95 58 96 60 97 61 98 62 99 63 100
REMARK H PARENT 21 6 9 10 14 18 14 19 1 28 1 29 26 34 85 53 53 64
REMARK Flexibility Score: inf
ROOT
ATOM      1  C   UNL A   1      35.956  22.930  23.503  1.00  0.00     0.023 C 
ENDROOT
BRANCH   1   2
ATOM      2  C   UNL A   1      34.973  24.091  23.434  1.00  0.00     0.116 C 
BRANCH   2   3
ATOM      3  N   UNL A   1      33.647  23.835  23.916  1.00  0.00    -0.351 N 
ATOM      4  C   UNL A   1      32.548  24.644  23.887  1.00  0.00     0.278 C 
ATOM      5  O   UNL A   1      31.474  24.093  24.172  1.00  0.00    -0.268 OA
ATOM      6  H   UNL A   1      33.509  22.951  24.326  1.00  0.00     0.163 HD
BRANCH   4   7
ATOM      7  C   UNL A   1      32.562  26.177  23.571  1.00  0.00     0.275 C 
ATOM      8  N   UNL A   1      31.226  26.770  23.743  1.00  0.00    -0.320 N 
ATOM      9  C   UNL A   1      31.273  27.726  24.856  1.00  0.00     0.270 C 
ATOM     10  H   UNL A   1      30.552  26.057  24.019  1.00  0.00     0.349 HD
ATOM     11  C   UNL A   1      32.757  28.054  25.196  1.00  0.00     0.036 C 
ATOM     12  C   UNL A   1      33.553  27.138  24.241  1.00  0.00     0.089 C 
ATOM     13  C   UNL A   1      33.282  27.826  26.645  1.00  0.00     0.074 C 
ATOM     14  C   UNL A   1      32.976  29.579  25.018  1.00  0.00     0.074 C 
ATOM     15  C   UNL A   1      32.487  28.591  27.692  1.00  0.00     0.261 C 
ATOM     16  C   UNL A   1      32.191  30.379  26.079  1.00  0.00     0.261 C 
ATOM     17  N   UNL A   1      32.567  30.030  27.448  1.00  0.00    -0.346 N 
ATOM     18  H   UNL A   1      33.525  30.338  27.614  1.00  0.00     0.346 HD
ATOM     19  H   UNL A   1      31.915  30.493  28.080  1.00  0.00     0.346 HD
BRANCH   8  20
ATOM     20  C   UNL A   1      30.615  27.229  22.473  1.00  0.00     0.303 C 
BRANCH  20  21
ATOM     21  C   UNL A   1      29.580  28.341  22.550  1.00  0.00     0.048 A 
ATOM     22  C   UNL A   1      29.854  29.675  22.227  1.00  0.00     0.132 A 
ATOM     23  N   UNL A   1      29.018  30.690  22.529  1.00  0.00    -0.239 NA
ATOM     24  C   UNL A   1      27.839  30.385  23.104  1.00  0.00     0.113 A 
ATOM     25  C   UNL A   1      28.292  28.059  23.023  1.00  0.00     0.015 A 
ATOM     26  C   UNL A   1      27.414  29.094  23.329  1.00  0.00     0.021 A 
BRANCH  22  27
ATOM     27  N   UNL A   1      31.026  30.078  21.626  1.00  0.00    -0.383 N 
ATOM     28  H   UNL A   1      31.259  29.742  20.729  1.00  0.00     0.158 HD
ATOM     29  H   UNL A   1      31.631  30.700  22.092  1.00  0.00     0.158 HD
ENDBRANCH  22  27
ENDBRANCH  20  21
ENDBRANCH   8  20
ENDBRANCH   4   7
ENDBRANCH   2   3
ENDBRANCH   1   2
BRANCH   1  30
ATOM     30  C   UNL A   1      35.618  21.856  24.534  1.00  0.00     0.023 C 
BRANCH  30  31
ATOM     31  C   UNL A   1      36.566  21.727  25.727  1.00  0.00     0.116 C 
BRANCH  31  32
ATOM     32  N   UNL A   1      37.592  20.703  25.598  1.00  0.00    -0.352 N 
ATOM     33  C   UNL A   1      38.930  20.805  25.942  1.00  0.00     0.251 C 
ATOM     34  H   UNL A   1      37.303  19.839  25.223  1.00  0.00     0.163 HD
ATOM     35  O   UNL A   1      39.699  19.878  25.749  1.00  0.00    -0.269 OA
BRANCH  33  36
ATOM     36  C   UNL A   1      39.419  22.088  26.503  1.00  0.00     0.039 A 
ATOM     37  C   UNL A   1      40.488  22.067  27.403  1.00  0.00     0.014 A 
ATOM     38  C   UNL A   1      38.895  23.302  26.056  1.00  0.00     0.014 A 
ATOM     39  C   UNL A   1      41.094  23.269  27.780  1.00  0.00     0.010 A 
ATOM     40  C   UNL A   1      39.548  24.489  26.373  1.00  0.00     0.010 A 
ATOM     41  C   UNL A   1      40.661  24.486  27.228  1.00  0.00    -0.014 A 
BRANCH  41  42
ATOM     42  C   UNL A   1      41.376  25.761  27.503  1.00  0.00     0.031 A 
ATOM     43  C   UNL A   1      40.692  26.865  28.264  1.00  0.00     0.074 A 
ATOM     44  C   UNL A   1      42.603  25.966  26.982  1.00  0.00     0.049 A 
ATOM     45  N   UNL A   1      41.132  28.062  28.554  1.00  0.00    -0.248 NA
ATOM     46  C   UNL A   1      39.323  26.598  28.735  1.00  0.00     0.031 C 
ATOM     47  C   UNL A   1      43.340  25.013  26.148  1.00  0.00     0.029 A 
ATOM     48  N   UNL A   1      43.439  27.054  27.057  1.00  0.00    -0.354 N 
ATOM     49  C   UNL A   1      40.087  28.702  29.207  1.00  0.00     0.074 A 
ATOM     50  C   UNL A   1      38.975  27.776  29.233  1.00  0.00     0.031 C 
ATOM     51  C   UNL A   1      44.522  25.550  25.804  1.00  0.00     0.029 A 
ATOM     52  C   UNL A   1      44.621  26.892  26.371  1.00  0.00     0.049 A 
ATOM     53  H   UNL A   1      43.214  27.871  27.555  1.00  0.00     0.167 HD
ATOM     54  C   UNL A   1      40.062  29.933  29.772  1.00  0.00     0.034 A 
ATOM     55  C   UNL A   1      45.670  27.727  26.222  1.00  0.00     0.034 A 
ATOM     56  C   UNL A   1      41.184  30.831  29.795  1.00  0.00     0.049 A 
ATOM     57  C   UNL A   1      45.638  29.068  26.903  1.00  0.00     0.074 A 
ATOM     58  C   UNL A   1      41.289  32.062  30.417  1.00  0.00     0.029 A 
ATOM     59  N   UNL A   1      42.397  30.594  29.169  1.00  0.00    -0.354 N 
ATOM     60  N   UNL A   1      44.702  29.590  27.658  1.00  0.00    -0.248 NA
ATOM     61  C   UNL A   1      46.825  29.923  26.744  1.00  0.00     0.031 C 
ATOM     62  C   UNL A   1      42.567  32.574  30.160  1.00  0.00     0.029 A 
ATOM     63  C   UNL A   1      43.259  31.655  29.388  1.00  0.00     0.049 A 
ATOM     64  H   UNL A   1      42.615  29.789  28.645  1.00  0.00     0.167 HD
ATOM     65  C   UNL A   1      45.198  30.812  28.095  1.00  0.00     0.074 A 
ATOM     66  C   UNL A   1      46.528  30.946  27.535  1.00  0.00     0.031 C 
ATOM     67  C   UNL A   1      44.602  31.747  28.876  1.00  0.00     0.034 A 
BRANCH  54  68
ATOM     68  C   UNL A   1      38.797  30.345  30.479  1.00  0.00     0.023 A 
ATOM     69  C   UNL A   1      38.646  30.045  31.849  1.00  0.00     0.012 A 
ATOM     70  C   UNL A   1      37.778  31.050  29.811  1.00  0.00     0.148 A 
ATOM     71  C   UNL A   1      37.485  30.402  32.533  1.00  0.00     0.002 A 
ATOM     72  C   UNL A   1      36.641  31.440  30.511  1.00  0.00     0.091 A 
ATOM     73  F   UNL A   1      37.926  31.307  28.504  1.00  0.00    -0.205 F 
ATOM     74  C   UNL A   1      36.488  31.108  31.867  1.00  0.00     0.022 A 
BRANCH  72  75
ATOM     75  S   UNL A   1      35.334  32.418  29.757  1.00  0.00     0.127 S 
ATOM     76  O   UNL A   1      36.082  33.565  29.247  1.00  0.00    -0.237 OA
ATOM     77  O   UNL A   1      34.826  31.513  28.725  1.00  0.00    -0.237 OA
ATOM     78  O   UNL A   1      34.388  32.706  30.825  1.00  0.00    -0.744 OA
ENDBRANCH  72  75
ENDBRANCH  54  68
BRANCH  55  79
ATOM     79  C   UNL A   1      46.882  27.277  25.480  1.00  0.00     0.023 A 
ATOM     80  C   UNL A   1      47.774  26.384  26.108  1.00  0.00     0.012 A 
ATOM     81  C   UNL A   1      47.143  27.694  24.161  1.00  0.00     0.148 A 
ATOM     82  C   UNL A   1      48.918  25.937  25.448  1.00  0.00     0.002 A 
ATOM     83  C   UNL A   1      48.260  27.205  23.490  1.00  0.00     0.091 A 
ATOM     84  F   UNL A   1      46.291  28.552  23.585  1.00  0.00    -0.205 F 
ATOM     85  C   UNL A   1      49.156  26.340  24.137  1.00  0.00     0.022 A 
BRANCH  83  86
ATOM     86  S   UNL A   1      48.581  27.569  21.761  1.00  0.00     0.127 S 
ATOM     87  O   UNL A   1      49.179  26.321  21.297  1.00  0.00    -0.237 OA
ATOM     88  O   UNL A   1      47.234  27.834  21.252  1.00  0.00    -0.237 OA
ATOM     89  O   UNL A   1      49.458  28.733  21.763  1.00  0.00    -0.744 OA
ENDBRANCH  83  86
ENDBRANCH  55  79
BRANCH  67  90
ATOM     90  C   UNL A   1      45.388  32.989  29.204  1.00  0.00     0.023 A 
ATOM     91  C   UNL A   1      46.233  33.002  30.332  1.00  0.00     0.012 A 
ATOM     92  C   UNL A   1      45.353  34.110  28.353  1.00  0.00     0.148 A 
ATOM     93  C   UNL A   1      47.011  34.122  30.621  1.00  0.00     0.002 A 
ATOM     94  C   UNL A   1      46.164  35.206  28.623  1.00  0.00     0.091 A 
ATOM     95  F   UNL A   1      44.525  34.088  27.297  1.00  0.00    -0.205 F 
ATOM     96  C   UNL A   1      46.986  35.218  29.761  1.00  0.00     0.022 A 
BRANCH  94  97
ATOM     97  S   UNL A   1      46.265  36.621  27.519  1.00  0.00     0.127 S 
ATOM     98  O   UNL A   1      44.964  37.253  27.725  1.00  0.00    -0.237 OA
ATOM     99  O   UNL A   1      47.399  37.365  28.067  1.00  0.00    -0.237 OA
ATOM    100  O   UNL A   1      46.493  36.071  26.189  1.00  0.00    -0.744 OA
ENDBRANCH  94  97
ENDBRANCH  67  90
ENDBRANCH  41  42
ENDBRANCH  33  36
ENDBRANCH  31  32
ENDBRANCH  30  31
ENDBRANCH   1  30
TORSDOF 17
ENDMDL
MODEL 3
REMARK VINA RESULT:     -12.7      5.127     10.553
REMARK SMILES Nc1ncccc1C[N@@H+]1CC2(CC[NH2+]CC2)C[C@H]1C(=O)NCCCCNC(=O)c1ccc(-c2c3nc(c(-c4cccc(S(=O)(=O)[O-])c4F)c4ccc([nH]4)c(-c4cccc(S(=O)(=O)[O-])c4F)c4nc(c(-c5cccc(S(=O)(=O)[O-])c5F)c5ccc2[nH]5)C=C4)C=C3)cc1
REMARK SMILES IDX 23 1 22 2 21 3 19 4 20 5 18 7 9 8 10 9 11 11 17 12 12 13
REMARK SMILES IDX 16 14 13 15 15 16 14 17 8 20 7 21 2 22 3 23 4 24 6 25 5 26
REMARK SMILES IDX 1 27 24 30 25 31 26 32 27 33 28 35 29 36 30 37 91 38 31 39
REMARK SMILES IDX 90 40 32 41 33 42 34 43 84 44 35 45 89 46 83 47 85 48 36 49
REMARK SMILES IDX 88 50 82 51 81 52 37 54 69 55 49 56 68 57 50 58 53 59 67 60
REMARK SMILES IDX 86 61 51 62 52 63 66 65 87 66 54 67 38 68 39 69 47 70 40 71
REMARK SMILES IDX 42 72 48 73 41 74 43 75 44 76 45 77 46 78 70 79 71 80 79 81
REMARK SMILES IDX 72 82 74 83 80 84 73 85 75 86 76 87 77 88 78 89 55 90 56 91
REMARK SMILES IDX 64 92 57 93 59 94 65 95 58 96 60 97 61 98 62 99 63 100
REMARK H PARENT 21 6 9 10 14 18 14 19 1 28 1 29 26 34 85 53 53 64
REMARK Flexibility Score: inf
ROOT
ATOM      1  C   UNL A   1      31.444  27.577  26.615  1.00  0.00     0.023 C 
ENDROOT
BRANCH   1   2
ATOM      2  C   UNL A   1      32.167  26.294  26.226  1.00  0.00     0.116 C 
BRANCH   2   3
ATOM      3  N   UNL A   1      31.755  25.674  25.001  1.00  0.00    -0.351 N 
ATOM      4  C   UNL A   1      31.772  24.354  24.654  1.00  0.00     0.278 C 
ATOM      5  O   UNL A   1      31.155  24.068  23.617  1.00  0.00    -0.268 OA
ATOM      6  H   UNL A   1      31.410  26.287  24.312  1.00  0.00     0.163 HD
BRANCH   4   7
ATOM      7  C   UNL A   1      32.532  23.226  25.428  1.00  0.00     0.275 C 
ATOM      8  N   UNL A   1      32.714  22.032  24.588  1.00  0.00    -0.320 N 
ATOM      9  C   UNL A   1      34.148  21.839  24.342  1.00  0.00     0.270 C 
ATOM     10  H   UNL A   1      32.292  22.172  23.671  1.00  0.00     0.349 HD
ATOM     11  C   UNL A   1      34.967  22.708  25.342  1.00  0.00     0.036 C 
ATOM     12  C   UNL A   1      33.877  23.477  26.122  1.00  0.00     0.089 C 
ATOM     13  C   UNL A   1      36.000  23.740  24.798  1.00  0.00     0.074 C 
ATOM     14  C   UNL A   1      35.871  21.769  26.183  1.00  0.00     0.074 C 
ATOM     15  C   UNL A   1      37.059  23.106  23.909  1.00  0.00     0.261 C 
ATOM     16  C   UNL A   1      36.965  21.125  25.306  1.00  0.00     0.261 C 
ATOM     17  N   UNL A   1      37.827  22.110  24.654  1.00  0.00    -0.346 N 
ATOM     18  H   UNL A   1      38.378  22.587  25.367  1.00  0.00     0.346 HD
ATOM     19  H   UNL A   1      38.425  21.616  23.993  1.00  0.00     0.346 HD
BRANCH   8  20
ATOM     20  C   UNL A   1      31.938  20.857  25.054  1.00  0.00     0.303 C 
BRANCH  20  21
ATOM     21  C   UNL A   1      32.332  19.492  24.514  1.00  0.00     0.048 A 
ATOM     22  C   UNL A   1      32.844  18.463  25.314  1.00  0.00     0.132 A 
ATOM     23  N   UNL A   1      33.419  17.354  24.803  1.00  0.00    -0.239 NA
ATOM     24  C   UNL A   1      33.433  17.210  23.464  1.00  0.00     0.113 A 
ATOM     25  C   UNL A   1      32.248  19.238  23.139  1.00  0.00     0.015 A 
ATOM     26  C   UNL A   1      32.827  18.094  22.599  1.00  0.00     0.021 A 
BRANCH  22  27
ATOM     27  N   UNL A   1      32.860  18.517  26.689  1.00  0.00    -0.383 N 
ATOM     28  H   UNL A   1      33.697  18.343  27.179  1.00  0.00     0.158 HD
ATOM     29  H   UNL A   1      32.035  18.728  27.184  1.00  0.00     0.158 HD
ENDBRANCH  22  27
ENDBRANCH  20  21
ENDBRANCH   8  20
ENDBRANCH   4   7
ENDBRANCH   2   3
ENDBRANCH   1   2
BRANCH   1  30
ATOM     30  C   UNL A   1      31.619  28.738  25.639  1.00  0.00     0.023 C 
BRANCH  30  31
ATOM     31  C   UNL A   1      32.796  29.679  25.895  1.00  0.00     0.116 C 
BRANCH  31  32
ATOM     32  N   UNL A   1      32.447  30.970  26.472  1.00  0.00    -0.352 N 
ATOM     33  C   UNL A   1      33.217  31.748  27.319  1.00  0.00     0.251 C 
ATOM     34  H   UNL A   1      31.562  31.331  26.232  1.00  0.00     0.163 HD
ATOM     35  O   UNL A   1      32.791  32.801  27.764  1.00  0.00    -0.269 OA
BRANCH  33  36
ATOM     36  C   UNL A   1      34.555  31.247  27.719  1.00  0.00     0.039 A 
ATOM     37  C   UNL A   1      35.581  32.168  27.945  1.00  0.00     0.014 A 
ATOM     38  C   UNL A   1      34.755  29.888  27.971  1.00  0.00     0.014 A 
ATOM     39  C   UNL A   1      36.780  31.734  28.518  1.00  0.00     0.010 A 
ATOM     40  C   UNL A   1      35.920  29.474  28.610  1.00  0.00     0.010 A 
ATOM     41  C   UNL A   1      36.940  30.393  28.903  1.00  0.00    -0.014 A 
BRANCH  41  42
ATOM     42  C   UNL A   1      38.148  29.934  29.640  1.00  0.00     0.031 A 
ATOM     43  C   UNL A   1      38.444  30.465  31.016  1.00  0.00     0.074 A 
ATOM     44  C   UNL A   1      39.031  29.116  29.032  1.00  0.00     0.049 A 
ATOM     45  N   UNL A   1      39.471  30.225  31.789  1.00  0.00    -0.248 NA
ATOM     46  C   UNL A   1      37.474  31.416  31.585  1.00  0.00     0.031 C 
ATOM     47  C   UNL A   1      38.909  28.601  27.665  1.00  0.00     0.029 A 
ATOM     48  N   UNL A   1      40.220  28.591  29.476  1.00  0.00    -0.354 N 
ATOM     49  C   UNL A   1      39.291  31.016  32.916  1.00  0.00     0.074 A 
ATOM     50  C   UNL A   1      38.078  31.778  32.708  1.00  0.00     0.031 C 
ATOM     51  C   UNL A   1      39.969  27.823  27.391  1.00  0.00     0.029 A 
ATOM     52  C   UNL A   1      40.857  27.800  28.549  1.00  0.00     0.049 A 
ATOM     53  H   UNL A   1      40.582  28.764  30.375  1.00  0.00     0.167 HD
ATOM     54  C   UNL A   1      40.041  31.078  34.043  1.00  0.00     0.034 A 
ATOM     55  C   UNL A   1      42.022  27.124  28.624  1.00  0.00     0.034 A 
ATOM     56  C   UNL A   1      41.215  30.281  34.273  1.00  0.00     0.049 A 
ATOM     57  C   UNL A   1      42.811  27.168  29.906  1.00  0.00     0.074 A 
ATOM     58  C   UNL A   1      41.993  30.203  35.414  1.00  0.00     0.029 A 
ATOM     59  N   UNL A   1      41.779  29.420  33.345  1.00  0.00    -0.354 N 
ATOM     60  N   UNL A   1      42.536  27.795  31.024  1.00  0.00    -0.248 NA
ATOM     61  C   UNL A   1      44.052  26.380  29.950  1.00  0.00     0.031 C 
ATOM     62  C   UNL A   1      43.035  29.300  35.172  1.00  0.00     0.029 A 
ATOM     63  C   UNL A   1      42.896  28.806  33.885  1.00  0.00     0.049 A 
ATOM     64  H   UNL A   1      41.435  29.266  32.435  1.00  0.00     0.167 HD
ATOM     65  C   UNL A   1      43.544  27.449  31.915  1.00  0.00     0.074 A 
ATOM     66  C   UNL A   1      44.428  26.541  31.212  1.00  0.00     0.031 C 
ATOM     67  C   UNL A   1      43.731  27.857  33.194  1.00  0.00     0.034 A 
BRANCH  54  68
ATOM     68  C   UNL A   1      39.564  31.990  35.143  1.00  0.00     0.023 A 
ATOM     69  C   UNL A   1      39.851  33.369  35.066  1.00  0.00     0.012 A 
ATOM     70  C   UNL A   1      38.811  31.502  36.227  1.00  0.00     0.148 A 
ATOM     71  C   UNL A   1      39.435  34.241  36.070  1.00  0.00     0.002 A 
ATOM     72  C   UNL A   1      38.363  32.385  37.204  1.00  0.00     0.091 A 
ATOM     73  F   UNL A   1      38.567  30.186  36.298  1.00  0.00    -0.205 F 
ATOM     74  C   UNL A   1      38.683  33.751  37.133  1.00  0.00     0.022 A 
BRANCH  72  75
ATOM     75  S   UNL A   1      37.324  31.859  38.573  1.00  0.00     0.127 S 
ATOM     76  O   UNL A   1      38.214  32.067  39.714  1.00  0.00    -0.237 OA
ATOM     77  O   UNL A   1      36.205  32.800  38.493  1.00  0.00    -0.237 OA
ATOM     78  O   UNL A   1      36.970  30.475  38.293  1.00  0.00    -0.744 OA
ENDBRANCH  72  75
ENDBRANCH  54  68
BRANCH  55  79
ATOM     79  C   UNL A   1      42.462  26.265  27.488  1.00  0.00     0.023 A 
ATOM     80  C   UNL A   1      43.338  26.804  26.525  1.00  0.00     0.012 A 
ATOM     81  C   UNL A   1      42.051  24.924  27.367  1.00  0.00     0.148 A 
ATOM     82  C   UNL A   1      43.775  26.033  25.447  1.00  0.00     0.002 A 
ATOM     83  C   UNL A   1      42.530  24.146  26.318  1.00  0.00     0.091 A 
ATOM     84  F   UNL A   1      41.207  24.433  28.285  1.00  0.00    -0.205 F 
ATOM     85  C   UNL A   1      43.379  24.703  25.349  1.00  0.00     0.022 A 
BRANCH  83  86
ATOM     86  S   UNL A   1      42.173  22.391  26.180  1.00  0.00     0.127 S 
ATOM     87  O   UNL A   1      42.671  21.883  27.454  1.00  0.00    -0.237 OA
ATOM     88  O   UNL A   1      40.716  22.388  26.041  1.00  0.00    -0.237 OA
ATOM     89  O   UNL A   1      42.887  21.939  24.992  1.00  0.00    -0.744 OA
ENDBRANCH  83  86
ENDBRANCH  55  79
BRANCH  67  90
ATOM     90  C   UNL A   1      44.918  27.305  33.939  1.00  0.00     0.023 A 
ATOM     91  C   UNL A   1      46.116  28.046  33.988  1.00  0.00     0.012 A 
ATOM     92  C   UNL A   1      44.822  26.097  34.655  1.00  0.00     0.148 A 
ATOM     93  C   UNL A   1      47.208  27.579  34.718  1.00  0.00     0.002 A 
ATOM     94  C   UNL A   1      45.899  25.659  35.417  1.00  0.00     0.091 A 
ATOM     95  F   UNL A   1      43.681  25.395  34.578  1.00  0.00    -0.205 F 
ATOM     96  C   UNL A   1      47.096  26.394  35.442  1.00  0.00     0.022 A 
BRANCH  94  97
ATOM     97  S   UNL A   1      45.810  24.194  36.454  1.00  0.00     0.127 S 
ATOM     98  O   UNL A   1      44.520  24.377  37.117  1.00  0.00    -0.237 OA
ATOM     99  O   UNL A   1      45.843  23.112  35.470  1.00  0.00    -0.237 OA
ATOM    100  O   UNL A   1      46.976  24.252  37.325  1.00  0.00    -0.744 OA
ENDBRANCH  94  97
ENDBRANCH  67  90
ENDBRANCH  41  42
ENDBRANCH  33  36
ENDBRANCH  31  32
ENDBRANCH  30  31
ENDBRANCH   1  30
TORSDOF 17
ENDMDL
