MODEL 1
REMARK VINA RESULT:     -12.0      0.000      0.000
REMARK SMILES COc1cc(OC(F)(F)F)cc2c1O[C@@H](C(F)(F)F)C(C(=O)NCCCCNC(=O)c1ccc(-c3c4nc(c(-c5cccc(S(=O)(=O)[O-])c5F)c5ccc([nH]5)c(-c5cccc(S(=O)(=O)[O-])c5F)c5nc(c(-c6cccc(S(=O)(=O)[O-])c6F)c6ccc3[nH]6)C=C5)C=C4)cc1)=C2
REMARK SMILES IDX 26 1 25 2 24 3 23 4 21 5 22 6 20 8 3 9 4 10 13 11 5 12 12 13
REMARK SMILES IDX 14 14 11 15 94 16 15 17 2 18 1 19 6 20 7 21 8 22 9 23 10 24
REMARK SMILES IDX 16 25 17 26 18 27 19 28 27 29 28 30 29 31 30 33 31 34 32 35
REMARK SMILES IDX 93 36 33 37 92 38 34 39 35 40 36 41 86 42 37 43 91 44 85 45
REMARK SMILES IDX 87 46 38 47 90 48 84 49 83 50 39 52 71 53 51 54 70 55 52 56
REMARK SMILES IDX 55 57 69 58 88 59 53 60 54 61 68 63 89 64 56 65 40 66 41 67
REMARK SMILES IDX 49 68 42 69 44 70 50 71 43 72 45 73 46 74 47 75 48 76 72 77
REMARK SMILES IDX 73 78 81 79 74 80 76 81 82 82 75 83 77 84 78 85 79 86 80 87
REMARK SMILES IDX 57 88 58 89 66 90 59 91 61 92 67 93 60 94 62 95 63 96 64 97
REMARK SMILES IDX 65 98
REMARK H PARENT 23 7 28 32 87 51 55 62
REMARK Flexibility Score: inf
ROOT
ATOM      1  C   UNL A   1      33.363  31.859  27.965  1.00  0.00     0.023 C 
ENDROOT
BRANCH   1   2
ATOM      2  C   UNL A   1      34.613  30.982  28.088  1.00  0.00     0.023 C 
BRANCH   2   3
ATOM      3  C   UNL A   1      34.462  29.580  27.486  1.00  0.00     0.116 C 
BRANCH   3   4
ATOM      4  N   UNL A   1      33.197  28.995  27.894  1.00  0.00    -0.352 N 
ATOM      5  C   UNL A   1      32.387  28.067  27.322  1.00  0.00     0.251 C 
ATOM      6  O   UNL A   1      31.279  27.879  27.816  1.00  0.00    -0.270 OA
ATOM      7  H   UNL A   1      32.860  29.338  28.753  1.00  0.00     0.163 HD
BRANCH   5   8
ATOM      8  C   UNL A   1      32.804  27.222  26.170  1.00  0.00     0.067 C 
ATOM      9  C   UNL A   1      33.761  25.009  22.716  1.00  0.00     0.165 A 
ATOM     10  C   UNL A   1      34.110  23.657  22.843  1.00  0.00     0.097 A 
ATOM     11  C   UNL A   1      33.461  25.772  23.852  1.00  0.00     0.170 A 
ATOM     12  C   UNL A   1      34.207  23.068  24.101  1.00  0.00     0.134 A 
ATOM     13  C   UNL A   1      33.566  25.188  25.112  1.00  0.00     0.025 A 
ATOM     14  O   UNL A   1      32.977  27.035  23.686  1.00  0.00    -0.471 OA
ATOM     15  C   UNL A   1      33.947  23.845  25.232  1.00  0.00     0.059 A 
ATOM     16  C   UNL A   1      33.193  25.946  26.297  1.00  0.00     0.026 C 
ATOM     17  C   UNL A   1      32.939  27.937  24.830  1.00  0.00     0.314 C 
BRANCH   9  18
ATOM     18  O   UNL A   1      33.680  25.460  21.422  1.00  0.00    -0.493 OA
ATOM     19  C   UNL A   1      32.345  25.620  20.946  1.00  0.00     0.278 C 
ENDBRANCH   9  18
BRANCH  12  20
ATOM     20  O   UNL A   1      34.523  21.769  24.372  1.00  0.00    -0.406 OA
BRANCH  20  21
ATOM     21  C   UNL A   1      33.465  20.874  24.665  1.00  0.00     0.573 C 
ATOM     22  F   UNL A   1      33.757  19.619  24.265  1.00  0.00    -0.132 F 
ATOM     23  F   UNL A   1      33.182  20.875  25.986  1.00  0.00    -0.132 F 
ATOM     24  F   UNL A   1      32.359  21.279  24.001  1.00  0.00    -0.132 F 
ENDBRANCH  20  21
ENDBRANCH  12  20
BRANCH  17  25
ATOM     25  C   UNL A   1      31.883  29.022  24.507  1.00  0.00     0.429 C 
ATOM     26  F   UNL A   1      32.089  30.175  25.177  1.00  0.00    -0.167 F 
ATOM     27  F   UNL A   1      31.939  29.363  23.188  1.00  0.00    -0.167 F 
ATOM     28  F   UNL A   1      30.620  28.604  24.745  1.00  0.00    -0.167 F 
ENDBRANCH  17  25
ENDBRANCH   5   8
ENDBRANCH   3   4
ENDBRANCH   2   3
ENDBRANCH   1   2
BRANCH   1  29
ATOM     29  C   UNL A   1      33.556  33.137  27.156  1.00  0.00     0.116 C 
BRANCH  29  30
ATOM     30  N   UNL A   1      32.920  34.296  27.763  1.00  0.00    -0.352 N 
ATOM     31  C   UNL A   1      33.228  34.914  28.954  1.00  0.00     0.251 C 
ATOM     32  H   UNL A   1      32.172  34.690  27.257  1.00  0.00     0.163 HD
ATOM     33  O   UNL A   1      32.525  35.819  29.378  1.00  0.00    -0.269 OA
BRANCH  31  34
ATOM     34  C   UNL A   1      34.393  34.438  29.728  1.00  0.00     0.039 A 
ATOM     35  C   UNL A   1      34.171  33.786  30.942  1.00  0.00     0.014 A 
ATOM     36  C   UNL A   1      35.692  34.602  29.238  1.00  0.00     0.014 A 
ATOM     37  C   UNL A   1      35.251  33.239  31.637  1.00  0.00     0.010 A 
ATOM     38  C   UNL A   1      36.758  34.000  29.897  1.00  0.00     0.010 A 
ATOM     39  C   UNL A   1      36.548  33.313  31.103  1.00  0.00    -0.014 A 
BRANCH  39  40
ATOM     40  C   UNL A   1      37.698  32.662  31.777  1.00  0.00     0.031 A 
ATOM     41  C   UNL A   1      38.401  31.503  31.127  1.00  0.00     0.074 A 
ATOM     42  C   UNL A   1      38.041  33.050  33.022  1.00  0.00     0.049 A 
ATOM     43  N   UNL A   1      39.380  30.770  31.588  1.00  0.00    -0.248 NA
ATOM     44  C   UNL A   1      37.921  31.094  29.796  1.00  0.00     0.031 C 
ATOM     45  C   UNL A   1      37.373  34.100  33.795  1.00  0.00     0.029 A 
ATOM     46  N   UNL A   1      39.015  32.584  33.868  1.00  0.00    -0.354 N 
ATOM     47  C   UNL A   1      39.605  29.791  30.630  1.00  0.00     0.074 A 
ATOM     48  C   UNL A   1      38.644  30.005  29.571  1.00  0.00     0.031 C 
ATOM     49  C   UNL A   1      37.955  34.196  35.001  1.00  0.00     0.029 A 
ATOM     50  C   UNL A   1      39.022  33.203  35.096  1.00  0.00     0.049 A 
ATOM     51  H   UNL A   1      39.651  31.874  33.620  1.00  0.00     0.167 HD
ATOM     52  C   UNL A   1      40.548  28.819  30.617  1.00  0.00     0.034 A 
ATOM     53  C   UNL A   1      39.796  32.993  36.179  1.00  0.00     0.034 A 
ATOM     54  C   UNL A   1      41.541  28.648  31.643  1.00  0.00     0.049 A 
ATOM     55  C   UNL A   1      40.884  31.957  36.108  1.00  0.00     0.074 A 
ATOM     56  C   UNL A   1      42.606  27.766  31.670  1.00  0.00     0.029 A 
ATOM     57  N   UNL A   1      41.587  29.370  32.826  1.00  0.00    -0.354 N 
ATOM     58  N   UNL A   1      41.198  31.159  35.117  1.00  0.00    -0.248 NA
ATOM     59  C   UNL A   1      41.751  31.820  37.287  1.00  0.00     0.031 C 
ATOM     60  C   UNL A   1      43.291  27.946  32.876  1.00  0.00     0.029 A 
ATOM     61  C   UNL A   1      42.661  28.951  33.593  1.00  0.00     0.049 A 
ATOM     62  H   UNL A   1      40.952  30.076  33.083  1.00  0.00     0.167 HD
ATOM     63  C   UNL A   1      42.316  30.448  35.538  1.00  0.00     0.074 A 
ATOM     64  C   UNL A   1      42.638  30.926  36.866  1.00  0.00     0.031 C 
ATOM     65  C   UNL A   1      43.003  29.476  34.890  1.00  0.00     0.034 A 
BRANCH  52  66
ATOM     66  C   UNL A   1      40.594  27.904  29.422  1.00  0.00     0.023 A 
ATOM     67  C   UNL A   1      39.717  26.802  29.361  1.00  0.00     0.012 A 
ATOM     68  C   UNL A   1      41.453  28.166  28.338  1.00  0.00     0.148 A 
ATOM     69  C   UNL A   1      39.715  25.956  28.252  1.00  0.00     0.002 A 
ATOM     70  C   UNL A   1      41.416  27.342  27.218  1.00  0.00     0.091 A 
ATOM     71  F   UNL A   1      42.296  29.205  28.424  1.00  0.00    -0.205 F 
ATOM     72  C   UNL A   1      40.556  26.232  27.179  1.00  0.00     0.022 A 
BRANCH  70  73
ATOM     73  S   UNL A   1      42.406  27.657  25.752  1.00  0.00     0.127 S 
ATOM     74  O   UNL A   1      41.996  26.559  24.879  1.00  0.00    -0.237 OA
ATOM     75  O   UNL A   1      41.930  28.977  25.336  1.00  0.00    -0.237 OA
ATOM     76  O   UNL A   1      43.794  27.624  26.192  1.00  0.00    -0.744 OA
ENDBRANCH  70  73
ENDBRANCH  52  66
BRANCH  53  77
ATOM     77  C   UNL A   1      39.618  33.841  37.391  1.00  0.00     0.023 A 
ATOM     78  C   UNL A   1      40.116  35.158  37.388  1.00  0.00     0.012 A 
ATOM     79  C   UNL A   1      38.923  33.371  38.522  1.00  0.00     0.148 A 
ATOM     80  C   UNL A   1      39.950  35.984  38.500  1.00  0.00     0.002 A 
ATOM     81  C   UNL A   1      38.714  34.217  39.605  1.00  0.00     0.091 A 
ATOM     82  F   UNL A   1      38.467  32.111  38.510  1.00  0.00    -0.205 F 
ATOM     83  C   UNL A   1      39.240  35.518  39.603  1.00  0.00     0.022 A 
BRANCH  81  84
ATOM     84  S   UNL A   1      37.697  33.746  41.010  1.00  0.00     0.127 S 
ATOM     85  O   UNL A   1      38.596  32.864  41.748  1.00  0.00    -0.237 OA
ATOM     86  O   UNL A   1      37.442  35.039  41.647  1.00  0.00    -0.237 OA
ATOM     87  O   UNL A   1      36.513  33.117  40.440  1.00  0.00    -0.744 OA
ENDBRANCH  81  84
ENDBRANCH  53  77
BRANCH  65  88
ATOM     88  C   UNL A   1      44.191  28.872  35.591  1.00  0.00     0.023 A 
ATOM     89  C   UNL A   1      45.468  29.437  35.409  1.00  0.00     0.012 A 
ATOM     90  C   UNL A   1      44.028  27.803  36.494  1.00  0.00     0.148 A 
ATOM     91  C   UNL A   1      46.571  28.932  36.095  1.00  0.00     0.002 A 
ATOM     92  C   UNL A   1      45.124  27.334  37.208  1.00  0.00     0.091 A 
ATOM     93  F   UNL A   1      42.809  27.265  36.638  1.00  0.00    -0.205 F 
ATOM     94  C   UNL A   1      46.397  27.889  37.003  1.00  0.00     0.022 A 
BRANCH  92  95
ATOM     95  S   UNL A   1      44.973  26.060  38.466  1.00  0.00     0.127 S 
ATOM     96  O   UNL A   1      46.363  25.891  38.889  1.00  0.00    -0.237 OA
ATOM     97  O   UNL A   1      44.107  26.700  39.458  1.00  0.00    -0.237 OA
ATOM     98  O   UNL A   1      44.376  24.911  37.799  1.00  0.00    -0.744 OA
ENDBRANCH  92  95
ENDBRANCH  65  88
ENDBRANCH  39  40
ENDBRANCH  31  34
ENDBRANCH  29  30
ENDBRANCH   1  29
TORSDOF 18
ENDMDL
MODEL 2
REMARK VINA RESULT:     -11.9      6.440     10.161
REMARK SMILES COc1cc(OC(F)(F)F)cc2c1O[C@@H](C(F)(F)F)C(C(=O)NCCCCNC(=O)c1ccc(-c3c4nc(c(-c5cccc(S(=O)(=O)[O-])c5F)c5ccc([nH]5)c(-c5cccc(S(=O)(=O)[O-])c5F)c5nc(c(-c6cccc(S(=O)(=O)[O-])c6F)c6ccc3[nH]6)C=C5)C=C4)cc1)=C2
REMARK SMILES IDX 26 1 25 2 24 3 23 4 21 5 22 6 20 8 3 9 4 10 13 11 5 12 12 13
REMARK SMILES IDX 14 14 11 15 94 16 15 17 2 18 1 19 6 20 7 21 8 22 9 23 10 24
REMARK SMILES IDX 16 25 17 26 18 27 19 28 27 29 28 30 29 31 30 33 31 34 32 35
REMARK SMILES IDX 93 36 33 37 92 38 34 39 35 40 36 41 86 42 37 43 91 44 85 45
REMARK SMILES IDX 87 46 38 47 90 48 84 49 83 50 39 52 71 53 51 54 70 55 52 56
REMARK SMILES IDX 55 57 69 58 88 59 53 60 54 61 68 63 89 64 56 65 40 66 41 67
REMARK SMILES IDX 49 68 42 69 44 70 50 71 43 72 45 73 46 74 47 75 48 76 72 77
REMARK SMILES IDX 73 78 81 79 74 80 76 81 82 82 75 83 77 84 78 85 79 86 80 87
REMARK SMILES IDX 57 88 58 89 66 90 59 91 61 92 67 93 60 94 62 95 63 96 64 97
REMARK SMILES IDX 65 98
REMARK H PARENT 23 7 28 32 87 51 55 62
REMARK Flexibility Score: inf
ROOT
ATOM      1  C   UNL A   1      39.255  21.351  25.812  1.00  0.00     0.023 C 
ENDROOT
BRANCH   1   2
ATOM      2  C   UNL A   1      39.237  22.746  26.443  1.00  0.00     0.023 C 
BRANCH   2   3
ATOM      3  C   UNL A   1      38.025  23.601  26.053  1.00  0.00     0.116 C 
BRANCH   3   4
ATOM      4  N   UNL A   1      37.659  23.346  24.671  1.00  0.00    -0.352 N 
ATOM      5  C   UNL A   1      36.463  23.306  24.029  1.00  0.00     0.251 C 
ATOM      6  O   UNL A   1      36.437  22.898  22.871  1.00  0.00    -0.270 OA
ATOM      7  H   UNL A   1      38.429  23.167  24.083  1.00  0.00     0.163 HD
BRANCH   5   8
ATOM      8  C   UNL A   1      35.196  23.795  24.638  1.00  0.00     0.067 C 
ATOM      9  C   UNL A   1      31.511  24.851  26.386  1.00  0.00     0.165 A 
ATOM     10  C   UNL A   1      30.894  26.053  26.011  1.00  0.00     0.097 A 
ATOM     11  C   UNL A   1      32.748  24.489  25.835  1.00  0.00     0.170 A 
ATOM     12  C   UNL A   1      31.524  26.923  25.124  1.00  0.00     0.134 A 
ATOM     13  C   UNL A   1      33.384  25.361  24.955  1.00  0.00     0.025 A 
ATOM     14  O   UNL A   1      33.246  23.248  26.099  1.00  0.00    -0.471 OA
ATOM     15  C   UNL A   1      32.776  26.575  24.612  1.00  0.00     0.059 A 
ATOM     16  C   UNL A   1      34.635  24.971  24.324  1.00  0.00     0.026 C 
ATOM     17  C   UNL A   1      34.641  22.962  25.789  1.00  0.00     0.314 C 
BRANCH   9  18
ATOM     18  O   UNL A   1      30.776  24.075  27.248  1.00  0.00    -0.493 OA
ATOM     19  C   UNL A   1      30.169  22.941  26.633  1.00  0.00     0.278 C 
ENDBRANCH   9  18
BRANCH  12  20
ATOM     20  O   UNL A   1      31.039  28.113  24.667  1.00  0.00    -0.406 OA
BRANCH  20  21
ATOM     21  C   UNL A   1      31.550  29.304  25.239  1.00  0.00     0.573 C 
ATOM     22  F   UNL A   1      30.733  30.353  25.004  1.00  0.00    -0.132 F 
ATOM     23  F   UNL A   1      31.732  29.161  26.571  1.00  0.00    -0.132 F 
ATOM     24  F   UNL A   1      32.751  29.574  24.680  1.00  0.00    -0.132 F 
ENDBRANCH  20  21
ENDBRANCH  12  20
BRANCH  17  25
ATOM     25  C   UNL A   1      34.763  21.424  25.661  1.00  0.00     0.429 C 
ATOM     26  F   UNL A   1      35.990  20.963  25.984  1.00  0.00    -0.167 F 
ATOM     27  F   UNL A   1      33.912  20.805  26.528  1.00  0.00    -0.167 F 
ATOM     28  F   UNL A   1      34.447  20.980  24.424  1.00  0.00    -0.167 F 
ENDBRANCH  17  25
ENDBRANCH   5   8
ENDBRANCH   3   4
ENDBRANCH   2   3
ENDBRANCH   1   2
BRANCH   1  29
ATOM     29  C   UNL A   1      39.759  20.242  26.728  1.00  0.00     0.116 C 
BRANCH  29  30
ATOM     30  N   UNL A   1      40.825  19.451  26.131  1.00  0.00    -0.352 N 
ATOM     31  C   UNL A   1      42.103  19.847  25.806  1.00  0.00     0.251 C 
ATOM     32  H   UNL A   1      40.604  18.512  25.932  1.00  0.00     0.163 HD
ATOM     33  O   UNL A   1      42.850  19.086  25.209  1.00  0.00    -0.269 OA
BRANCH  31  34
ATOM     34  C   UNL A   1      42.540  21.214  26.154  1.00  0.00     0.039 A 
ATOM     35  C   UNL A   1      42.705  22.147  25.128  1.00  0.00     0.014 A 
ATOM     36  C   UNL A   1      42.748  21.581  27.486  1.00  0.00     0.014 A 
ATOM     37  C   UNL A   1      43.017  23.471  25.444  1.00  0.00     0.010 A 
ATOM     38  C   UNL A   1      42.993  22.913  27.803  1.00  0.00     0.010 A 
ATOM     39  C   UNL A   1      43.130  23.870  26.786  1.00  0.00    -0.014 A 
BRANCH  39  40
ATOM     40  C   UNL A   1      43.372  25.288  27.151  1.00  0.00     0.031 A 
ATOM     41  C   UNL A   1      44.750  25.877  27.031  1.00  0.00     0.074 A 
ATOM     42  C   UNL A   1      42.370  26.012  27.688  1.00  0.00     0.049 A 
ATOM     43  N   UNL A   1      45.165  27.071  27.359  1.00  0.00    -0.248 NA
ATOM     44  C   UNL A   1      45.806  24.998  26.501  1.00  0.00     0.031 C 
ATOM     45  C   UNL A   1      41.013  25.521  27.943  1.00  0.00     0.029 A 
ATOM     46  N   UNL A   1      42.347  27.305  28.147  1.00  0.00    -0.354 N 
ATOM     47  C   UNL A   1      46.533  27.077  27.118  1.00  0.00     0.074 A 
ATOM     48  C   UNL A   1      46.884  25.758  26.640  1.00  0.00     0.031 C 
ATOM     49  C   UNL A   1      40.292  26.499  28.514  1.00  0.00     0.029 A 
ATOM     50  C   UNL A   1      41.137  27.678  28.686  1.00  0.00     0.049 A 
ATOM     51  H   UNL A   1      43.122  27.909  28.096  1.00  0.00     0.167 HD
ATOM     52  C   UNL A   1      47.413  28.097  27.252  1.00  0.00     0.034 A 
ATOM     53  C   UNL A   1      40.753  28.836  29.257  1.00  0.00     0.034 A 
ATOM     54  C   UNL A   1      47.049  29.424  27.671  1.00  0.00     0.049 A 
ATOM     55  C   UNL A   1      41.731  29.977  29.325  1.00  0.00     0.074 A 
ATOM     56  C   UNL A   1      47.843  30.554  27.732  1.00  0.00     0.029 A 
ATOM     57  N   UNL A   1      45.785  29.797  28.102  1.00  0.00    -0.354 N 
ATOM     58  N   UNL A   1      42.978  30.017  28.922  1.00  0.00    -0.248 NA
ATOM     59  C   UNL A   1      41.240  31.243  29.887  1.00  0.00     0.031 C 
ATOM     60  C   UNL A   1      47.062  31.610  28.214  1.00  0.00     0.029 A 
ATOM     61  C   UNL A   1      45.778  31.140  28.437  1.00  0.00     0.049 A 
ATOM     62  H   UNL A   1      45.007  29.196  28.161  1.00  0.00     0.167 HD
ATOM     63  C   UNL A   1      43.411  31.318  29.151  1.00  0.00     0.074 A 
ATOM     64  C   UNL A   1      42.286  32.041  29.708  1.00  0.00     0.031 C 
ATOM     65  C   UNL A   1      44.634  31.860  28.936  1.00  0.00     0.034 A 
BRANCH  52  66
ATOM     66  C   UNL A   1      48.848  27.837  26.880  1.00  0.00     0.023 A 
ATOM     67  C   UNL A   1      49.768  27.469  27.885  1.00  0.00     0.012 A 
ATOM     68  C   UNL A   1      49.274  27.894  25.539  1.00  0.00     0.148 A 
ATOM     69  C   UNL A   1      51.096  27.192  27.564  1.00  0.00     0.002 A 
ATOM     70  C   UNL A   1      50.591  27.575  25.223  1.00  0.00     0.091 A 
ATOM     71  F   UNL A   1      48.392  28.267  24.602  1.00  0.00    -0.205 F 
ATOM     72  C   UNL A   1      51.503  27.234  26.235  1.00  0.00     0.022 A 
BRANCH  70  73
ATOM     73  S   UNL A   1      51.194  27.527  23.532  1.00  0.00     0.127 S 
ATOM     74  O   UNL A   1      51.210  28.946  23.184  1.00  0.00    -0.237 OA
ATOM     75  O   UNL A   1      52.518  26.924  23.693  1.00  0.00    -0.237 OA
ATOM     76  O   UNL A   1      50.243  26.710  22.791  1.00  0.00    -0.744 OA
ENDBRANCH  70  73
ENDBRANCH  52  66
BRANCH  53  77
ATOM     77  C   UNL A   1      39.350  28.995  29.734  1.00  0.00     0.023 A 
ATOM     78  C   UNL A   1      39.013  28.563  31.031  1.00  0.00     0.012 A 
ATOM     79  C   UNL A   1      38.366  29.607  28.935  1.00  0.00     0.148 A 
ATOM     80  C   UNL A   1      37.713  28.713  31.515  1.00  0.00     0.002 A 
ATOM     81  C   UNL A   1      37.087  29.802  29.443  1.00  0.00     0.091 A 
ATOM     82  F   UNL A   1      38.704  30.000  27.699  1.00  0.00    -0.205 F 
ATOM     83  C   UNL A   1      36.753  29.342  30.726  1.00  0.00     0.022 A 
BRANCH  81  84
ATOM     84  S   UNL A   1      35.828  30.722  28.550  1.00  0.00     0.127 S 
ATOM     85  O   UNL A   1      35.046  29.648  27.942  1.00  0.00    -0.237 OA
ATOM     86  O   UNL A   1      35.152  31.440  29.631  1.00  0.00    -0.237 OA
ATOM     87  O   UNL A   1      36.555  31.581  27.625  1.00  0.00    -0.744 OA
ENDBRANCH  81  84
ENDBRANCH  53  77
BRANCH  65  88
ATOM     88  C   UNL A   1      44.826  33.314  29.277  1.00  0.00     0.023 A 
ATOM     89  C   UNL A   1      45.253  33.676  30.569  1.00  0.00     0.012 A 
ATOM     90  C   UNL A   1      44.666  34.311  28.295  1.00  0.00     0.148 A 
ATOM     91  C   UNL A   1      45.495  35.012  30.887  1.00  0.00     0.002 A 
ATOM     92  C   UNL A   1      44.952  35.635  28.605  1.00  0.00     0.091 A 
ATOM     93  F   UNL A   1      44.238  33.949  27.077  1.00  0.00    -0.205 F 
ATOM     94  C   UNL A   1      45.356  35.989  29.903  1.00  0.00     0.022 A 
BRANCH  92  95
ATOM     95  S   UNL A   1      44.893  36.943  27.375  1.00  0.00     0.127 S 
ATOM     96  O   UNL A   1      45.846  36.459  26.378  1.00  0.00    -0.237 OA
ATOM     97  O   UNL A   1      43.493  36.908  26.948  1.00  0.00    -0.237 OA
ATOM     98  O   UNL A   1      45.278  38.163  28.072  1.00  0.00    -0.744 OA
ENDBRANCH  92  95
ENDBRANCH  65  88
ENDBRANCH  39  40
ENDBRANCH  31  34
ENDBRANCH  29  30
ENDBRANCH   1  29
TORSDOF 18
ENDMDL
MODEL 3
REMARK VINA RESULT:     -11.8      6.438     11.535
REMARK SMILES COc1cc(OC(F)(F)F)cc2c1O[C@@H](C(F)(F)F)C(C(=O)NCCCCNC(=O)c1ccc(-c3c4nc(c(-c5cccc(S(=O)(=O)[O-])c5F)c5ccc([nH]5)c(-c5cccc(S(=O)(=O)[O-])c5F)c5nc(c(-c6cccc(S(=O)(=O)[O-])c6F)c6ccc3[nH]6)C=C5)C=C4)cc1)=C2
REMARK SMILES IDX 26 1 25 2 24 3 23 4 21 5 22 6 20 8 3 9 4 10 13 11 5 12 12 13
REMARK SMILES IDX 14 14 11 15 94 16 15 17 2 18 1 19 6 20 7 21 8 22 9 23 10 24
REMARK SMILES IDX 16 25 17 26 18 27 19 28 27 29 28 30 29 31 30 33 31 34 32 35
REMARK SMILES IDX 93 36 33 37 92 38 34 39 35 40 36 41 86 42 37 43 91 44 85 45
REMARK SMILES IDX 87 46 38 47 90 48 84 49 83 50 39 52 71 53 51 54 70 55 52 56
REMARK SMILES IDX 55 57 69 58 88 59 53 60 54 61 68 63 89 64 56 65 40 66 41 67
REMARK SMILES IDX 49 68 42 69 44 70 50 71 43 72 45 73 46 74 47 75 48 76 72 77
REMARK SMILES IDX 73 78 81 79 74 80 76 81 82 82 75 83 77 84 78 85 79 86 80 87
REMARK SMILES IDX 57 88 58 89 66 90 59 91 61 92 67 93 60 94 62 95 63 96 64 97
REMARK SMILES IDX 65 98
REMARK H PARENT 23 7 28 32 87 51 55 62
REMARK Flexibility Score: inf
ROOT
ATOM      1  C   UNL A   1      37.853  20.379  24.884  1.00  0.00     0.023 C 
ENDROOT
BRANCH   1   2
ATOM      2  C   UNL A   1      37.093  21.650  24.495  1.00  0.00     0.023 C 
BRANCH   2   3
ATOM      3  C   UNL A   1      36.642  22.505  25.685  1.00  0.00     0.116 C 
BRANCH   3   4
ATOM      4  N   UNL A   1      35.647  21.792  26.464  1.00  0.00    -0.352 N 
ATOM      5  C   UNL A   1      34.373  22.093  26.825  1.00  0.00     0.251 C 
ATOM      6  O   UNL A   1      33.811  21.365  27.639  1.00  0.00    -0.270 OA
ATOM      7  H   UNL A   1      35.956  20.918  26.797  1.00  0.00     0.163 HD
BRANCH   5   8
ATOM      8  C   UNL A   1      33.604  23.221  26.232  1.00  0.00     0.067 C 
ATOM      9  C   UNL A   1      31.393  26.223  24.272  1.00  0.00     0.165 A 
ATOM     10  C   UNL A   1      31.683  27.569  24.533  1.00  0.00     0.097 A 
ATOM     11  C   UNL A   1      32.100  25.206  24.928  1.00  0.00     0.170 A 
ATOM     12  C   UNL A   1      32.643  27.913  25.482  1.00  0.00     0.134 A 
ATOM     13  C   UNL A   1      33.054  25.547  25.883  1.00  0.00     0.025 A 
ATOM     14  O   UNL A   1      31.904  23.915  24.541  1.00  0.00    -0.471 OA
ATOM     15  C   UNL A   1      33.314  26.895  26.162  1.00  0.00     0.059 A 
ATOM     16  C   UNL A   1      33.842  24.507  26.526  1.00  0.00     0.026 C 
ATOM     17  C   UNL A   1      32.392  22.836  25.391  1.00  0.00     0.314 C 
BRANCH   9  18
ATOM     18  O   UNL A   1      30.443  26.020  23.301  1.00  0.00    -0.493 OA
ATOM     19  C   UNL A   1      29.158  26.543  23.628  1.00  0.00     0.278 C 
ENDBRANCH   9  18
BRANCH  12  20
ATOM     20  O   UNL A   1      33.033  29.174  25.827  1.00  0.00    -0.406 OA
BRANCH  20  21
ATOM     21  C   UNL A   1      32.126  29.971  26.568  1.00  0.00     0.573 C 
ATOM     22  F   UNL A   1      31.432  29.228  27.456  1.00  0.00    -0.132 F 
ATOM     23  F   UNL A   1      32.772  30.965  27.216  1.00  0.00    -0.132 F 
ATOM     24  F   UNL A   1      31.244  30.534  25.713  1.00  0.00    -0.132 F 
ENDBRANCH  20  21
ENDBRANCH  12  20
BRANCH  17  25
ATOM     25  C   UNL A   1      32.536  21.587  24.487  1.00  0.00     0.429 C 
ATOM     26  F   UNL A   1      32.165  20.445  25.103  1.00  0.00    -0.167 F 
ATOM     27  F   UNL A   1      31.717  21.688  23.402  1.00  0.00    -0.167 F 
ATOM     28  F   UNL A   1      33.792  21.433  24.012  1.00  0.00    -0.167 F 
ENDBRANCH  17  25
ENDBRANCH   5   8
ENDBRANCH   3   4
ENDBRANCH   2   3
ENDBRANCH   1   2
BRANCH   1  29
ATOM     29  C   UNL A   1      38.972  20.587  25.898  1.00  0.00     0.116 C 
BRANCH  29  30
ATOM     30  N   UNL A   1      39.925  19.487  25.929  1.00  0.00    -0.352 N 
ATOM     31  C   UNL A   1      41.285  19.542  26.137  1.00  0.00     0.251 C 
ATOM     32  H   UNL A   1      39.550  18.590  25.780  1.00  0.00     0.163 HD
ATOM     33  O   UNL A   1      41.965  18.533  26.026  1.00  0.00    -0.269 OA
BRANCH  31  34
ATOM     34  C   UNL A   1      41.910  20.842  26.454  1.00  0.00     0.039 A 
ATOM     35  C   UNL A   1      42.231  21.706  25.406  1.00  0.00     0.014 A 
ATOM     36  C   UNL A   1      42.143  21.218  27.780  1.00  0.00     0.014 A 
ATOM     37  C   UNL A   1      42.727  22.980  25.690  1.00  0.00     0.010 A 
ATOM     38  C   UNL A   1      42.574  22.509  28.064  1.00  0.00     0.010 A 
ATOM     39  C   UNL A   1      42.870  23.402  27.023  1.00  0.00    -0.014 A 
BRANCH  39  40
ATOM     40  C   UNL A   1      43.310  24.781  27.351  1.00  0.00     0.031 A 
ATOM     41  C   UNL A   1      42.344  25.760  27.956  1.00  0.00     0.074 A 
ATOM     42  C   UNL A   1      44.552  25.178  27.007  1.00  0.00     0.049 A 
ATOM     43  N   UNL A   1      42.526  27.020  28.251  1.00  0.00    -0.248 NA
ATOM     44  C   UNL A   1      40.984  25.268  28.237  1.00  0.00     0.031 C 
ATOM     45  C   UNL A   1      45.549  24.347  26.329  1.00  0.00     0.029 A 
ATOM     46  N   UNL A   1      45.174  26.392  27.151  1.00  0.00    -0.354 N 
ATOM     47  C   UNL A   1      41.300  27.483  28.712  1.00  0.00     0.074 A 
ATOM     48  C   UNL A   1      40.372  26.377  28.632  1.00  0.00     0.031 C 
ATOM     49  C   UNL A   1      46.656  25.075  26.114  1.00  0.00     0.029 A 
ATOM     50  C   UNL A   1      46.442  26.429  26.618  1.00  0.00     0.049 A 
ATOM     51  H   UNL A   1      44.754  27.165  27.593  1.00  0.00     0.167 HD
ATOM     52  C   UNL A   1      40.982  28.711  29.187  1.00  0.00     0.034 A 
ATOM     53  C   UNL A   1      47.330  27.439  26.541  1.00  0.00     0.034 A 
ATOM     54  C   UNL A   1      41.923  29.790  29.321  1.00  0.00     0.049 A 
ATOM     55  C   UNL A   1      46.977  28.771  27.144  1.00  0.00     0.074 A 
ATOM     56  C   UNL A   1      41.728  31.034  29.893  1.00  0.00     0.029 A 
ATOM     57  N   UNL A   1      43.235  29.755  28.873  1.00  0.00    -0.354 N 
ATOM     58  N   UNL A   1      45.868  29.136  27.741  1.00  0.00    -0.248 NA
ATOM     59  C   UNL A   1      48.008  29.816  27.102  1.00  0.00     0.031 C 
ATOM     60  C   UNL A   1      42.920  31.757  29.779  1.00  0.00     0.029 A 
ATOM     61  C   UNL A   1      43.861  30.957  29.151  1.00  0.00     0.049 A 
ATOM     62  H   UNL A   1      43.659  28.988  28.424  1.00  0.00     0.167 HD
ATOM     63  C   UNL A   1      46.079  30.440  28.173  1.00  0.00     0.074 A 
ATOM     64  C   UNL A   1      47.430  30.794  27.789  1.00  0.00     0.031 C 
ATOM     65  C   UNL A   1      45.225  31.275  28.814  1.00  0.00     0.034 A 
BRANCH  52  66
ATOM     66  C   UNL A   1      39.571  28.934  29.661  1.00  0.00     0.023 A 
ATOM     67  C   UNL A   1      39.203  28.521  30.959  1.00  0.00     0.012 A 
ATOM     68  C   UNL A   1      38.630  29.603  28.856  1.00  0.00     0.148 A 
ATOM     69  C   UNL A   1      37.912  28.744  31.435  1.00  0.00     0.002 A 
ATOM     70  C   UNL A   1      37.357  29.858  29.354  1.00  0.00     0.091 A 
ATOM     71  F   UNL A   1      38.991  29.968  27.617  1.00  0.00    -0.205 F 
ATOM     72  C   UNL A   1      36.994  29.421  30.638  1.00  0.00     0.022 A 
BRANCH  70  73
ATOM     73  S   UNL A   1      36.126  30.789  28.434  1.00  0.00     0.127 S 
ATOM     74  O   UNL A   1      35.060  30.927  29.424  1.00  0.00    -0.237 OA
ATOM     75  O   UNL A   1      36.841  32.030  28.130  1.00  0.00    -0.237 OA
ATOM     76  O   UNL A   1      35.799  29.979  27.269  1.00  0.00    -0.744 OA
ENDBRANCH  70  73
ENDBRANCH  52  66
BRANCH  53  77
ATOM     77  C   UNL A   1      48.671  27.199  25.936  1.00  0.00     0.023 A 
ATOM     78  C   UNL A   1      49.690  26.634  26.726  1.00  0.00     0.012 A 
ATOM     79  C   UNL A   1      48.929  27.483  24.581  1.00  0.00     0.148 A 
ATOM     80  C   UNL A   1      50.951  26.380  26.185  1.00  0.00     0.002 A 
ATOM     81  C   UNL A   1      50.170  27.178  24.035  1.00  0.00     0.091 A 
ATOM     82  F   UNL A   1      47.949  28.032  23.849  1.00  0.00    -0.205 F 
ATOM     83  C   UNL A   1      51.187  26.642  24.838  1.00  0.00     0.022 A 
BRANCH  81  84
ATOM     84  S   UNL A   1      50.518  27.355  22.281  1.00  0.00     0.127 S 
ATOM     85  O   UNL A   1      49.387  26.655  21.678  1.00  0.00    -0.237 OA
ATOM     86  O   UNL A   1      50.503  28.809  22.114  1.00  0.00    -0.237 OA
ATOM     87  O   UNL A   1      51.825  26.744  22.079  1.00  0.00    -0.744 OA
ENDBRANCH  81  84
ENDBRANCH  53  77
BRANCH  65  88
ATOM     88  C   UNL A   1      45.725  32.650  29.170  1.00  0.00     0.023 A 
ATOM     89  C   UNL A   1      46.370  32.859  30.404  1.00  0.00     0.012 A 
ATOM     90  C   UNL A   1      45.632  33.711  28.247  1.00  0.00     0.148 A 
ATOM     91  C   UNL A   1      46.894  34.110  30.726  1.00  0.00     0.002 A 
ATOM     92  C   UNL A   1      46.196  34.943  28.557  1.00  0.00     0.091 A 
ATOM     93  F   UNL A   1      44.996  33.498  27.087  1.00  0.00    -0.205 F 
ATOM     94  C   UNL A   1      46.818  35.147  29.800  1.00  0.00     0.022 A 
BRANCH  92  95
ATOM     95  S   UNL A   1      46.228  36.304  27.385  1.00  0.00     0.127 S 
ATOM     96  O   UNL A   1      44.828  36.725  27.378  1.00  0.00    -0.237 OA
ATOM     97  O   UNL A   1      47.146  37.247  28.025  1.00  0.00    -0.237 OA
ATOM     98  O   UNL A   1      46.720  35.741  26.135  1.00  0.00    -0.744 OA
ENDBRANCH  92  95
ENDBRANCH  65  88
ENDBRANCH  39  40
ENDBRANCH  31  34
ENDBRANCH  29  30
ENDBRANCH   1  29
TORSDOF 18
ENDMDL
