MODEL 1
REMARK VINA RESULT:     -10.1      0.000      0.000
REMARK SMILES O=C(Cc1ccc(-c2ccn(C(F)F)c(=O)c2)cc1)NCCCCNC(=O)c1ccc(-c2c3nc(c(-c4cccc(S(=O)(=O)[O-])c4F)c4ccc([nH]4)c(-c4cccc(S(=O)(=O)[O-])c4F)c4nc(c(-c5cccc(S(=O)(=O)[O-])c5F)c5ccc2[nH]5)C=C4)C=C3)cc1
REMARK SMILES IDX 22 1 21 2 20 3 1 4 2 5 3 7 4 8 5 9 19 10 6 11 18 12 7 13
REMARK SMILES IDX 8 14 9 15 17 16 10 17 15 18 11 19 16 20 12 21 13 22 14 23
REMARK SMILES IDX 23 24 24 25 25 26 26 27 27 29 28 30 29 31 90 32 30 33 89 34
REMARK SMILES IDX 31 35 32 36 33 37 83 38 34 39 88 40 82 41 84 42 35 43 87 44
REMARK SMILES IDX 81 45 80 46 36 48 68 49 48 50 67 51 49 52 52 53 66 54 85 55
REMARK SMILES IDX 50 56 51 57 65 59 86 60 53 61 37 62 38 63 46 64 39 65 41 66
REMARK SMILES IDX 47 67 40 68 42 69 43 70 44 71 45 72 69 73 70 74 78 75 71 76
REMARK SMILES IDX 73 77 79 78 72 79 74 80 75 81 76 82 77 83 54 84 55 85 63 86
REMARK SMILES IDX 56 87 58 88 64 89 57 90 59 91 60 92 61 93 62 94
REMARK H PARENT 20 6 25 28 84 47 52 58
REMARK Flexibility Score: inf
ROOT
ATOM      1  C   UNL A   1      42.154  19.272  27.461  1.00  0.00     0.023 C 
ENDROOT
BRANCH   1   2
ATOM      2  C   UNL A   1      42.354  18.819  26.018  1.00  0.00     0.116 C 
BRANCH   2   3
ATOM      3  N   UNL A   1      43.203  19.722  25.267  1.00  0.00    -0.356 N 
ATOM      4  O   UNL A   1      45.051  18.355  25.224  1.00  0.00    -0.275 OA
ATOM      5  C   UNL A   1      44.492  19.397  24.896  1.00  0.00     0.224 C 
ATOM      6  H   UNL A   1      42.845  20.603  25.011  1.00  0.00     0.163 HD
BRANCH   5   7
ATOM      7  C   UNL A   1      45.181  20.450  24.044  1.00  0.00     0.135 C 
BRANCH   7   8
ATOM      8  C   UNL A   1      45.043  21.878  24.532  1.00  0.00    -0.039 A 
ATOM      9  C   UNL A   1      46.040  22.523  25.278  1.00  0.00     0.005 A 
ATOM     10  C   UNL A   1      43.857  22.575  24.258  1.00  0.00     0.005 A 
ATOM     11  C   UNL A   1      45.884  23.853  25.677  1.00  0.00     0.009 A 
ATOM     12  C   UNL A   1      43.695  23.902  24.667  1.00  0.00     0.009 A 
ATOM     13  C   UNL A   1      44.718  24.558  25.361  1.00  0.00    -0.018 A 
BRANCH  13  14
ATOM     14  C   UNL A   1      44.575  25.980  25.723  1.00  0.00    -0.011 A 
ATOM     15  C   UNL A   1      45.522  26.685  26.565  1.00  0.00     0.027 A 
ATOM     16  C   UNL A   1      43.489  26.631  25.272  1.00  0.00     0.080 A 
ATOM     17  C   UNL A   1      45.307  27.962  26.904  1.00  0.00     0.095 A 
ATOM     18  C   UNL A   1      43.255  28.059  25.613  1.00  0.00     0.255 A 
ATOM     19  N   UNL A   1      44.192  28.642  26.449  1.00  0.00    -0.258 N 
ATOM     20  O   UNL A   1      42.272  28.618  25.138  1.00  0.00    -0.269 OA
BRANCH  19  21
ATOM     21  C   UNL A   1      43.947  30.005  26.845  1.00  0.00     0.451 C 
ATOM     22  F   UNL A   1      42.706  30.150  27.369  1.00  0.00    -0.185 F 
ATOM     23  F   UNL A   1      44.852  30.416  27.763  1.00  0.00    -0.185 F 
ENDBRANCH  19  21
ENDBRANCH  13  14
ENDBRANCH   7   8
ENDBRANCH   5   7
ENDBRANCH   2   3
ENDBRANCH   1   2
BRANCH   1  24
ATOM     24  C   UNL A   1      40.985  20.235  27.684  1.00  0.00     0.023 C 
BRANCH  24  25
ATOM     25  C   UNL A   1      40.948  21.451  26.762  1.00  0.00     0.116 C 
BRANCH  25  26
ATOM     26  N   UNL A   1      39.674  21.600  26.073  1.00  0.00    -0.352 N 
ATOM     27  C   UNL A   1      38.817  22.675  26.045  1.00  0.00     0.251 C 
ATOM     28  H   UNL A   1      39.386  20.818  25.551  1.00  0.00     0.163 HD
ATOM     29  O   UNL A   1      37.711  22.556  25.523  1.00  0.00    -0.269 OA
BRANCH  27  30
ATOM     30  C   UNL A   1      39.207  23.962  26.666  1.00  0.00     0.039 A 
ATOM     31  C   UNL A   1      38.838  24.212  27.991  1.00  0.00     0.014 A 
ATOM     32  C   UNL A   1      39.931  24.922  25.952  1.00  0.00     0.014 A 
ATOM     33  C   UNL A   1      39.254  25.390  28.619  1.00  0.00     0.010 A 
ATOM     34  C   UNL A   1      40.410  26.057  26.603  1.00  0.00     0.010 A 
ATOM     35  C   UNL A   1      40.078  26.306  27.944  1.00  0.00    -0.014 A 
BRANCH  35  36
ATOM     36  C   UNL A   1      40.617  27.512  28.629  1.00  0.00     0.031 A 
ATOM     37  C   UNL A   1      41.990  27.490  29.250  1.00  0.00     0.074 A 
ATOM     38  C   UNL A   1      39.837  28.604  28.768  1.00  0.00     0.049 A 
ATOM     39  N   UNL A   1      42.602  28.426  29.929  1.00  0.00    -0.248 NA
ATOM     40  C   UNL A   1      42.766  26.248  29.112  1.00  0.00     0.031 C 
ATOM     41  C   UNL A   1      38.463  28.729  28.280  1.00  0.00     0.029 A 
ATOM     42  N   UNL A   1      40.079  29.807  29.386  1.00  0.00    -0.354 N 
ATOM     43  C   UNL A   1      43.815  27.877  30.329  1.00  0.00     0.074 A 
ATOM     44  C   UNL A   1      43.838  26.514  29.845  1.00  0.00     0.031 C 
ATOM     45  C   UNL A   1      37.986  29.940  28.609  1.00  0.00     0.029 A 
ATOM     46  C   UNL A   1      39.003  30.665  29.363  1.00  0.00     0.049 A 
ATOM     47  H   UNL A   1      40.940  30.034  29.804  1.00  0.00     0.167 HD
ATOM     48  C   UNL A   1      44.827  28.458  31.015  1.00  0.00     0.034 A 
ATOM     49  C   UNL A   1      38.846  31.891  29.900  1.00  0.00     0.034 A 
ATOM     50  C   UNL A   1      44.816  29.823  31.469  1.00  0.00     0.049 A 
ATOM     51  C   UNL A   1      39.995  32.523  30.638  1.00  0.00     0.074 A 
ATOM     52  C   UNL A   1      45.830  30.530  32.093  1.00  0.00     0.029 A 
ATOM     53  N   UNL A   1      43.735  30.685  31.365  1.00  0.00    -0.354 N 
ATOM     54  N   UNL A   1      41.194  32.042  30.866  1.00  0.00    -0.248 NA
ATOM     55  C   UNL A   1      39.784  33.879  31.165  1.00  0.00     0.031 C 
ATOM     56  C   UNL A   1      45.348  31.806  32.401  1.00  0.00     0.029 A 
ATOM     57  C   UNL A   1      44.051  31.910  31.929  1.00  0.00     0.049 A 
ATOM     58  H   UNL A   1      42.871  30.458  30.952  1.00  0.00     0.167 HD
ATOM     59  C   UNL A   1      41.890  33.050  31.525  1.00  0.00     0.074 A 
ATOM     60  C   UNL A   1      40.984  34.174  31.642  1.00  0.00     0.031 C 
ATOM     61  C   UNL A   1      43.160  33.040  31.999  1.00  0.00     0.034 A 
BRANCH  48  62
ATOM     62  C   UNL A   1      46.059  27.631  31.286  1.00  0.00     0.023 A 
ATOM     63  C   UNL A   1      46.071  26.727  32.368  1.00  0.00     0.012 A 
ATOM     64  C   UNL A   1      47.179  27.699  30.433  1.00  0.00     0.148 A 
ATOM     65  C   UNL A   1      47.190  25.934  32.621  1.00  0.00     0.002 A 
ATOM     66  C   UNL A   1      48.270  26.869  30.661  1.00  0.00     0.091 A 
ATOM     67  F   UNL A   1      47.157  28.574  29.417  1.00  0.00    -0.205 F 
ATOM     68  C   UNL A   1      48.284  25.998  31.763  1.00  0.00     0.022 A 
BRANCH  66  69
ATOM     69  S   UNL A   1      49.688  26.802  29.560  1.00  0.00     0.127 S 
ATOM     70  O   UNL A   1      49.218  25.883  28.526  1.00  0.00    -0.237 OA
ATOM     71  O   UNL A   1      49.806  28.196  29.128  1.00  0.00    -0.237 OA
ATOM     72  O   UNL A   1      50.801  26.320  30.366  1.00  0.00    -0.744 OA
ENDBRANCH  66  69
ENDBRANCH  48  62
BRANCH  49  73
ATOM     73  C   UNL A   1      37.564  32.629  29.715  1.00  0.00     0.023 A 
ATOM     74  C   UNL A   1      37.155  32.995  28.416  1.00  0.00     0.012 A 
ATOM     75  C   UNL A   1      36.742  32.957  30.810  1.00  0.00     0.148 A 
ATOM     76  C   UNL A   1      35.972  33.706  28.216  1.00  0.00     0.002 A 
ATOM     77  C   UNL A   1      35.535  33.614  30.598  1.00  0.00     0.091 A 
ATOM     78  F   UNL A   1      37.152  32.609  32.037  1.00  0.00    -0.205 F 
ATOM     79  C   UNL A   1      35.157  34.007  29.305  1.00  0.00     0.022 A 
BRANCH  77  80
ATOM     80  S   UNL A   1      34.363  33.928  31.922  1.00  0.00     0.127 S 
ATOM     81  O   UNL A   1      33.295  34.631  31.216  1.00  0.00    -0.237 OA
ATOM     82  O   UNL A   1      34.027  32.570  32.354  1.00  0.00    -0.237 OA
ATOM     83  O   UNL A   1      35.087  34.712  32.913  1.00  0.00    -0.744 OA
ENDBRANCH  77  80
ENDBRANCH  49  73
BRANCH  61  84
ATOM     84  C   UNL A   1      43.676  34.298  32.650  1.00  0.00     0.023 A 
ATOM     85  C   UNL A   1      44.313  35.287  31.873  1.00  0.00     0.012 A 
ATOM     86  C   UNL A   1      43.462  34.531  34.023  1.00  0.00     0.148 A 
ATOM     87  C   UNL A   1      44.762  36.470  32.460  1.00  0.00     0.002 A 
ATOM     88  C   UNL A   1      43.863  35.734  34.590  1.00  0.00     0.091 A 
ATOM     89  F   UNL A   1      42.869  33.572  34.749  1.00  0.00    -0.205 F 
ATOM     90  C   UNL A   1      44.526  36.699  33.814  1.00  0.00     0.022 A 
BRANCH  88  91
ATOM     91  S   UNL A   1      43.514  36.158  36.301  1.00  0.00     0.127 S 
ATOM     92  O   UNL A   1      44.591  35.463  37.004  1.00  0.00    -0.237 OA
ATOM     93  O   UNL A   1      43.635  37.616  36.289  1.00  0.00    -0.237 OA
ATOM     94  O   UNL A   1      42.171  35.664  36.574  1.00  0.00    -0.744 OA
ENDBRANCH  88  91
ENDBRANCH  61  84
ENDBRANCH  35  36
ENDBRANCH  27  30
ENDBRANCH  25  26
ENDBRANCH  24  25
ENDBRANCH   1  24
TORSDOF 17
ENDMDL
MODEL 2
REMARK VINA RESULT:     -10.1      1.926      2.762
REMARK SMILES O=C(Cc1ccc(-c2ccn(C(F)F)c(=O)c2)cc1)NCCCCNC(=O)c1ccc(-c2c3nc(c(-c4cccc(S(=O)(=O)[O-])c4F)c4ccc([nH]4)c(-c4cccc(S(=O)(=O)[O-])c4F)c4nc(c(-c5cccc(S(=O)(=O)[O-])c5F)c5ccc2[nH]5)C=C4)C=C3)cc1
REMARK SMILES IDX 22 1 21 2 20 3 1 4 2 5 3 7 4 8 5 9 19 10 6 11 18 12 7 13
REMARK SMILES IDX 8 14 9 15 17 16 10 17 15 18 11 19 16 20 12 21 13 22 14 23
REMARK SMILES IDX 23 24 24 25 25 26 26 27 27 29 28 30 29 31 90 32 30 33 89 34
REMARK SMILES IDX 31 35 32 36 33 37 83 38 34 39 88 40 82 41 84 42 35 43 87 44
REMARK SMILES IDX 81 45 80 46 36 48 68 49 48 50 67 51 49 52 52 53 66 54 85 55
REMARK SMILES IDX 50 56 51 57 65 59 86 60 53 61 37 62 38 63 46 64 39 65 41 66
REMARK SMILES IDX 47 67 40 68 42 69 43 70 44 71 45 72 69 73 70 74 78 75 71 76
REMARK SMILES IDX 73 77 79 78 72 79 74 80 75 81 76 82 77 83 54 84 55 85 63 86
REMARK SMILES IDX 56 87 58 88 64 89 57 90 59 91 60 92 61 93 62 94
REMARK H PARENT 20 6 25 28 84 47 52 58
REMARK Flexibility Score: inf
ROOT
ATOM      1  C   UNL A   1      42.260  22.844  28.570  1.00  0.00     0.023 C 
ENDROOT
BRANCH   1   2
ATOM      2  C   UNL A   1      43.726  22.726  28.164  1.00  0.00     0.116 C 
BRANCH   2   3
ATOM      3  N   UNL A   1      44.083  23.646  27.103  1.00  0.00    -0.356 N 
ATOM      4  O   UNL A   1      46.027  22.585  26.490  1.00  0.00    -0.275 OA
ATOM      5  C   UNL A   1      45.204  23.479  26.318  1.00  0.00     0.224 C 
ATOM      6  H   UNL A   1      43.500  24.422  26.936  1.00  0.00     0.163 HD
BRANCH   5   7
ATOM      7  C   UNL A   1      45.352  24.510  25.210  1.00  0.00     0.135 C 
BRANCH   7   8
ATOM      8  C   UNL A   1      45.244  25.956  25.646  1.00  0.00    -0.039 A 
ATOM      9  C   UNL A   1      44.119  26.748  25.376  1.00  0.00     0.005 A 
ATOM     10  C   UNL A   1      46.328  26.543  26.319  1.00  0.00     0.005 A 
ATOM     11  C   UNL A   1      44.049  28.068  25.830  1.00  0.00     0.009 A 
ATOM     12  C   UNL A   1      46.263  27.867  26.762  1.00  0.00     0.009 A 
ATOM     13  C   UNL A   1      45.114  28.633  26.540  1.00  0.00    -0.018 A 
BRANCH  13  14
ATOM     14  C   UNL A   1      45.020  30.003  27.075  1.00  0.00    -0.011 A 
ATOM     15  C   UNL A   1      43.787  30.765  27.098  1.00  0.00     0.027 A 
ATOM     16  C   UNL A   1      46.150  30.572  27.529  1.00  0.00     0.080 A 
ATOM     17  C   UNL A   1      43.778  32.027  27.546  1.00  0.00     0.095 A 
ATOM     18  C   UNL A   1      46.148  31.961  28.060  1.00  0.00     0.255 A 
ATOM     19  N   UNL A   1      44.934  32.625  28.012  1.00  0.00    -0.258 N 
ATOM     20  O   UNL A   1      47.198  32.416  28.503  1.00  0.00    -0.269 OA
BRANCH  19  21
ATOM     21  C   UNL A   1      44.928  33.994  28.462  1.00  0.00     0.451 C 
ATOM     22  F   UNL A   1      45.631  34.791  27.622  1.00  0.00    -0.185 F 
ATOM     23  F   UNL A   1      43.664  34.471  28.550  1.00  0.00    -0.185 F 
ENDBRANCH  19  21
ENDBRANCH  13  14
ENDBRANCH   7   8
ENDBRANCH   5   7
ENDBRANCH   2   3
ENDBRANCH   1   2
BRANCH   1  24
ATOM     24  C   UNL A   1      41.332  21.788  27.965  1.00  0.00     0.023 C 
BRANCH  24  25
ATOM     25  C   UNL A   1      41.205  21.814  26.444  1.00  0.00     0.116 C 
BRANCH  25  26
ATOM     26  N   UNL A   1      39.823  21.862  25.991  1.00  0.00    -0.352 N 
ATOM     27  C   UNL A   1      38.891  22.862  26.137  1.00  0.00     0.251 C 
ATOM     28  H   UNL A   1      39.512  21.062  25.510  1.00  0.00     0.163 HD
ATOM     29  O   UNL A   1      37.724  22.656  25.813  1.00  0.00    -0.269 OA
BRANCH  27  30
ATOM     30  C   UNL A   1      39.278  24.172  26.709  1.00  0.00     0.039 A 
ATOM     31  C   UNL A   1      38.874  24.487  28.010  1.00  0.00     0.014 A 
ATOM     32  C   UNL A   1      40.033  25.090  25.973  1.00  0.00     0.014 A 
ATOM     33  C   UNL A   1      39.286  25.688  28.595  1.00  0.00     0.010 A 
ATOM     34  C   UNL A   1      40.507  26.249  26.586  1.00  0.00     0.010 A 
ATOM     35  C   UNL A   1      40.139  26.563  27.904  1.00  0.00    -0.014 A 
BRANCH  35  36
ATOM     36  C   UNL A   1      40.673  27.793  28.548  1.00  0.00     0.031 A 
ATOM     37  C   UNL A   1      42.075  27.821  29.101  1.00  0.00     0.074 A 
ATOM     38  C   UNL A   1      39.867  28.862  28.713  1.00  0.00     0.049 A 
ATOM     39  N   UNL A   1      42.689  28.784  29.739  1.00  0.00    -0.248 NA
ATOM     40  C   UNL A   1      42.882  26.602  28.939  1.00  0.00     0.031 C 
ATOM     41  C   UNL A   1      38.467  28.939  28.292  1.00  0.00     0.029 A 
ATOM     42  N   UNL A   1      40.101  30.079  29.305  1.00  0.00    -0.354 N 
ATOM     43  C   UNL A   1      43.937  28.278  30.085  1.00  0.00     0.074 A 
ATOM     44  C   UNL A   1      43.980  26.910  29.615  1.00  0.00     0.031 C 
ATOM     45  C   UNL A   1      37.970  30.139  28.631  1.00  0.00     0.029 A 
ATOM     46  C   UNL A   1      38.999  30.904  29.326  1.00  0.00     0.049 A 
ATOM     47  H   UNL A   1      40.974  30.339  29.678  1.00  0.00     0.167 HD
ATOM     48  C   UNL A   1      44.963  28.898  30.715  1.00  0.00     0.034 A 
ATOM     49  C   UNL A   1      38.829  32.131  29.857  1.00  0.00     0.034 A 
ATOM     50  C   UNL A   1      44.931  30.268  31.154  1.00  0.00     0.049 A 
ATOM     51  C   UNL A   1      39.993  32.807  30.531  1.00  0.00     0.074 A 
ATOM     52  C   UNL A   1      45.951  31.014  31.720  1.00  0.00     0.029 A 
ATOM     53  N   UNL A   1      43.820  31.094  31.094  1.00  0.00    -0.354 N 
ATOM     54  N   UNL A   1      41.215  32.367  30.705  1.00  0.00    -0.248 NA
ATOM     55  C   UNL A   1      39.765  34.163  31.052  1.00  0.00     0.031 C 
ATOM     56  C   UNL A   1      45.445  32.278  32.037  1.00  0.00     0.029 A 
ATOM     57  C   UNL A   1      44.123  32.336  31.628  1.00  0.00     0.049 A 
ATOM     58  H   UNL A   1      42.944  30.836  30.726  1.00  0.00     0.167 HD
ATOM     59  C   UNL A   1      41.911  33.403  31.318  1.00  0.00     0.074 A 
ATOM     60  C   UNL A   1      40.977  34.501  31.467  1.00  0.00     0.031 C 
ATOM     61  C   UNL A   1      43.203  33.439  31.729  1.00  0.00     0.034 A 
BRANCH  48  62
ATOM     62  C   UNL A   1      46.232  28.113  30.933  1.00  0.00     0.023 A 
ATOM     63  C   UNL A   1      47.220  28.087  29.928  1.00  0.00     0.012 A 
ATOM     64  C   UNL A   1      46.476  27.458  32.156  1.00  0.00     0.148 A 
ATOM     65  C   UNL A   1      48.412  27.388  30.118  1.00  0.00     0.002 A 
ATOM     66  C   UNL A   1      47.688  26.807  32.359  1.00  0.00     0.091 A 
ATOM     67  F   UNL A   1      45.521  27.481  33.097  1.00  0.00    -0.205 F 
ATOM     68  C   UNL A   1      48.649  26.758  31.336  1.00  0.00     0.022 A 
BRANCH  66  69
ATOM     69  S   UNL A   1      48.134  26.047  33.924  1.00  0.00     0.127 S 
ATOM     70  O   UNL A   1      49.588  25.952  33.804  1.00  0.00    -0.237 OA
ATOM     71  O   UNL A   1      47.666  27.041  34.892  1.00  0.00    -0.237 OA
ATOM     72  O   UNL A   1      47.427  24.775  33.971  1.00  0.00    -0.744 OA
ENDBRANCH  66  69
ENDBRANCH  48  62
BRANCH  49  73
ATOM     73  C   UNL A   1      37.517  32.827  29.726  1.00  0.00     0.023 A 
ATOM     74  C   UNL A   1      37.042  33.177  28.446  1.00  0.00     0.012 A 
ATOM     75  C   UNL A   1      36.733  33.129  30.856  1.00  0.00     0.148 A 
ATOM     76  C   UNL A   1      35.829  33.849  28.297  1.00  0.00     0.002 A 
ATOM     77  C   UNL A   1      35.497  33.746  30.695  1.00  0.00     0.091 A 
ATOM     78  F   UNL A   1      37.205  32.796  32.064  1.00  0.00    -0.205 F 
ATOM     79  C   UNL A   1      35.052  34.125  29.420  1.00  0.00     0.022 A 
BRANCH  77  80
ATOM     80  S   UNL A   1      34.373  34.024  32.068  1.00  0.00     0.127 S 
ATOM     81  O   UNL A   1      35.187  34.846  32.960  1.00  0.00    -0.237 OA
ATOM     82  O   UNL A   1      33.269  34.729  31.415  1.00  0.00    -0.237 OA
ATOM     83  O   UNL A   1      34.026  32.701  32.570  1.00  0.00    -0.744 OA
ENDBRANCH  77  80
ENDBRANCH  49  73
BRANCH  61  84
ATOM     84  C   UNL A   1      43.709  34.720  32.340  1.00  0.00     0.023 A 
ATOM     85  C   UNL A   1      44.328  35.694  31.530  1.00  0.00     0.012 A 
ATOM     86  C   UNL A   1      43.505  34.988  33.708  1.00  0.00     0.148 A 
ATOM     87  C   UNL A   1      44.768  36.898  32.080  1.00  0.00     0.002 A 
ATOM     88  C   UNL A   1      43.897  36.211  34.238  1.00  0.00     0.091 A 
ATOM     89  F   UNL A   1      42.930  34.043  34.466  1.00  0.00    -0.205 F 
ATOM     90  C   UNL A   1      44.542  37.162  33.430  1.00  0.00     0.022 A 
BRANCH  88  91
ATOM     91  S   UNL A   1      43.559  36.678  35.940  1.00  0.00     0.127 S 
ATOM     92  O   UNL A   1      44.370  35.713  36.680  1.00  0.00    -0.237 OA
ATOM     93  O   UNL A   1      44.055  38.054  35.987  1.00  0.00    -0.237 OA
ATOM     94  O   UNL A   1      42.119  36.547  36.116  1.00  0.00    -0.744 OA
ENDBRANCH  88  91
ENDBRANCH  61  84
ENDBRANCH  35  36
ENDBRANCH  27  30
ENDBRANCH  25  26
ENDBRANCH  24  25
ENDBRANCH   1  24
TORSDOF 17
ENDMDL
MODEL 3
REMARK VINA RESULT:     -10.0      4.392      7.005
REMARK SMILES O=C(Cc1ccc(-c2ccn(C(F)F)c(=O)c2)cc1)NCCCCNC(=O)c1ccc(-c2c3nc(c(-c4cccc(S(=O)(=O)[O-])c4F)c4ccc([nH]4)c(-c4cccc(S(=O)(=O)[O-])c4F)c4nc(c(-c5cccc(S(=O)(=O)[O-])c5F)c5ccc2[nH]5)C=C4)C=C3)cc1
REMARK SMILES IDX 22 1 21 2 20 3 1 4 2 5 3 7 4 8 5 9 19 10 6 11 18 12 7 13
REMARK SMILES IDX 8 14 9 15 17 16 10 17 15 18 11 19 16 20 12 21 13 22 14 23
REMARK SMILES IDX 23 24 24 25 25 26 26 27 27 29 28 30 29 31 90 32 30 33 89 34
REMARK SMILES IDX 31 35 32 36 33 37 83 38 34 39 88 40 82 41 84 42 35 43 87 44
REMARK SMILES IDX 81 45 80 46 36 48 68 49 48 50 67 51 49 52 52 53 66 54 85 55
REMARK SMILES IDX 50 56 51 57 65 59 86 60 53 61 37 62 38 63 46 64 39 65 41 66
REMARK SMILES IDX 47 67 40 68 42 69 43 70 44 71 45 72 69 73 70 74 78 75 71 76
REMARK SMILES IDX 73 77 79 78 72 79 74 80 75 81 76 82 77 83 54 84 55 85 63 86
REMARK SMILES IDX 56 87 58 88 64 89 57 90 59 91 60 92 61 93 62 94
REMARK H PARENT 20 6 25 28 84 47 52 58
REMARK Flexibility Score: inf
ROOT
ATOM      1  C   UNL A   1      35.427  20.196  25.212  1.00  0.00     0.023 C 
ENDROOT
BRANCH   1   2
ATOM      2  C   UNL A   1      34.004  19.783  24.851  1.00  0.00     0.116 C 
BRANCH   2   3
ATOM      3  N   UNL A   1      33.339  20.759  24.012  1.00  0.00    -0.356 N 
ATOM      4  O   UNL A   1      32.215  19.243  22.699  1.00  0.00    -0.275 OA
ATOM      5  C   UNL A   1      32.459  20.405  23.011  1.00  0.00     0.224 C 
ATOM      6  H   UNL A   1      33.523  21.714  24.164  1.00  0.00     0.163 HD
BRANCH   5   7
ATOM      7  C   UNL A   1      31.809  21.584  22.304  1.00  0.00     0.135 C 
BRANCH   7   8
ATOM      8  C   UNL A   1      31.952  22.922  23.000  1.00  0.00    -0.039 A 
ATOM      9  C   UNL A   1      32.988  23.820  22.707  1.00  0.00     0.005 A 
ATOM     10  C   UNL A   1      31.033  23.266  24.003  1.00  0.00     0.005 A 
ATOM     11  C   UNL A   1      33.060  25.060  23.350  1.00  0.00     0.009 A 
ATOM     12  C   UNL A   1      31.112  24.500  24.654  1.00  0.00     0.009 A 
ATOM     13  C   UNL A   1      32.114  25.416  24.316  1.00  0.00    -0.018 A 
BRANCH  13  14
ATOM     14  C   UNL A   1      32.148  26.746  24.950  1.00  0.00    -0.011 A 
ATOM     15  C   UNL A   1      32.724  27.915  24.315  1.00  0.00     0.027 A 
ATOM     16  C   UNL A   1      31.648  26.856  26.193  1.00  0.00     0.080 A 
ATOM     17  C   UNL A   1      32.776  29.084  24.966  1.00  0.00     0.095 A 
ATOM     18  C   UNL A   1      31.668  28.155  26.915  1.00  0.00     0.255 A 
ATOM     19  N   UNL A   1      32.268  29.209  26.246  1.00  0.00    -0.258 N 
ATOM     20  O   UNL A   1      31.159  28.210  28.030  1.00  0.00    -0.269 OA
BRANCH  19  21
ATOM     21  C   UNL A   1      32.356  30.459  26.956  1.00  0.00     0.451 C 
ATOM     22  F   UNL A   1      33.570  31.036  26.788  1.00  0.00    -0.185 F 
ATOM     23  F   UNL A   1      31.406  31.327  26.535  1.00  0.00    -0.185 F 
ENDBRANCH  19  21
ENDBRANCH  13  14
ENDBRANCH   7   8
ENDBRANCH   5   7
ENDBRANCH   2   3
ENDBRANCH   1   2
BRANCH   1  24
ATOM     24  C   UNL A   1      35.831  21.601  24.756  1.00  0.00     0.023 C 
BRANCH  24  25
ATOM     25  C   UNL A   1      37.332  21.862  24.676  1.00  0.00     0.116 C 
BRANCH  25  26
ATOM     26  N   UNL A   1      38.124  20.817  25.306  1.00  0.00    -0.352 N 
ATOM     27  C   UNL A   1      39.234  20.927  26.110  1.00  0.00     0.251 C 
ATOM     28  H   UNL A   1      37.820  19.898  25.132  1.00  0.00     0.163 HD
ATOM     29  O   UNL A   1      39.856  19.917  26.429  1.00  0.00    -0.269 OA
BRANCH  27  30
ATOM     30  C   UNL A   1      39.700  22.256  26.569  1.00  0.00     0.039 A 
ATOM     31  C   UNL A   1      40.726  22.322  27.517  1.00  0.00     0.014 A 
ATOM     32  C   UNL A   1      39.135  23.434  26.073  1.00  0.00     0.014 A 
ATOM     33  C   UNL A   1      41.229  23.564  27.913  1.00  0.00     0.010 A 
ATOM     34  C   UNL A   1      39.691  24.667  26.409  1.00  0.00     0.010 A 
ATOM     35  C   UNL A   1      40.744  24.748  27.334  1.00  0.00    -0.014 A 
BRANCH  35  36
ATOM     36  C   UNL A   1      41.340  26.071  27.664  1.00  0.00     0.031 A 
ATOM     37  C   UNL A   1      42.761  26.389  27.276  1.00  0.00     0.074 A 
ATOM     38  C   UNL A   1      40.630  26.960  28.388  1.00  0.00     0.049 A 
ATOM     39  N   UNL A   1      43.461  27.467  27.524  1.00  0.00    -0.248 NA
ATOM     40  C   UNL A   1      43.499  25.354  26.537  1.00  0.00     0.031 C 
ATOM     41  C   UNL A   1      39.271  26.747  28.891  1.00  0.00     0.029 A 
ATOM     42  N   UNL A   1      40.961  28.209  28.853  1.00  0.00    -0.354 N 
ATOM     43  C   UNL A   1      44.728  27.226  27.006  1.00  0.00     0.074 A 
ATOM     44  C   UNL A   1      44.711  25.887  26.458  1.00  0.00     0.031 C 
ATOM     45  C   UNL A   1      38.883  27.828  29.586  1.00  0.00     0.029 A 
ATOM     46  C   UNL A   1      39.974  28.796  29.612  1.00  0.00     0.049 A 
ATOM     47  H   UNL A   1      41.823  28.644  28.660  1.00  0.00     0.167 HD
ATOM     48  C   UNL A   1      45.803  28.051  26.966  1.00  0.00     0.034 A 
ATOM     49  C   UNL A   1      39.954  29.974  30.268  1.00  0.00     0.034 A 
ATOM     50  C   UNL A   1      45.809  29.393  27.483  1.00  0.00     0.049 A 
ATOM     51  C   UNL A   1      41.152  30.880  30.188  1.00  0.00     0.074 A 
ATOM     52  C   UNL A   1      46.819  30.338  27.409  1.00  0.00     0.029 A 
ATOM     53  N   UNL A   1      44.766  29.979  28.183  1.00  0.00    -0.354 N 
ATOM     54  N   UNL A   1      42.285  30.697  29.554  1.00  0.00    -0.248 NA
ATOM     55  C   UNL A   1      41.058  32.171  30.885  1.00  0.00     0.031 C 
ATOM     56  C   UNL A   1      46.401  31.480  28.098  1.00  0.00     0.029 A 
ATOM     57  C   UNL A   1      45.114  31.265  28.562  1.00  0.00     0.049 A 
ATOM     58  H   UNL A   1      43.905  29.544  28.381  1.00  0.00     0.167 HD
ATOM     59  C   UNL A   1      43.021  31.862  29.742  1.00  0.00     0.074 A 
ATOM     60  C   UNL A   1      42.196  32.752  30.533  1.00  0.00     0.031 C 
ATOM     61  C   UNL A   1      44.269  32.163  29.307  1.00  0.00     0.034 A 
BRANCH  48  62
ATOM     62  C   UNL A   1      47.057  27.540  26.303  1.00  0.00     0.023 A 
ATOM     63  C   UNL A   1      47.311  27.853  24.951  1.00  0.00     0.012 A 
ATOM     64  C   UNL A   1      48.015  26.807  27.032  1.00  0.00     0.148 A 
ATOM     65  C   UNL A   1      48.477  27.412  24.325  1.00  0.00     0.002 A 
ATOM     66  C   UNL A   1      49.198  26.416  26.416  1.00  0.00     0.091 A 
ATOM     67  F   UNL A   1      47.752  26.507  28.312  1.00  0.00    -0.205 F 
ATOM     68  C   UNL A   1      49.423  26.704  25.060  1.00  0.00     0.022 A 
BRANCH  66  69
ATOM     69  S   UNL A   1      50.524  25.585  27.297  1.00  0.00     0.127 S 
ATOM     70  O   UNL A   1      51.596  25.601  26.303  1.00  0.00    -0.237 OA
ATOM     71  O   UNL A   1      50.739  26.475  28.439  1.00  0.00    -0.237 OA
ATOM     72  O   UNL A   1      50.014  24.266  27.644  1.00  0.00    -0.744 OA
ENDBRANCH  66  69
ENDBRANCH  48  62
BRANCH  49  73
ATOM     73  C   UNL A   1      38.734  30.390  31.017  1.00  0.00     0.023 A 
ATOM     74  C   UNL A   1      38.616  30.070  32.385  1.00  0.00     0.012 A 
ATOM     75  C   UNL A   1      37.700  31.110  30.390  1.00  0.00     0.148 A 
ATOM     76  C   UNL A   1      37.476  30.427  33.104  1.00  0.00     0.002 A 
ATOM     77  C   UNL A   1      36.592  31.515  31.126  1.00  0.00     0.091 A 
ATOM     78  F   UNL A   1      37.826  31.398  29.087  1.00  0.00    -0.205 F 
ATOM     79  C   UNL A   1      36.468  31.157  32.478  1.00  0.00     0.022 A 
BRANCH  77  80
ATOM     80  S   UNL A   1      35.309  32.567  30.439  1.00  0.00     0.127 S 
ATOM     81  O   UNL A   1      34.330  32.592  31.523  1.00  0.00    -0.237 OA
ATOM     82  O   UNL A   1      36.030  33.823  30.230  1.00  0.00    -0.237 OA
ATOM     83  O   UNL A   1      34.875  31.912  29.212  1.00  0.00    -0.744 OA
ENDBRANCH  77  80
ENDBRANCH  49  73
BRANCH  61  84
ATOM     84  C   UNL A   1      44.815  33.530  29.632  1.00  0.00     0.023 A 
ATOM     85  C   UNL A   1      45.595  33.723  30.790  1.00  0.00     0.012 A 
ATOM     86  C   UNL A   1      44.613  34.608  28.748  1.00  0.00     0.148 A 
ATOM     87  C   UNL A   1      46.134  34.976  31.081  1.00  0.00     0.002 A 
ATOM     88  C   UNL A   1      45.197  35.839  29.016  1.00  0.00     0.091 A 
ATOM     89  F   UNL A   1      43.854  34.410  27.660  1.00  0.00    -0.205 F 
ATOM     90  C   UNL A   1      45.946  36.030  30.189  1.00  0.00     0.022 A 
BRANCH  88  91
ATOM     91  S   UNL A   1      45.093  37.226  27.878  1.00  0.00     0.127 S 
ATOM     92  O   UNL A   1      45.633  36.643  26.650  1.00  0.00    -0.237 OA
ATOM     93  O   UNL A   1      43.654  37.491  27.845  1.00  0.00    -0.237 OA
ATOM     94  O   UNL A   1      45.892  38.292  28.465  1.00  0.00    -0.744 OA
ENDBRANCH  88  91
ENDBRANCH  61  84
ENDBRANCH  35  36
ENDBRANCH  27  30
ENDBRANCH  25  26
ENDBRANCH  24  25
ENDBRANCH   1  24
TORSDOF 17
ENDMDL
