MODEL 1
REMARK VINA RESULT:     -11.9      0.000      0.000
REMARK SMILES COc1cccc([C@H]2Oc3ccccc3[C@@H]3CC(c4cccs4)=NN23)c1OCC(=O)NCCCCNC(=O)c1ccc(-c2c3nc(c(-c4cccc(S(=O)(=O)[O-])c4F)c4ccc([nH]4)c(-c4cccc(S(=O)(=O)[O-])c4F)c4nc(c(-c5cccc(S(=O)(=O)[O-])c5F)c5ccc2[nH]5)C=C4)C=C3)cc1
REMARK SMILES IDX 33 1 32 2 31 3 29 4 30 5 28 7 27 8 26 9 3 10 4 11 5 12 7 13
REMARK SMILES IDX 6 14 2 15 1 16 8 17 9 18 25 19 10 20 16 21 24 22 11 23 15 24
REMARK SMILES IDX 17 25 18 26 12 27 14 28 13 29 19 30 20 31 23 32 21 33 22 34
REMARK SMILES IDX 34 35 35 36 36 37 37 38 38 40 39 41 40 42 101 43 41 44
REMARK SMILES IDX 100 45 42 46 43 47 44 48 94 49 45 50 99 51 93 52 95 53 46 54
REMARK SMILES IDX 98 55 92 56 91 57 47 59 79 60 59 61 78 62 60 63 63 64 77 65
REMARK SMILES IDX 96 66 61 67 62 68 76 70 97 71 64 72 48 73 49 74 57 75 50 76
REMARK SMILES IDX 52 77 58 78 51 79 53 80 54 81 55 82 56 83 80 84 81 85 89 86
REMARK SMILES IDX 82 87 84 88 90 89 83 90 85 91 86 92 87 93 88 94 65 95 66 96
REMARK SMILES IDX 74 97 67 98 69 99 75 100 68 101 70 102 71 103 72 104 73 105
REMARK H PARENT 31 6 36 39 95 58 63 69
REMARK Flexibility Score: inf
ROOT
ATOM      1  C   UNL A   1      32.114  29.094  23.992  1.00  0.00     0.023 C 
ENDROOT
BRANCH   1   2
ATOM      2  C   UNL A   1      31.647  28.283  22.792  1.00  0.00     0.116 C 
BRANCH   2   3
ATOM      3  N   UNL A   1      32.724  27.550  22.166  1.00  0.00    -0.353 N 
ATOM      4  C   UNL A   1      32.930  26.200  22.191  1.00  0.00     0.257 C 
ATOM      5  O   UNL A   1      33.766  25.730  21.414  1.00  0.00    -0.271 OA
ATOM      6  H   UNL A   1      33.382  28.084  21.665  1.00  0.00     0.163 HD
BRANCH   4   7
ATOM      7  C   UNL A   1      32.065  25.312  23.102  1.00  0.00     0.329 C 
BRANCH   7   8
ATOM      8  O   UNL A   1      32.460  25.118  24.451  1.00  0.00    -0.479 OA
BRANCH   8   9
ATOM      9  C   UNL A   1      31.645  24.454  25.321  1.00  0.00     0.170 A 
ATOM     10  C   UNL A   1      30.500  24.984  25.971  1.00  0.00     0.161 A 
ATOM     11  C   UNL A   1      29.729  24.203  26.851  1.00  0.00     0.050 A 
ATOM     12  C   UNL A   1      30.039  22.878  27.072  1.00  0.00     0.005 A 
ATOM     13  C   UNL A   1      31.998  23.122  25.577  1.00  0.00     0.061 A 
ATOM     14  C   UNL A   1      31.154  22.356  26.445  1.00  0.00     0.014 A 
BRANCH  10  15
ATOM     15  O   UNL A   1      30.167  26.310  25.829  1.00  0.00    -0.493 OA
ATOM     16  C   UNL A   1      31.002  27.191  26.589  1.00  0.00     0.278 C 
ENDBRANCH  10  15
BRANCH  13  17
ATOM     17  C   UNL A   1      33.158  22.292  25.051  1.00  0.00     0.324 C 
ATOM     18  O   UNL A   1      32.705  21.782  23.738  1.00  0.00    -0.464 OA
ATOM     19  N   UNL A   1      34.604  22.577  24.950  1.00  0.00    -0.246 NA
ATOM     20  C   UNL A   1      33.116  20.468  23.648  1.00  0.00     0.128 A 
ATOM     21  C   UNL A   1      35.245  21.358  24.367  1.00  0.00     0.146 C 
ATOM     22  N   UNL A   1      35.426  23.207  25.852  1.00  0.00    -0.177 NA
ATOM     23  C   UNL A   1      32.185  19.518  23.272  1.00  0.00     0.047 A 
ATOM     24  C   UNL A   1      34.320  20.165  24.289  1.00  0.00     0.019 A 
ATOM     25  C   UNL A   1      36.519  21.216  25.151  1.00  0.00     0.091 C 
ATOM     26  C   UNL A   1      36.564  22.575  25.781  1.00  0.00     0.080 C 
ATOM     27  C   UNL A   1      32.316  18.256  23.827  1.00  0.00     0.004 A 
ATOM     28  C   UNL A   1      34.392  18.932  24.922  1.00  0.00     0.010 A 
ATOM     29  C   UNL A   1      33.363  17.997  24.722  1.00  0.00     0.001 A 
BRANCH  26  30
ATOM     30  C   UNL A   1      37.853  23.030  26.235  1.00  0.00     0.050 A 
ATOM     31  C   UNL A   1      38.167  24.329  26.597  1.00  0.00     0.022 A 
ATOM     32  S   UNL A   1      39.232  22.037  26.181  1.00  0.00    -0.142 S 
ATOM     33  C   UNL A   1      39.566  24.522  26.770  1.00  0.00     0.012 A 
ATOM     34  C   UNL A   1      40.267  23.356  26.557  1.00  0.00     0.065 A 
ENDBRANCH  26  30
ENDBRANCH  13  17
ENDBRANCH   8   9
ENDBRANCH   7   8
ENDBRANCH   4   7
ENDBRANCH   2   3
ENDBRANCH   1   2
BRANCH   1  35
ATOM     35  C   UNL A   1      33.590  28.991  24.353  1.00  0.00     0.023 C 
BRANCH  35  36
ATOM     36  C   UNL A   1      33.921  29.217  25.819  1.00  0.00     0.116 C 
BRANCH  36  37
ATOM     37  N   UNL A   1      33.454  30.501  26.321  1.00  0.00    -0.352 N 
ATOM     38  C   UNL A   1      33.973  31.274  27.329  1.00  0.00     0.251 C 
ATOM     39  H   UNL A   1      32.654  30.865  25.877  1.00  0.00     0.163 HD
ATOM     40  O   UNL A   1      33.394  32.298  27.685  1.00  0.00    -0.269 OA
BRANCH  38  41
ATOM     41  C   UNL A   1      35.209  30.839  28.010  1.00  0.00     0.039 A 
ATOM     42  C   UNL A   1      36.298  31.711  28.042  1.00  0.00     0.014 A 
ATOM     43  C   UNL A   1      35.272  29.601  28.656  1.00  0.00     0.014 A 
ATOM     44  C   UNL A   1      37.430  31.370  28.782  1.00  0.00     0.010 A 
ATOM     45  C   UNL A   1      36.365  29.304  29.463  1.00  0.00     0.010 A 
ATOM     46  C   UNL A   1      37.458  30.180  29.530  1.00  0.00    -0.014 A 
BRANCH  46  47
ATOM     47  C   UNL A   1      38.620  29.836  30.386  1.00  0.00     0.031 A 
ATOM     48  C   UNL A   1      38.781  30.490  31.732  1.00  0.00     0.074 A 
ATOM     49  C   UNL A   1      39.570  29.000  29.920  1.00  0.00     0.049 A 
ATOM     50  N   UNL A   1      39.755  30.369  32.596  1.00  0.00    -0.248 NA
ATOM     51  C   UNL A   1      37.720  31.422  32.154  1.00  0.00     0.031 C 
ATOM     52  C   UNL A   1      39.567  28.363  28.601  1.00  0.00     0.029 A 
ATOM     53  N   UNL A   1      40.737  28.562  30.494  1.00  0.00    -0.354 N 
ATOM     54  C   UNL A   1      39.444  31.228  33.642  1.00  0.00     0.074 A 
ATOM     55  C   UNL A   1      38.211  31.896  33.291  1.00  0.00     0.031 C 
ATOM     56  C   UNL A   1      40.672  27.613  28.470  1.00  0.00     0.029 A 
ATOM     57  C   UNL A   1      41.481  27.741  29.678  1.00  0.00     0.049 A 
ATOM     58  H   UNL A   1      41.016  28.812  31.405  1.00  0.00     0.167 HD
ATOM     59  C   UNL A   1      40.106  31.421  34.807  1.00  0.00     0.034 A 
ATOM     60  C   UNL A   1      42.683  27.165  29.878  1.00  0.00     0.034 A 
ATOM     61  C   UNL A   1      41.310  30.724  35.172  1.00  0.00     0.049 A 
ATOM     62  C   UNL A   1      43.381  27.375  31.195  1.00  0.00     0.074 A 
ATOM     63  C   UNL A   1      42.015  30.793  36.360  1.00  0.00     0.029 A 
ATOM     64  N   UNL A   1      41.987  29.834  34.354  1.00  0.00    -0.354 N 
ATOM     65  N   UNL A   1      42.993  28.073  32.234  1.00  0.00    -0.248 NA
ATOM     66  C   UNL A   1      44.667  26.686  31.383  1.00  0.00     0.031 C 
ATOM     67  C   UNL A   1      43.133  29.960  36.251  1.00  0.00     0.029 A 
ATOM     68  C   UNL A   1      43.107  29.350  35.009  1.00  0.00     0.049 A 
ATOM     69  H   UNL A   1      41.713  29.583  33.442  1.00  0.00     0.167 HD
ATOM     70  C   UNL A   1      43.961  27.875  33.211  1.00  0.00     0.074 A 
ATOM     71  C   UNL A   1      44.944  26.974  32.647  1.00  0.00     0.031 C 
ATOM     72  C   UNL A   1      44.040  28.404  34.456  1.00  0.00     0.034 A 
BRANCH  59  73
ATOM     73  C   UNL A   1      39.513  32.382  35.803  1.00  0.00     0.023 A 
ATOM     74  C   UNL A   1      38.512  31.933  36.689  1.00  0.00     0.012 A 
ATOM     75  C   UNL A   1      39.992  33.702  35.915  1.00  0.00     0.148 A 
ATOM     76  C   UNL A   1      37.976  32.788  37.650  1.00  0.00     0.002 A 
ATOM     77  C   UNL A   1      39.486  34.535  36.906  1.00  0.00     0.091 A 
ATOM     78  F   UNL A   1      40.931  34.116  35.052  1.00  0.00    -0.205 F 
ATOM     79  C   UNL A   1      38.471  34.084  37.766  1.00  0.00     0.022 A 
BRANCH  77  80
ATOM     80  S   UNL A   1      40.112  36.194  37.195  1.00  0.00     0.127 S 
ATOM     81  O   UNL A   1      39.840  36.839  35.911  1.00  0.00    -0.237 OA
ATOM     82  O   UNL A   1      39.267  36.651  38.297  1.00  0.00    -0.237 OA
ATOM     83  O   UNL A   1      41.521  36.042  37.527  1.00  0.00    -0.744 OA
ENDBRANCH  77  80
ENDBRANCH  59  73
BRANCH  60  84
ATOM     84  C   UNL A   1      43.280  26.284  28.832  1.00  0.00     0.023 A 
ATOM     85  C   UNL A   1      42.971  24.911  28.824  1.00  0.00     0.012 A 
ATOM     86  C   UNL A   1      44.154  26.796  27.853  1.00  0.00     0.148 A 
ATOM     87  C   UNL A   1      43.553  24.054  27.889  1.00  0.00     0.002 A 
ATOM     88  C   UNL A   1      44.686  25.948  26.889  1.00  0.00     0.091 A 
ATOM     89  F   UNL A   1      44.446  28.104  27.883  1.00  0.00    -0.205 F 
ATOM     90  C   UNL A   1      44.404  24.573  26.917  1.00  0.00     0.022 A 
BRANCH  88  91
ATOM     91  S   UNL A   1      45.685  26.552  25.524  1.00  0.00     0.127 S 
ATOM     92  O   UNL A   1      44.831  27.598  24.968  1.00  0.00    -0.237 OA
ATOM     93  O   UNL A   1      46.881  27.038  26.216  1.00  0.00    -0.237 OA
ATOM     94  O   UNL A   1      45.917  25.397  24.668  1.00  0.00    -0.744 OA
ENDBRANCH  88  91
ENDBRANCH  60  84
BRANCH  72  95
ATOM     95  C   UNL A   1      45.199  27.984  35.323  1.00  0.00     0.023 A 
ATOM     96  C   UNL A   1      46.377  28.755  35.346  1.00  0.00     0.012 A 
ATOM     97  C   UNL A   1      45.086  26.866  36.174  1.00  0.00     0.148 A 
ATOM     98  C   UNL A   1      47.439  28.399  36.176  1.00  0.00     0.002 A 
ATOM     99  C   UNL A   1      46.128  26.548  37.036  1.00  0.00     0.091 A 
ATOM    100  F   UNL A   1      43.962  26.136  36.125  1.00  0.00    -0.205 F 
ATOM    101  C   UNL A   1      47.310  27.305  37.030  1.00  0.00     0.022 A 
BRANCH  99 102
ATOM    102  S   UNL A   1      46.012  25.220  38.239  1.00  0.00     0.127 S 
ATOM    103  O   UNL A   1      47.420  24.973  38.547  1.00  0.00    -0.237 OA
ATOM    104  O   UNL A   1      45.252  25.846  39.321  1.00  0.00    -0.237 OA
ATOM    105  O   UNL A   1      45.320  24.127  37.568  1.00  0.00    -0.744 OA
ENDBRANCH  99 102
ENDBRANCH  72  95
ENDBRANCH  46  47
ENDBRANCH  38  41
ENDBRANCH  36  37
ENDBRANCH  35  36
ENDBRANCH   1  35
TORSDOF 19
ENDMDL
MODEL 2
REMARK VINA RESULT:     -11.4      1.344      7.229
REMARK SMILES COc1cccc([C@H]2Oc3ccccc3[C@@H]3CC(c4cccs4)=NN23)c1OCC(=O)NCCCCNC(=O)c1ccc(-c2c3nc(c(-c4cccc(S(=O)(=O)[O-])c4F)c4ccc([nH]4)c(-c4cccc(S(=O)(=O)[O-])c4F)c4nc(c(-c5cccc(S(=O)(=O)[O-])c5F)c5ccc2[nH]5)C=C4)C=C3)cc1
REMARK SMILES IDX 33 1 32 2 31 3 29 4 30 5 28 7 27 8 26 9 3 10 4 11 5 12 7 13
REMARK SMILES IDX 6 14 2 15 1 16 8 17 9 18 25 19 10 20 16 21 24 22 11 23 15 24
REMARK SMILES IDX 17 25 18 26 12 27 14 28 13 29 19 30 20 31 23 32 21 33 22 34
REMARK SMILES IDX 34 35 35 36 36 37 37 38 38 40 39 41 40 42 101 43 41 44
REMARK SMILES IDX 100 45 42 46 43 47 44 48 94 49 45 50 99 51 93 52 95 53 46 54
REMARK SMILES IDX 98 55 92 56 91 57 47 59 79 60 59 61 78 62 60 63 63 64 77 65
REMARK SMILES IDX 96 66 61 67 62 68 76 70 97 71 64 72 48 73 49 74 57 75 50 76
REMARK SMILES IDX 52 77 58 78 51 79 53 80 54 81 55 82 56 83 80 84 81 85 89 86
REMARK SMILES IDX 82 87 84 88 90 89 83 90 85 91 86 92 87 93 88 94 65 95 66 96
REMARK SMILES IDX 74 97 67 98 69 99 75 100 68 101 70 102 71 103 72 104 73 105
REMARK H PARENT 31 6 36 39 95 58 63 69
REMARK Flexibility Score: inf
ROOT
ATOM      1  C   UNL A   1      31.707  28.928  23.594  1.00  0.00     0.023 C 
ENDROOT
BRANCH   1   2
ATOM      2  C   UNL A   1      31.273  28.021  22.452  1.00  0.00     0.116 C 
BRANCH   2   3
ATOM      3  N   UNL A   1      32.386  27.338  21.832  1.00  0.00    -0.353 N 
ATOM      4  C   UNL A   1      32.692  26.010  21.915  1.00  0.00     0.257 C 
ATOM      5  O   UNL A   1      33.541  25.565  21.138  1.00  0.00    -0.271 OA
ATOM      6  H   UNL A   1      32.991  27.894  21.289  1.00  0.00     0.163 HD
BRANCH   4   7
ATOM      7  C   UNL A   1      31.916  25.106  22.889  1.00  0.00     0.329 C 
BRANCH   7   8
ATOM      8  O   UNL A   1      32.355  25.008  24.234  1.00  0.00    -0.479 OA
BRANCH   8   9
ATOM      9  C   UNL A   1      31.574  24.401  25.173  1.00  0.00     0.170 A 
ATOM     10  C   UNL A   1      30.433  24.960  25.807  1.00  0.00     0.161 A 
ATOM     11  C   UNL A   1      29.698  24.237  26.765  1.00  0.00     0.050 A 
ATOM     12  C   UNL A   1      30.041  22.940  27.083  1.00  0.00     0.005 A 
ATOM     13  C   UNL A   1      31.960  23.099  25.526  1.00  0.00     0.061 A 
ATOM     14  C   UNL A   1      31.151  22.390  26.472  1.00  0.00     0.014 A 
BRANCH  10  15
ATOM     15  O   UNL A   1      30.071  26.264  25.569  1.00  0.00    -0.493 OA
ATOM     16  C   UNL A   1      30.827  27.213  26.329  1.00  0.00     0.278 C 
ENDBRANCH  10  15
BRANCH  13  17
ATOM     17  C   UNL A   1      33.123  22.252  25.039  1.00  0.00     0.324 C 
ATOM     18  O   UNL A   1      32.683  21.700  23.738  1.00  0.00    -0.464 OA
ATOM     19  N   UNL A   1      34.571  22.532  24.944  1.00  0.00    -0.246 NA
ATOM     20  C   UNL A   1      33.093  20.383  23.696  1.00  0.00     0.128 A 
ATOM     21  C   UNL A   1      35.216  21.294  24.407  1.00  0.00     0.146 C 
ATOM     22  N   UNL A   1      35.384  23.189  25.833  1.00  0.00    -0.177 NA
ATOM     23  C   UNL A   1      32.165  19.423  23.341  1.00  0.00     0.047 A 
ATOM     24  C   UNL A   1      34.290  20.100  24.359  1.00  0.00     0.019 A 
ATOM     25  C   UNL A   1      36.481  21.175  25.209  1.00  0.00     0.091 C 
ATOM     26  C   UNL A   1      36.522  22.554  25.795  1.00  0.00     0.080 C 
ATOM     27  C   UNL A   1      32.288  18.179  23.938  1.00  0.00     0.004 A 
ATOM     28  C   UNL A   1      34.354  18.888  25.032  1.00  0.00     0.010 A 
ATOM     29  C   UNL A   1      33.325  17.949  24.852  1.00  0.00     0.001 A 
BRANCH  26  30
ATOM     30  C   UNL A   1      37.807  23.022  26.247  1.00  0.00     0.050 A 
ATOM     31  C   UNL A   1      38.111  24.325  26.602  1.00  0.00     0.022 A 
ATOM     32  S   UNL A   1      39.193  22.039  26.201  1.00  0.00    -0.142 S 
ATOM     33  C   UNL A   1      39.507  24.531  26.776  1.00  0.00     0.012 A 
ATOM     34  C   UNL A   1      40.218  23.369  26.570  1.00  0.00     0.065 A 
ENDBRANCH  26  30
ENDBRANCH  13  17
ENDBRANCH   8   9
ENDBRANCH   7   8
ENDBRANCH   4   7
ENDBRANCH   2   3
ENDBRANCH   1   2
BRANCH   1  35
ATOM     35  C   UNL A   1      33.207  29.119  23.781  1.00  0.00     0.023 C 
BRANCH  35  36
ATOM     36  C   UNL A   1      33.670  29.273  25.220  1.00  0.00     0.116 C 
BRANCH  36  37
ATOM     37  N   UNL A   1      32.980  30.336  25.935  1.00  0.00    -0.352 N 
ATOM     38  C   UNL A   1      33.392  31.045  27.035  1.00  0.00     0.251 C 
ATOM     39  H   UNL A   1      32.094  30.581  25.581  1.00  0.00     0.163 HD
ATOM     40  O   UNL A   1      32.637  31.855  27.568  1.00  0.00    -0.269 OA
BRANCH  38  41
ATOM     41  C   UNL A   1      34.734  30.793  27.597  1.00  0.00     0.039 A 
ATOM     42  C   UNL A   1      35.668  31.831  27.593  1.00  0.00     0.014 A 
ATOM     43  C   UNL A   1      35.049  29.557  28.169  1.00  0.00     0.014 A 
ATOM     44  C   UNL A   1      36.898  31.650  28.227  1.00  0.00     0.010 A 
ATOM     45  C   UNL A   1      36.239  29.411  28.874  1.00  0.00     0.010 A 
ATOM     46  C   UNL A   1      37.178  30.452  28.905  1.00  0.00    -0.014 A 
BRANCH  46  47
ATOM     47  C   UNL A   1      38.447  30.270  29.652  1.00  0.00     0.031 A 
ATOM     48  C   UNL A   1      39.549  29.427  29.068  1.00  0.00     0.074 A 
ATOM     49  C   UNL A   1      38.577  30.794  30.888  1.00  0.00     0.049 A 
ATOM     50  N   UNL A   1      40.701  29.099  29.592  1.00  0.00    -0.248 NA
ATOM     51  C   UNL A   1      39.317  28.857  27.730  1.00  0.00     0.031 C 
ATOM     52  C   UNL A   1      37.551  31.564  31.595  1.00  0.00     0.029 A 
ATOM     53  N   UNL A   1      39.618  30.735  31.782  1.00  0.00    -0.354 N 
ATOM     54  C   UNL A   1      41.314  28.262  28.667  1.00  0.00     0.074 A 
ATOM     55  C   UNL A   1      40.392  28.099  27.566  1.00  0.00     0.031 C 
ATOM     56  C   UNL A   1      38.014  31.911  32.806  1.00  0.00     0.029 A 
ATOM     57  C   UNL A   1      39.354  31.361  32.979  1.00  0.00     0.049 A 
ATOM     58  H   UNL A   1      40.472  30.287  31.584  1.00  0.00     0.167 HD
ATOM     59  C   UNL A   1      42.547  27.706  28.714  1.00  0.00     0.034 A 
ATOM     60  C   UNL A   1      40.106  31.469  34.092  1.00  0.00     0.034 A 
ATOM     61  C   UNL A   1      43.478  27.904  29.791  1.00  0.00     0.049 A 
ATOM     62  C   UNL A   1      41.485  30.863  34.103  1.00  0.00     0.074 A 
ATOM     63  C   UNL A   1      44.779  27.445  29.897  1.00  0.00     0.029 A 
ATOM     64  N   UNL A   1      43.209  28.616  30.949  1.00  0.00    -0.354 N 
ATOM     65  N   UNL A   1      42.104  30.204  33.155  1.00  0.00    -0.248 NA
ATOM     66  C   UNL A   1      42.283  31.050  35.323  1.00  0.00     0.031 C 
ATOM     67  C   UNL A   1      45.288  27.861  31.131  1.00  0.00     0.029 A 
ATOM     68  C   UNL A   1      44.316  28.605  31.778  1.00  0.00     0.049 A 
ATOM     69  H   UNL A   1      42.355  29.063  31.152  1.00  0.00     0.167 HD
ATOM     70  C   UNL A   1      43.376  29.934  33.646  1.00  0.00     0.074 A 
ATOM     71  C   UNL A   1      43.445  30.520  34.969  1.00  0.00     0.031 C 
ATOM     72  C   UNL A   1      44.390  29.249  33.064  1.00  0.00     0.034 A 
BRANCH  59  73
ATOM     73  C   UNL A   1      42.989  26.875  27.538  1.00  0.00     0.023 A 
ATOM     74  C   UNL A   1      43.335  27.513  26.329  1.00  0.00     0.012 A 
ATOM     75  C   UNL A   1      43.133  25.478  27.647  1.00  0.00     0.148 A 
ATOM     76  C   UNL A   1      43.788  26.774  25.238  1.00  0.00     0.002 A 
ATOM     77  C   UNL A   1      43.631  24.752  26.570  1.00  0.00     0.091 A 
ATOM     78  F   UNL A   1      42.783  24.887  28.798  1.00  0.00    -0.205 F 
ATOM     79  C   UNL A   1      43.948  25.397  25.363  1.00  0.00     0.022 A 
BRANCH  77  80
ATOM     80  S   UNL A   1      43.952  22.987  26.653  1.00  0.00     0.127 S 
ATOM     81  O   UNL A   1      43.387  22.526  25.386  1.00  0.00    -0.237 OA
ATOM     82  O   UNL A   1      45.413  22.946  26.720  1.00  0.00    -0.237 OA
ATOM     83  O   UNL A   1      43.273  22.509  27.848  1.00  0.00    -0.744 OA
ENDBRANCH  77  80
ENDBRANCH  59  73
BRANCH  60  84
ATOM     84  C   UNL A   1      39.600  32.229  35.272  1.00  0.00     0.023 A 
ATOM     85  C   UNL A   1      38.720  31.601  36.175  1.00  0.00     0.012 A 
ATOM     86  C   UNL A   1      39.980  33.565  35.503  1.00  0.00     0.148 A 
ATOM     87  C   UNL A   1      38.192  32.301  37.260  1.00  0.00     0.002 A 
ATOM     88  C   UNL A   1      39.495  34.239  36.618  1.00  0.00     0.091 A 
ATOM     89  F   UNL A   1      40.808  34.151  34.628  1.00  0.00    -0.205 F 
ATOM     90  C   UNL A   1      38.585  33.617  37.487  1.00  0.00     0.022 A 
BRANCH  88  91
ATOM     91  S   UNL A   1      40.049  35.891  37.057  1.00  0.00     0.127 S 
ATOM     92  O   UNL A   1      39.641  36.664  35.887  1.00  0.00    -0.237 OA
ATOM     93  O   UNL A   1      39.277  36.157  38.272  1.00  0.00    -0.237 OA
ATOM     94  O   UNL A   1      41.485  35.776  37.274  1.00  0.00    -0.744 OA
ENDBRANCH  88  91
ENDBRANCH  60  84
BRANCH  72  95
ATOM     95  C   UNL A   1      45.687  29.137  33.823  1.00  0.00     0.023 A 
ATOM     96  C   UNL A   1      46.685  30.116  33.660  1.00  0.00     0.012 A 
ATOM     97  C   UNL A   1      45.881  28.098  34.756  1.00  0.00     0.148 A 
ATOM     98  C   UNL A   1      47.872  30.045  34.389  1.00  0.00     0.002 A 
ATOM     99  C   UNL A   1      47.042  28.063  35.517  1.00  0.00     0.091 A 
ATOM    100  F   UNL A   1      44.925  27.166  34.884  1.00  0.00    -0.205 F 
ATOM    101  C   UNL A   1      48.045  29.027  35.325  1.00  0.00     0.022 A 
BRANCH  99 102
ATOM    102  S   UNL A   1      47.309  26.850  36.814  1.00  0.00     0.127 S 
ATOM    103  O   UNL A   1      47.018  25.598  36.115  1.00  0.00    -0.237 OA
ATOM    104  O   UNL A   1      48.720  27.051  37.142  1.00  0.00    -0.237 OA
ATOM    105  O   UNL A   1      46.384  27.195  37.885  1.00  0.00    -0.744 OA
ENDBRANCH  99 102
ENDBRANCH  72  95
ENDBRANCH  46  47
ENDBRANCH  38  41
ENDBRANCH  36  37
ENDBRANCH  35  36
ENDBRANCH   1  35
TORSDOF 19
ENDMDL
MODEL 3
REMARK VINA RESULT:     -11.4      1.759      2.060
REMARK SMILES COc1cccc([C@H]2Oc3ccccc3[C@@H]3CC(c4cccs4)=NN23)c1OCC(=O)NCCCCNC(=O)c1ccc(-c2c3nc(c(-c4cccc(S(=O)(=O)[O-])c4F)c4ccc([nH]4)c(-c4cccc(S(=O)(=O)[O-])c4F)c4nc(c(-c5cccc(S(=O)(=O)[O-])c5F)c5ccc2[nH]5)C=C4)C=C3)cc1
REMARK SMILES IDX 33 1 32 2 31 3 29 4 30 5 28 7 27 8 26 9 3 10 4 11 5 12 7 13
REMARK SMILES IDX 6 14 2 15 1 16 8 17 9 18 25 19 10 20 16 21 24 22 11 23 15 24
REMARK SMILES IDX 17 25 18 26 12 27 14 28 13 29 19 30 20 31 23 32 21 33 22 34
REMARK SMILES IDX 34 35 35 36 36 37 37 38 38 40 39 41 40 42 101 43 41 44
REMARK SMILES IDX 100 45 42 46 43 47 44 48 94 49 45 50 99 51 93 52 95 53 46 54
REMARK SMILES IDX 98 55 92 56 91 57 47 59 79 60 59 61 78 62 60 63 63 64 77 65
REMARK SMILES IDX 96 66 61 67 62 68 76 70 97 71 64 72 48 73 49 74 57 75 50 76
REMARK SMILES IDX 52 77 58 78 51 79 53 80 54 81 55 82 56 83 80 84 81 85 89 86
REMARK SMILES IDX 82 87 84 88 90 89 83 90 85 91 86 92 87 93 88 94 65 95 66 96
REMARK SMILES IDX 74 97 67 98 69 99 75 100 68 101 70 102 71 103 72 104 73 105
REMARK H PARENT 31 6 36 39 95 58 63 69
REMARK Flexibility Score: inf
ROOT
ATOM      1  C   UNL A   1      31.976  29.062  23.988  1.00  0.00     0.023 C 
ENDROOT
BRANCH   1   2
ATOM      2  C   UNL A   1      31.487  28.211  22.825  1.00  0.00     0.116 C 
BRANCH   2   3
ATOM      3  N   UNL A   1      32.569  27.564  22.118  1.00  0.00    -0.353 N 
ATOM      4  C   UNL A   1      32.844  26.227  22.069  1.00  0.00     0.257 C 
ATOM      5  O   UNL A   1      33.665  25.838  21.235  1.00  0.00    -0.271 OA
ATOM      6  H   UNL A   1      33.177  28.155  21.615  1.00  0.00     0.163 HD
BRANCH   4   7
ATOM      7  C   UNL A   1      32.066  25.254  22.973  1.00  0.00     0.329 C 
BRANCH   7   8
ATOM      8  O   UNL A   1      32.486  25.080  24.317  1.00  0.00    -0.479 OA
BRANCH   8   9
ATOM      9  C   UNL A   1      31.672  24.459  25.219  1.00  0.00     0.170 A 
ATOM     10  C   UNL A   1      30.532  25.023  25.850  1.00  0.00     0.161 A 
ATOM     11  C   UNL A   1      29.762  24.286  26.768  1.00  0.00     0.050 A 
ATOM     12  C   UNL A   1      30.067  22.971  27.046  1.00  0.00     0.005 A 
ATOM     13  C   UNL A   1      32.020  23.138  25.533  1.00  0.00     0.061 A 
ATOM     14  C   UNL A   1      31.176  22.416  26.438  1.00  0.00     0.014 A 
BRANCH  10  15
ATOM     15  O   UNL A   1      30.205  26.343  25.651  1.00  0.00    -0.493 OA
ATOM     16  C   UNL A   1      30.885  27.239  26.539  1.00  0.00     0.278 C 
ENDBRANCH  10  15
BRANCH  13  17
ATOM     17  C   UNL A   1      33.173  22.280  25.039  1.00  0.00     0.324 C 
ATOM     18  O   UNL A   1      32.722  21.737  23.738  1.00  0.00    -0.464 OA
ATOM     19  N   UNL A   1      34.623  22.545  24.939  1.00  0.00    -0.246 NA
ATOM     20  C   UNL A   1      33.118  20.416  23.690  1.00  0.00     0.128 A 
ATOM     21  C   UNL A   1      35.253  21.302  24.396  1.00  0.00     0.146 C 
ATOM     22  N   UNL A   1      35.446  23.191  25.828  1.00  0.00    -0.177 NA
ATOM     23  C   UNL A   1      32.179  19.466  23.334  1.00  0.00     0.047 A 
ATOM     24  C   UNL A   1      34.314  20.119  24.347  1.00  0.00     0.019 A 
ATOM     25  C   UNL A   1      36.520  21.168  25.192  1.00  0.00     0.091 C 
ATOM     26  C   UNL A   1      36.577  22.544  25.783  1.00  0.00     0.080 C 
ATOM     27  C   UNL A   1      32.291  18.220  23.927  1.00  0.00     0.004 A 
ATOM     28  C   UNL A   1      34.368  18.903  25.016  1.00  0.00     0.010 A 
ATOM     29  C   UNL A   1      33.329  17.975  24.836  1.00  0.00     0.001 A 
BRANCH  26  30
ATOM     30  C   UNL A   1      37.869  22.998  26.232  1.00  0.00     0.050 A 
ATOM     31  C   UNL A   1      38.197  24.302  26.556  1.00  0.00     0.022 A 
ATOM     32  S   UNL A   1      39.235  21.986  26.219  1.00  0.00    -0.142 S 
ATOM     33  C   UNL A   1      39.596  24.484  26.734  1.00  0.00     0.012 A 
ATOM     34  C   UNL A   1      40.284  23.303  26.562  1.00  0.00     0.065 A 
ENDBRANCH  26  30
ENDBRANCH  13  17
ENDBRANCH   8   9
ENDBRANCH   7   8
ENDBRANCH   4   7
ENDBRANCH   2   3
ENDBRANCH   1   2
BRANCH   1  35
ATOM     35  C   UNL A   1      33.461  28.978  24.319  1.00  0.00     0.023 C 
BRANCH  35  36
ATOM     36  C   UNL A   1      33.819  29.217  25.776  1.00  0.00     0.116 C 
BRANCH  36  37
ATOM     37  N   UNL A   1      33.370  30.510  26.273  1.00  0.00    -0.352 N 
ATOM     38  C   UNL A   1      33.907  31.285  27.269  1.00  0.00     0.251 C 
ATOM     39  H   UNL A   1      32.570  30.879  25.833  1.00  0.00     0.163 HD
ATOM     40  O   UNL A   1      33.342  32.318  27.622  1.00  0.00    -0.269 OA
BRANCH  38  41
ATOM     41  C   UNL A   1      35.146  30.844  27.940  1.00  0.00     0.039 A 
ATOM     42  C   UNL A   1      36.218  31.734  28.019  1.00  0.00     0.014 A 
ATOM     43  C   UNL A   1      35.227  29.581  28.533  1.00  0.00     0.014 A 
ATOM     44  C   UNL A   1      37.351  31.380  28.753  1.00  0.00     0.010 A 
ATOM     45  C   UNL A   1      36.318  29.268  29.335  1.00  0.00     0.010 A 
ATOM     46  C   UNL A   1      37.395  30.160  29.449  1.00  0.00    -0.014 A 
BRANCH  46  47
ATOM     47  C   UNL A   1      38.556  29.801  30.299  1.00  0.00     0.031 A 
ATOM     48  C   UNL A   1      38.690  30.390  31.678  1.00  0.00     0.074 A 
ATOM     49  C   UNL A   1      39.530  29.011  29.802  1.00  0.00     0.049 A 
ATOM     50  N   UNL A   1      39.659  30.248  32.544  1.00  0.00    -0.248 NA
ATOM     51  C   UNL A   1      37.604  31.276  32.134  1.00  0.00     0.031 C 
ATOM     52  C   UNL A   1      39.553  28.440  28.453  1.00  0.00     0.029 A 
ATOM     53  N   UNL A   1      40.702  28.570  30.366  1.00  0.00    -0.354 N 
ATOM     54  C   UNL A   1      39.318  31.047  33.629  1.00  0.00     0.074 A 
ATOM     55  C   UNL A   1      38.073  31.704  33.298  1.00  0.00     0.031 C 
ATOM     56  C   UNL A   1      40.678  27.723  28.296  1.00  0.00     0.029 A 
ATOM     57  C   UNL A   1      41.471  27.808  29.518  1.00  0.00     0.049 A 
ATOM     58  H   UNL A   1      40.966  28.781  31.291  1.00  0.00     0.167 HD
ATOM     59  C   UNL A   1      39.965  31.196  34.808  1.00  0.00     0.034 A 
ATOM     60  C   UNL A   1      42.684  27.250  29.701  1.00  0.00     0.034 A 
ATOM     61  C   UNL A   1      41.181  30.509  35.151  1.00  0.00     0.049 A 
ATOM     62  C   UNL A   1      43.366  27.410  31.035  1.00  0.00     0.074 A 
ATOM     63  C   UNL A   1      41.873  30.535  36.348  1.00  0.00     0.029 A 
ATOM     64  N   UNL A   1      41.886  29.677  34.297  1.00  0.00    -0.354 N 
ATOM     65  N   UNL A   1      42.952  28.047  32.102  1.00  0.00    -0.248 NA
ATOM     66  C   UNL A   1      44.665  26.743  31.201  1.00  0.00     0.031 C 
ATOM     67  C   UNL A   1      43.011  29.735  36.210  1.00  0.00     0.029 A 
ATOM     68  C   UNL A   1      43.010  29.186  34.938  1.00  0.00     0.049 A 
ATOM     69  H   UNL A   1      41.627  29.466  33.371  1.00  0.00     0.167 HD
ATOM     70  C   UNL A   1      43.916  27.823  33.078  1.00  0.00     0.074 A 
ATOM     71  C   UNL A   1      44.924  26.973  32.481  1.00  0.00     0.031 C 
ATOM     72  C   UNL A   1      43.971  28.290  34.350  1.00  0.00     0.034 A 
BRANCH  59  73
ATOM     73  C   UNL A   1      39.340  32.093  35.844  1.00  0.00     0.023 A 
ATOM     74  C   UNL A   1      39.552  33.486  35.775  1.00  0.00     0.012 A 
ATOM     75  C   UNL A   1      38.488  31.574  36.838  1.00  0.00     0.148 A 
ATOM     76  C   UNL A   1      38.952  34.344  36.694  1.00  0.00     0.002 A 
ATOM     77  C   UNL A   1      37.855  32.439  37.723  1.00  0.00     0.091 A 
ATOM     78  F   UNL A   1      38.313  30.246  36.900  1.00  0.00    -0.205 F 
ATOM     79  C   UNL A   1      38.095  33.822  37.659  1.00  0.00     0.022 A 
BRANCH  77  80
ATOM     80  S   UNL A   1      36.669  31.880  38.950  1.00  0.00     0.127 S 
ATOM     81  O   UNL A   1      36.480  30.483  38.561  1.00  0.00    -0.237 OA
ATOM     82  O   UNL A   1      37.409  32.070  40.198  1.00  0.00    -0.237 OA
ATOM     83  O   UNL A   1      35.499  32.731  38.799  1.00  0.00    -0.744 OA
ENDBRANCH  77  80
ENDBRANCH  59  73
BRANCH  60  84
ATOM     84  C   UNL A   1      43.312  26.437  28.620  1.00  0.00     0.023 A 
ATOM     85  C   UNL A   1      42.990  25.071  28.505  1.00  0.00     0.012 A 
ATOM     86  C   UNL A   1      44.226  27.004  27.710  1.00  0.00     0.148 A 
ATOM     87  C   UNL A   1      43.598  24.274  27.535  1.00  0.00     0.002 A 
ATOM     88  C   UNL A   1      44.785  26.218  26.710  1.00  0.00     0.091 A 
ATOM     89  F   UNL A   1      44.530  28.303  27.842  1.00  0.00    -0.205 F 
ATOM     90  C   UNL A   1      44.489  24.848  26.632  1.00  0.00     0.022 A 
BRANCH  88  91
ATOM     91  S   UNL A   1      45.840  26.903  25.427  1.00  0.00     0.127 S 
ATOM     92  O   UNL A   1      47.000  27.342  26.198  1.00  0.00    -0.237 OA
ATOM     93  O   UNL A   1      46.074  25.737  24.572  1.00  0.00    -0.237 OA
ATOM     94  O   UNL A   1      45.057  27.958  24.799  1.00  0.00    -0.744 OA
ENDBRANCH  88  91
ENDBRANCH  60  84
BRANCH  72  95
ATOM     95  C   UNL A   1      45.130  27.854  35.207  1.00  0.00     0.023 A 
ATOM     96  C   UNL A   1      45.067  26.637  35.911  1.00  0.00     0.012 A 
ATOM     97  C   UNL A   1      46.313  28.620  35.252  1.00  0.00     0.148 A 
ATOM     98  C   UNL A   1      46.151  26.203  36.674  1.00  0.00     0.002 A 
ATOM     99  C   UNL A   1      47.407  28.156  35.971  1.00  0.00     0.091 A 
ATOM    100  F   UNL A   1      46.347  29.784  34.587  1.00  0.00    -0.205 F 
ATOM    101  C   UNL A   1      47.324  26.955  36.693  1.00  0.00     0.022 A 
BRANCH  99 102
ATOM    102  S   UNL A   1      48.989  29.006  35.973  1.00  0.00     0.127 S 
ATOM    103  O   UNL A   1      48.576  30.403  36.112  1.00  0.00    -0.237 OA
ATOM    104  O   UNL A   1      49.642  28.443  37.154  1.00  0.00    -0.237 OA
ATOM    105  O   UNL A   1      49.630  28.669  34.709  1.00  0.00    -0.744 OA
ENDBRANCH  99 102
ENDBRANCH  72  95
ENDBRANCH  46  47
ENDBRANCH  38  41
ENDBRANCH  36  37
ENDBRANCH  35  36
ENDBRANCH   1  35
TORSDOF 19
ENDMDL
