MODEL 1
REMARK VINA RESULT:     -12.0      0.000      0.000
REMARK SMILES O=C(NCCCCNC(=O)c1cc2cnc(Cl)cc2[nH]1)c1ccc(-c2c3nc(c(-c4cccc(S(=O)(=O)[O-])c4F)c4ccc([nH]4)c(-c4cccc(S(=O)(=O)[O-])c4F)c4nc(c(-c5cccc(S(=O)(=O)[O-])c5F)c5ccc2[nH]5)C=C4)C=C3)cc1
REMARK SMILES IDX 4 1 3 2 1 3 2 4 21 6 22 7 83 8 23 9 82 10 24 11 25 12 26 13
REMARK SMILES IDX 76 14 27 15 81 16 75 17 77 18 28 19 80 20 74 21 73 22 29 24
REMARK SMILES IDX 61 25 41 26 60 27 42 28 45 29 59 30 78 31 43 32 44 33 58 35
REMARK SMILES IDX 79 36 46 37 30 38 31 39 39 40 32 41 34 42 40 43 33 44 35 45
REMARK SMILES IDX 36 46 37 47 38 48 62 49 63 50 71 51 64 52 66 53 72 54 65 55
REMARK SMILES IDX 67 56 68 57 69 58 70 59 47 60 48 61 56 62 49 63 51 64 57 65
REMARK SMILES IDX 50 66 52 67 53 68 54 69 55 70 5 71 6 72 7 73 8 74 9 75 10 77
REMARK SMILES IDX 11 78 12 79 20 80 13 81 19 82 14 84 18 85 15 86 16 87 17 88
REMARK H PARENT 3 5 77 23 45 34 8 76 20 83
REMARK Flexibility Score: inf
ROOT
ATOM      1  C   UNL A   1      40.020  19.496  26.482  1.00  0.00     0.116 C 
ENDROOT
BRANCH   1   2
ATOM      2  N   UNL A   1      41.322  18.944  26.066  1.00  0.00    -0.352 N 
ATOM      3  O   UNL A   1      43.354  19.116  25.038  1.00  0.00    -0.269 OA
ATOM      4  C   UNL A   1      42.482  19.637  25.723  1.00  0.00     0.251 C 
ATOM      5  H   UNL A   1      41.381  17.962  26.026  1.00  0.00     0.163 HD
BRANCH   4   6
ATOM      6  C   UNL A   1      42.650  21.008  26.239  1.00  0.00     0.039 A 
ATOM      7  C   UNL A   1      42.872  22.141  25.454  1.00  0.00     0.014 A 
ATOM      8  C   UNL A   1      42.517  21.128  27.610  1.00  0.00     0.014 A 
ATOM      9  C   UNL A   1      42.928  23.380  26.097  1.00  0.00     0.010 A 
ATOM     10  C   UNL A   1      42.160  22.324  28.132  1.00  0.00     0.010 A 
ATOM     11  C   UNL A   1      42.583  23.444  27.455  1.00  0.00    -0.014 A 
BRANCH  11  12
ATOM     12  C   UNL A   1      42.601  24.654  28.260  1.00  0.00     0.031 A 
ATOM     13  C   UNL A   1      41.396  25.483  28.082  1.00  0.00     0.074 A 
ATOM     14  C   UNL A   1      43.508  24.846  29.248  1.00  0.00     0.049 A 
ATOM     15  N   UNL A   1      41.307  26.576  27.404  1.00  0.00    -0.248 NA
ATOM     16  C   UNL A   1      40.104  24.936  28.520  1.00  0.00     0.031 C 
ATOM     17  C   UNL A   1      44.549  23.917  29.734  1.00  0.00     0.029 A 
ATOM     18  N   UNL A   1      43.613  25.873  30.132  1.00  0.00    -0.354 N 
ATOM     19  C   UNL A   1      39.998  27.000  27.586  1.00  0.00     0.074 A 
ATOM     20  C   UNL A   1      39.261  25.845  28.024  1.00  0.00     0.031 C 
ATOM     21  C   UNL A   1      44.996  24.317  30.946  1.00  0.00     0.029 A 
ATOM     22  C   UNL A   1      44.424  25.614  31.238  1.00  0.00     0.049 A 
ATOM     23  H   UNL A   1      43.150  26.732  30.003  1.00  0.00     0.167 HD
ATOM     24  C   UNL A   1      39.710  28.328  27.677  1.00  0.00     0.034 A 
ATOM     25  C   UNL A   1      44.592  26.413  32.321  1.00  0.00     0.034 A 
ATOM     26  C   UNL A   1      40.848  29.124  27.278  1.00  0.00     0.049 A 
ATOM     27  C   UNL A   1      44.191  27.772  31.898  1.00  0.00     0.074 A 
ATOM     28  C   UNL A   1      41.594  29.268  26.127  1.00  0.00     0.029 A 
ATOM     29  N   UNL A   1      41.619  29.610  28.309  1.00  0.00    -0.354 N 
ATOM     30  N   UNL A   1      44.840  28.467  31.007  1.00  0.00    -0.248 NA
ATOM     31  C   UNL A   1      42.826  28.197  32.158  1.00  0.00     0.031 C 
ATOM     32  C   UNL A   1      42.936  29.458  26.574  1.00  0.00     0.029 A 
ATOM     33  C   UNL A   1      42.940  29.495  27.970  1.00  0.00     0.049 A 
ATOM     34  H   UNL A   1      41.275  29.980  29.153  1.00  0.00     0.167 HD
ATOM     35  C   UNL A   1      43.840  29.085  30.269  1.00  0.00     0.074 A 
ATOM     36  C   UNL A   1      42.647  29.003  31.109  1.00  0.00     0.031 C 
ATOM     37  C   UNL A   1      44.010  29.325  28.936  1.00  0.00     0.034 A 
BRANCH  24  38
ATOM     38  C   UNL A   1      38.590  28.924  28.497  1.00  0.00     0.023 A 
ATOM     39  C   UNL A   1      37.645  29.714  27.804  1.00  0.00     0.012 A 
ATOM     40  C   UNL A   1      38.543  28.972  29.909  1.00  0.00     0.148 A 
ATOM     41  C   UNL A   1      36.737  30.537  28.477  1.00  0.00     0.002 A 
ATOM     42  C   UNL A   1      37.582  29.722  30.576  1.00  0.00     0.091 A 
ATOM     43  F   UNL A   1      39.510  28.406  30.634  1.00  0.00    -0.205 F 
ATOM     44  C   UNL A   1      36.697  30.534  29.865  1.00  0.00     0.022 A 
BRANCH  42  45
ATOM     45  S   UNL A   1      37.449  29.707  32.369  1.00  0.00     0.127 S 
ATOM     46  O   UNL A   1      38.660  30.422  32.758  1.00  0.00    -0.237 OA
ATOM     47  O   UNL A   1      36.199  30.439  32.578  1.00  0.00    -0.237 OA
ATOM     48  O   UNL A   1      37.386  28.300  32.746  1.00  0.00    -0.744 OA
ENDBRANCH  42  45
ENDBRANCH  24  38
BRANCH  25  49
ATOM     49  C   UNL A   1      44.833  26.100  33.750  1.00  0.00     0.023 A 
ATOM     50  C   UNL A   1      46.141  26.210  34.270  1.00  0.00     0.012 A 
ATOM     51  C   UNL A   1      43.758  26.039  34.660  1.00  0.00     0.148 A 
ATOM     52  C   UNL A   1      46.365  26.326  35.648  1.00  0.00     0.002 A 
ATOM     53  C   UNL A   1      43.986  26.165  36.029  1.00  0.00     0.091 A 
ATOM     54  F   UNL A   1      42.512  25.956  34.177  1.00  0.00    -0.205 F 
ATOM     55  C   UNL A   1      45.287  26.325  36.526  1.00  0.00     0.022 A 
BRANCH  53  56
ATOM     56  S   UNL A   1      42.643  26.235  37.224  1.00  0.00     0.127 S 
ATOM     57  O   UNL A   1      43.371  26.314  38.490  1.00  0.00    -0.237 OA
ATOM     58  O   UNL A   1      41.959  27.463  36.830  1.00  0.00    -0.237 OA
ATOM     59  O   UNL A   1      41.889  25.002  37.037  1.00  0.00    -0.744 OA
ENDBRANCH  53  56
ENDBRANCH  25  49
BRANCH  37  60
ATOM     60  C   UNL A   1      45.404  29.182  28.367  1.00  0.00     0.023 A 
ATOM     61  C   UNL A   1      46.410  30.155  28.552  1.00  0.00     0.012 A 
ATOM     62  C   UNL A   1      45.753  27.953  27.785  1.00  0.00     0.148 A 
ATOM     63  C   UNL A   1      47.729  29.909  28.153  1.00  0.00     0.002 A 
ATOM     64  C   UNL A   1      47.073  27.691  27.441  1.00  0.00     0.091 A 
ATOM     65  F   UNL A   1      44.785  27.040  27.610  1.00  0.00    -0.205 F 
ATOM     66  C   UNL A   1      48.063  28.671  27.615  1.00  0.00     0.022 A 
BRANCH  64  67
ATOM     67  S   UNL A   1      47.590  26.068  26.878  1.00  0.00     0.127 S 
ATOM     68  O   UNL A   1      47.235  25.223  28.017  1.00  0.00    -0.237 OA
ATOM     69  O   UNL A   1      46.761  25.872  25.688  1.00  0.00    -0.237 OA
ATOM     70  O   UNL A   1      49.016  26.176  26.598  1.00  0.00    -0.744 OA
ENDBRANCH  64  67
ENDBRANCH  37  60
ENDBRANCH  11  12
ENDBRANCH   4   6
ENDBRANCH   1   2
BRANCH   1  71
ATOM     71  C   UNL A   1      39.432  20.507  25.507  1.00  0.00     0.023 C 
BRANCH  71  72
ATOM     72  C   UNL A   1      39.209  21.913  26.081  1.00  0.00     0.023 C 
BRANCH  72  73
ATOM     73  C   UNL A   1      37.811  22.520  25.906  1.00  0.00     0.116 C 
BRANCH  73  74
ATOM     74  N   UNL A   1      37.512  22.902  24.536  1.00  0.00    -0.351 N 
ATOM     75  C   UNL A   1      36.307  23.213  23.944  1.00  0.00     0.267 C 
ATOM     76  H   UNL A   1      38.292  22.945  23.937  1.00  0.00     0.163 HD
ATOM     77  O   UNL A   1      36.225  23.183  22.724  1.00  0.00    -0.268 OA
BRANCH  75  78
ATOM     78  C   UNL A   1      35.173  23.473  24.798  1.00  0.00     0.105 A 
ATOM     79  C   UNL A   1      34.681  24.698  25.215  1.00  0.00     0.043 A 
ATOM     80  N   UNL A   1      34.406  22.521  25.428  1.00  0.00    -0.350 N 
ATOM     81  C   UNL A   1      33.416  24.472  25.821  1.00  0.00     0.019 A 
ATOM     82  C   UNL A   1      33.243  23.090  25.892  1.00  0.00     0.051 A 
ATOM     83  H   UNL A   1      34.652  21.573  25.532  1.00  0.00     0.167 HD
ATOM     84  C   UNL A   1      32.383  25.301  26.274  1.00  0.00     0.123 A 
ATOM     85  C   UNL A   1      32.066  22.511  26.359  1.00  0.00     0.067 A 
ATOM     86  N   UNL A   1      31.212  24.769  26.703  1.00  0.00    -0.244 NA
ATOM     87  C   UNL A   1      31.089  23.425  26.722  1.00  0.00     0.131 A 
ATOM     88  Cl  UNL A   1      29.537  22.873  27.216  1.00  0.00    -0.062 Cl
ENDBRANCH  75  78
ENDBRANCH  73  74
ENDBRANCH  72  73
ENDBRANCH  71  72
ENDBRANCH   1  71
TORSDOF 14
ENDMDL
MODEL 2
REMARK VINA RESULT:     -11.9      1.545      1.813
REMARK SMILES O=C(NCCCCNC(=O)c1cc2cnc(Cl)cc2[nH]1)c1ccc(-c2c3nc(c(-c4cccc(S(=O)(=O)[O-])c4F)c4ccc([nH]4)c(-c4cccc(S(=O)(=O)[O-])c4F)c4nc(c(-c5cccc(S(=O)(=O)[O-])c5F)c5ccc2[nH]5)C=C4)C=C3)cc1
REMARK SMILES IDX 4 1 3 2 1 3 2 4 21 6 22 7 83 8 23 9 82 10 24 11 25 12 26 13
REMARK SMILES IDX 76 14 27 15 81 16 75 17 77 18 28 19 80 20 74 21 73 22 29 24
REMARK SMILES IDX 61 25 41 26 60 27 42 28 45 29 59 30 78 31 43 32 44 33 58 35
REMARK SMILES IDX 79 36 46 37 30 38 31 39 39 40 32 41 34 42 40 43 33 44 35 45
REMARK SMILES IDX 36 46 37 47 38 48 62 49 63 50 71 51 64 52 66 53 72 54 65 55
REMARK SMILES IDX 67 56 68 57 69 58 70 59 47 60 48 61 56 62 49 63 51 64 57 65
REMARK SMILES IDX 50 66 52 67 53 68 54 69 55 70 5 71 6 72 7 73 8 74 9 75 10 77
REMARK SMILES IDX 11 78 12 79 20 80 13 81 19 82 14 84 18 85 15 86 16 87 17 88
REMARK H PARENT 3 5 77 23 45 34 8 76 20 83
REMARK Flexibility Score: inf
ROOT
ATOM      1  C   UNL A   1      39.142  19.989  25.660  1.00  0.00     0.116 C 
ENDROOT
BRANCH   1   2
ATOM      2  N   UNL A   1      40.262  19.049  25.848  1.00  0.00    -0.352 N 
ATOM      3  O   UNL A   1      42.478  18.505  25.764  1.00  0.00    -0.269 OA
ATOM      4  C   UNL A   1      41.616  19.343  26.001  1.00  0.00     0.251 C 
ATOM      5  H   UNL A   1      40.025  18.094  25.870  1.00  0.00     0.163 HD
BRANCH   4   6
ATOM      6  C   UNL A   1      41.985  20.682  26.494  1.00  0.00     0.039 A 
ATOM      7  C   UNL A   1      42.623  21.669  25.740  1.00  0.00     0.014 A 
ATOM      8  C   UNL A   1      41.598  20.943  27.796  1.00  0.00     0.014 A 
ATOM      9  C   UNL A   1      42.829  22.915  26.336  1.00  0.00     0.010 A 
ATOM     10  C   UNL A   1      41.427  22.229  28.183  1.00  0.00     0.010 A 
ATOM     11  C   UNL A   1      42.231  23.168  27.580  1.00  0.00    -0.014 A 
BRANCH  11  12
ATOM     12  C   UNL A   1      42.359  24.408  28.326  1.00  0.00     0.031 A 
ATOM     13  C   UNL A   1      41.215  25.318  28.135  1.00  0.00     0.074 A 
ATOM     14  C   UNL A   1      43.302  24.576  29.285  1.00  0.00     0.049 A 
ATOM     15  N   UNL A   1      41.192  26.382  27.408  1.00  0.00    -0.248 NA
ATOM     16  C   UNL A   1      39.897  24.891  28.625  1.00  0.00     0.031 C 
ATOM     17  C   UNL A   1      44.283  23.593  29.792  1.00  0.00     0.029 A 
ATOM     18  N   UNL A   1      43.505  25.631  30.117  1.00  0.00    -0.354 N 
ATOM     19  C   UNL A   1      39.923  26.912  27.597  1.00  0.00     0.074 A 
ATOM     20  C   UNL A   1      39.112  25.838  28.105  1.00  0.00     0.031 C 
ATOM     21  C   UNL A   1      44.787  24.013  30.974  1.00  0.00     0.029 A 
ATOM     22  C   UNL A   1      44.322  25.362  31.216  1.00  0.00     0.049 A 
ATOM     23  H   UNL A   1      43.105  26.516  29.957  1.00  0.00     0.167 HD
ATOM     24  C   UNL A   1      39.738  28.261  27.631  1.00  0.00     0.034 A 
ATOM     25  C   UNL A   1      44.576  26.194  32.257  1.00  0.00     0.034 A 
ATOM     26  C   UNL A   1      40.922  28.950  27.172  1.00  0.00     0.049 A 
ATOM     27  C   UNL A   1      44.267  27.559  31.778  1.00  0.00     0.074 A 
ATOM     28  C   UNL A   1      41.648  28.984  25.999  1.00  0.00     0.029 A 
ATOM     29  N   UNL A   1      41.752  29.422  28.161  1.00  0.00    -0.354 N 
ATOM     30  N   UNL A   1      44.944  28.161  30.842  1.00  0.00    -0.248 NA
ATOM     31  C   UNL A   1      42.945  28.098  32.047  1.00  0.00     0.031 C 
ATOM     32  C   UNL A   1      43.010  29.091  26.408  1.00  0.00     0.029 A 
ATOM     33  C   UNL A   1      43.052  29.192  27.800  1.00  0.00     0.049 A 
ATOM     34  H   UNL A   1      41.458  29.855  28.995  1.00  0.00     0.167 HD
ATOM     35  C   UNL A   1      43.976  28.819  30.097  1.00  0.00     0.074 A 
ATOM     36  C   UNL A   1      42.800  28.866  30.964  1.00  0.00     0.031 C 
ATOM     37  C   UNL A   1      44.129  28.985  28.750  1.00  0.00     0.034 A 
BRANCH  24  38
ATOM     38  C   UNL A   1      38.685  28.977  28.446  1.00  0.00     0.023 A 
ATOM     39  C   UNL A   1      37.863  29.895  27.756  1.00  0.00     0.012 A 
ATOM     40  C   UNL A   1      38.617  29.000  29.858  1.00  0.00     0.148 A 
ATOM     41  C   UNL A   1      37.053  30.813  28.433  1.00  0.00     0.002 A 
ATOM     42  C   UNL A   1      37.745  29.852  30.526  1.00  0.00     0.091 A 
ATOM     43  F   UNL A   1      39.490  28.300  30.586  1.00  0.00    -0.205 F 
ATOM     44  C   UNL A   1      36.985  30.785  29.819  1.00  0.00     0.022 A 
BRANCH  42  45
ATOM     45  S   UNL A   1      37.575  29.815  32.316  1.00  0.00     0.127 S 
ATOM     46  O   UNL A   1      38.866  30.348  32.743  1.00  0.00    -0.237 OA
ATOM     47  O   UNL A   1      36.434  30.708  32.522  1.00  0.00    -0.237 OA
ATOM     48  O   UNL A   1      37.312  28.423  32.656  1.00  0.00    -0.744 OA
ENDBRANCH  42  45
ENDBRANCH  24  38
BRANCH  25  49
ATOM     49  C   UNL A   1      44.828  25.929  33.693  1.00  0.00     0.023 A 
ATOM     50  C   UNL A   1      46.148  26.006  34.189  1.00  0.00     0.012 A 
ATOM     51  C   UNL A   1      43.766  25.949  34.622  1.00  0.00     0.148 A 
ATOM     52  C   UNL A   1      46.400  26.169  35.557  1.00  0.00     0.002 A 
ATOM     53  C   UNL A   1      44.022  26.120  35.980  1.00  0.00     0.091 A 
ATOM     54  F   UNL A   1      42.511  25.898  34.160  1.00  0.00    -0.205 F 
ATOM     55  C   UNL A   1      45.337  26.247  36.450  1.00  0.00     0.022 A 
BRANCH  53  56
ATOM     56  S   UNL A   1      42.704  26.294  37.191  1.00  0.00     0.127 S 
ATOM     57  O   UNL A   1      43.455  26.366  38.445  1.00  0.00    -0.237 OA
ATOM     58  O   UNL A   1      42.080  27.546  36.775  1.00  0.00    -0.237 OA
ATOM     59  O   UNL A   1      41.883  25.098  37.048  1.00  0.00    -0.744 OA
ENDBRANCH  53  56
ENDBRANCH  25  49
BRANCH  37  60
ATOM     60  C   UNL A   1      45.495  28.711  28.160  1.00  0.00     0.023 A 
ATOM     61  C   UNL A   1      46.573  29.615  28.270  1.00  0.00     0.012 A 
ATOM     62  C   UNL A   1      45.738  27.431  27.636  1.00  0.00     0.148 A 
ATOM     63  C   UNL A   1      47.860  29.252  27.857  1.00  0.00     0.002 A 
ATOM     64  C   UNL A   1      47.027  27.055  27.277  1.00  0.00     0.091 A 
ATOM     65  F   UNL A   1      44.702  26.584  27.531  1.00  0.00    -0.205 F 
ATOM     66  C   UNL A   1      48.090  27.967  27.377  1.00  0.00     0.022 A 
BRANCH  64  67
ATOM     67  S   UNL A   1      47.410  25.372  26.790  1.00  0.00     0.127 S 
ATOM     68  O   UNL A   1      47.036  24.617  27.984  1.00  0.00    -0.237 OA
ATOM     69  O   UNL A   1      46.530  25.173  25.637  1.00  0.00    -0.237 OA
ATOM     70  O   UNL A   1      48.830  25.363  26.461  1.00  0.00    -0.744 OA
ENDBRANCH  64  67
ENDBRANCH  37  60
ENDBRANCH  11  12
ENDBRANCH   4   6
ENDBRANCH   1   2
BRANCH   1  71
ATOM     71  C   UNL A   1      37.912  19.368  25.011  1.00  0.00     0.023 C 
BRANCH  71  72
ATOM     72  C   UNL A   1      36.745  20.335  24.769  1.00  0.00     0.023 C 
BRANCH  72  73
ATOM     73  C   UNL A   1      36.640  21.545  25.708  1.00  0.00     0.116 C 
BRANCH  73  74
ATOM     74  N   UNL A   1      35.439  21.542  26.525  1.00  0.00    -0.351 N 
ATOM     75  C   UNL A   1      34.393  22.438  26.569  1.00  0.00     0.267 C 
ATOM     76  H   UNL A   1      35.360  20.781  27.146  1.00  0.00     0.163 HD
ATOM     77  O   UNL A   1      33.655  22.434  27.545  1.00  0.00    -0.268 OA
BRANCH  75  78
ATOM     78  C   UNL A   1      34.271  23.399  25.500  1.00  0.00     0.105 A 
ATOM     79  C   UNL A   1      33.927  23.170  24.179  1.00  0.00     0.043 A 
ATOM     80  N   UNL A   1      34.559  24.742  25.590  1.00  0.00    -0.350 N 
ATOM     81  C   UNL A   1      33.685  24.430  23.570  1.00  0.00     0.019 A 
ATOM     82  C   UNL A   1      34.040  25.404  24.503  1.00  0.00     0.051 A 
ATOM     83  H   UNL A   1      35.062  25.165  26.323  1.00  0.00     0.167 HD
ATOM     84  C   UNL A   1      33.159  24.840  22.339  1.00  0.00     0.123 A 
ATOM     85  C   UNL A   1      33.851  26.763  24.266  1.00  0.00     0.067 A 
ATOM     86  N   UNL A   1      32.932  26.153  22.092  1.00  0.00    -0.244 NA
ATOM     87  C   UNL A   1      33.267  27.052  23.043  1.00  0.00     0.131 A 
ATOM     88  Cl  UNL A   1      32.865  28.675  22.643  1.00  0.00    -0.062 Cl
ENDBRANCH  75  78
ENDBRANCH  73  74
ENDBRANCH  72  73
ENDBRANCH  71  72
ENDBRANCH   1  71
TORSDOF 14
ENDMDL
MODEL 3
REMARK VINA RESULT:     -11.8      4.377      9.743
REMARK SMILES O=C(NCCCCNC(=O)c1cc2cnc(Cl)cc2[nH]1)c1ccc(-c2c3nc(c(-c4cccc(S(=O)(=O)[O-])c4F)c4ccc([nH]4)c(-c4cccc(S(=O)(=O)[O-])c4F)c4nc(c(-c5cccc(S(=O)(=O)[O-])c5F)c5ccc2[nH]5)C=C4)C=C3)cc1
REMARK SMILES IDX 4 1 3 2 1 3 2 4 21 6 22 7 83 8 23 9 82 10 24 11 25 12 26 13
REMARK SMILES IDX 76 14 27 15 81 16 75 17 77 18 28 19 80 20 74 21 73 22 29 24
REMARK SMILES IDX 61 25 41 26 60 27 42 28 45 29 59 30 78 31 43 32 44 33 58 35
REMARK SMILES IDX 79 36 46 37 30 38 31 39 39 40 32 41 34 42 40 43 33 44 35 45
REMARK SMILES IDX 36 46 37 47 38 48 62 49 63 50 71 51 64 52 66 53 72 54 65 55
REMARK SMILES IDX 67 56 68 57 69 58 70 59 47 60 48 61 56 62 49 63 51 64 57 65
REMARK SMILES IDX 50 66 52 67 53 68 54 69 55 70 5 71 6 72 7 73 8 74 9 75 10 77
REMARK SMILES IDX 11 78 12 79 20 80 13 81 19 82 14 84 18 85 15 86 16 87 17 88
REMARK H PARENT 3 5 77 23 45 34 8 76 20 83
REMARK Flexibility Score: inf
ROOT
ATOM      1  C   UNL A   1      32.335  32.289  27.151  1.00  0.00     0.116 C 
ENDROOT
BRANCH   1   2
ATOM      2  N   UNL A   1      32.234  33.737  27.408  1.00  0.00    -0.352 N 
ATOM      3  O   UNL A   1      32.484  35.575  28.740  1.00  0.00    -0.269 OA
ATOM      4  C   UNL A   1      32.916  34.494  28.360  1.00  0.00     0.251 C 
ATOM      5  H   UNL A   1      31.605  34.234  26.836  1.00  0.00     0.163 HD
BRANCH   4   6
ATOM      6  C   UNL A   1      34.197  33.973  28.872  1.00  0.00     0.039 A 
ATOM      7  C   UNL A   1      34.390  33.417  30.138  1.00  0.00     0.014 A 
ATOM      8  C   UNL A   1      35.241  34.019  27.966  1.00  0.00     0.014 A 
ATOM      9  C   UNL A   1      35.652  32.896  30.436  1.00  0.00     0.010 A 
ATOM     10  C   UNL A   1      36.276  33.161  28.115  1.00  0.00     0.010 A 
ATOM     11  C   UNL A   1      36.595  32.795  29.402  1.00  0.00    -0.014 A 
BRANCH  11  12
ATOM     12  C   UNL A   1      37.946  32.284  29.558  1.00  0.00     0.031 A 
ATOM     13  C   UNL A   1      38.084  30.879  29.138  1.00  0.00     0.074 A 
ATOM     14  C   UNL A   1      38.998  33.100  29.815  1.00  0.00     0.049 A 
ATOM     15  N   UNL A   1      38.179  29.850  29.910  1.00  0.00    -0.248 NA
ATOM     16  C   UNL A   1      37.878  30.553  27.719  1.00  0.00     0.031 C 
ATOM     17  C   UNL A   1      39.014  34.575  29.914  1.00  0.00     0.029 A 
ATOM     18  N   UNL A   1      40.318  32.796  29.911  1.00  0.00    -0.354 N 
ATOM     19  C   UNL A   1      38.343  28.774  29.048  1.00  0.00     0.074 A 
ATOM     20  C   UNL A   1      37.876  29.218  27.761  1.00  0.00     0.031 C 
ATOM     21  C   UNL A   1      40.283  35.029  29.812  1.00  0.00     0.029 A 
ATOM     22  C   UNL A   1      41.179  33.892  29.833  1.00  0.00     0.049 A 
ATOM     23  H   UNL A   1      40.643  31.874  30.026  1.00  0.00     0.167 HD
ATOM     24  C   UNL A   1      39.148  27.732  29.393  1.00  0.00     0.034 A 
ATOM     25  C   UNL A   1      42.534  33.853  29.773  1.00  0.00     0.034 A 
ATOM     26  C   UNL A   1      39.505  27.804  30.791  1.00  0.00     0.049 A 
ATOM     27  C   UNL A   1      42.933  32.533  30.307  1.00  0.00     0.074 A 
ATOM     28  C   UNL A   1      38.814  27.788  31.985  1.00  0.00     0.029 A 
ATOM     29  N   UNL A   1      40.739  28.349  31.058  1.00  0.00    -0.354 N 
ATOM     30  N   UNL A   1      42.755  32.178  31.548  1.00  0.00    -0.248 NA
ATOM     31  C   UNL A   1      43.148  31.448  29.365  1.00  0.00     0.031 C 
ATOM     32  C   UNL A   1      39.514  28.698  32.832  1.00  0.00     0.029 A 
ATOM     33  C   UNL A   1      40.636  29.171  32.149  1.00  0.00     0.049 A 
ATOM     34  H   UNL A   1      41.562  28.177  30.548  1.00  0.00     0.167 HD
ATOM     35  C   UNL A   1      42.363  30.850  31.465  1.00  0.00     0.074 A 
ATOM     36  C   UNL A   1      42.766  30.421  30.128  1.00  0.00     0.031 C 
ATOM     37  C   UNL A   1      41.484  30.327  32.371  1.00  0.00     0.034 A 
BRANCH  24  38
ATOM     38  C   UNL A   1      39.949  26.891  28.425  1.00  0.00     0.023 A 
ATOM     39  C   UNL A   1      39.865  25.489  28.581  1.00  0.00     0.012 A 
ATOM     40  C   UNL A   1      40.956  27.375  27.558  1.00  0.00     0.148 A 
ATOM     41  C   UNL A   1      40.758  24.622  27.944  1.00  0.00     0.002 A 
ATOM     42  C   UNL A   1      41.785  26.506  26.857  1.00  0.00     0.091 A 
ATOM     43  F   UNL A   1      41.223  28.681  27.498  1.00  0.00    -0.205 F 
ATOM     44  C   UNL A   1      41.712  25.129  27.072  1.00  0.00     0.022 A 
BRANCH  42  45
ATOM     45  S   UNL A   1      42.996  27.107  25.673  1.00  0.00     0.127 S 
ATOM     46  O   UNL A   1      43.965  27.758  26.550  1.00  0.00    -0.237 OA
ATOM     47  O   UNL A   1      43.453  25.860  25.059  1.00  0.00    -0.237 OA
ATOM     48  O   UNL A   1      42.261  27.982  24.769  1.00  0.00    -0.744 OA
ENDBRANCH  42  45
ENDBRANCH  24  38
BRANCH  25  49
ATOM     49  C   UNL A   1      43.516  34.726  29.088  1.00  0.00     0.023 A 
ATOM     50  C   UNL A   1      44.206  35.708  29.833  1.00  0.00     0.012 A 
ATOM     51  C   UNL A   1      44.024  34.375  27.819  1.00  0.00     0.148 A 
ATOM     52  C   UNL A   1      45.400  36.269  29.362  1.00  0.00     0.002 A 
ATOM     53  C   UNL A   1      45.217  34.930  27.360  1.00  0.00     0.091 A 
ATOM     54  F   UNL A   1      43.389  33.431  27.114  1.00  0.00    -0.205 F 
ATOM     55  C   UNL A   1      45.916  35.865  28.136  1.00  0.00     0.022 A 
BRANCH  53  56
ATOM     56  S   UNL A   1      45.983  34.416  25.816  1.00  0.00     0.127 S 
ATOM     57  O   UNL A   1      46.312  33.018  26.094  1.00  0.00    -0.237 OA
ATOM     58  O   UNL A   1      44.893  34.613  24.864  1.00  0.00    -0.237 OA
ATOM     59  O   UNL A   1      47.139  35.286  25.645  1.00  0.00    -0.744 OA
ENDBRANCH  53  56
ENDBRANCH  25  49
BRANCH  37  60
ATOM     60  C   UNL A   1      41.198  31.134  33.618  1.00  0.00     0.023 A 
ATOM     61  C   UNL A   1      42.095  31.210  34.704  1.00  0.00     0.012 A 
ATOM     62  C   UNL A   1      40.073  31.975  33.611  1.00  0.00     0.148 A 
ATOM     63  C   UNL A   1      41.868  32.097  35.763  1.00  0.00     0.002 A 
ATOM     64  C   UNL A   1      39.878  32.892  34.637  1.00  0.00     0.091 A 
ATOM     65  F   UNL A   1      39.225  31.886  32.575  1.00  0.00    -0.205 F 
ATOM     66  C   UNL A   1      40.769  32.950  35.720  1.00  0.00     0.022 A 
BRANCH  64  67
ATOM     67  S   UNL A   1      38.565  34.112  34.565  1.00  0.00     0.127 S 
ATOM     68  O   UNL A   1      37.418  33.353  35.059  1.00  0.00    -0.237 OA
ATOM     69  O   UNL A   1      39.053  35.149  35.475  1.00  0.00    -0.237 OA
ATOM     70  O   UNL A   1      38.486  34.534  33.172  1.00  0.00    -0.744 OA
ENDBRANCH  64  67
ENDBRANCH  37  60
ENDBRANCH  11  12
ENDBRANCH   4   6
ENDBRANCH   1   2
BRANCH   1  71
ATOM     71  C   UNL A   1      31.159  31.710  26.377  1.00  0.00     0.023 C 
BRANCH  71  72
ATOM     72  C   UNL A   1      31.404  30.329  25.756  1.00  0.00     0.023 C 
BRANCH  72  73
ATOM     73  C   UNL A   1      32.861  29.849  25.683  1.00  0.00     0.116 C 
BRANCH  73  74
ATOM     74  N   UNL A   1      33.344  29.666  24.325  1.00  0.00    -0.351 N 
ATOM     75  C   UNL A   1      33.673  28.512  23.648  1.00  0.00     0.267 C 
ATOM     76  H   UNL A   1      33.453  30.497  23.807  1.00  0.00     0.163 HD
ATOM     77  O   UNL A   1      34.365  28.596  22.642  1.00  0.00    -0.268 OA
BRANCH  75  78
ATOM     78  C   UNL A   1      33.258  27.249  24.208  1.00  0.00     0.105 A 
ATOM     79  C   UNL A   1      34.032  26.315  24.875  1.00  0.00     0.043 A 
ATOM     80  N   UNL A   1      32.001  26.699  24.108  1.00  0.00    -0.350 N 
ATOM     81  C   UNL A   1      33.153  25.366  25.463  1.00  0.00     0.019 A 
ATOM     82  C   UNL A   1      31.871  25.666  25.006  1.00  0.00     0.051 A 
ATOM     83  H   UNL A   1      31.299  26.999  23.486  1.00  0.00     0.167 HD
ATOM     84  C   UNL A   1      33.313  24.312  26.371  1.00  0.00     0.123 A 
ATOM     85  C   UNL A   1      30.744  24.981  25.453  1.00  0.00     0.067 A 
ATOM     86  N   UNL A   1      32.233  23.649  26.851  1.00  0.00    -0.244 NA
ATOM     87  C   UNL A   1      31.011  24.001  26.396  1.00  0.00     0.131 A 
ATOM     88  Cl  UNL A   1      29.717  23.139  27.130  1.00  0.00    -0.062 Cl
ENDBRANCH  75  78
ENDBRANCH  73  74
ENDBRANCH  72  73
ENDBRANCH  71  72
ENDBRANCH   1  71
TORSDOF 14
ENDMDL
