MODEL 1
REMARK VINA RESULT:     -11.9      0.000      0.000
REMARK SMILES NS(=O)(=O)c1ccc(-c2coc(=O)n2-c2ccc(C(=O)NCCCCNC(=O)c3ccc(-c4c5nc(c(-c6cccc(S(=O)(=O)[O-])c6F)c6ccc([nH]6)c(-c6cccc(S(=O)(=O)[O-])c6F)c6nc(c(-c7cccc(S(=O)(=O)[O-])c7F)c7ccc4[nH]7)C=C6)C=C5)cc3)cc2)cc1
REMARK SMILES IDX 23 1 22 2 21 3 19 4 20 5 18 7 15 8 16 9 93 10 17 11 92 12
REMARK SMILES IDX 14 13 9 14 10 15 11 16 12 17 13 18 8 19 5 20 6 21 95 22 7 23
REMARK SMILES IDX 94 24 2 25 3 26 4 27 1 28 24 31 25 32 26 33 27 34 28 36
REMARK SMILES IDX 29 37 30 38 91 39 31 40 90 41 32 42 33 43 34 44 84 45 35 46
REMARK SMILES IDX 89 47 83 48 85 49 36 50 88 51 82 52 81 53 37 55 69 56 49 57
REMARK SMILES IDX 68 58 50 59 53 60 67 61 86 62 51 63 52 64 66 66 87 67 54 68
REMARK SMILES IDX 38 69 39 70 47 71 40 72 42 73 48 74 41 75 43 76 44 77 45 78
REMARK SMILES IDX 46 79 70 80 71 81 79 82 72 83 74 84 80 85 73 86 75 87 76 88
REMARK SMILES IDX 77 89 78 90 55 91 56 92 64 93 57 94 59 95 65 96 58 97 60 98
REMARK SMILES IDX 61 99 62 100 63 101
REMARK H PARENT 21 6 1 29 1 30 26 35 85 54 53 65
REMARK Flexibility Score: inf
ROOT
ATOM      1  C   UNL A   1      32.170  32.757  27.656  1.00  0.00     0.023 C 
ENDROOT
BRANCH   1   2
ATOM      2  C   UNL A   1      32.574  31.497  26.877  1.00  0.00     0.116 C 
BRANCH   2   3
ATOM      3  N   UNL A   1      33.794  30.926  27.413  1.00  0.00    -0.352 N 
ATOM      4  C   UNL A   1      34.302  29.652  27.449  1.00  0.00     0.251 C 
ATOM      5  O   UNL A   1      35.357  29.475  28.058  1.00  0.00    -0.269 OA
ATOM      6  H   UNL A   1      34.380  31.590  27.842  1.00  0.00     0.163 HD
BRANCH   4   7
ATOM      7  C   UNL A   1      33.671  28.483  26.768  1.00  0.00     0.039 A 
ATOM      8  C   UNL A   1      32.536  26.385  25.276  1.00  0.00     0.053 A 
ATOM      9  C   UNL A   1      33.750  26.936  24.872  1.00  0.00     0.028 A 
ATOM     10  C   UNL A   1      31.930  26.829  26.452  1.00  0.00     0.028 A 
ATOM     11  C   UNL A   1      34.294  28.002  25.600  1.00  0.00     0.016 A 
ATOM     12  C   UNL A   1      32.524  27.831  27.218  1.00  0.00     0.016 A 
BRANCH   8  13
ATOM     13  N   UNL A   1      31.884  25.410  24.505  1.00  0.00    -0.242 N 
ATOM     14  C   UNL A   1      30.728  25.548  23.791  1.00  0.00     0.095 A 
ATOM     15  C   UNL A   1      30.376  24.318  23.432  1.00  0.00     0.228 A 
ATOM     16  O   UNL A   1      31.250  23.321  23.862  1.00  0.00    -0.415 OA
ATOM     17  C   UNL A   1      32.218  24.061  24.544  1.00  0.00     0.424 A 
ATOM     18  O   UNL A   1      33.164  23.533  25.114  1.00  0.00    -0.223 OA
BRANCH  14  19
ATOM     19  C   UNL A   1      30.108  26.814  23.401  1.00  0.00     0.002 A 
ATOM     20  C   UNL A   1      28.944  29.241  22.605  1.00  0.00     0.082 A 
ATOM     21  C   UNL A   1      30.301  29.022  22.377  1.00  0.00     0.022 A 
ATOM     22  C   UNL A   1      28.161  28.263  23.228  1.00  0.00     0.022 A 
ATOM     23  C   UNL A   1      30.877  27.812  22.775  1.00  0.00     0.012 A 
ATOM     24  C   UNL A   1      28.744  27.051  23.620  1.00  0.00     0.012 A 
BRANCH  20  25
ATOM     25  S   UNL A   1      28.202  30.765  22.092  1.00  0.00     0.238 S 
ATOM     26  O   UNL A   1      29.247  31.725  21.848  1.00  0.00    -0.207 OA
ATOM     27  O   UNL A   1      27.091  31.040  22.980  1.00  0.00    -0.207 OA
BRANCH  25  28
ATOM     28  N   UNL A   1      27.563  30.389  20.594  1.00  0.00    -0.225 NA
ATOM     29  H   UNL A   1      28.267  29.912  20.032  1.00  0.00     0.137 HD
ATOM     30  H   UNL A   1      27.275  31.246  20.122  1.00  0.00     0.137 HD
ENDBRANCH  25  28
ENDBRANCH  20  25
ENDBRANCH  14  19
ENDBRANCH   8  13
ENDBRANCH   4   7
ENDBRANCH   2   3
ENDBRANCH   1   2
BRANCH   1  31
ATOM     31  C   UNL A   1      33.277  33.812  27.802  1.00  0.00     0.023 C 
BRANCH  31  32
ATOM     32  C   UNL A   1      34.484  33.358  28.615  1.00  0.00     0.116 C 
BRANCH  32  33
ATOM     33  N   UNL A   1      34.245  33.411  30.059  1.00  0.00    -0.352 N 
ATOM     34  C   UNL A   1      34.776  32.589  31.035  1.00  0.00     0.251 C 
ATOM     35  H   UNL A   1      33.633  34.116  30.371  1.00  0.00     0.163 HD
ATOM     36  O   UNL A   1      34.209  32.445  32.112  1.00  0.00    -0.269 OA
BRANCH  34  37
ATOM     37  C   UNL A   1      36.056  31.913  30.765  1.00  0.00     0.039 A 
ATOM     38  C   UNL A   1      37.188  32.621  30.354  1.00  0.00     0.014 A 
ATOM     39  C   UNL A   1      36.108  30.535  30.967  1.00  0.00     0.014 A 
ATOM     40  C   UNL A   1      38.392  31.933  30.228  1.00  0.00     0.010 A 
ATOM     41  C   UNL A   1      37.318  29.893  30.995  1.00  0.00     0.010 A 
ATOM     42  C   UNL A   1      38.455  30.572  30.575  1.00  0.00    -0.014 A 
BRANCH  42  43
ATOM     43  C   UNL A   1      39.739  29.887  30.682  1.00  0.00     0.031 A 
ATOM     44  C   UNL A   1      40.303  29.936  32.056  1.00  0.00     0.074 A 
ATOM     45  C   UNL A   1      40.259  29.117  29.698  1.00  0.00     0.049 A 
ATOM     46  N   UNL A   1      41.296  30.658  32.456  1.00  0.00    -0.248 NA
ATOM     47  C   UNL A   1      39.564  29.286  33.152  1.00  0.00     0.031 C 
ATOM     48  C   UNL A   1      39.638  28.762  28.415  1.00  0.00     0.029 A 
ATOM     49  N   UNL A   1      41.399  28.370  29.684  1.00  0.00    -0.354 N 
ATOM     50  C   UNL A   1      41.494  30.294  33.783  1.00  0.00     0.074 A 
ATOM     51  C   UNL A   1      40.269  29.677  34.217  1.00  0.00     0.031 C 
ATOM     52  C   UNL A   1      40.270  27.694  27.882  1.00  0.00     0.029 A 
ATOM     53  C   UNL A   1      41.435  27.390  28.690  1.00  0.00     0.049 A 
ATOM     54  H   UNL A   1      42.136  28.509  30.323  1.00  0.00     0.167 HD
ATOM     55  C   UNL A   1      42.755  30.211  34.291  1.00  0.00     0.034 A 
ATOM     56  C   UNL A   1      42.334  26.380  28.561  1.00  0.00     0.034 A 
ATOM     57  C   UNL A   1      43.706  30.883  33.436  1.00  0.00     0.049 A 
ATOM     58  C   UNL A   1      43.541  26.777  29.315  1.00  0.00     0.074 A 
ATOM     59  C   UNL A   1      43.824  32.151  32.903  1.00  0.00     0.029 A 
ATOM     60  N   UNL A   1      44.503  30.073  32.666  1.00  0.00    -0.354 N 
ATOM     61  N   UNL A   1      44.299  27.778  28.970  1.00  0.00    -0.248 NA
ATOM     62  C   UNL A   1      43.649  26.350  30.698  1.00  0.00     0.031 C 
ATOM     63  C   UNL A   1      44.301  31.948  31.574  1.00  0.00     0.029 A 
ATOM     64  C   UNL A   1      44.542  30.585  31.398  1.00  0.00     0.049 A 
ATOM     65  H   UNL A   1      44.968  29.262  32.973  1.00  0.00     0.167 HD
ATOM     66  C   UNL A   1      44.570  28.415  30.171  1.00  0.00     0.074 A 
ATOM     67  C   UNL A   1      44.254  27.428  31.204  1.00  0.00     0.031 C 
ATOM     68  C   UNL A   1      44.727  29.771  30.216  1.00  0.00     0.034 A 
BRANCH  55  69
ATOM     69  C   UNL A   1      43.205  29.163  35.287  1.00  0.00     0.023 A 
ATOM     70  C   UNL A   1      44.009  29.597  36.364  1.00  0.00     0.012 A 
ATOM     71  C   UNL A   1      43.130  27.767  35.070  1.00  0.00     0.148 A 
ATOM     72  C   UNL A   1      44.733  28.694  37.151  1.00  0.00     0.002 A 
ATOM     73  C   UNL A   1      43.775  26.870  35.911  1.00  0.00     0.091 A 
ATOM     74  F   UNL A   1      42.559  27.289  33.962  1.00  0.00    -0.205 F 
ATOM     75  C   UNL A   1      44.605  27.327  36.933  1.00  0.00     0.022 A 
BRANCH  73  76
ATOM     76  S   UNL A   1      43.597  25.092  35.700  1.00  0.00     0.127 S 
ATOM     77  O   UNL A   1      44.308  24.877  34.444  1.00  0.00    -0.237 OA
ATOM     78  O   UNL A   1      44.275  24.587  36.895  1.00  0.00    -0.237 OA
ATOM     79  O   UNL A   1      42.162  24.842  35.677  1.00  0.00    -0.744 OA
ENDBRANCH  73  76
ENDBRANCH  55  69
BRANCH  56  80
ATOM     80  C   UNL A   1      42.170  24.991  28.062  1.00  0.00     0.023 A 
ATOM     81  C   UNL A   1      40.912  24.356  28.156  1.00  0.00     0.012 A 
ATOM     82  C   UNL A   1      43.140  24.416  27.215  1.00  0.00     0.148 A 
ATOM     83  C   UNL A   1      40.616  23.218  27.392  1.00  0.00     0.002 A 
ATOM     84  C   UNL A   1      42.841  23.285  26.459  1.00  0.00     0.091 A 
ATOM     85  F   UNL A   1      44.321  25.032  27.078  1.00  0.00    -0.205 F 
ATOM     86  C   UNL A   1      41.575  22.691  26.534  1.00  0.00     0.022 A 
BRANCH  84  87
ATOM     87  S   UNL A   1      44.022  22.568  25.307  1.00  0.00     0.127 S 
ATOM     88  O   UNL A   1      45.162  22.288  26.182  1.00  0.00    -0.237 OA
ATOM     89  O   UNL A   1      43.305  21.388  24.835  1.00  0.00    -0.237 OA
ATOM     90  O   UNL A   1      44.275  23.600  24.309  1.00  0.00    -0.744 OA
ENDBRANCH  84  87
ENDBRANCH  56  80
BRANCH  68  91
ATOM     91  C   UNL A   1      44.912  30.504  28.910  1.00  0.00     0.023 A 
ATOM     92  C   UNL A   1      43.839  30.933  28.099  1.00  0.00     0.012 A 
ATOM     93  C   UNL A   1      46.218  30.876  28.556  1.00  0.00     0.148 A 
ATOM     94  C   UNL A   1      44.072  31.686  26.943  1.00  0.00     0.002 A 
ATOM     95  C   UNL A   1      46.442  31.662  27.434  1.00  0.00     0.091 A 
ATOM     96  F   UNL A   1      47.227  30.460  29.337  1.00  0.00    -0.205 F 
ATOM     97  C   UNL A   1      45.373  32.060  26.617  1.00  0.00     0.022 A 
BRANCH  95  98
ATOM     98  S   UNL A   1      48.084  32.258  27.032  1.00  0.00     0.127 S 
ATOM     99  O   UNL A   1      48.493  32.890  28.284  1.00  0.00    -0.237 OA
ATOM    100  O   UNL A   1      48.798  31.022  26.707  1.00  0.00    -0.237 OA
ATOM    101  O   UNL A   1      47.915  33.160  25.899  1.00  0.00    -0.744 OA
ENDBRANCH  95  98
ENDBRANCH  68  91
ENDBRANCH  42  43
ENDBRANCH  34  37
ENDBRANCH  32  33
ENDBRANCH  31  32
ENDBRANCH   1  31
TORSDOF 18
ENDMDL
MODEL 2
REMARK VINA RESULT:     -11.8      2.228      3.653
REMARK SMILES NS(=O)(=O)c1ccc(-c2coc(=O)n2-c2ccc(C(=O)NCCCCNC(=O)c3ccc(-c4c5nc(c(-c6cccc(S(=O)(=O)[O-])c6F)c6ccc([nH]6)c(-c6cccc(S(=O)(=O)[O-])c6F)c6nc(c(-c7cccc(S(=O)(=O)[O-])c7F)c7ccc4[nH]7)C=C6)C=C5)cc3)cc2)cc1
REMARK SMILES IDX 23 1 22 2 21 3 19 4 20 5 18 7 15 8 16 9 93 10 17 11 92 12
REMARK SMILES IDX 14 13 9 14 10 15 11 16 12 17 13 18 8 19 5 20 6 21 95 22 7 23
REMARK SMILES IDX 94 24 2 25 3 26 4 27 1 28 24 31 25 32 26 33 27 34 28 36
REMARK SMILES IDX 29 37 30 38 91 39 31 40 90 41 32 42 33 43 34 44 84 45 35 46
REMARK SMILES IDX 89 47 83 48 85 49 36 50 88 51 82 52 81 53 37 55 69 56 49 57
REMARK SMILES IDX 68 58 50 59 53 60 67 61 86 62 51 63 52 64 66 66 87 67 54 68
REMARK SMILES IDX 38 69 39 70 47 71 40 72 42 73 48 74 41 75 43 76 44 77 45 78
REMARK SMILES IDX 46 79 70 80 71 81 79 82 72 83 74 84 80 85 73 86 75 87 76 88
REMARK SMILES IDX 77 89 78 90 55 91 56 92 64 93 57 94 59 95 65 96 58 97 60 98
REMARK SMILES IDX 61 99 62 100 63 101
REMARK H PARENT 21 6 1 29 1 30 26 35 85 54 53 65
REMARK Flexibility Score: inf
ROOT
ATOM      1  C   UNL A   1      35.230  33.352  27.873  1.00  0.00     0.023 C 
ENDROOT
BRANCH   1   2
ATOM      2  C   UNL A   1      34.487  32.088  28.331  1.00  0.00     0.116 C 
BRANCH   2   3
ATOM      3  N   UNL A   1      35.336  30.919  28.219  1.00  0.00    -0.352 N 
ATOM      4  C   UNL A   1      35.174  29.688  27.635  1.00  0.00     0.251 C 
ATOM      5  O   UNL A   1      36.076  28.864  27.780  1.00  0.00    -0.269 OA
ATOM      6  H   UNL A   1      36.213  31.030  28.654  1.00  0.00     0.163 HD
BRANCH   4   7
ATOM      7  C   UNL A   1      33.990  29.306  26.810  1.00  0.00     0.039 A 
ATOM      8  C   UNL A   1      31.821  28.758  25.103  1.00  0.00     0.053 A 
ATOM      9  C   UNL A   1      33.079  29.009  24.557  1.00  0.00     0.028 A 
ATOM     10  C   UNL A   1      31.664  28.711  26.489  1.00  0.00     0.028 A 
ATOM     11  C   UNL A   1      34.147  29.314  25.411  1.00  0.00     0.016 A 
ATOM     12  C   UNL A   1      32.753  28.929  27.331  1.00  0.00     0.016 A 
BRANCH   8  13
ATOM     13  N   UNL A   1      30.693  28.584  24.287  1.00  0.00    -0.242 N 
ATOM     14  C   UNL A   1      30.312  27.454  23.621  1.00  0.00     0.095 A 
ATOM     15  C   UNL A   1      29.337  27.829  22.801  1.00  0.00     0.228 A 
ATOM     16  O   UNL A   1      29.013  29.183  22.872  1.00  0.00    -0.415 OA
ATOM     17  C   UNL A   1      29.902  29.640  23.849  1.00  0.00     0.424 A 
ATOM     18  O   UNL A   1      29.958  30.816  24.182  1.00  0.00    -0.223 OA
BRANCH  14  19
ATOM     19  C   UNL A   1      30.802  26.100  23.882  1.00  0.00     0.002 A 
ATOM     20  C   UNL A   1      31.792  23.520  24.369  1.00  0.00     0.082 A 
ATOM     21  C   UNL A   1      32.170  24.194  23.209  1.00  0.00     0.022 A 
ATOM     22  C   UNL A   1      30.922  24.118  25.287  1.00  0.00     0.022 A 
ATOM     23  C   UNL A   1      31.675  25.479  22.971  1.00  0.00     0.012 A 
ATOM     24  C   UNL A   1      30.434  25.408  25.044  1.00  0.00     0.012 A 
BRANCH  20  25
ATOM     25  S   UNL A   1      32.424  21.896  24.687  1.00  0.00     0.238 S 
ATOM     26  O   UNL A   1      33.697  22.020  25.348  1.00  0.00    -0.207 OA
ATOM     27  O   UNL A   1      32.251  21.108  23.483  1.00  0.00    -0.207 OA
BRANCH  25  28
ATOM     28  N   UNL A   1      31.365  21.296  25.833  1.00  0.00    -0.225 NA
ATOM     29  H   UNL A   1      31.563  21.724  26.737  1.00  0.00     0.137 HD
ATOM     30  H   UNL A   1      31.477  20.285  25.904  1.00  0.00     0.137 HD
ENDBRANCH  25  28
ENDBRANCH  20  25
ENDBRANCH  14  19
ENDBRANCH   8  13
ENDBRANCH   4   7
ENDBRANCH   2   3
ENDBRANCH   1   2
BRANCH   1  31
ATOM     31  C   UNL A   1      35.843  34.190  29.006  1.00  0.00     0.023 C 
BRANCH  31  32
ATOM     32  C   UNL A   1      36.930  33.479  29.805  1.00  0.00     0.116 C 
BRANCH  32  33
ATOM     33  N   UNL A   1      36.457  33.008  31.108  1.00  0.00    -0.352 N 
ATOM     34  C   UNL A   1      36.773  31.823  31.745  1.00  0.00     0.251 C 
ATOM     35  H   UNL A   1      35.840  33.608  31.587  1.00  0.00     0.163 HD
ATOM     36  O   UNL A   1      36.027  31.347  32.594  1.00  0.00    -0.269 OA
BRANCH  34  37
ATOM     37  C   UNL A   1      38.042  31.158  31.404  1.00  0.00     0.039 A 
ATOM     38  C   UNL A   1      39.271  31.804  31.549  1.00  0.00     0.014 A 
ATOM     39  C   UNL A   1      37.974  29.839  30.959  1.00  0.00     0.014 A 
ATOM     40  C   UNL A   1      40.436  31.077  31.317  1.00  0.00     0.010 A 
ATOM     41  C   UNL A   1      39.116  29.084  30.883  1.00  0.00     0.010 A 
ATOM     42  C   UNL A   1      40.350  29.708  31.008  1.00  0.00    -0.014 A 
BRANCH  42  43
ATOM     43  C   UNL A   1      41.544  28.869  30.993  1.00  0.00     0.031 A 
ATOM     44  C   UNL A   1      42.104  28.645  32.351  1.00  0.00     0.074 A 
ATOM     45  C   UNL A   1      41.975  28.201  29.898  1.00  0.00     0.049 A 
ATOM     46  N   UNL A   1      43.174  29.177  32.842  1.00  0.00    -0.248 NA
ATOM     47  C   UNL A   1      41.289  27.928  33.346  1.00  0.00     0.031 C 
ATOM     48  C   UNL A   1      41.322  28.119  28.584  1.00  0.00     0.029 A 
ATOM     49  N   UNL A   1      43.020  27.337  29.756  1.00  0.00    -0.354 N 
ATOM     50  C   UNL A   1      43.321  28.597  34.097  1.00  0.00     0.074 A 
ATOM     51  C   UNL A   1      42.031  28.069  34.449  1.00  0.00     0.031 C 
ATOM     52  C   UNL A   1      41.827  27.077  27.888  1.00  0.00     0.029 A 
ATOM     53  C   UNL A   1      42.945  26.521  28.626  1.00  0.00     0.049 A 
ATOM     54  H   UNL A   1      43.765  27.291  30.399  1.00  0.00     0.167 HD
ATOM     55  C   UNL A   1      44.562  28.291  34.569  1.00  0.00     0.034 A 
ATOM     56  C   UNL A   1      43.719  25.444  28.334  1.00  0.00     0.034 A 
ATOM     57  C   UNL A   1      45.589  28.969  33.812  1.00  0.00     0.049 A 
ATOM     58  C   UNL A   1      44.961  25.580  29.123  1.00  0.00     0.074 A 
ATOM     59  C   UNL A   1      45.857  30.281  33.474  1.00  0.00     0.029 A 
ATOM     60  N   UNL A   1      46.288  28.197  32.918  1.00  0.00    -0.354 N 
ATOM     61  N   UNL A   1      45.833  26.525  28.922  1.00  0.00    -0.248 NA
ATOM     62  C   UNL A   1      45.012  24.939  30.425  1.00  0.00     0.031 C 
ATOM     63  C   UNL A   1      46.313  30.226  32.123  1.00  0.00     0.029 A 
ATOM     64  C   UNL A   1      46.393  28.886  31.741  1.00  0.00     0.049 A 
ATOM     65  H   UNL A   1      46.654  27.300  33.094  1.00  0.00     0.167 HD
ATOM     66  C   UNL A   1      46.172  26.938  30.202  1.00  0.00     0.074 A 
ATOM     67  C   UNL A   1      45.737  25.850  31.079  1.00  0.00     0.031 C 
ATOM     68  C   UNL A   1      46.487  28.244  30.449  1.00  0.00     0.034 A 
BRANCH  55  69
ATOM     69  C   UNL A   1      44.882  27.060  35.390  1.00  0.00     0.023 A 
ATOM     70  C   UNL A   1      45.745  27.225  36.495  1.00  0.00     0.012 A 
ATOM     71  C   UNL A   1      44.623  25.732  34.976  1.00  0.00     0.148 A 
ATOM     72  C   UNL A   1      46.353  26.131  37.122  1.00  0.00     0.002 A 
ATOM     73  C   UNL A   1      45.154  24.646  35.660  1.00  0.00     0.091 A 
ATOM     74  F   UNL A   1      43.984  25.498  33.828  1.00  0.00    -0.205 F 
ATOM     75  C   UNL A   1      46.047  24.839  36.713  1.00  0.00     0.022 A 
BRANCH  73  76
ATOM     76  S   UNL A   1      44.745  22.956  35.200  1.00  0.00     0.127 S 
ATOM     77  O   UNL A   1      45.280  22.210  36.335  1.00  0.00    -0.237 OA
ATOM     78  O   UNL A   1      43.286  23.018  35.126  1.00  0.00    -0.237 OA
ATOM     79  O   UNL A   1      45.399  22.729  33.918  1.00  0.00    -0.744 OA
ENDBRANCH  73  76
ENDBRANCH  55  69
BRANCH  56  80
ATOM     80  C   UNL A   1      43.395  24.175  27.635  1.00  0.00     0.023 A 
ATOM     81  C   UNL A   1      42.064  23.704  27.615  1.00  0.00     0.012 A 
ATOM     82  C   UNL A   1      44.312  23.604  26.727  1.00  0.00     0.148 A 
ATOM     83  C   UNL A   1      41.650  22.737  26.689  1.00  0.00     0.002 A 
ATOM     84  C   UNL A   1      43.896  22.643  25.809  1.00  0.00     0.091 A 
ATOM     85  F   UNL A   1      45.566  24.073  26.700  1.00  0.00    -0.205 F 
ATOM     86  C   UNL A   1      42.563  22.217  25.777  1.00  0.00     0.022 A 
BRANCH  84  87
ATOM     87  S   UNL A   1      45.014  21.950  24.582  1.00  0.00     0.127 S 
ATOM     88  O   UNL A   1      45.151  23.061  23.639  1.00  0.00    -0.237 OA
ATOM     89  O   UNL A   1      46.203  21.672  25.381  1.00  0.00    -0.237 OA
ATOM     90  O   UNL A   1      44.328  20.785  24.036  1.00  0.00    -0.744 OA
ENDBRANCH  84  87
ENDBRANCH  56  80
BRANCH  68  91
ATOM     91  C   UNL A   1      46.762  29.139  29.265  1.00  0.00     0.023 A 
ATOM     92  C   UNL A   1      48.006  29.189  28.599  1.00  0.00     0.012 A 
ATOM     93  C   UNL A   1      45.683  29.864  28.737  1.00  0.00     0.148 A 
ATOM     94  C   UNL A   1      48.173  29.973  27.452  1.00  0.00     0.002 A 
ATOM     95  C   UNL A   1      45.839  30.604  27.573  1.00  0.00     0.091 A 
ATOM     96  F   UNL A   1      44.507  29.806  29.381  1.00  0.00    -0.205 F 
ATOM     97  C   UNL A   1      47.086  30.671  26.933  1.00  0.00     0.022 A 
BRANCH  95  98
ATOM     98  S   UNL A   1      44.446  31.433  26.807  1.00  0.00     0.127 S 
ATOM     99  O   UNL A   1      43.568  30.313  26.480  1.00  0.00    -0.237 OA
ATOM    100  O   UNL A   1      43.963  32.298  27.884  1.00  0.00    -0.237 OA
ATOM    101  O   UNL A   1      44.992  32.158  25.665  1.00  0.00    -0.744 OA
ENDBRANCH  95  98
ENDBRANCH  68  91
ENDBRANCH  42  43
ENDBRANCH  34  37
ENDBRANCH  32  33
ENDBRANCH  31  32
ENDBRANCH   1  31
TORSDOF 18
ENDMDL
MODEL 3
REMARK VINA RESULT:     -11.5      3.120      8.781
REMARK SMILES NS(=O)(=O)c1ccc(-c2coc(=O)n2-c2ccc(C(=O)NCCCCNC(=O)c3ccc(-c4c5nc(c(-c6cccc(S(=O)(=O)[O-])c6F)c6ccc([nH]6)c(-c6cccc(S(=O)(=O)[O-])c6F)c6nc(c(-c7cccc(S(=O)(=O)[O-])c7F)c7ccc4[nH]7)C=C6)C=C5)cc3)cc2)cc1
REMARK SMILES IDX 23 1 22 2 21 3 19 4 20 5 18 7 15 8 16 9 93 10 17 11 92 12
REMARK SMILES IDX 14 13 9 14 10 15 11 16 12 17 13 18 8 19 5 20 6 21 95 22 7 23
REMARK SMILES IDX 94 24 2 25 3 26 4 27 1 28 24 31 25 32 26 33 27 34 28 36
REMARK SMILES IDX 29 37 30 38 91 39 31 40 90 41 32 42 33 43 34 44 84 45 35 46
REMARK SMILES IDX 89 47 83 48 85 49 36 50 88 51 82 52 81 53 37 55 69 56 49 57
REMARK SMILES IDX 68 58 50 59 53 60 67 61 86 62 51 63 52 64 66 66 87 67 54 68
REMARK SMILES IDX 38 69 39 70 47 71 40 72 42 73 48 74 41 75 43 76 44 77 45 78
REMARK SMILES IDX 46 79 70 80 71 81 79 82 72 83 74 84 80 85 73 86 75 87 76 88
REMARK SMILES IDX 77 89 78 90 55 91 56 92 64 93 57 94 59 95 65 96 58 97 60 98
REMARK SMILES IDX 61 99 62 100 63 101
REMARK H PARENT 21 6 1 29 1 30 26 35 85 54 53 65
REMARK Flexibility Score: inf
ROOT
ATOM      1  C   UNL A   1      38.814  21.888  26.103  1.00  0.00     0.023 C 
ENDROOT
BRANCH   1   2
ATOM      2  C   UNL A   1      37.324  22.238  26.225  1.00  0.00     0.116 C 
BRANCH   2   3
ATOM      3  N   UNL A   1      36.494  21.095  25.900  1.00  0.00    -0.352 N 
ATOM      4  C   UNL A   1      35.364  20.937  25.138  1.00  0.00     0.251 C 
ATOM      5  O   UNL A   1      34.840  19.823  25.118  1.00  0.00    -0.269 OA
ATOM      6  H   UNL A   1      36.805  20.257  26.312  1.00  0.00     0.163 HD
BRANCH   4   7
ATOM      7  C   UNL A   1      34.756  22.021  24.311  1.00  0.00     0.039 A 
ATOM      8  C   UNL A   1      33.505  23.892  22.623  1.00  0.00     0.053 A 
ATOM      9  C   UNL A   1      32.786  22.790  23.078  1.00  0.00     0.028 A 
ATOM     10  C   UNL A   1      34.814  24.096  23.063  1.00  0.00     0.028 A 
ATOM     11  C   UNL A   1      33.423  21.844  23.891  1.00  0.00     0.016 A 
ATOM     12  C   UNL A   1      35.411  23.195  23.943  1.00  0.00     0.016 A 
BRANCH   8  13
ATOM     13  N   UNL A   1      32.953  24.793  21.699  1.00  0.00    -0.242 N 
ATOM     14  C   UNL A   1      32.246  25.931  21.963  1.00  0.00     0.095 A 
ATOM     15  C   UNL A   1      31.730  26.315  20.801  1.00  0.00     0.228 A 
ATOM     16  O   UNL A   1      32.057  25.490  19.726  1.00  0.00    -0.415 OA
ATOM     17  C   UNL A   1      32.856  24.521  20.339  1.00  0.00     0.424 A 
ATOM     18  O   UNL A   1      33.323  23.574  19.722  1.00  0.00    -0.223 OA
BRANCH  14  19
ATOM     19  C   UNL A   1      32.203  26.633  23.246  1.00  0.00     0.002 A 
ATOM     20  C   UNL A   1      32.100  27.934  25.731  1.00  0.00     0.082 A 
ATOM     21  C   UNL A   1      31.019  27.158  25.316  1.00  0.00     0.022 A 
ATOM     22  C   UNL A   1      33.230  28.071  24.918  1.00  0.00     0.022 A 
ATOM     23  C   UNL A   1      31.074  26.512  24.078  1.00  0.00     0.012 A 
ATOM     24  C   UNL A   1      33.281  27.416  23.681  1.00  0.00     0.012 A 
BRANCH  20  25
ATOM     25  S   UNL A   1      32.044  28.747  27.304  1.00  0.00     0.238 S 
ATOM     26  O   UNL A   1      31.324  27.910  28.228  1.00  0.00    -0.207 OA
ATOM     27  O   UNL A   1      31.687  30.133  27.076  1.00  0.00    -0.207 OA
BRANCH  25  28
ATOM     28  N   UNL A   1      33.640  28.717  27.800  1.00  0.00    -0.225 NA
ATOM     29  H   UNL A   1      34.223  29.180  27.103  1.00  0.00     0.137 HD
ATOM     30  H   UNL A   1      33.944  27.750  27.910  1.00  0.00     0.137 HD
ENDBRANCH  25  28
ENDBRANCH  20  25
ENDBRANCH  14  19
ENDBRANCH   8  13
ENDBRANCH   4   7
ENDBRANCH   2   3
ENDBRANCH   1   2
BRANCH   1  31
ATOM     31  C   UNL A   1      39.742  22.661  27.052  1.00  0.00     0.023 C 
BRANCH  31  32
ATOM     32  C   UNL A   1      40.987  21.895  27.487  1.00  0.00     0.116 C 
BRANCH  32  33
ATOM     33  N   UNL A   1      41.985  21.789  26.420  1.00  0.00    -0.352 N 
ATOM     34  C   UNL A   1      42.524  22.811  25.662  1.00  0.00     0.251 C 
ATOM     35  H   UNL A   1      42.311  20.882  26.221  1.00  0.00     0.163 HD
ATOM     36  O   UNL A   1      43.007  22.586  24.557  1.00  0.00    -0.269 OA
BRANCH  34  37
ATOM     37  C   UNL A   1      42.534  24.173  26.222  1.00  0.00     0.039 A 
ATOM     38  C   UNL A   1      41.654  25.158  25.768  1.00  0.00     0.014 A 
ATOM     39  C   UNL A   1      43.437  24.437  27.250  1.00  0.00     0.014 A 
ATOM     40  C   UNL A   1      41.642  26.388  26.420  1.00  0.00     0.010 A 
ATOM     41  C   UNL A   1      43.316  25.585  27.988  1.00  0.00     0.010 A 
ATOM     42  C   UNL A   1      42.460  26.586  27.547  1.00  0.00    -0.014 A 
BRANCH  42  43
ATOM     43  C   UNL A   1      42.299  27.768  28.388  1.00  0.00     0.031 A 
ATOM     44  C   UNL A   1      43.268  28.844  28.057  1.00  0.00     0.074 A 
ATOM     45  C   UNL A   1      41.256  27.948  29.232  1.00  0.00     0.049 A 
ATOM     46  N   UNL A   1      44.302  29.190  28.748  1.00  0.00    -0.248 NA
ATOM     47  C   UNL A   1      43.215  29.462  26.720  1.00  0.00     0.031 C 
ATOM     48  C   UNL A   1      40.088  27.075  29.411  1.00  0.00     0.029 A 
ATOM     49  N   UNL A   1      40.942  29.017  30.017  1.00  0.00    -0.354 N 
ATOM     50  C   UNL A   1      44.833  30.286  28.078  1.00  0.00     0.074 A 
ATOM     51  C   UNL A   1      44.307  30.232  26.741  1.00  0.00     0.031 C 
ATOM     52  C   UNL A   1      39.100  27.757  30.031  1.00  0.00     0.029 A 
ATOM     53  C   UNL A   1      39.612  29.050  30.442  1.00  0.00     0.049 A 
ATOM     54  H   UNL A   1      41.598  29.710  30.262  1.00  0.00     0.167 HD
ATOM     55  C   UNL A   1      45.367  31.325  28.778  1.00  0.00     0.034 A 
ATOM     56  C   UNL A   1      38.968  30.078  31.054  1.00  0.00     0.034 A 
ATOM     57  C   UNL A   1      45.627  30.952  30.148  1.00  0.00     0.049 A 
ATOM     58  C   UNL A   1      40.006  30.941  31.654  1.00  0.00     0.074 A 
ATOM     59  C   UNL A   1      46.336  29.946  30.775  1.00  0.00     0.029 A 
ATOM     60  N   UNL A   1      44.744  31.432  31.083  1.00  0.00    -0.354 N 
ATOM     61  N   UNL A   1      40.770  30.559  32.637  1.00  0.00    -0.248 NA
ATOM     62  C   UNL A   1      40.498  32.058  30.869  1.00  0.00     0.031 C 
ATOM     63  C   UNL A   1      45.525  29.562  31.885  1.00  0.00     0.029 A 
ATOM     64  C   UNL A   1      44.419  30.412  31.935  1.00  0.00     0.049 A 
ATOM     65  H   UNL A   1      44.402  32.354  31.132  1.00  0.00     0.167 HD
ATOM     66  C   UNL A   1      42.026  31.021  32.275  1.00  0.00     0.074 A 
ATOM     67  C   UNL A   1      41.777  32.037  31.253  1.00  0.00     0.031 C 
ATOM     68  C   UNL A   1      43.147  30.319  32.617  1.00  0.00     0.034 A 
BRANCH  55  69
ATOM     69  C   UNL A   1      45.235  32.779  28.377  1.00  0.00     0.023 A 
ATOM     70  C   UNL A   1      43.954  33.365  28.475  1.00  0.00     0.012 A 
ATOM     71  C   UNL A   1      46.212  33.502  27.650  1.00  0.00     0.148 A 
ATOM     72  C   UNL A   1      43.650  34.578  27.846  1.00  0.00     0.002 A 
ATOM     73  C   UNL A   1      45.932  34.749  27.108  1.00  0.00     0.091 A 
ATOM     74  F   UNL A   1      47.379  32.932  27.343  1.00  0.00    -0.205 F 
ATOM     75  C   UNL A   1      44.644  35.278  27.173  1.00  0.00     0.022 A 
BRANCH  73  76
ATOM     76  S   UNL A   1      47.199  35.716  26.274  1.00  0.00     0.127 S 
ATOM     77  O   UNL A   1      47.445  34.906  25.084  1.00  0.00    -0.237 OA
ATOM     78  O   UNL A   1      46.496  36.977  26.036  1.00  0.00    -0.237 OA
ATOM     79  O   UNL A   1      48.302  35.816  27.221  1.00  0.00    -0.744 OA
ENDBRANCH  73  76
ENDBRANCH  55  69
BRANCH  56  80
ATOM     80  C   UNL A   1      37.558  30.532  30.961  1.00  0.00     0.023 A 
ATOM     81  C   UNL A   1      36.841  30.839  32.138  1.00  0.00     0.012 A 
ATOM     82  C   UNL A   1      37.026  30.970  29.730  1.00  0.00     0.148 A 
ATOM     83  C   UNL A   1      35.664  31.600  32.093  1.00  0.00     0.002 A 
ATOM     84  C   UNL A   1      35.856  31.725  29.690  1.00  0.00     0.091 A 
ATOM     85  F   UNL A   1      37.718  30.728  28.609  1.00  0.00    -0.205 F 
ATOM     86  C   UNL A   1      35.180  32.054  30.871  1.00  0.00     0.022 A 
BRANCH  84  87
ATOM     87  S   UNL A   1      35.190  32.370  28.149  1.00  0.00     0.127 S 
ATOM     88  O   UNL A   1      34.984  31.144  27.375  1.00  0.00    -0.237 OA
ATOM     89  O   UNL A   1      33.966  33.024  28.601  1.00  0.00    -0.237 OA
ATOM     90  O   UNL A   1      36.220  33.250  27.612  1.00  0.00    -0.744 OA
ENDBRANCH  84  87
ENDBRANCH  56  80
BRANCH  68  91
ATOM     91  C   UNL A   1      43.008  29.225  33.647  1.00  0.00     0.023 A 
ATOM     92  C   UNL A   1      42.401  27.978  33.382  1.00  0.00     0.012 A 
ATOM     93  C   UNL A   1      43.624  29.426  34.892  1.00  0.00     0.148 A 
ATOM     94  C   UNL A   1      42.382  26.970  34.352  1.00  0.00     0.002 A 
ATOM     95  C   UNL A   1      43.643  28.408  35.836  1.00  0.00     0.091 A 
ATOM     96  F   UNL A   1      44.197  30.616  35.129  1.00  0.00    -0.205 F 
ATOM     97  C   UNL A   1      43.014  27.182  35.575  1.00  0.00     0.022 A 
BRANCH  95  98
ATOM     98  S   UNL A   1      44.534  28.593  37.381  1.00  0.00     0.127 S 
ATOM     99  O   UNL A   1      44.191  27.356  38.079  1.00  0.00    -0.237 OA
ATOM    100  O   UNL A   1      45.925  28.680  36.935  1.00  0.00    -0.237 OA
ATOM    101  O   UNL A   1      44.028  29.818  37.989  1.00  0.00    -0.744 OA
ENDBRANCH  95  98
ENDBRANCH  68  91
ENDBRANCH  42  43
ENDBRANCH  34  37
ENDBRANCH  32  33
ENDBRANCH  31  32
ENDBRANCH   1  31
TORSDOF 18
ENDMDL
