MODEL 1
REMARK VINA RESULT:     -12.7      0.000      0.000
REMARK SMILES CC[C@H]([NH2+]C1c2ccccc2-c2ccccc21)C(=O)NCCCCNC(=O)c1ccc(-c2c3nc(c(-c4cccc(S(=O)(=O)[O-])c4F)c4ccc([nH]4)c(-c4cccc(S(=O)(=O)[O-])c4F)c4nc(c(-c5cccc(S(=O)(=O)[O-])c5F)c5ccc2[nH]5)C=C4)C=C3)cc1
REMARK SMILES IDX 23 1 22 2 21 3 20 4 18 5 19 6 3 8 2 9 1 10 4 11 5 14 6 15
REMARK SMILES IDX 17 16 7 17 11 18 12 19 16 20 8 21 10 22 13 23 15 24 9 25
REMARK SMILES IDX 14 26 24 27 25 28 26 29 27 31 28 32 29 33 90 34 30 35 89 36
REMARK SMILES IDX 31 37 32 38 33 39 83 40 34 41 88 42 82 43 84 44 35 45 87 46
REMARK SMILES IDX 81 47 80 48 36 50 68 51 48 52 67 53 49 54 52 55 66 56 85 57
REMARK SMILES IDX 50 58 51 59 65 61 86 62 53 63 37 64 38 65 46 66 39 67 41 68
REMARK SMILES IDX 47 69 40 70 42 71 43 72 44 73 45 74 69 75 70 76 78 77 71 78
REMARK SMILES IDX 73 79 79 80 72 81 74 82 75 83 76 84 77 85 54 86 55 87 63 88
REMARK SMILES IDX 56 89 58 90 64 91 57 92 59 93 60 94 61 95 62 96
REMARK H PARENT 20 7 4 12 4 13 25 30 84 49 52 60
REMARK Flexibility Score: inf
ROOT
ATOM      1  C   UNL A   1      31.448  29.339  25.394  1.00  0.00     0.023 C 
ENDROOT
BRANCH   1   2
ATOM      2  C   UNL A   1      31.444  27.821  25.287  1.00  0.00     0.023 C 
BRANCH   2   3
ATOM      3  C   UNL A   1      32.233  27.086  26.364  1.00  0.00     0.116 C 
BRANCH   3   4
ATOM      4  N   UNL A   1      31.485  25.964  26.882  1.00  0.00    -0.351 N 
ATOM      5  C   UNL A   1      31.371  24.676  26.477  1.00  0.00     0.278 C 
ATOM      6  O   UNL A   1      30.459  24.027  27.009  1.00  0.00    -0.268 OA
ATOM      7  H   UNL A   1      30.956  26.176  27.685  1.00  0.00     0.163 HD
BRANCH   5   8
ATOM      8  C   UNL A   1      32.277  23.980  25.426  1.00  0.00     0.273 C 
BRANCH   8   9
ATOM      9  C   UNL A   1      31.965  24.272  23.939  1.00  0.00     0.072 C 
ATOM     10  C   UNL A   1      30.551  24.531  23.444  1.00  0.00     0.011 C 
ENDBRANCH   8   9
BRANCH   8  11
ATOM     11  N   UNL A   1      32.859  22.691  25.890  1.00  0.00    -0.326 N 
ATOM     12  H   UNL A   1      32.082  22.074  26.126  1.00  0.00     0.347 HD
ATOM     13  H   UNL A   1      33.467  22.948  26.667  1.00  0.00     0.347 HD
BRANCH  11  14
ATOM     14  C   UNL A   1      33.716  21.974  24.974  1.00  0.00     0.246 C 
ATOM     15  C   UNL A   1      35.210  22.083  25.264  1.00  0.00     0.022 A 
ATOM     16  C   UNL A   1      33.541  20.455  24.913  1.00  0.00     0.022 A 
ATOM     17  C   UNL A   1      35.959  23.180  25.660  1.00  0.00     0.011 A 
ATOM     18  C   UNL A   1      35.834  20.847  24.987  1.00  0.00    -0.008 A 
ATOM     19  C   UNL A   1      34.809  19.848  24.761  1.00  0.00    -0.008 A 
ATOM     20  C   UNL A   1      32.382  19.692  24.862  1.00  0.00     0.011 A 
ATOM     21  C   UNL A   1      37.349  23.059  25.706  1.00  0.00     0.001 A 
ATOM     22  C   UNL A   1      37.213  20.727  25.019  1.00  0.00     0.009 A 
ATOM     23  C   UNL A   1      34.921  18.495  24.480  1.00  0.00     0.009 A 
ATOM     24  C   UNL A   1      32.495  18.328  24.577  1.00  0.00     0.001 A 
ATOM     25  C   UNL A   1      37.971  21.849  25.366  1.00  0.00     0.001 A 
ATOM     26  C   UNL A   1      33.752  17.739  24.370  1.00  0.00     0.001 A 
ENDBRANCH  11  14
ENDBRANCH   8  11
ENDBRANCH   5   8
ENDBRANCH   3   4
ENDBRANCH   2   3
ENDBRANCH   1   2
BRANCH   1  27
ATOM     27  C   UNL A   1      32.595  29.921  26.203  1.00  0.00     0.116 C 
BRANCH  27  28
ATOM     28  N   UNL A   1      32.376  31.290  26.651  1.00  0.00    -0.352 N 
ATOM     29  C   UNL A   1      33.241  32.091  27.368  1.00  0.00     0.251 C 
ATOM     30  H   UNL A   1      31.508  31.690  26.414  1.00  0.00     0.163 HD
ATOM     31  O   UNL A   1      32.914  33.206  27.734  1.00  0.00    -0.269 OA
BRANCH  29  32
ATOM     32  C   UNL A   1      34.561  31.529  27.727  1.00  0.00     0.039 A 
ATOM     33  C   UNL A   1      35.627  32.403  27.942  1.00  0.00     0.014 A 
ATOM     34  C   UNL A   1      34.690  30.163  27.989  1.00  0.00     0.014 A 
ATOM     35  C   UNL A   1      36.802  31.917  28.517  1.00  0.00     0.010 A 
ATOM     36  C   UNL A   1      35.828  29.700  28.638  1.00  0.00     0.010 A 
ATOM     37  C   UNL A   1      36.889  30.574  28.920  1.00  0.00    -0.014 A 
BRANCH  37  38
ATOM     38  C   UNL A   1      38.061  30.069  29.679  1.00  0.00     0.031 A 
ATOM     39  C   UNL A   1      38.298  30.527  31.092  1.00  0.00     0.074 A 
ATOM     40  C   UNL A   1      38.971  29.291  29.060  1.00  0.00     0.049 A 
ATOM     41  N   UNL A   1      39.298  30.257  31.888  1.00  0.00    -0.248 NA
ATOM     42  C   UNL A   1      37.298  31.439  31.677  1.00  0.00     0.031 C 
ATOM     43  C   UNL A   1      38.910  28.864  27.658  1.00  0.00     0.029 A 
ATOM     44  N   UNL A   1      40.145  28.746  29.517  1.00  0.00    -0.354 N 
ATOM     45  C   UNL A   1      39.073  30.991  33.045  1.00  0.00     0.074 A 
ATOM     46  C   UNL A   1      37.858  31.747  32.838  1.00  0.00     0.031 C 
ATOM     47  C   UNL A   1      39.992  28.122  27.375  1.00  0.00     0.029 A 
ATOM     48  C   UNL A   1      40.837  28.037  28.561  1.00  0.00     0.049 A 
ATOM     49  H   UNL A   1      40.462  28.850  30.443  1.00  0.00     0.167 HD
ATOM     50  C   UNL A   1      39.793  31.007  34.190  1.00  0.00     0.034 A 
ATOM     51  C   UNL A   1      42.021  27.396  28.632  1.00  0.00     0.034 A 
ATOM     52  C   UNL A   1      40.961  30.202  34.418  1.00  0.00     0.049 A 
ATOM     53  C   UNL A   1      42.761  27.373  29.942  1.00  0.00     0.074 A 
ATOM     54  C   UNL A   1      41.689  30.057  35.586  1.00  0.00     0.029 A 
ATOM     55  N   UNL A   1      41.572  29.408  33.462  1.00  0.00    -0.354 N 
ATOM     56  N   UNL A   1      42.428  27.921  31.086  1.00  0.00    -0.248 NA
ATOM     57  C   UNL A   1      44.020  26.615  29.984  1.00  0.00     0.031 C 
ATOM     58  C   UNL A   1      42.750  29.182  35.331  1.00  0.00     0.029 A 
ATOM     59  C   UNL A   1      42.674  28.775  34.009  1.00  0.00     0.049 A 
ATOM     60  H   UNL A   1      41.267  29.308  32.531  1.00  0.00     0.167 HD
ATOM     61  C   UNL A   1      43.417  27.549  31.988  1.00  0.00     0.074 A 
ATOM     62  C   UNL A   1      44.347  26.706  31.265  1.00  0.00     0.031 C 
ATOM     63  C   UNL A   1      43.557  27.892  33.293  1.00  0.00     0.034 A 
BRANCH  50  64
ATOM     64  C   UNL A   1      39.295  31.868  35.320  1.00  0.00     0.023 A 
ATOM     65  C   UNL A   1      38.403  31.320  36.263  1.00  0.00     0.012 A 
ATOM     66  C   UNL A   1      39.762  33.186  35.490  1.00  0.00     0.148 A 
ATOM     67  C   UNL A   1      37.963  32.077  37.347  1.00  0.00     0.002 A 
ATOM     68  C   UNL A   1      39.349  33.922  36.595  1.00  0.00     0.091 A 
ATOM     69  F   UNL A   1      40.590  33.695  34.568  1.00  0.00    -0.205 F 
ATOM     70  C   UNL A   1      38.444  33.373  37.519  1.00  0.00     0.022 A 
BRANCH  68  71
ATOM     71  S   UNL A   1      39.966  35.572  36.948  1.00  0.00     0.127 S 
ATOM     72  O   UNL A   1      41.407  35.337  37.021  1.00  0.00    -0.237 OA
ATOM     73  O   UNL A   1      39.529  36.322  35.770  1.00  0.00    -0.237 OA
ATOM     74  O   UNL A   1      39.335  35.978  38.196  1.00  0.00    -0.744 OA
ENDBRANCH  68  71
ENDBRANCH  50  64
BRANCH  51  75
ATOM     75  C   UNL A   1      42.546  26.659  27.447  1.00  0.00     0.023 A 
ATOM     76  C   UNL A   1      43.339  27.345  26.506  1.00  0.00     0.012 A 
ATOM     77  C   UNL A   1      42.284  25.290  27.253  1.00  0.00     0.148 A 
ATOM     78  C   UNL A   1      43.830  26.690  25.375  1.00  0.00     0.002 A 
ATOM     79  C   UNL A   1      42.822  24.629  26.153  1.00  0.00     0.091 A 
ATOM     80  F   UNL A   1      41.514  24.655  28.148  1.00  0.00    -0.205 F 
ATOM     81  C   UNL A   1      43.581  25.331  25.204  1.00  0.00     0.022 A 
BRANCH  79  82
ATOM     82  S   UNL A   1      42.660  22.853  25.939  1.00  0.00     0.127 S 
ATOM     83  O   UNL A   1      43.196  22.664  24.593  1.00  0.00    -0.237 OA
ATOM     84  O   UNL A   1      43.501  22.333  27.017  1.00  0.00    -0.237 OA
ATOM     85  O   UNL A   1      41.239  22.576  26.108  1.00  0.00    -0.744 OA
ENDBRANCH  79  82
ENDBRANCH  51  75
BRANCH  63  86
ATOM     86  C   UNL A   1      44.745  27.343  34.036  1.00  0.00     0.023 A 
ATOM     87  C   UNL A   1      45.952  28.068  34.047  1.00  0.00     0.012 A 
ATOM     88  C   UNL A   1      44.642  26.157  34.788  1.00  0.00     0.148 A 
ATOM     89  C   UNL A   1      47.049  27.606  34.772  1.00  0.00     0.002 A 
ATOM     90  C   UNL A   1      45.724  25.726  35.545  1.00  0.00     0.091 A 
ATOM     91  F   UNL A   1      43.490  25.471  34.747  1.00  0.00    -0.205 F 
ATOM     92  C   UNL A   1      46.931  26.444  35.530  1.00  0.00     0.022 A 
BRANCH  90  93
ATOM     93  S   UNL A   1      45.631  24.292  36.623  1.00  0.00     0.127 S 
ATOM     94  O   UNL A   1      45.510  23.201  35.659  1.00  0.00    -0.237 OA
ATOM     95  O   UNL A   1      46.912  24.345  37.327  1.00  0.00    -0.237 OA
ATOM     96  O   UNL A   1      44.468  24.510  37.474  1.00  0.00    -0.744 OA
ENDBRANCH  90  93
ENDBRANCH  63  86
ENDBRANCH  37  38
ENDBRANCH  29  32
ENDBRANCH  27  28
ENDBRANCH   1  27
TORSDOF 17
ENDMDL
MODEL 2
REMARK VINA RESULT:     -12.3      1.459      2.021
REMARK SMILES CC[C@H]([NH2+]C1c2ccccc2-c2ccccc21)C(=O)NCCCCNC(=O)c1ccc(-c2c3nc(c(-c4cccc(S(=O)(=O)[O-])c4F)c4ccc([nH]4)c(-c4cccc(S(=O)(=O)[O-])c4F)c4nc(c(-c5cccc(S(=O)(=O)[O-])c5F)c5ccc2[nH]5)C=C4)C=C3)cc1
REMARK SMILES IDX 23 1 22 2 21 3 20 4 18 5 19 6 3 8 2 9 1 10 4 11 5 14 6 15
REMARK SMILES IDX 17 16 7 17 11 18 12 19 16 20 8 21 10 22 13 23 15 24 9 25
REMARK SMILES IDX 14 26 24 27 25 28 26 29 27 31 28 32 29 33 90 34 30 35 89 36
REMARK SMILES IDX 31 37 32 38 33 39 83 40 34 41 88 42 82 43 84 44 35 45 87 46
REMARK SMILES IDX 81 47 80 48 36 50 68 51 48 52 67 53 49 54 52 55 66 56 85 57
REMARK SMILES IDX 50 58 51 59 65 61 86 62 53 63 37 64 38 65 46 66 39 67 41 68
REMARK SMILES IDX 47 69 40 70 42 71 43 72 44 73 45 74 69 75 70 76 78 77 71 78
REMARK SMILES IDX 73 79 79 80 72 81 74 82 75 83 76 84 77 85 54 86 55 87 63 88
REMARK SMILES IDX 56 89 58 90 64 91 57 92 59 93 60 94 61 95 62 96
REMARK H PARENT 20 7 4 12 4 13 25 30 84 49 52 60
REMARK Flexibility Score: inf
ROOT
ATOM      1  C   UNL A   1      31.474  28.900  25.885  1.00  0.00     0.023 C 
ENDROOT
BRANCH   1   2
ATOM      2  C   UNL A   1      31.153  28.670  24.415  1.00  0.00     0.023 C 
BRANCH   2   3
ATOM      3  C   UNL A   1      30.336  27.420  24.111  1.00  0.00     0.116 C 
BRANCH   3   4
ATOM      4  N   UNL A   1      30.545  26.980  22.750  1.00  0.00    -0.351 N 
ATOM      5  C   UNL A   1      31.534  26.263  22.163  1.00  0.00     0.278 C 
ATOM      6  O   UNL A   1      31.528  26.259  20.925  1.00  0.00    -0.268 OA
ATOM      7  H   UNL A   1      29.831  27.254  22.130  1.00  0.00     0.163 HD
BRANCH   5   8
ATOM      8  C   UNL A   1      32.637  25.470  22.915  1.00  0.00     0.273 C 
BRANCH   8   9
ATOM      9  C   UNL A   1      33.772  26.301  23.559  1.00  0.00     0.072 C 
ATOM     10  C   UNL A   1      34.004  26.330  25.061  1.00  0.00     0.011 C 
ENDBRANCH   8   9
BRANCH   8  11
ATOM     11  N   UNL A   1      32.841  24.088  22.402  1.00  0.00    -0.326 N 
ATOM     12  H   UNL A   1      33.644  24.112  21.773  1.00  0.00     0.347 HD
ATOM     13  H   UNL A   1      31.952  23.840  21.969  1.00  0.00     0.347 HD
BRANCH  11  14
ATOM     14  C   UNL A   1      33.082  23.042  23.369  1.00  0.00     0.246 C 
ATOM     15  C   UNL A   1      34.529  22.910  23.834  1.00  0.00     0.022 A 
ATOM     16  C   UNL A   1      32.355  23.163  24.710  1.00  0.00     0.022 A 
ATOM     17  C   UNL A   1      35.706  22.993  23.107  1.00  0.00     0.011 A 
ATOM     18  C   UNL A   1      34.553  22.584  25.209  1.00  0.00    -0.008 A 
ATOM     19  C   UNL A   1      33.216  22.730  25.745  1.00  0.00    -0.008 A 
ATOM     20  C   UNL A   1      31.034  23.492  24.982  1.00  0.00     0.011 A 
ATOM     21  C   UNL A   1      36.908  22.675  23.742  1.00  0.00     0.001 A 
ATOM     22  C   UNL A   1      35.743  22.255  25.837  1.00  0.00     0.009 A 
ATOM     23  C   UNL A   1      32.742  22.549  27.035  1.00  0.00     0.009 A 
ATOM     24  C   UNL A   1      30.556  23.307  26.283  1.00  0.00     0.001 A 
ATOM     25  C   UNL A   1      36.923  22.287  25.089  1.00  0.00     0.001 A 
ATOM     26  C   UNL A   1      31.397  22.823  27.296  1.00  0.00     0.001 A 
ENDBRANCH  11  14
ENDBRANCH   8  11
ENDBRANCH   5   8
ENDBRANCH   3   4
ENDBRANCH   2   3
ENDBRANCH   1   2
BRANCH   1  27
ATOM     27  C   UNL A   1      32.732  29.711  26.146  1.00  0.00     0.116 C 
BRANCH  27  28
ATOM     28  N   UNL A   1      32.482  31.078  26.586  1.00  0.00    -0.352 N 
ATOM     29  C   UNL A   1      33.322  31.895  27.315  1.00  0.00     0.251 C 
ATOM     30  H   UNL A   1      31.612  31.462  26.333  1.00  0.00     0.163 HD
ATOM     31  O   UNL A   1      32.970  33.006  27.671  1.00  0.00    -0.269 OA
BRANCH  29  32
ATOM     32  C   UNL A   1      34.644  31.358  27.697  1.00  0.00     0.039 A 
ATOM     33  C   UNL A   1      35.684  32.252  27.957  1.00  0.00     0.014 A 
ATOM     34  C   UNL A   1      34.800  29.990  27.936  1.00  0.00     0.014 A 
ATOM     35  C   UNL A   1      36.855  31.782  28.553  1.00  0.00     0.010 A 
ATOM     36  C   UNL A   1      35.931  29.540  28.606  1.00  0.00     0.010 A 
ATOM     37  C   UNL A   1      36.964  30.433  28.932  1.00  0.00    -0.014 A 
BRANCH  37  38
ATOM     38  C   UNL A   1      38.127  29.941  29.712  1.00  0.00     0.031 A 
ATOM     39  C   UNL A   1      38.357  30.432  31.115  1.00  0.00     0.074 A 
ATOM     40  C   UNL A   1      39.037  29.142  29.119  1.00  0.00     0.049 A 
ATOM     41  N   UNL A   1      39.350  30.176  31.924  1.00  0.00    -0.248 NA
ATOM     42  C   UNL A   1      37.359  31.364  31.670  1.00  0.00     0.031 C 
ATOM     43  C   UNL A   1      38.982  28.680  27.728  1.00  0.00     0.029 A 
ATOM     44  N   UNL A   1      40.204  28.601  29.598  1.00  0.00    -0.354 N 
ATOM     45  C   UNL A   1      39.122  30.940  33.060  1.00  0.00     0.074 A 
ATOM     46  C   UNL A   1      37.913  31.698  32.826  1.00  0.00     0.031 C 
ATOM     47  C   UNL A   1      40.063  27.925  27.471  1.00  0.00     0.029 A 
ATOM     48  C   UNL A   1      40.899  27.865  28.664  1.00  0.00     0.049 A 
ATOM     49  H   UNL A   1      40.515  28.727  30.523  1.00  0.00     0.167 HD
ATOM     50  C   UNL A   1      39.834  30.981  34.210  1.00  0.00     0.034 A 
ATOM     51  C   UNL A   1      42.078  27.220  28.760  1.00  0.00     0.034 A 
ATOM     52  C   UNL A   1      40.995  30.175  34.467  1.00  0.00     0.049 A 
ATOM     53  C   UNL A   1      42.809  27.225  30.075  1.00  0.00     0.074 A 
ATOM     54  C   UNL A   1      41.714  30.055  35.642  1.00  0.00     0.029 A 
ATOM     55  N   UNL A   1      41.607  29.354  33.535  1.00  0.00    -0.354 N 
ATOM     56  N   UNL A   1      42.471  27.803  31.203  1.00  0.00    -0.248 NA
ATOM     57  C   UNL A   1      44.063  26.460  30.145  1.00  0.00     0.031 C 
ATOM     58  C   UNL A   1      42.772  29.168  35.417  1.00  0.00     0.029 A 
ATOM     59  C   UNL A   1      42.702  28.728  34.105  1.00  0.00     0.049 A 
ATOM     60  H   UNL A   1      41.308  29.232  32.605  1.00  0.00     0.167 HD
ATOM     61  C   UNL A   1      43.452  27.448  32.121  1.00  0.00     0.074 A 
ATOM     62  C   UNL A   1      44.382  26.582  31.426  1.00  0.00     0.031 C 
ATOM     63  C   UNL A   1      43.585  27.823  33.417  1.00  0.00     0.034 A 
BRANCH  50  64
ATOM     64  C   UNL A   1      39.332  31.873  35.315  1.00  0.00     0.023 A 
ATOM     65  C   UNL A   1      38.414  31.360  36.252  1.00  0.00     0.012 A 
ATOM     66  C   UNL A   1      39.822  33.184  35.468  1.00  0.00     0.148 A 
ATOM     67  C   UNL A   1      37.969  32.146  37.314  1.00  0.00     0.002 A 
ATOM     68  C   UNL A   1      39.405  33.949  36.552  1.00  0.00     0.091 A 
ATOM     69  F   UNL A   1      40.677  33.660  34.553  1.00  0.00    -0.205 F 
ATOM     70  C   UNL A   1      38.473  33.435  37.469  1.00  0.00     0.022 A 
BRANCH  68  71
ATOM     71  S   UNL A   1      40.048  35.593  36.885  1.00  0.00     0.127 S 
ATOM     72  O   UNL A   1      39.550  36.343  35.733  1.00  0.00    -0.237 OA
ATOM     73  O   UNL A   1      39.399  35.925  38.154  1.00  0.00    -0.237 OA
ATOM     74  O   UNL A   1      41.494  35.451  36.961  1.00  0.00    -0.744 OA
ENDBRANCH  68  71
ENDBRANCH  50  64
BRANCH  51  75
ATOM     75  C   UNL A   1      42.607  26.450  27.598  1.00  0.00     0.023 A 
ATOM     76  C   UNL A   1      43.481  27.084  26.693  1.00  0.00     0.012 A 
ATOM     77  C   UNL A   1      42.269  25.099  27.390  1.00  0.00     0.148 A 
ATOM     78  C   UNL A   1      43.979  26.398  25.583  1.00  0.00     0.002 A 
ATOM     79  C   UNL A   1      42.811  24.405  26.313  1.00  0.00     0.091 A 
ATOM     80  F   UNL A   1      41.422  24.514  28.249  1.00  0.00    -0.205 F 
ATOM     81  C   UNL A   1      43.654  25.058  25.399  1.00  0.00     0.022 A 
BRANCH  79  82
ATOM     82  S   UNL A   1      42.548  22.643  26.089  1.00  0.00     0.127 S 
ATOM     83  O   UNL A   1      43.232  22.087  27.253  1.00  0.00    -0.237 OA
ATOM     84  O   UNL A   1      41.088  22.541  26.123  1.00  0.00    -0.237 OA
ATOM     85  O   UNL A   1      43.134  22.331  24.791  1.00  0.00    -0.744 OA
ENDBRANCH  79  82
ENDBRANCH  51  75
BRANCH  63  86
ATOM     86  C   UNL A   1      44.764  27.285  34.183  1.00  0.00     0.023 A 
ATOM     87  C   UNL A   1      45.963  28.023  34.218  1.00  0.00     0.012 A 
ATOM     88  C   UNL A   1      44.660  26.097  34.931  1.00  0.00     0.148 A 
ATOM     89  C   UNL A   1      47.050  27.573  34.963  1.00  0.00     0.002 A 
ATOM     90  C   UNL A   1      45.732  25.676  35.708  1.00  0.00     0.091 A 
ATOM     91  F   UNL A   1      43.516  25.398  34.867  1.00  0.00    -0.205 F 
ATOM     92  C   UNL A   1      46.931  26.408  35.717  1.00  0.00     0.022 A 
BRANCH  90  93
ATOM     93  S   UNL A   1      45.633  24.240  36.782  1.00  0.00     0.127 S 
ATOM     94  O   UNL A   1      44.599  24.647  37.730  1.00  0.00    -0.237 OA
ATOM     95  O   UNL A   1      45.229  23.182  35.855  1.00  0.00    -0.237 OA
ATOM     96  O   UNL A   1      46.968  24.070  37.343  1.00  0.00    -0.744 OA
ENDBRANCH  90  93
ENDBRANCH  63  86
ENDBRANCH  37  38
ENDBRANCH  29  32
ENDBRANCH  27  28
ENDBRANCH   1  27
TORSDOF 17
ENDMDL
MODEL 3
REMARK VINA RESULT:     -12.2      1.832      2.161
REMARK SMILES CC[C@H]([NH2+]C1c2ccccc2-c2ccccc21)C(=O)NCCCCNC(=O)c1ccc(-c2c3nc(c(-c4cccc(S(=O)(=O)[O-])c4F)c4ccc([nH]4)c(-c4cccc(S(=O)(=O)[O-])c4F)c4nc(c(-c5cccc(S(=O)(=O)[O-])c5F)c5ccc2[nH]5)C=C4)C=C3)cc1
REMARK SMILES IDX 23 1 22 2 21 3 20 4 18 5 19 6 3 8 2 9 1 10 4 11 5 14 6 15
REMARK SMILES IDX 17 16 7 17 11 18 12 19 16 20 8 21 10 22 13 23 15 24 9 25
REMARK SMILES IDX 14 26 24 27 25 28 26 29 27 31 28 32 29 33 90 34 30 35 89 36
REMARK SMILES IDX 31 37 32 38 33 39 83 40 34 41 88 42 82 43 84 44 35 45 87 46
REMARK SMILES IDX 81 47 80 48 36 50 68 51 48 52 67 53 49 54 52 55 66 56 85 57
REMARK SMILES IDX 50 58 51 59 65 61 86 62 53 63 37 64 38 65 46 66 39 67 41 68
REMARK SMILES IDX 47 69 40 70 42 71 43 72 44 73 45 74 69 75 70 76 78 77 71 78
REMARK SMILES IDX 73 79 79 80 72 81 74 82 75 83 76 84 77 85 54 86 55 87 63 88
REMARK SMILES IDX 56 89 58 90 64 91 57 92 59 93 60 94 61 95 62 96
REMARK H PARENT 20 7 4 12 4 13 25 30 84 49 52 60
REMARK Flexibility Score: inf
ROOT
ATOM      1  C   UNL A   1      31.800  29.161  25.941  1.00  0.00     0.023 C 
ENDROOT
BRANCH   1   2
ATOM      2  C   UNL A   1      31.572  27.874  26.720  1.00  0.00     0.023 C 
BRANCH   2   3
ATOM      3  C   UNL A   1      31.353  26.626  25.873  1.00  0.00     0.116 C 
BRANCH   3   4
ATOM      4  N   UNL A   1      30.900  25.519  26.686  1.00  0.00    -0.351 N 
ATOM      5  C   UNL A   1      30.842  24.184  26.461  1.00  0.00     0.278 C 
ATOM      6  O   UNL A   1      30.180  23.533  27.280  1.00  0.00    -0.268 OA
ATOM      7  H   UNL A   1      30.571  25.787  27.574  1.00  0.00     0.163 HD
BRANCH   5   8
ATOM      8  C   UNL A   1      31.529  23.439  25.285  1.00  0.00     0.273 C 
BRANCH   8   9
ATOM      9  C   UNL A   1      30.952  23.694  23.872  1.00  0.00     0.072 C 
ATOM     10  C   UNL A   1      31.724  24.454  22.805  1.00  0.00     0.011 C 
ENDBRANCH   8   9
BRANCH   8  11
ATOM     11  N   UNL A   1      32.166  22.153  25.675  1.00  0.00    -0.326 N 
ATOM     12  H   UNL A   1      31.437  21.440  25.680  1.00  0.00     0.347 HD
ATOM     13  H   UNL A   1      32.599  22.344  26.579  1.00  0.00     0.347 HD
BRANCH  11  14
ATOM     14  C   UNL A   1      33.245  21.660  24.850  1.00  0.00     0.246 C 
ATOM     15  C   UNL A   1      34.637  22.143  25.245  1.00  0.00     0.022 A 
ATOM     16  C   UNL A   1      33.457  20.145  24.825  1.00  0.00     0.022 A 
ATOM     17  C   UNL A   1      35.057  23.397  25.659  1.00  0.00     0.011 A 
ATOM     18  C   UNL A   1      35.568  21.098  25.055  1.00  0.00    -0.008 A 
ATOM     19  C   UNL A   1      34.844  19.872  24.787  1.00  0.00    -0.008 A 
ATOM     20  C   UNL A   1      32.532  19.116  24.714  1.00  0.00     0.011 A 
ATOM     21  C   UNL A   1      36.425  23.627  25.812  1.00  0.00     0.001 A 
ATOM     22  C   UNL A   1      36.927  21.327  25.193  1.00  0.00     0.009 A 
ATOM     23  C   UNL A   1      35.310  18.586  24.560  1.00  0.00     0.009 A 
ATOM     24  C   UNL A   1      33.002  17.820  24.482  1.00  0.00     0.001 A 
ATOM     25  C   UNL A   1      37.353  22.607  25.558  1.00  0.00     0.001 A 
ATOM     26  C   UNL A   1      34.378  17.561  24.388  1.00  0.00     0.001 A 
ENDBRANCH  11  14
ENDBRANCH   8  11
ENDBRANCH   5   8
ENDBRANCH   3   4
ENDBRANCH   2   3
ENDBRANCH   1   2
BRANCH   1  27
ATOM     27  C   UNL A   1      33.084  29.897  26.282  1.00  0.00     0.116 C 
BRANCH  27  28
ATOM     28  N   UNL A   1      32.880  31.210  26.880  1.00  0.00    -0.352 N 
ATOM     29  C   UNL A   1      33.747  31.911  27.694  1.00  0.00     0.251 C 
ATOM     30  H   UNL A   1      32.022  31.649  26.679  1.00  0.00     0.163 HD
ATOM     31  O   UNL A   1      33.432  32.983  28.180  1.00  0.00    -0.269 OA
BRANCH  29  32
ATOM     32  C   UNL A   1      35.053  31.290  28.002  1.00  0.00     0.039 A 
ATOM     33  C   UNL A   1      36.186  32.102  28.058  1.00  0.00     0.014 A 
ATOM     34  C   UNL A   1      35.116  29.945  28.375  1.00  0.00     0.014 A 
ATOM     35  C   UNL A   1      37.371  31.586  28.585  1.00  0.00     0.010 A 
ATOM     36  C   UNL A   1      36.270  29.460  28.977  1.00  0.00     0.010 A 
ATOM     37  C   UNL A   1      37.405  30.278  29.100  1.00  0.00    -0.014 A 
BRANCH  37  38
ATOM     38  C   UNL A   1      38.599  29.759  29.812  1.00  0.00     0.031 A 
ATOM     39  C   UNL A   1      38.964  30.300  31.167  1.00  0.00     0.074 A 
ATOM     40  C   UNL A   1      39.417  28.884  29.191  1.00  0.00     0.049 A 
ATOM     41  N   UNL A   1      40.003  30.027  31.909  1.00  0.00    -0.248 NA
ATOM     42  C   UNL A   1      38.062  31.310  31.749  1.00  0.00     0.031 C 
ATOM     43  C   UNL A   1      39.229  28.363  27.833  1.00  0.00     0.029 A 
ATOM     44  N   UNL A   1      40.589  28.303  29.606  1.00  0.00    -0.354 N 
ATOM     45  C   UNL A   1      39.905  30.853  33.021  1.00  0.00     0.074 A 
ATOM     46  C   UNL A   1      38.722  31.665  32.842  1.00  0.00     0.031 C 
ATOM     47  C   UNL A   1      40.245  27.539  27.533  1.00  0.00     0.029 A 
ATOM     48  C   UNL A   1      41.169  27.488  28.660  1.00  0.00     0.049 A 
ATOM     49  H   UNL A   1      40.978  28.453  30.497  1.00  0.00     0.167 HD
ATOM     50  C   UNL A   1      40.707  30.908  34.109  1.00  0.00     0.034 A 
ATOM     51  C   UNL A   1      42.317  26.783  28.697  1.00  0.00     0.034 A 
ATOM     52  C   UNL A   1      41.842  30.051  34.316  1.00  0.00     0.049 A 
ATOM     53  C   UNL A   1      43.149  26.808  29.951  1.00  0.00     0.074 A 
ATOM     54  C   UNL A   1      42.644  29.946  35.438  1.00  0.00     0.029 A 
ATOM     55  N   UNL A   1      42.336  29.156  33.382  1.00  0.00    -0.354 N 
ATOM     56  N   UNL A   1      42.932  27.455  31.071  1.00  0.00    -0.248 NA
ATOM     57  C   UNL A   1      44.364  25.980  29.963  1.00  0.00     0.031 C 
ATOM     58  C   UNL A   1      43.634  28.992  35.177  1.00  0.00     0.029 A 
ATOM     59  C   UNL A   1      43.439  28.497  33.897  1.00  0.00     0.049 A 
ATOM     60  H   UNL A   1      41.958  29.008  32.485  1.00  0.00     0.167 HD
ATOM     61  C   UNL A   1      43.962  27.089  31.928  1.00  0.00     0.074 A 
ATOM     62  C   UNL A   1      44.789  26.142  31.208  1.00  0.00     0.031 C 
ATOM     63  C   UNL A   1      44.216  27.514  33.190  1.00  0.00     0.034 A 
BRANCH  50  64
ATOM     64  C   UNL A   1      40.341  31.875  35.203  1.00  0.00     0.023 A 
ATOM     65  C   UNL A   1      41.016  33.109  35.286  1.00  0.00     0.012 A 
ATOM     66  C   UNL A   1      39.287  31.599  36.095  1.00  0.00     0.148 A 
ATOM     67  C   UNL A   1      40.666  34.046  36.257  1.00  0.00     0.002 A 
ATOM     68  C   UNL A   1      38.918  32.554  37.035  1.00  0.00     0.091 A 
ATOM     69  F   UNL A   1      38.674  30.410  36.013  1.00  0.00    -0.205 F 
ATOM     70  C   UNL A   1      39.610  33.773  37.123  1.00  0.00     0.022 A 
BRANCH  68  71
ATOM     71  S   UNL A   1      37.525  32.332  38.149  1.00  0.00     0.127 S 
ATOM     72  O   UNL A   1      38.018  32.975  39.367  1.00  0.00    -0.237 OA
ATOM     73  O   UNL A   1      36.462  33.065  37.461  1.00  0.00    -0.237 OA
ATOM     74  O   UNL A   1      37.311  30.895  38.243  1.00  0.00    -0.744 OA
ENDBRANCH  68  71
ENDBRANCH  50  64
BRANCH  51  75
ATOM     75  C   UNL A   1      42.713  25.933  27.538  1.00  0.00     0.023 A 
ATOM     76  C   UNL A   1      43.570  26.465  26.555  1.00  0.00     0.012 A 
ATOM     77  C   UNL A   1      42.264  24.605  27.408  1.00  0.00     0.148 A 
ATOM     78  C   UNL A   1      43.943  25.703  25.446  1.00  0.00     0.002 A 
ATOM     79  C   UNL A   1      42.684  23.833  26.330  1.00  0.00     0.091 A 
ATOM     80  F   UNL A   1      41.435  24.118  28.342  1.00  0.00    -0.205 F 
ATOM     81  C   UNL A   1      43.510  24.385  25.339  1.00  0.00     0.022 A 
BRANCH  79  82
ATOM     82  S   UNL A   1      42.280  22.088  26.196  1.00  0.00     0.127 S 
ATOM     83  O   UNL A   1      42.716  21.579  27.494  1.00  0.00    -0.237 OA
ATOM     84  O   UNL A   1      40.829  22.120  26.002  1.00  0.00    -0.237 OA
ATOM     85  O   UNL A   1      43.023  21.611  25.037  1.00  0.00    -0.744 OA
ENDBRANCH  79  82
ENDBRANCH  51  75
BRANCH  63  86
ATOM     86  C   UNL A   1      45.423  26.948  33.889  1.00  0.00     0.023 A 
ATOM     87  C   UNL A   1      45.294  25.770  34.651  1.00  0.00     0.012 A 
ATOM     88  C   UNL A   1      46.694  27.531  33.725  1.00  0.00     0.148 A 
ATOM     89  C   UNL A   1      46.407  25.196  35.262  1.00  0.00     0.002 A 
ATOM     90  C   UNL A   1      47.806  26.930  34.300  1.00  0.00     0.091 A 
ATOM     91  F   UNL A   1      46.791  28.664  33.013  1.00  0.00    -0.205 F 
ATOM     92  C   UNL A   1      47.663  25.768  35.077  1.00  0.00     0.022 A 
BRANCH  90  93
ATOM     93  S   UNL A   1      49.473  27.544  34.036  1.00  0.00     0.127 S 
ATOM     94  O   UNL A   1      49.426  28.835  34.719  1.00  0.00    -0.237 OA
ATOM     95  O   UNL A   1      50.291  26.531  34.703  1.00  0.00    -0.237 OA
ATOM     96  O   UNL A   1      49.651  27.604  32.590  1.00  0.00    -0.744 OA
ENDBRANCH  90  93
ENDBRANCH  63  86
ENDBRANCH  37  38
ENDBRANCH  29  32
ENDBRANCH  27  28
ENDBRANCH   1  27
TORSDOF 17
ENDMDL
