MODEL 1
REMARK VINA RESULT:     -12.0      0.000      0.000
REMARK SMILES COc1c(N)cc(-c2ccccc2)cc1C(=O)NCCCCNC(=O)c1ccc(-c2c3nc(c(-c4cccc(S(=O)(=O)[O-])c4F)c4ccc([nH]4)c(-c4cccc(S(=O)(=O)[O-])c4F)c4nc(c(-c5cccc(S(=O)(=O)[O-])c5F)c5ccc2[nH]5)C=C4)C=C3)cc1
REMARK SMILES IDX 21 1 20 2 19 3 18 4 16 5 17 6 15 8 3 9 4 10 6 11 14 12 7 13
REMARK SMILES IDX 2 14 1 15 5 16 8 19 9 20 13 21 10 22 12 23 11 24 22 25 23 26
REMARK SMILES IDX 24 27 25 29 26 30 27 31 88 32 28 33 87 34 29 35 30 36 31 37
REMARK SMILES IDX 81 38 32 39 86 40 80 41 82 42 33 43 85 44 79 45 78 46 34 48
REMARK SMILES IDX 66 49 46 50 65 51 47 52 50 53 64 54 83 55 48 56 49 57 63 59
REMARK SMILES IDX 84 60 51 61 35 62 36 63 44 64 37 65 39 66 45 67 38 68 40 69
REMARK SMILES IDX 41 70 42 71 43 72 67 73 68 74 76 75 69 76 71 77 77 78 70 79
REMARK SMILES IDX 72 80 73 81 74 82 75 83 52 84 53 85 61 86 54 87 56 88 62 89
REMARK SMILES IDX 55 90 57 91 58 92 59 93 60 94
REMARK H PARENT 18 7 5 17 5 18 23 28 82 47 50 58
REMARK Flexibility Score: inf
ROOT
ATOM      1  C   UNL A   1      32.101  31.232  26.658  1.00  0.00     0.023 C 
ENDROOT
BRANCH   1   2
ATOM      2  C   UNL A   1      32.061  29.758  27.051  1.00  0.00     0.023 C 
BRANCH   2   3
ATOM      3  C   UNL A   1      33.423  29.060  27.104  1.00  0.00     0.116 C 
BRANCH   3   4
ATOM      4  N   UNL A   1      33.981  29.007  25.773  1.00  0.00    -0.352 N 
ATOM      5  C   UNL A   1      33.506  28.522  24.585  1.00  0.00     0.255 C 
ATOM      6  O   UNL A   1      34.329  28.474  23.665  1.00  0.00    -0.269 OA
ATOM      7  H   UNL A   1      34.882  29.397  25.708  1.00  0.00     0.163 HD
BRANCH   5   8
ATOM      8  C   UNL A   1      32.089  28.142  24.279  1.00  0.00     0.084 A 
ATOM      9  C   UNL A   1      31.457  26.891  24.347  1.00  0.00     0.154 A 
ATOM     10  C   UNL A   1      30.063  26.771  24.122  1.00  0.00     0.076 A 
ATOM     11  C   UNL A   1      29.360  27.853  23.595  1.00  0.00     0.038 A 
ATOM     12  C   UNL A   1      31.320  29.224  23.790  1.00  0.00     0.026 A 
ATOM     13  C   UNL A   1      29.978  29.091  23.402  1.00  0.00    -0.015 A 
BRANCH   9  14
ATOM     14  O   UNL A   1      32.129  25.734  24.648  1.00  0.00    -0.494 OA
ATOM     15  C   UNL A   1      32.786  25.209  23.487  1.00  0.00     0.278 C 
ENDBRANCH   9  14
BRANCH  10  16
ATOM     16  N   UNL A   1      29.413  25.541  24.263  1.00  0.00    -0.396 N 
ATOM     17  H   UNL A   1      29.704  24.906  24.957  1.00  0.00     0.156 HD
ATOM     18  H   UNL A   1      28.663  25.309  23.668  1.00  0.00     0.156 HD
ENDBRANCH  10  16
BRANCH  13  19
ATOM     19  C   UNL A   1      29.251  30.212  22.790  1.00  0.00    -0.018 A 
ATOM     20  C   UNL A   1      28.682  30.094  21.513  1.00  0.00     0.009 A 
ATOM     21  C   UNL A   1      29.130  31.440  23.461  1.00  0.00     0.009 A 
ATOM     22  C   UNL A   1      28.020  31.173  20.921  1.00  0.00     0.001 A 
ATOM     23  C   UNL A   1      28.471  32.520  22.869  1.00  0.00     0.001 A 
ATOM     24  C   UNL A   1      27.919  32.386  21.597  1.00  0.00     0.000 A 
ENDBRANCH  13  19
ENDBRANCH   5   8
ENDBRANCH   3   4
ENDBRANCH   2   3
ENDBRANCH   1   2
BRANCH   1  25
ATOM     25  C   UNL A   1      33.100  32.062  27.448  1.00  0.00     0.116 C 
BRANCH  25  26
ATOM     26  N   UNL A   1      32.702  33.457  27.609  1.00  0.00    -0.352 N 
ATOM     27  C   UNL A   1      33.215  34.389  28.478  1.00  0.00     0.251 C 
ATOM     28  H   UNL A   1      31.975  33.767  27.023  1.00  0.00     0.163 HD
ATOM     29  O   UNL A   1      32.722  35.511  28.554  1.00  0.00    -0.269 OA
BRANCH  27  30
ATOM     30  C   UNL A   1      34.336  33.998  29.352  1.00  0.00     0.039 A 
ATOM     31  C   UNL A   1      34.075  33.201  30.467  1.00  0.00     0.014 A 
ATOM     32  C   UNL A   1      35.645  34.347  29.012  1.00  0.00     0.014 A 
ATOM     33  C   UNL A   1      35.143  32.688  31.205  1.00  0.00     0.010 A 
ATOM     34  C   UNL A   1      36.705  33.766  29.695  1.00  0.00     0.010 A 
ATOM     35  C   UNL A   1      36.465  32.935  30.798  1.00  0.00    -0.014 A 
BRANCH  35  36
ATOM     36  C   UNL A   1      37.617  32.324  31.503  1.00  0.00     0.031 A 
ATOM     37  C   UNL A   1      38.380  31.203  30.858  1.00  0.00     0.074 A 
ATOM     38  C   UNL A   1      37.902  32.706  32.763  1.00  0.00     0.049 A 
ATOM     39  N   UNL A   1      39.375  30.502  31.335  1.00  0.00    -0.248 NA
ATOM     40  C   UNL A   1      37.944  30.787  29.514  1.00  0.00     0.031 C 
ATOM     41  C   UNL A   1      37.169  33.717  33.529  1.00  0.00     0.029 A 
ATOM     42  N   UNL A   1      38.871  32.272  33.630  1.00  0.00    -0.354 N 
ATOM     43  C   UNL A   1      39.654  29.541  30.373  1.00  0.00     0.074 A 
ATOM     44  C   UNL A   1      38.698  29.719  29.304  1.00  0.00     0.031 C 
ATOM     45  C   UNL A   1      37.726  33.836  34.745  1.00  0.00     0.029 A 
ATOM     46  C   UNL A   1      38.837  32.898  34.854  1.00  0.00     0.049 A 
ATOM     47  H   UNL A   1      39.529  31.576  33.398  1.00  0.00     0.167 HD
ATOM     48  C   UNL A   1      40.642  28.614  30.362  1.00  0.00     0.034 A 
ATOM     49  C   UNL A   1      39.622  32.738  35.937  1.00  0.00     0.034 A 
ATOM     50  C   UNL A   1      41.629  28.487  31.398  1.00  0.00     0.049 A 
ATOM     51  C   UNL A   1      40.757  31.752  35.875  1.00  0.00     0.074 A 
ATOM     52  C   UNL A   1      42.739  27.663  31.434  1.00  0.00     0.029 A 
ATOM     53  N   UNL A   1      41.623  29.206  32.584  1.00  0.00    -0.354 N 
ATOM     54  N   UNL A   1      41.118  30.972  34.884  1.00  0.00    -0.248 NA
ATOM     55  C   UNL A   1      41.616  31.651  37.063  1.00  0.00     0.031 C 
ATOM     56  C   UNL A   1      43.401  27.879  32.648  1.00  0.00     0.029 A 
ATOM     57  C   UNL A   1      42.708  28.843  33.363  1.00  0.00     0.049 A 
ATOM     58  H   UNL A   1      40.947  29.876  32.835  1.00  0.00     0.167 HD
ATOM     59  C   UNL A   1      42.262  30.313  35.314  1.00  0.00     0.074 A 
ATOM     60  C   UNL A   1      42.545  30.798  36.650  1.00  0.00     0.031 C 
ATOM     61  C   UNL A   1      43.003  29.378  34.669  1.00  0.00     0.034 A 
BRANCH  48  62
ATOM     62  C   UNL A   1      40.736  27.720  29.154  1.00  0.00     0.023 A 
ATOM     63  C   UNL A   1      39.934  26.563  29.087  1.00  0.00     0.012 A 
ATOM     64  C   UNL A   1      41.598  28.026  28.084  1.00  0.00     0.148 A 
ATOM     65  C   UNL A   1      40.018  25.700  27.997  1.00  0.00     0.002 A 
ATOM     66  C   UNL A   1      41.645  27.182  26.978  1.00  0.00     0.091 A 
ATOM     67  F   UNL A   1      42.377  29.114  28.174  1.00  0.00    -0.205 F 
ATOM     68  C   UNL A   1      40.867  26.013  26.938  1.00  0.00     0.022 A 
BRANCH  66  69
ATOM     69  S   UNL A   1      42.655  27.550  25.540  1.00  0.00     0.127 S 
ATOM     70  O   UNL A   1      43.994  27.603  26.122  1.00  0.00    -0.237 OA
ATOM     71  O   UNL A   1      42.412  26.390  24.680  1.00  0.00    -0.237 OA
ATOM     72  O   UNL A   1      42.142  28.806  25.010  1.00  0.00    -0.744 OA
ENDBRANCH  66  69
ENDBRANCH  48  62
BRANCH  49  73
ATOM     73  C   UNL A   1      39.426  33.614  37.125  1.00  0.00     0.023 A 
ATOM     74  C   UNL A   1      39.883  34.945  37.073  1.00  0.00     0.012 A 
ATOM     75  C   UNL A   1      38.746  33.166  38.274  1.00  0.00     0.148 A 
ATOM     76  C   UNL A   1      39.686  35.810  38.149  1.00  0.00     0.002 A 
ATOM     77  C   UNL A   1      38.511  34.047  39.325  1.00  0.00     0.091 A 
ATOM     78  F   UNL A   1      38.325  31.894  38.307  1.00  0.00    -0.205 F 
ATOM     79  C   UNL A   1      38.992  35.364  39.270  1.00  0.00     0.022 A 
BRANCH  77  80
ATOM     80  S   UNL A   1      37.519  33.604  40.757  1.00  0.00     0.127 S 
ATOM     81  O   UNL A   1      37.413  34.883  41.453  1.00  0.00    -0.237 OA
ATOM     82  O   UNL A   1      36.281  33.136  40.132  1.00  0.00    -0.237 OA
ATOM     83  O   UNL A   1      38.270  32.567  41.451  1.00  0.00    -0.744 OA
ENDBRANCH  77  80
ENDBRANCH  49  73
BRANCH  61  84
ATOM     84  C   UNL A   1      44.208  28.828  35.385  1.00  0.00     0.023 A 
ATOM     85  C   UNL A   1      45.473  29.406  35.160  1.00  0.00     0.012 A 
ATOM     86  C   UNL A   1      44.075  27.800  36.337  1.00  0.00     0.148 A 
ATOM     87  C   UNL A   1      46.591  28.952  35.857  1.00  0.00     0.002 A 
ATOM     88  C   UNL A   1      45.186  27.382  37.060  1.00  0.00     0.091 A 
ATOM     89  F   UNL A   1      42.867  27.246  36.519  1.00  0.00    -0.205 F 
ATOM     90  C   UNL A   1      46.447  27.951  36.814  1.00  0.00     0.022 A 
BRANCH  88  91
ATOM     91  S   UNL A   1      45.070  26.165  38.375  1.00  0.00     0.127 S 
ATOM     92  O   UNL A   1      46.453  26.098  38.844  1.00  0.00    -0.237 OA
ATOM     93  O   UNL A   1      44.139  26.799  39.310  1.00  0.00    -0.237 OA
ATOM     94  O   UNL A   1      44.558  24.953  37.750  1.00  0.00    -0.744 OA
ENDBRANCH  88  91
ENDBRANCH  61  84
ENDBRANCH  35  36
ENDBRANCH  27  30
ENDBRANCH  25  26
ENDBRANCH   1  25
TORSDOF 17
ENDMDL
MODEL 2
REMARK VINA RESULT:     -11.9      6.425     12.387
REMARK SMILES COc1c(N)cc(-c2ccccc2)cc1C(=O)NCCCCNC(=O)c1ccc(-c2c3nc(c(-c4cccc(S(=O)(=O)[O-])c4F)c4ccc([nH]4)c(-c4cccc(S(=O)(=O)[O-])c4F)c4nc(c(-c5cccc(S(=O)(=O)[O-])c5F)c5ccc2[nH]5)C=C4)C=C3)cc1
REMARK SMILES IDX 21 1 20 2 19 3 18 4 16 5 17 6 15 8 3 9 4 10 6 11 14 12 7 13
REMARK SMILES IDX 2 14 1 15 5 16 8 19 9 20 13 21 10 22 12 23 11 24 22 25 23 26
REMARK SMILES IDX 24 27 25 29 26 30 27 31 88 32 28 33 87 34 29 35 30 36 31 37
REMARK SMILES IDX 81 38 32 39 86 40 80 41 82 42 33 43 85 44 79 45 78 46 34 48
REMARK SMILES IDX 66 49 46 50 65 51 47 52 50 53 64 54 83 55 48 56 49 57 63 59
REMARK SMILES IDX 84 60 51 61 35 62 36 63 44 64 37 65 39 66 45 67 38 68 40 69
REMARK SMILES IDX 41 70 42 71 43 72 67 73 68 74 76 75 69 76 71 77 77 78 70 79
REMARK SMILES IDX 72 80 73 81 74 82 75 83 52 84 53 85 61 86 54 87 56 88 62 89
REMARK SMILES IDX 55 90 57 91 58 92 59 93 60 94
REMARK H PARENT 18 7 5 17 5 18 23 28 82 47 50 58
REMARK Flexibility Score: inf
ROOT
ATOM      1  C   UNL A   1      37.811  20.703  25.366  1.00  0.00     0.023 C 
ENDROOT
BRANCH   1   2
ATOM      2  C   UNL A   1      37.324  21.846  24.482  1.00  0.00     0.023 C 
BRANCH   2   3
ATOM      3  C   UNL A   1      37.154  23.193  25.190  1.00  0.00     0.116 C 
BRANCH   3   4
ATOM      4  N   UNL A   1      36.312  23.016  26.350  1.00  0.00    -0.352 N 
ATOM      5  C   UNL A   1      34.994  22.684  26.499  1.00  0.00     0.255 C 
ATOM      6  O   UNL A   1      34.543  22.799  27.644  1.00  0.00    -0.269 OA
ATOM      7  H   UNL A   1      36.780  23.164  27.203  1.00  0.00     0.163 HD
BRANCH   5   8
ATOM      8  C   UNL A   1      34.091  22.117  25.445  1.00  0.00     0.084 A 
ATOM      9  C   UNL A   1      33.212  22.768  24.566  1.00  0.00     0.154 A 
ATOM     10  C   UNL A   1      32.529  22.045  23.557  1.00  0.00     0.076 A 
ATOM     11  C   UNL A   1      32.542  20.652  23.587  1.00  0.00     0.038 A 
ATOM     12  C   UNL A   1      34.111  20.704  25.403  1.00  0.00     0.026 A 
ATOM     13  C   UNL A   1      33.316  19.957  24.520  1.00  0.00    -0.015 A 
BRANCH   9  14
ATOM     14  O   UNL A   1      32.976  24.119  24.615  1.00  0.00    -0.494 OA
ATOM     15  C   UNL A   1      34.001  24.842  23.921  1.00  0.00     0.278 C 
ENDBRANCH   9  14
BRANCH  10  16
ATOM     16  N   UNL A   1      31.711  22.698  22.630  1.00  0.00    -0.396 N 
ATOM     17  H   UNL A   1      31.949  23.597  22.309  1.00  0.00     0.156 HD
ATOM     18  H   UNL A   1      30.895  22.257  22.296  1.00  0.00     0.156 HD
ENDBRANCH  10  16
BRANCH  13  19
ATOM     19  C   UNL A   1      33.280  18.489  24.588  1.00  0.00    -0.018 A 
ATOM     20  C   UNL A   1      32.589  17.829  25.616  1.00  0.00     0.009 A 
ATOM     21  C   UNL A   1      33.961  17.710  23.638  1.00  0.00     0.009 A 
ATOM     22  C   UNL A   1      32.584  16.434  25.697  1.00  0.00     0.001 A 
ATOM     23  C   UNL A   1      33.960  16.315  23.720  1.00  0.00     0.001 A 
ATOM     24  C   UNL A   1      33.274  15.679  24.751  1.00  0.00     0.000 A 
ENDBRANCH  13  19
ENDBRANCH   5   8
ENDBRANCH   3   4
ENDBRANCH   2   3
ENDBRANCH   1   2
BRANCH   1  25
ATOM     25  C   UNL A   1      39.195  20.917  25.959  1.00  0.00     0.116 C 
BRANCH  25  26
ATOM     26  N   UNL A   1      40.029  19.720  25.940  1.00  0.00    -0.352 N 
ATOM     27  C   UNL A   1      41.390  19.633  26.105  1.00  0.00     0.251 C 
ATOM     28  H   UNL A   1      39.558  18.869  25.789  1.00  0.00     0.163 HD
ATOM     29  O   UNL A   1      41.968  18.557  25.985  1.00  0.00    -0.269 OA
BRANCH  27  30
ATOM     30  C   UNL A   1      42.148  20.869  26.379  1.00  0.00     0.039 A 
ATOM     31  C   UNL A   1      42.508  21.690  25.309  1.00  0.00     0.014 A 
ATOM     32  C   UNL A   1      42.417  21.249  27.695  1.00  0.00     0.014 A 
ATOM     33  C   UNL A   1      43.076  22.938  25.568  1.00  0.00     0.010 A 
ATOM     34  C   UNL A   1      42.902  22.525  27.951  1.00  0.00     0.010 A 
ATOM     35  C   UNL A   1      43.239  23.379  26.891  1.00  0.00    -0.014 A 
BRANCH  35  36
ATOM     36  C   UNL A   1      43.748  24.737  27.196  1.00  0.00     0.031 A 
ATOM     37  C   UNL A   1      42.811  25.788  27.719  1.00  0.00     0.074 A 
ATOM     38  C   UNL A   1      45.024  25.049  26.899  1.00  0.00     0.049 A 
ATOM     39  N   UNL A   1      43.050  27.044  27.989  1.00  0.00    -0.248 NA
ATOM     40  C   UNL A   1      41.410  25.385  27.931  1.00  0.00     0.031 C 
ATOM     41  C   UNL A   1      46.002  24.139  26.297  1.00  0.00     0.029 A 
ATOM     42  N   UNL A   1      45.712  26.227  27.041  1.00  0.00    -0.354 N 
ATOM     43  C   UNL A   1      41.828  27.589  28.358  1.00  0.00     0.074 A 
ATOM     44  C   UNL A   1      40.841  26.540  28.240  1.00  0.00     0.031 C 
ATOM     45  C   UNL A   1      47.166  24.787  26.138  1.00  0.00     0.029 A 
ATOM     46  C   UNL A   1      47.014  26.161  26.603  1.00  0.00     0.049 A 
ATOM     47  H   UNL A   1      45.311  27.042  27.421  1.00  0.00     0.167 HD
ATOM     48  C   UNL A   1      41.556  28.842  28.796  1.00  0.00     0.034 A 
ATOM     49  C   UNL A   1      47.978  27.103  26.589  1.00  0.00     0.034 A 
ATOM     50  C   UNL A   1      42.554  29.860  28.974  1.00  0.00     0.049 A 
ATOM     51  C   UNL A   1      47.671  28.467  27.145  1.00  0.00     0.074 A 
ATOM     52  C   UNL A   1      42.409  31.123  29.518  1.00  0.00     0.029 A 
ATOM     53  N   UNL A   1      43.886  29.729  28.611  1.00  0.00    -0.354 N 
ATOM     54  N   UNL A   1      46.549  28.914  27.659  1.00  0.00    -0.248 NA
ATOM     55  C   UNL A   1      48.768  29.443  27.155  1.00  0.00     0.031 C 
ATOM     56  C   UNL A   1      43.655  31.760  29.476  1.00  0.00     0.029 A 
ATOM     57  C   UNL A   1      44.576  30.890  28.915  1.00  0.00     0.049 A 
ATOM     58  H   UNL A   1      44.283  28.928  28.199  1.00  0.00     0.167 HD
ATOM     59  C   UNL A   1      46.814  30.210  28.084  1.00  0.00     0.074 A 
ATOM     60  C   UNL A   1      48.208  30.470  27.783  1.00  0.00     0.031 C 
ATOM     61  C   UNL A   1      45.977  31.110  28.657  1.00  0.00     0.034 A 
BRANCH  48  62
ATOM     62  C   UNL A   1      40.132  29.146  29.175  1.00  0.00     0.023 A 
ATOM     63  C   UNL A   1      39.207  29.495  28.168  1.00  0.00     0.012 A 
ATOM     64  C   UNL A   1      39.699  29.074  30.513  1.00  0.00     0.148 A 
ATOM     65  C   UNL A   1      37.889  29.810  28.490  1.00  0.00     0.002 A 
ATOM     66  C   UNL A   1      38.371  29.348  30.821  1.00  0.00     0.091 A 
ATOM     67  F   UNL A   1      40.595  28.771  31.463  1.00  0.00    -0.205 F 
ATOM     68  C   UNL A   1      37.468  29.728  29.814  1.00  0.00     0.022 A 
BRANCH  66  69
ATOM     69  S   UNL A   1      37.727  29.195  32.491  1.00  0.00     0.127 S 
ATOM     70  O   UNL A   1      38.628  30.071  33.238  1.00  0.00    -0.237 OA
ATOM     71  O   UNL A   1      36.362  29.705  32.350  1.00  0.00    -0.237 OA
ATOM     72  O   UNL A   1      37.807  27.777  32.814  1.00  0.00    -0.744 OA
ENDBRANCH  66  69
ENDBRANCH  48  62
BRANCH  49  73
ATOM     73  C   UNL A   1      49.350  26.747  26.134  1.00  0.00     0.023 A 
ATOM     74  C   UNL A   1      50.144  25.917  26.951  1.00  0.00     0.012 A 
ATOM     75  C   UNL A   1      49.852  27.167  24.888  1.00  0.00     0.148 A 
ATOM     76  C   UNL A   1      51.421  25.529  26.545  1.00  0.00     0.002 A 
ATOM     77  C   UNL A   1      51.106  26.737  24.468  1.00  0.00     0.091 A 
ATOM     78  F   UNL A   1      49.083  27.960  24.129  1.00  0.00    -0.205 F 
ATOM     79  C   UNL A   1      51.898  25.930  25.301  1.00  0.00     0.022 A 
BRANCH  77  80
ATOM     80  S   UNL A   1      51.756  27.096  22.831  1.00  0.00     0.127 S 
ATOM     81  O   UNL A   1      52.916  26.211  22.770  1.00  0.00    -0.237 OA
ATOM     82  O   UNL A   1      50.638  26.708  21.971  1.00  0.00    -0.237 OA
ATOM     83  O   UNL A   1      52.049  28.523  22.829  1.00  0.00    -0.744 OA
ENDBRANCH  77  80
ENDBRANCH  49  73
BRANCH  61  84
ATOM     84  C   UNL A   1      46.543  32.457  29.018  1.00  0.00     0.023 A 
ATOM     85  C   UNL A   1      47.245  32.613  30.230  1.00  0.00     0.012 A 
ATOM     86  C   UNL A   1      46.454  33.542  28.125  1.00  0.00     0.148 A 
ATOM     87  C   UNL A   1      47.828  33.835  30.558  1.00  0.00     0.002 A 
ATOM     88  C   UNL A   1      47.076  34.744  28.437  1.00  0.00     0.091 A 
ATOM     89  F   UNL A   1      45.762  33.380  26.987  1.00  0.00    -0.205 F 
ATOM     90  C   UNL A   1      47.755  34.895  29.657  1.00  0.00     0.022 A 
BRANCH  88  91
ATOM     91  S   UNL A   1      47.110  36.129  27.294  1.00  0.00     0.127 S 
ATOM     92  O   UNL A   1      47.948  37.089  28.011  1.00  0.00    -0.237 OA
ATOM     93  O   UNL A   1      47.735  35.542  26.107  1.00  0.00    -0.237 OA
ATOM     94  O   UNL A   1      45.720  36.522  27.107  1.00  0.00    -0.744 OA
ENDBRANCH  88  91
ENDBRANCH  61  84
ENDBRANCH  35  36
ENDBRANCH  27  30
ENDBRANCH  25  26
ENDBRANCH   1  25
TORSDOF 17
ENDMDL
MODEL 3
REMARK VINA RESULT:     -11.8      6.177      9.338
REMARK SMILES COc1c(N)cc(-c2ccccc2)cc1C(=O)NCCCCNC(=O)c1ccc(-c2c3nc(c(-c4cccc(S(=O)(=O)[O-])c4F)c4ccc([nH]4)c(-c4cccc(S(=O)(=O)[O-])c4F)c4nc(c(-c5cccc(S(=O)(=O)[O-])c5F)c5ccc2[nH]5)C=C4)C=C3)cc1
REMARK SMILES IDX 21 1 20 2 19 3 18 4 16 5 17 6 15 8 3 9 4 10 6 11 14 12 7 13
REMARK SMILES IDX 2 14 1 15 5 16 8 19 9 20 13 21 10 22 12 23 11 24 22 25 23 26
REMARK SMILES IDX 24 27 25 29 26 30 27 31 88 32 28 33 87 34 29 35 30 36 31 37
REMARK SMILES IDX 81 38 32 39 86 40 80 41 82 42 33 43 85 44 79 45 78 46 34 48
REMARK SMILES IDX 66 49 46 50 65 51 47 52 50 53 64 54 83 55 48 56 49 57 63 59
REMARK SMILES IDX 84 60 51 61 35 62 36 63 44 64 37 65 39 66 45 67 38 68 40 69
REMARK SMILES IDX 41 70 42 71 43 72 67 73 68 74 76 75 69 76 71 77 77 78 70 79
REMARK SMILES IDX 72 80 73 81 74 82 75 83 52 84 53 85 61 86 54 87 56 88 62 89
REMARK SMILES IDX 55 90 57 91 58 92 59 93 60 94
REMARK H PARENT 18 7 5 17 5 18 23 28 82 47 50 58
REMARK Flexibility Score: inf
ROOT
ATOM      1  C   UNL A   1      36.398  21.907  24.272  1.00  0.00     0.023 C 
ENDROOT
BRANCH   1   2
ATOM      2  C   UNL A   1      36.171  23.091  23.337  1.00  0.00     0.023 C 
BRANCH   2   3
ATOM      3  C   UNL A   1      35.563  24.333  23.993  1.00  0.00     0.116 C 
BRANCH   3   4
ATOM      4  N   UNL A   1      34.427  24.772  23.216  1.00  0.00    -0.352 N 
ATOM      5  C   UNL A   1      33.164  24.271  23.054  1.00  0.00     0.255 C 
ATOM      6  O   UNL A   1      32.493  24.803  22.162  1.00  0.00    -0.269 OA
ATOM      7  H   UNL A   1      34.594  25.594  22.702  1.00  0.00     0.163 HD
BRANCH   5   8
ATOM      8  C   UNL A   1      32.501  23.227  23.900  1.00  0.00     0.084 A 
ATOM      9  C   UNL A   1      31.601  23.370  24.967  1.00  0.00     0.154 A 
ATOM     10  C   UNL A   1      30.998  22.234  25.563  1.00  0.00     0.076 A 
ATOM     11  C   UNL A   1      31.479  20.963  25.252  1.00  0.00     0.038 A 
ATOM     12  C   UNL A   1      32.919  21.913  23.584  1.00  0.00     0.026 A 
ATOM     13  C   UNL A   1      32.459  20.781  24.273  1.00  0.00    -0.015 A 
BRANCH   9  14
ATOM     14  O   UNL A   1      31.242  24.590  25.480  1.00  0.00    -0.494 OA
ATOM     15  C   UNL A   1      32.293  25.134  26.289  1.00  0.00     0.278 C 
ENDBRANCH   9  14
BRANCH  10  16
ATOM     16  N   UNL A   1      30.043  22.372  26.575  1.00  0.00    -0.396 N 
ATOM     17  H   UNL A   1      29.168  21.931  26.490  1.00  0.00     0.156 HD
ATOM     18  H   UNL A   1      30.248  22.910  27.375  1.00  0.00     0.156 HD
ENDBRANCH  10  16
BRANCH  13  19
ATOM     19  C   UNL A   1      33.006  19.446  23.992  1.00  0.00    -0.018 A 
ATOM     20  C   UNL A   1      34.156  18.982  24.648  1.00  0.00     0.009 A 
ATOM     21  C   UNL A   1      32.405  18.612  23.034  1.00  0.00     0.009 A 
ATOM     22  C   UNL A   1      34.693  17.727  24.354  1.00  0.00     0.001 A 
ATOM     23  C   UNL A   1      32.942  17.357  22.737  1.00  0.00     0.001 A 
ATOM     24  C   UNL A   1      34.088  16.917  23.394  1.00  0.00     0.000 A 
ENDBRANCH  13  19
ENDBRANCH   5   8
ENDBRANCH   3   4
ENDBRANCH   2   3
ENDBRANCH   1   2
BRANCH   1  25
ATOM     25  C   UNL A   1      37.282  22.217  25.469  1.00  0.00     0.116 C 
BRANCH  25  26
ATOM     26  N   UNL A   1      38.298  21.201  25.722  1.00  0.00    -0.352 N 
ATOM     27  C   UNL A   1      39.519  21.357  26.332  1.00  0.00     0.251 C 
ATOM     28  H   UNL A   1      38.082  20.290  25.417  1.00  0.00     0.163 HD
ATOM     29  O   UNL A   1      40.307  20.419  26.405  1.00  0.00    -0.269 OA
BRANCH  27  30
ATOM     30  C   UNL A   1      39.883  22.689  26.852  1.00  0.00     0.039 A 
ATOM     31  C   UNL A   1      40.823  22.778  27.879  1.00  0.00     0.014 A 
ATOM     32  C   UNL A   1      39.360  23.840  26.259  1.00  0.00     0.014 A 
ATOM     33  C   UNL A   1      41.298  24.033  28.263  1.00  0.00     0.010 A 
ATOM     34  C   UNL A   1      39.896  25.079  26.583  1.00  0.00     0.010 A 
ATOM     35  C   UNL A   1      40.866  25.187  27.590  1.00  0.00    -0.014 A 
BRANCH  35  36
ATOM     36  C   UNL A   1      41.424  26.523  27.909  1.00  0.00     0.031 A 
ATOM     37  C   UNL A   1      42.830  26.863  27.503  1.00  0.00     0.074 A 
ATOM     38  C   UNL A   1      40.705  27.381  28.657  1.00  0.00     0.049 A 
ATOM     39  N   UNL A   1      43.516  27.950  27.740  1.00  0.00    -0.248 NA
ATOM     40  C   UNL A   1      43.579  25.831  26.765  1.00  0.00     0.031 C 
ATOM     41  C   UNL A   1      39.366  27.123  29.191  1.00  0.00     0.029 A 
ATOM     42  N   UNL A   1      41.009  28.637  29.117  1.00  0.00    -0.354 N 
ATOM     43  C   UNL A   1      44.783  27.717  27.223  1.00  0.00     0.074 A 
ATOM     44  C   UNL A   1      44.786  26.371  26.694  1.00  0.00     0.031 C 
ATOM     45  C   UNL A   1      38.958  28.193  29.891  1.00  0.00     0.029 A 
ATOM     46  C   UNL A   1      40.011  29.203  29.875  1.00  0.00     0.049 A 
ATOM     47  H   UNL A   1      41.861  29.090  28.921  1.00  0.00     0.167 HD
ATOM     48  C   UNL A   1      45.840  28.560  27.157  1.00  0.00     0.034 A 
ATOM     49  C   UNL A   1      39.951  30.405  30.480  1.00  0.00     0.034 A 
ATOM     50  C   UNL A   1      45.809  29.918  27.624  1.00  0.00     0.049 A 
ATOM     51  C   UNL A   1      41.111  31.352  30.333  1.00  0.00     0.074 A 
ATOM     52  C   UNL A   1      46.782  30.894  27.504  1.00  0.00     0.029 A 
ATOM     53  N   UNL A   1      44.745  30.493  28.303  1.00  0.00    -0.354 N 
ATOM     54  N   UNL A   1      42.238  31.181  29.684  1.00  0.00    -0.248 NA
ATOM     55  C   UNL A   1      40.978  32.670  30.969  1.00  0.00     0.031 C 
ATOM     56  C   UNL A   1      46.308  32.059  28.118  1.00  0.00     0.029 A 
ATOM     57  C   UNL A   1      45.037  31.810  28.613  1.00  0.00     0.049 A 
ATOM     58  H   UNL A   1      43.905  30.032  28.531  1.00  0.00     0.167 HD
ATOM     59  C   UNL A   1      42.934  32.378  29.803  1.00  0.00     0.074 A 
ATOM     60  C   UNL A   1      42.092  33.273  30.573  1.00  0.00     0.031 C 
ATOM     61  C   UNL A   1      44.163  32.702  29.333  1.00  0.00     0.034 A 
BRANCH  48  62
ATOM     62  C   UNL A   1      47.090  28.049  26.492  1.00  0.00     0.023 A 
ATOM     63  C   UNL A   1      48.138  27.540  27.287  1.00  0.00     0.012 A 
ATOM     64  C   UNL A   1      47.228  28.055  25.091  1.00  0.00     0.148 A 
ATOM     65  C   UNL A   1      49.319  27.086  26.704  1.00  0.00     0.002 A 
ATOM     66  C   UNL A   1      48.393  27.560  24.513  1.00  0.00     0.091 A 
ATOM     67  F   UNL A   1      46.237  28.569  24.348  1.00  0.00    -0.205 F 
ATOM     68  C   UNL A   1      49.444  27.088  25.317  1.00  0.00     0.022 A 
BRANCH  66  69
ATOM     69  S   UNL A   1      48.606  27.457  22.733  1.00  0.00     0.127 S 
ATOM     70  O   UNL A   1      47.459  28.223  22.251  1.00  0.00    -0.237 OA
ATOM     71  O   UNL A   1      49.901  28.111  22.533  1.00  0.00    -0.237 OA
ATOM     72  O   UNL A   1      48.599  26.035  22.418  1.00  0.00    -0.744 OA
ENDBRANCH  66  69
ENDBRANCH  48  62
BRANCH  49  73
ATOM     73  C   UNL A   1      38.703  30.817  31.181  1.00  0.00     0.023 A 
ATOM     74  C   UNL A   1      38.616  30.641  32.575  1.00  0.00     0.012 A 
ATOM     75  C   UNL A   1      37.636  31.429  30.497  1.00  0.00     0.148 A 
ATOM     76  C   UNL A   1      37.480  31.047  33.276  1.00  0.00     0.002 A 
ATOM     77  C   UNL A   1      36.527  31.876  31.208  1.00  0.00     0.091 A 
ATOM     78  F   UNL A   1      37.736  31.582  29.169  1.00  0.00    -0.205 F 
ATOM     79  C   UNL A   1      36.441  31.674  32.594  1.00  0.00     0.022 A 
BRANCH  77  80
ATOM     80  S   UNL A   1      35.194  32.805  30.439  1.00  0.00     0.127 S 
ATOM     81  O   UNL A   1      35.897  33.991  29.956  1.00  0.00    -0.237 OA
ATOM     82  O   UNL A   1      34.748  31.884  29.394  1.00  0.00    -0.237 OA
ATOM     83  O   UNL A   1      34.216  33.036  31.494  1.00  0.00    -0.744 OA
ENDBRANCH  77  80
ENDBRANCH  49  73
BRANCH  61  84
ATOM     84  C   UNL A   1      44.673  34.091  29.615  1.00  0.00     0.023 A 
ATOM     85  C   UNL A   1      45.317  34.359  30.839  1.00  0.00     0.012 A 
ATOM     86  C   UNL A   1      44.589  35.103  28.639  1.00  0.00     0.148 A 
ATOM     87  C   UNL A   1      45.848  35.621  31.096  1.00  0.00     0.002 A 
ATOM     88  C   UNL A   1      45.160  36.345  28.884  1.00  0.00     0.091 A 
ATOM     89  F   UNL A   1      43.951  34.834  27.489  1.00  0.00    -0.205 F 
ATOM     90  C   UNL A   1      45.782  36.609  30.116  1.00  0.00     0.022 A 
BRANCH  88  91
ATOM     91  S   UNL A   1      45.202  37.641  27.642  1.00  0.00     0.127 S 
ATOM     92  O   UNL A   1      43.781  37.820  27.348  1.00  0.00    -0.237 OA
ATOM     93  O   UNL A   1      45.819  38.753  28.367  1.00  0.00    -0.237 OA
ATOM     94  O   UNL A   1      46.010  37.117  26.549  1.00  0.00    -0.744 OA
ENDBRANCH  88  91
ENDBRANCH  61  84
ENDBRANCH  35  36
ENDBRANCH  27  30
ENDBRANCH  25  26
ENDBRANCH   1  25
TORSDOF 17
ENDMDL
