MODEL 1
REMARK VINA RESULT:     -12.7      0.000      0.000
REMARK SMILES O=C(NCCCCNC(=O)[C@@H](CO)NC(=O)c1ccc2noc(-c3ccccc3)c2c1)c1ccc(-c2c3nc(c(-c4cccc(S(=O)(=O)[O-])c4F)c4ccc([nH]4)c(-c4cccc(S(=O)(=O)[O-])c4F)c4nc(c(-c5cccc(S(=O)(=O)[O-])c5F)c5ccc2[nH]5)C=C4)C=C3)cc1
REMARK SMILES IDX 5 1 4 2 3 3 1 4 2 5 32 7 33 8 94 9 34 10 93 11 35 12 36 13
REMARK SMILES IDX 37 14 87 15 38 16 92 17 86 18 88 19 39 20 91 21 85 22 84 23
REMARK SMILES IDX 40 25 72 26 52 27 71 28 53 29 56 30 70 31 89 32 54 33 55 34
REMARK SMILES IDX 69 36 90 37 57 38 41 39 42 40 50 41 43 42 45 43 51 44 44 45
REMARK SMILES IDX 46 46 47 47 48 48 49 49 73 50 74 51 82 52 75 53 77 54 83 55
REMARK SMILES IDX 76 56 78 57 79 58 80 59 81 60 58 61 59 62 67 63 60 64 62 65
REMARK SMILES IDX 68 66 61 67 63 68 64 69 65 70 66 71 6 72 7 73 8 74 9 75
REMARK SMILES IDX 10 77 11 78 12 79 13 80 14 82 15 83 16 85 17 86 18 87 31 88
REMARK SMILES IDX 19 89 30 90 20 91 23 92 21 93 22 94 24 95 25 96 29 97 26 98
REMARK SMILES IDX 28 99 27 100
REMARK H PARENT 3 6 88 24 56 35 8 76 13 81 14 84
REMARK Flexibility Score: inf
ROOT
ATOM      1  C   UNL A   1      37.682  20.608  25.001  1.00  0.00     0.023 C 
ENDROOT
BRANCH   1   2
ATOM      2  C   UNL A   1      39.012  20.903  25.668  1.00  0.00     0.116 C 
BRANCH   2   3
ATOM      3  N   UNL A   1      39.909  19.738  25.729  1.00  0.00    -0.352 N 
ATOM      4  O   UNL A   1      41.984  18.801  25.532  1.00  0.00    -0.269 OA
ATOM      5  C   UNL A   1      41.295  19.746  25.861  1.00  0.00     0.251 C 
ATOM      6  H   UNL A   1      39.481  18.854  25.670  1.00  0.00     0.163 HD
BRANCH   5   7
ATOM      7  C   UNL A   1      41.887  20.950  26.470  1.00  0.00     0.039 A 
ATOM      8  C   UNL A   1      42.336  22.047  25.734  1.00  0.00     0.014 A 
ATOM      9  C   UNL A   1      41.803  20.993  27.853  1.00  0.00     0.014 A 
ATOM     10  C   UNL A   1      42.602  23.228  26.425  1.00  0.00     0.010 A 
ATOM     11  C   UNL A   1      41.768  22.212  28.457  1.00  0.00     0.010 A 
ATOM     12  C   UNL A   1      42.277  23.312  27.791  1.00  0.00    -0.014 A 
BRANCH  12  13
ATOM     13  C   UNL A   1      42.350  24.556  28.548  1.00  0.00     0.031 A 
ATOM     14  C   UNL A   1      41.179  25.442  28.345  1.00  0.00     0.074 A 
ATOM     15  C   UNL A   1      43.317  24.808  29.463  1.00  0.00     0.049 A 
ATOM     16  N   UNL A   1      41.132  26.468  27.561  1.00  0.00    -0.248 NA
ATOM     17  C   UNL A   1      39.868  25.045  28.883  1.00  0.00     0.031 C 
ATOM     18  C   UNL A   1      44.384  23.918  29.955  1.00  0.00     0.029 A 
ATOM     19  N   UNL A   1      43.489  25.905  30.246  1.00  0.00    -0.354 N 
ATOM     20  C   UNL A   1      39.876  27.019  27.758  1.00  0.00     0.074 A 
ATOM     21  C   UNL A   1      39.074  25.991  28.369  1.00  0.00     0.031 C 
ATOM     22  C   UNL A   1      44.898  24.402  31.107  1.00  0.00     0.029 A 
ATOM     23  C   UNL A   1      44.362  25.728  31.319  1.00  0.00     0.049 A 
ATOM     24  H   UNL A   1      43.032  26.759  30.070  1.00  0.00     0.167 HD
ATOM     25  C   UNL A   1      39.698  28.368  27.697  1.00  0.00     0.034 A 
ATOM     26  C   UNL A   1      44.624  26.620  32.306  1.00  0.00     0.034 A 
ATOM     27  C   UNL A   1      40.847  29.028  27.131  1.00  0.00     0.049 A 
ATOM     28  C   UNL A   1      44.288  27.948  31.748  1.00  0.00     0.074 A 
ATOM     29  C   UNL A   1      41.539  28.929  25.940  1.00  0.00     0.029 A 
ATOM     30  N   UNL A   1      41.706  29.619  28.027  1.00  0.00    -0.354 N 
ATOM     31  N   UNL A   1      44.935  28.490  30.755  1.00  0.00    -0.248 NA
ATOM     32  C   UNL A   1      42.956  28.469  31.999  1.00  0.00     0.031 C 
ATOM     33  C   UNL A   1      42.913  29.033  26.306  1.00  0.00     0.029 A 
ATOM     34  C   UNL A   1      42.985  29.278  27.678  1.00  0.00     0.049 A 
ATOM     35  H   UNL A   1      41.446  30.190  28.787  1.00  0.00     0.167 HD
ATOM     36  C   UNL A   1      43.935  29.056  29.977  1.00  0.00     0.074 A 
ATOM     37  C   UNL A   1      42.759  29.111  30.845  1.00  0.00     0.031 C 
ATOM     38  C   UNL A   1      44.072  29.144  28.623  1.00  0.00     0.034 A 
BRANCH  25  39
ATOM     39  C   UNL A   1      38.695  29.122  28.526  1.00  0.00     0.023 A 
ATOM     40  C   UNL A   1      37.932  30.122  27.888  1.00  0.00     0.012 A 
ATOM     41  C   UNL A   1      38.666  29.086  29.938  1.00  0.00     0.148 A 
ATOM     42  C   UNL A   1      37.184  31.046  28.624  1.00  0.00     0.002 A 
ATOM     43  C   UNL A   1      37.861  29.954  30.661  1.00  0.00     0.091 A 
ATOM     44  F   UNL A   1      39.530  28.309  30.600  1.00  0.00    -0.205 F 
ATOM     45  C   UNL A   1      37.134  30.952  30.010  1.00  0.00     0.022 A 
BRANCH  43  46
ATOM     46  S   UNL A   1      37.745  29.855  32.451  1.00  0.00     0.127 S 
ATOM     47  O   UNL A   1      36.719  30.855  32.730  1.00  0.00    -0.237 OA
ATOM     48  O   UNL A   1      37.332  28.465  32.645  1.00  0.00    -0.237 OA
ATOM     49  O   UNL A   1      39.085  30.153  32.942  1.00  0.00    -0.744 OA
ENDBRANCH  43  46
ENDBRANCH  25  39
BRANCH  26  50
ATOM     50  C   UNL A   1      44.881  26.434  33.755  1.00  0.00     0.023 A 
ATOM     51  C   UNL A   1      46.141  26.808  34.273  1.00  0.00     0.012 A 
ATOM     52  C   UNL A   1      43.824  26.238  34.668  1.00  0.00     0.148 A 
ATOM     53  C   UNL A   1      46.320  27.062  35.638  1.00  0.00     0.002 A 
ATOM     54  C   UNL A   1      44.009  26.494  36.026  1.00  0.00     0.091 A 
ATOM     55  F   UNL A   1      42.610  25.910  34.206  1.00  0.00    -0.205 F 
ATOM     56  C   UNL A   1      45.250  26.922  36.514  1.00  0.00     0.022 A 
BRANCH  54  57
ATOM     57  S   UNL A   1      42.640  26.360  37.180  1.00  0.00     0.127 S 
ATOM     58  O   UNL A   1      42.128  25.016  36.912  1.00  0.00    -0.237 OA
ATOM     59  O   UNL A   1      43.302  26.512  38.470  1.00  0.00    -0.237 OA
ATOM     60  O   UNL A   1      41.720  27.424  36.790  1.00  0.00    -0.744 OA
ENDBRANCH  54  57
ENDBRANCH  26  50
BRANCH  38  61
ATOM     61  C   UNL A   1      45.429  28.874  28.027  1.00  0.00     0.023 A 
ATOM     62  C   UNL A   1      46.480  29.815  28.057  1.00  0.00     0.012 A 
ATOM     63  C   UNL A   1      45.700  27.558  27.622  1.00  0.00     0.148 A 
ATOM     64  C   UNL A   1      47.779  29.442  27.697  1.00  0.00     0.002 A 
ATOM     65  C   UNL A   1      46.997  27.182  27.304  1.00  0.00     0.091 A 
ATOM     66  F   UNL A   1      44.684  26.683  27.612  1.00  0.00    -0.205 F 
ATOM     67  C   UNL A   1      48.041  28.120  27.338  1.00  0.00     0.022 A 
BRANCH  65  68
ATOM     68  S   UNL A   1      47.418  25.478  26.938  1.00  0.00     0.127 S 
ATOM     69  O   UNL A   1      47.106  24.809  28.200  1.00  0.00    -0.237 OA
ATOM     70  O   UNL A   1      46.507  25.164  25.836  1.00  0.00    -0.237 OA
ATOM     71  O   UNL A   1      48.828  25.475  26.570  1.00  0.00    -0.744 OA
ENDBRANCH  65  68
ENDBRANCH  38  61
ENDBRANCH  12  13
ENDBRANCH   5   7
ENDBRANCH   2   3
ENDBRANCH   1   2
BRANCH   1  72
ATOM     72  C   UNL A   1      37.052  21.803  24.273  1.00  0.00     0.023 C 
BRANCH  72  73
ATOM     73  C   UNL A   1      35.987  22.615  25.031  1.00  0.00     0.116 C 
BRANCH  73  74
ATOM     74  N   UNL A   1      35.562  21.960  26.251  1.00  0.00    -0.354 N 
ATOM     75  C   UNL A   1      34.325  21.717  26.763  1.00  0.00     0.244 C 
ATOM     76  H   UNL A   1      36.302  21.632  26.811  1.00  0.00     0.163 HD
ATOM     77  O   UNL A   1      34.268  21.572  27.991  1.00  0.00    -0.273 OA
BRANCH  75  78
ATOM     78  C   UNL A   1      33.017  21.821  25.958  1.00  0.00     0.197 C 
BRANCH  78  79
ATOM     79  C   UNL A   1      32.878  20.618  25.007  1.00  0.00     0.191 C 
BRANCH  79  80
ATOM     80  O   UNL A   1      31.956  19.625  25.444  1.00  0.00    -0.394 OA
ATOM     81  H   UNL A   1      31.620  19.137  24.677  1.00  0.00     0.210 HD
ENDBRANCH  79  80
ENDBRANCH  78  79
BRANCH  78  82
ATOM     82  N   UNL A   1      31.790  22.107  26.715  1.00  0.00    -0.338 N 
ATOM     83  C   UNL A   1      30.934  23.180  26.590  1.00  0.00     0.252 C 
ATOM     84  H   UNL A   1      31.549  21.446  27.403  1.00  0.00     0.164 HD
ATOM     85  O   UNL A   1      29.990  23.316  27.362  1.00  0.00    -0.269 OA
BRANCH  83  86
ATOM     86  C   UNL A   1      31.137  24.174  25.505  1.00  0.00     0.040 A 
ATOM     87  C   UNL A   1      30.709  23.841  24.177  1.00  0.00     0.016 A 
ATOM     88  C   UNL A   1      31.718  25.414  25.847  1.00  0.00     0.028 A 
ATOM     89  C   UNL A   1      30.943  24.650  23.045  1.00  0.00     0.033 A 
ATOM     90  C   UNL A   1      31.887  26.216  24.716  1.00  0.00     0.050 A 
ATOM     91  C   UNL A   1      31.543  25.880  23.355  1.00  0.00     0.114 A 
ATOM     92  C   UNL A   1      32.321  27.514  24.676  1.00  0.00     0.174 A 
ATOM     93  N   UNL A   1      31.848  26.908  22.547  1.00  0.00    -0.079 NA
ATOM     94  O   UNL A   1      32.318  27.919  23.369  1.00  0.00    -0.355 OA
BRANCH  92  95
ATOM     95  C   UNL A   1      32.685  28.530  25.644  1.00  0.00     0.021 A 
ATOM     96  C   UNL A   1      33.869  28.396  26.387  1.00  0.00     0.012 A 
ATOM     97  C   UNL A   1      31.904  29.673  25.821  1.00  0.00     0.012 A 
ATOM     98  C   UNL A   1      34.270  29.394  27.277  1.00  0.00     0.001 A 
ATOM     99  C   UNL A   1      32.305  30.668  26.715  1.00  0.00     0.001 A 
ATOM    100  C   UNL A   1      33.486  30.532  27.439  1.00  0.00     0.000 A 
ENDBRANCH  92  95
ENDBRANCH  83  86
ENDBRANCH  78  82
ENDBRANCH  75  78
ENDBRANCH  73  74
ENDBRANCH  72  73
ENDBRANCH   1  72
TORSDOF 19
ENDMDL
MODEL 2
REMARK VINA RESULT:     -12.4      2.543      7.951
REMARK SMILES O=C(NCCCCNC(=O)[C@@H](CO)NC(=O)c1ccc2noc(-c3ccccc3)c2c1)c1ccc(-c2c3nc(c(-c4cccc(S(=O)(=O)[O-])c4F)c4ccc([nH]4)c(-c4cccc(S(=O)(=O)[O-])c4F)c4nc(c(-c5cccc(S(=O)(=O)[O-])c5F)c5ccc2[nH]5)C=C4)C=C3)cc1
REMARK SMILES IDX 5 1 4 2 3 3 1 4 2 5 32 7 33 8 94 9 34 10 93 11 35 12 36 13
REMARK SMILES IDX 37 14 87 15 38 16 92 17 86 18 88 19 39 20 91 21 85 22 84 23
REMARK SMILES IDX 40 25 72 26 52 27 71 28 53 29 56 30 70 31 89 32 54 33 55 34
REMARK SMILES IDX 69 36 90 37 57 38 41 39 42 40 50 41 43 42 45 43 51 44 44 45
REMARK SMILES IDX 46 46 47 47 48 48 49 49 73 50 74 51 82 52 75 53 77 54 83 55
REMARK SMILES IDX 76 56 78 57 79 58 80 59 81 60 58 61 59 62 67 63 60 64 62 65
REMARK SMILES IDX 68 66 61 67 63 68 64 69 65 70 66 71 6 72 7 73 8 74 9 75
REMARK SMILES IDX 10 77 11 78 12 79 13 80 14 82 15 83 16 85 17 86 18 87 31 88
REMARK SMILES IDX 19 89 30 90 20 91 23 92 21 93 22 94 24 95 25 96 29 97 26 98
REMARK SMILES IDX 28 99 27 100
REMARK H PARENT 3 6 88 24 56 35 8 76 13 81 14 84
REMARK Flexibility Score: inf
ROOT
ATOM      1  C   UNL A   1      33.285  30.470  27.390  1.00  0.00     0.023 C 
ENDROOT
BRANCH   1   2
ATOM      2  C   UNL A   1      34.521  31.306  27.663  1.00  0.00     0.116 C 
BRANCH   2   3
ATOM      3  N   UNL A   1      34.512  31.951  28.985  1.00  0.00    -0.352 N 
ATOM      4  O   UNL A   1      35.001  31.940  31.217  1.00  0.00    -0.269 OA
ATOM      5  C   UNL A   1      35.311  31.638  30.082  1.00  0.00     0.251 C 
ATOM      6  H   UNL A   1      33.869  32.686  29.108  1.00  0.00     0.163 HD
BRANCH   5   7
ATOM      7  C   UNL A   1      36.586  30.960  29.791  1.00  0.00     0.039 A 
ATOM      8  C   UNL A   1      37.772  31.637  29.505  1.00  0.00     0.014 A 
ATOM      9  C   UNL A   1      36.567  29.590  30.000  1.00  0.00     0.014 A 
ATOM     10  C   UNL A   1      38.960  30.907  29.535  1.00  0.00     0.010 A 
ATOM     11  C   UNL A   1      37.737  28.974  30.325  1.00  0.00     0.010 A 
ATOM     12  C   UNL A   1      38.935  29.575  29.986  1.00  0.00    -0.014 A 
BRANCH  12  13
ATOM     13  C   UNL A   1      40.145  28.796  30.223  1.00  0.00     0.031 A 
ATOM     14  C   UNL A   1      40.612  28.842  31.629  1.00  0.00     0.074 A 
ATOM     15  C   UNL A   1      40.698  27.988  29.287  1.00  0.00     0.049 A 
ATOM     16  N   UNL A   1      41.563  29.586  32.087  1.00  0.00    -0.248 NA
ATOM     17  C   UNL A   1      39.825  28.172  32.677  1.00  0.00     0.031 C 
ATOM     18  C   UNL A   1      40.196  27.643  27.944  1.00  0.00     0.029 A 
ATOM     19  N   UNL A   1      41.800  27.198  29.381  1.00  0.00    -0.354 N 
ATOM     20  C   UNL A   1      41.690  29.235  33.422  1.00  0.00     0.074 A 
ATOM     21  C   UNL A   1      40.466  28.567  33.782  1.00  0.00     0.031 C 
ATOM     22  C   UNL A   1      40.828  26.543  27.480  1.00  0.00     0.029 A 
ATOM     23  C   UNL A   1      41.918  26.235  28.379  1.00  0.00     0.049 A 
ATOM     24  H   UNL A   1      42.463  27.298  30.102  1.00  0.00     0.167 HD
ATOM     25  C   UNL A   1      42.912  29.237  34.022  1.00  0.00     0.034 A 
ATOM     26  C   UNL A   1      42.856  25.258  28.301  1.00  0.00     0.034 A 
ATOM     27  C   UNL A   1      43.897  29.909  33.214  1.00  0.00     0.049 A 
ATOM     28  C   UNL A   1      44.004  25.738  29.101  1.00  0.00     0.074 A 
ATOM     29  C   UNL A   1      44.012  31.173  32.667  1.00  0.00     0.029 A 
ATOM     30  N   UNL A   1      44.738  29.099  32.488  1.00  0.00    -0.354 N 
ATOM     31  N   UNL A   1      44.714  26.781  28.777  1.00  0.00    -0.248 NA
ATOM     32  C   UNL A   1      44.077  25.325  30.492  1.00  0.00     0.031 C 
ATOM     33  C   UNL A   1      44.549  30.960  31.364  1.00  0.00     0.029 A 
ATOM     34  C   UNL A   1      44.816  29.598  31.216  1.00  0.00     0.049 A 
ATOM     35  H   UNL A   1      45.204  28.299  32.826  1.00  0.00     0.167 HD
ATOM     36  C   UNL A   1      44.927  27.426  29.987  1.00  0.00     0.074 A 
ATOM     37  C   UNL A   1      44.615  26.432  31.012  1.00  0.00     0.031 C 
ATOM     38  C   UNL A   1      45.042  28.784  30.042  1.00  0.00     0.034 A 
BRANCH  25  39
ATOM     39  C   UNL A   1      43.316  28.280  35.110  1.00  0.00     0.023 A 
ATOM     40  C   UNL A   1      43.890  28.819  36.280  1.00  0.00     0.012 A 
ATOM     41  C   UNL A   1      43.414  26.883  34.922  1.00  0.00     0.148 A 
ATOM     42  C   UNL A   1      44.537  28.003  37.214  1.00  0.00     0.002 A 
ATOM     43  C   UNL A   1      43.987  26.069  35.888  1.00  0.00     0.091 A 
ATOM     44  F   UNL A   1      43.087  26.348  33.742  1.00  0.00    -0.205 F 
ATOM     45  C   UNL A   1      44.571  26.626  37.027  1.00  0.00     0.022 A 
BRANCH  43  46
ATOM     46  S   UNL A   1      44.033  24.283  35.703  1.00  0.00     0.127 S 
ATOM     47  O   UNL A   1      44.870  24.137  34.516  1.00  0.00    -0.237 OA
ATOM     48  O   UNL A   1      44.655  23.870  36.960  1.00  0.00    -0.237 OA
ATOM     49  O   UNL A   1      42.641  23.873  35.562  1.00  0.00    -0.744 OA
ENDBRANCH  43  46
ENDBRANCH  25  39
BRANCH  26  50
ATOM     50  C   UNL A   1      42.773  23.854  27.834  1.00  0.00     0.023 A 
ATOM     51  C   UNL A   1      41.566  23.146  28.023  1.00  0.00     0.012 A 
ATOM     52  C   UNL A   1      43.707  23.330  26.915  1.00  0.00     0.148 A 
ATOM     53  C   UNL A   1      41.261  22.009  27.265  1.00  0.00     0.002 A 
ATOM     54  C   UNL A   1      43.397  22.199  26.162  1.00  0.00     0.091 A 
ATOM     55  F   UNL A   1      44.850  23.993  26.692  1.00  0.00    -0.205 F 
ATOM     56  C   UNL A   1      42.168  21.545  26.320  1.00  0.00     0.022 A 
BRANCH  54  57
ATOM     57  S   UNL A   1      44.529  21.592  24.907  1.00  0.00     0.127 S 
ATOM     58  O   UNL A   1      45.827  21.692  25.575  1.00  0.00    -0.237 OA
ATOM     59  O   UNL A   1      44.058  20.229  24.693  1.00  0.00    -0.237 OA
ATOM     60  O   UNL A   1      44.374  22.519  23.789  1.00  0.00    -0.744 OA
ENDBRANCH  54  57
ENDBRANCH  26  50
BRANCH  38  61
ATOM     61  C   UNL A   1      45.211  29.535  28.746  1.00  0.00     0.023 A 
ATOM     62  C   UNL A   1      44.121  29.934  27.944  1.00  0.00     0.012 A 
ATOM     63  C   UNL A   1      46.492  30.029  28.455  1.00  0.00     0.148 A 
ATOM     64  C   UNL A   1      44.310  30.819  26.876  1.00  0.00     0.002 A 
ATOM     65  C   UNL A   1      46.669  30.935  27.420  1.00  0.00     0.091 A 
ATOM     66  F   UNL A   1      47.508  29.639  29.240  1.00  0.00    -0.205 F 
ATOM     67  C   UNL A   1      45.582  31.333  26.626  1.00  0.00     0.022 A 
BRANCH  65  68
ATOM     68  S   UNL A   1      48.255  31.713  27.114  1.00  0.00     0.127 S 
ATOM     69  O   UNL A   1      49.060  30.589  26.639  1.00  0.00    -0.237 OA
ATOM     70  O   UNL A   1      47.921  32.704  26.090  1.00  0.00    -0.237 OA
ATOM     71  O   UNL A   1      48.682  32.284  28.385  1.00  0.00    -0.744 OA
ENDBRANCH  65  68
ENDBRANCH  38  61
ENDBRANCH  12  13
ENDBRANCH   5   7
ENDBRANCH   2   3
ENDBRANCH   1   2
BRANCH   1  72
ATOM     72  C   UNL A   1      33.543  28.962  27.274  1.00  0.00     0.023 C 
BRANCH  72  73
ATOM     73  C   UNL A   1      33.145  28.272  25.957  1.00  0.00     0.116 C 
BRANCH  73  74
ATOM     74  N   UNL A   1      33.813  28.850  24.810  1.00  0.00    -0.354 N 
ATOM     75  C   UNL A   1      33.656  28.646  23.474  1.00  0.00     0.244 C 
ATOM     76  H   UNL A   1      34.507  29.511  25.038  1.00  0.00     0.163 HD
ATOM     77  O   UNL A   1      34.640  28.906  22.768  1.00  0.00    -0.273 OA
BRANCH  75  78
ATOM     78  C   UNL A   1      32.446  27.934  22.841  1.00  0.00     0.197 C 
BRANCH  78  79
ATOM     79  C   UNL A   1      31.237  28.886  22.786  1.00  0.00     0.191 C 
BRANCH  79  80
ATOM     80  O   UNL A   1      31.233  29.768  21.668  1.00  0.00    -0.394 OA
ATOM     81  H   UNL A   1      30.987  29.276  20.869  1.00  0.00     0.210 HD
ENDBRANCH  79  80
ENDBRANCH  78  79
BRANCH  78  82
ATOM     82  N   UNL A   1      32.680  27.217  21.580  1.00  0.00    -0.338 N 
ATOM     83  C   UNL A   1      32.779  25.859  21.369  1.00  0.00     0.252 C 
ATOM     84  H   UNL A   1      32.780  27.782  20.780  1.00  0.00     0.164 HD
ATOM     85  O   UNL A   1      33.062  25.421  20.258  1.00  0.00    -0.269 OA
BRANCH  83  86
ATOM     86  C   UNL A   1      32.525  24.911  22.484  1.00  0.00     0.040 A 
ATOM     87  C   UNL A   1      31.171  24.550  22.786  1.00  0.00     0.016 A 
ATOM     88  C   UNL A   1      33.642  24.389  23.172  1.00  0.00     0.028 A 
ATOM     89  C   UNL A   1      30.793  23.749  23.885  1.00  0.00     0.033 A 
ATOM     90  C   UNL A   1      33.240  23.557  24.219  1.00  0.00     0.050 A 
ATOM     91  C   UNL A   1      31.885  23.237  24.602  1.00  0.00     0.114 A 
ATOM     92  C   UNL A   1      34.040  22.798  25.031  1.00  0.00     0.174 A 
ATOM     93  N   UNL A   1      31.900  22.398  25.650  1.00  0.00    -0.079 NA
ATOM     94  O   UNL A   1      33.234  22.122  25.904  1.00  0.00    -0.355 OA
BRANCH  92  95
ATOM     95  C   UNL A   1      35.455  22.498  25.127  1.00  0.00     0.021 A 
ATOM     96  C   UNL A   1      36.344  23.466  25.621  1.00  0.00     0.012 A 
ATOM     97  C   UNL A   1      35.952  21.240  24.783  1.00  0.00     0.012 A 
ATOM     98  C   UNL A   1      37.700  23.175  25.781  1.00  0.00     0.001 A 
ATOM     99  C   UNL A   1      37.309  20.952  24.940  1.00  0.00     0.001 A 
ATOM    100  C   UNL A   1      38.182  21.915  25.441  1.00  0.00     0.000 A 
ENDBRANCH  92  95
ENDBRANCH  83  86
ENDBRANCH  78  82
ENDBRANCH  75  78
ENDBRANCH  73  74
ENDBRANCH  72  73
ENDBRANCH   1  72
TORSDOF 19
ENDMDL
MODEL 3
REMARK VINA RESULT:     -12.4      3.777      9.355
REMARK SMILES O=C(NCCCCNC(=O)[C@@H](CO)NC(=O)c1ccc2noc(-c3ccccc3)c2c1)c1ccc(-c2c3nc(c(-c4cccc(S(=O)(=O)[O-])c4F)c4ccc([nH]4)c(-c4cccc(S(=O)(=O)[O-])c4F)c4nc(c(-c5cccc(S(=O)(=O)[O-])c5F)c5ccc2[nH]5)C=C4)C=C3)cc1
REMARK SMILES IDX 5 1 4 2 3 3 1 4 2 5 32 7 33 8 94 9 34 10 93 11 35 12 36 13
REMARK SMILES IDX 37 14 87 15 38 16 92 17 86 18 88 19 39 20 91 21 85 22 84 23
REMARK SMILES IDX 40 25 72 26 52 27 71 28 53 29 56 30 70 31 89 32 54 33 55 34
REMARK SMILES IDX 69 36 90 37 57 38 41 39 42 40 50 41 43 42 45 43 51 44 44 45
REMARK SMILES IDX 46 46 47 47 48 48 49 49 73 50 74 51 82 52 75 53 77 54 83 55
REMARK SMILES IDX 76 56 78 57 79 58 80 59 81 60 58 61 59 62 67 63 60 64 62 65
REMARK SMILES IDX 68 66 61 67 63 68 64 69 65 70 66 71 6 72 7 73 8 74 9 75
REMARK SMILES IDX 10 77 11 78 12 79 13 80 14 82 15 83 16 85 17 86 18 87 31 88
REMARK SMILES IDX 19 89 30 90 20 91 23 92 21 93 22 94 24 95 25 96 29 97 26 98
REMARK SMILES IDX 28 99 27 100
REMARK H PARENT 3 6 88 24 56 35 8 76 13 81 14 84
REMARK Flexibility Score: inf
ROOT
ATOM      1  C   UNL A   1      31.904  31.401  26.569  1.00  0.00     0.023 C 
ENDROOT
BRANCH   1   2
ATOM      2  C   UNL A   1      32.989  32.166  27.303  1.00  0.00     0.116 C 
BRANCH   2   3
ATOM      3  N   UNL A   1      32.615  33.551  27.626  1.00  0.00    -0.352 N 
ATOM      4  O   UNL A   1      32.482  35.294  29.098  1.00  0.00    -0.269 OA
ATOM      5  C   UNL A   1      33.091  34.331  28.677  1.00  0.00     0.251 C 
ATOM      6  H   UNL A   1      31.953  33.974  27.032  1.00  0.00     0.163 HD
BRANCH   5   7
ATOM      7  C   UNL A   1      34.406  33.956  29.226  1.00  0.00     0.039 A 
ATOM      8  C   UNL A   1      34.574  33.073  30.292  1.00  0.00     0.014 A 
ATOM      9  C   UNL A   1      35.486  34.409  28.484  1.00  0.00     0.014 A 
ATOM     10  C   UNL A   1      35.856  32.577  30.529  1.00  0.00     0.010 A 
ATOM     11  C   UNL A   1      36.643  33.693  28.531  1.00  0.00     0.010 A 
ATOM     12  C   UNL A   1      36.883  32.867  29.613  1.00  0.00    -0.014 A 
BRANCH  12  13
ATOM     13  C   UNL A   1      38.201  32.246  29.680  1.00  0.00     0.031 A 
ATOM     14  C   UNL A   1      38.232  30.861  29.152  1.00  0.00     0.074 A 
ATOM     15  C   UNL A   1      39.318  32.922  30.045  1.00  0.00     0.049 A 
ATOM     16  N   UNL A   1      38.203  29.781  29.859  1.00  0.00    -0.248 NA
ATOM     17  C   UNL A   1      38.058  30.632  27.708  1.00  0.00     0.031 C 
ATOM     18  C   UNL A   1      39.480  34.358  30.338  1.00  0.00     0.029 A 
ATOM     19  N   UNL A   1      40.599  32.476  30.127  1.00  0.00    -0.354 N 
ATOM     20  C   UNL A   1      38.326  28.745  28.945  1.00  0.00     0.074 A 
ATOM     21  C   UNL A   1      37.986  29.298  27.659  1.00  0.00     0.031 C 
ATOM     22  C   UNL A   1      40.788  34.695  30.298  1.00  0.00     0.029 A 
ATOM     23  C   UNL A   1      41.564  33.480  30.197  1.00  0.00     0.049 A 
ATOM     24  H   UNL A   1      40.827  31.519  30.137  1.00  0.00     0.167 HD
ATOM     25  C   UNL A   1      39.004  27.612  29.276  1.00  0.00     0.034 A 
ATOM     26  C   UNL A   1      42.910  33.312  30.176  1.00  0.00     0.034 A 
ATOM     27  C   UNL A   1      39.263  27.544  30.692  1.00  0.00     0.049 A 
ATOM     28  C   UNL A   1      43.150  31.927  30.636  1.00  0.00     0.074 A 
ATOM     29  C   UNL A   1      38.478  27.567  31.828  1.00  0.00     0.029 A 
ATOM     30  N   UNL A   1      40.529  27.898  31.092  1.00  0.00    -0.354 N 
ATOM     31  N   UNL A   1      42.873  31.516  31.840  1.00  0.00    -0.248 NA
ATOM     32  C   UNL A   1      43.276  30.892  29.624  1.00  0.00     0.031 C 
ATOM     33  C   UNL A   1      39.197  28.380  32.752  1.00  0.00     0.029 A 
ATOM     34  C   UNL A   1      40.416  28.733  32.171  1.00  0.00     0.049 A 
ATOM     35  H   UNL A   1      41.371  27.602  30.676  1.00  0.00     0.167 HD
ATOM     36  C   UNL A   1      42.323  30.257  31.645  1.00  0.00     0.074 A 
ATOM     37  C   UNL A   1      42.701  29.882  30.283  1.00  0.00     0.031 C 
ATOM     38  C   UNL A   1      41.366  29.776  32.489  1.00  0.00     0.034 A 
BRANCH  25  39
ATOM     39  C   UNL A   1      39.801  26.793  28.297  1.00  0.00     0.023 A 
ATOM     40  C   UNL A   1      39.693  25.389  28.373  1.00  0.00     0.012 A 
ATOM     41  C   UNL A   1      40.845  27.322  27.506  1.00  0.00     0.148 A 
ATOM     42  C   UNL A   1      40.589  24.554  27.698  1.00  0.00     0.002 A 
ATOM     43  C   UNL A   1      41.682  26.492  26.776  1.00  0.00     0.091 A 
ATOM     44  F   UNL A   1      41.129  28.627  27.570  1.00  0.00    -0.205 F 
ATOM     45  C   UNL A   1      41.574  25.104  26.885  1.00  0.00     0.022 A 
BRANCH  43  46
ATOM     46  S   UNL A   1      42.952  27.157  25.694  1.00  0.00     0.127 S 
ATOM     47  O   UNL A   1      43.826  27.827  26.651  1.00  0.00    -0.237 OA
ATOM     48  O   UNL A   1      43.499  25.939  25.095  1.00  0.00    -0.237 OA
ATOM     49  O   UNL A   1      42.247  28.019  24.754  1.00  0.00    -0.744 OA
ENDBRANCH  43  46
ENDBRANCH  25  39
BRANCH  26  50
ATOM     50  C   UNL A   1      43.991  34.119  29.561  1.00  0.00     0.023 A 
ATOM     51  C   UNL A   1      44.910  34.780  30.406  1.00  0.00     0.012 A 
ATOM     52  C   UNL A   1      44.339  33.964  28.202  1.00  0.00     0.148 A 
ATOM     53  C   UNL A   1      46.163  35.194  29.939  1.00  0.00     0.002 A 
ATOM     54  C   UNL A   1      45.590  34.377  27.743  1.00  0.00     0.091 A 
ATOM     55  F   UNL A   1      43.502  33.318  27.380  1.00  0.00    -0.205 F 
ATOM     56  C   UNL A   1      46.511  34.976  28.611  1.00  0.00     0.022 A 
BRANCH  54  57
ATOM     57  S   UNL A   1      46.088  34.079  26.044  1.00  0.00     0.127 S 
ATOM     58  O   UNL A   1      46.154  32.618  25.984  1.00  0.00    -0.237 OA
ATOM     59  O   UNL A   1      44.989  34.669  25.289  1.00  0.00    -0.237 OA
ATOM     60  O   UNL A   1      47.388  34.729  25.920  1.00  0.00    -0.744 OA
ENDBRANCH  54  57
ENDBRANCH  26  50
BRANCH  38  61
ATOM     61  C   UNL A   1      41.125  30.510  33.782  1.00  0.00     0.023 A 
ATOM     62  C   UNL A   1      41.986  30.405  34.895  1.00  0.00     0.012 A 
ATOM     63  C   UNL A   1      40.121  31.491  33.784  1.00  0.00     0.148 A 
ATOM     64  C   UNL A   1      41.849  31.272  35.985  1.00  0.00     0.002 A 
ATOM     65  C   UNL A   1      40.014  32.373  34.848  1.00  0.00     0.091 A 
ATOM     66  F   UNL A   1      39.323  31.573  32.709  1.00  0.00    -0.205 F 
ATOM     67  C   UNL A   1      40.874  32.268  35.953  1.00  0.00     0.022 A 
BRANCH  65  68
ATOM     68  S   UNL A   1      38.853  33.740  34.821  1.00  0.00     0.127 S 
ATOM     69  O   UNL A   1      37.569  33.048  34.722  1.00  0.00    -0.237 OA
ATOM     70  O   UNL A   1      39.104  34.385  36.111  1.00  0.00    -0.237 OA
ATOM     71  O   UNL A   1      39.206  34.554  33.664  1.00  0.00    -0.744 OA
ENDBRANCH  65  68
ENDBRANCH  38  61
ENDBRANCH  12  13
ENDBRANCH   5   7
ENDBRANCH   2   3
ENDBRANCH   1   2
BRANCH   1  72
ATOM     72  C   UNL A   1      31.773  29.927  26.975  1.00  0.00     0.023 C 
BRANCH  72  73
ATOM     73  C   UNL A   1      31.944  28.869  25.870  1.00  0.00     0.116 C 
BRANCH  73  74
ATOM     74  N   UNL A   1      32.673  29.380  24.728  1.00  0.00    -0.354 N 
ATOM     75  C   UNL A   1      32.769  28.938  23.445  1.00  0.00     0.244 C 
ATOM     76  H   UNL A   1      33.193  30.195  24.913  1.00  0.00     0.163 HD
ATOM     77  O   UNL A   1      33.791  29.275  22.831  1.00  0.00    -0.273 OA
BRANCH  75  78
ATOM     78  C   UNL A   1      31.821  27.904  22.810  1.00  0.00     0.197 C 
BRANCH  78  79
ATOM     79  C   UNL A   1      30.418  28.511  22.624  1.00  0.00     0.191 C 
BRANCH  79  80
ATOM     80  O   UNL A   1      29.375  27.793  23.275  1.00  0.00    -0.394 OA
ATOM     81  H   UNL A   1      29.749  27.024  23.733  1.00  0.00     0.210 HD
ENDBRANCH  79  80
ENDBRANCH  78  79
BRANCH  78  82
ATOM     82  N   UNL A   1      32.309  27.194  21.619  1.00  0.00    -0.338 N 
ATOM     83  C   UNL A   1      32.654  25.866  21.491  1.00  0.00     0.252 C 
ATOM     84  H   UNL A   1      32.405  27.741  20.806  1.00  0.00     0.164 HD
ATOM     85  O   UNL A   1      33.128  25.444  20.441  1.00  0.00    -0.269 OA
BRANCH  83  86
ATOM     86  C   UNL A   1      32.435  24.927  22.621  1.00  0.00     0.040 A 
ATOM     87  C   UNL A   1      31.095  24.525  22.934  1.00  0.00     0.016 A 
ATOM     88  C   UNL A   1      33.571  24.453  23.313  1.00  0.00     0.028 A 
ATOM     89  C   UNL A   1      30.747  23.729  24.046  1.00  0.00     0.033 A 
ATOM     90  C   UNL A   1      33.200  23.623  24.373  1.00  0.00     0.050 A 
ATOM     91  C   UNL A   1      31.858  23.264  24.766  1.00  0.00     0.114 A 
ATOM     92  C   UNL A   1      34.028  22.904  25.194  1.00  0.00     0.174 A 
ATOM     93  N   UNL A   1      31.904  22.443  25.826  1.00  0.00    -0.079 NA
ATOM     94  O   UNL A   1      33.247  22.215  26.080  1.00  0.00    -0.355 OA
BRANCH  92  95
ATOM     95  C   UNL A   1      35.452  22.653  25.289  1.00  0.00     0.021 A 
ATOM     96  C   UNL A   1      36.312  23.664  25.748  1.00  0.00     0.012 A 
ATOM     97  C   UNL A   1      35.988  21.402  24.979  1.00  0.00     0.012 A 
ATOM     98  C   UNL A   1      37.678  23.421  25.907  1.00  0.00     0.001 A 
ATOM     99  C   UNL A   1      37.355  21.163  25.136  1.00  0.00     0.001 A 
ATOM    100  C   UNL A   1      38.198  22.167  25.602  1.00  0.00     0.000 A 
ENDBRANCH  92  95
ENDBRANCH  83  86
ENDBRANCH  78  82
ENDBRANCH  75  78
ENDBRANCH  73  74
ENDBRANCH  72  73
ENDBRANCH   1  72
TORSDOF 19
ENDMDL
