MODEL 1
REMARK VINA RESULT:     -12.1      0.000      0.000
REMARK SMILES O=C(Nc1c(F)cc(F)cc1F)N[C@H]1C=C[C@@H](C(=O)NCCCCNC(=O)c2ccc(-c3c4nc(c(-c5cccc(S(=O)(=O)[O-])c5F)c5ccc([nH]5)c(-c5cccc(S(=O)(=O)[O-])c5F)c5nc(c(-c6cccc(S(=O)(=O)[O-])c6F)c6ccc3[nH]6)C=C5)C=C4)cc2)C1
REMARK SMILES IDX 23 1 22 2 21 3 20 4 18 5 19 6 17 8 14 9 15 10 91 11 16 12
REMARK SMILES IDX 13 13 1 14 2 15 3 16 4 19 5 20 11 21 6 22 7 23 10 24 12 25
REMARK SMILES IDX 8 26 9 27 24 28 25 29 26 30 27 32 28 33 29 34 90 35 30 36
REMARK SMILES IDX 89 37 31 38 32 39 33 40 83 41 34 42 88 43 82 44 84 45 35 46
REMARK SMILES IDX 87 47 81 48 80 49 36 51 68 52 48 53 67 54 49 55 52 56 66 57
REMARK SMILES IDX 85 58 50 59 51 60 65 62 86 63 53 64 37 65 38 66 46 67 39 68
REMARK SMILES IDX 41 69 47 70 40 71 42 72 43 73 44 74 45 75 69 76 70 77 78 78
REMARK SMILES IDX 71 79 73 80 79 81 72 82 74 83 75 84 76 85 77 86 54 87 55 88
REMARK SMILES IDX 63 89 56 90 58 91 64 92 57 93 59 94 60 95 61 96 62 97
REMARK H PARENT 20 7 3 17 13 18 25 31 84 50 52 61
REMARK Flexibility Score: inf
ROOT
ATOM      1  C   UNL A   1      38.591  19.296  25.080  1.00  0.00     0.023 C 
ENDROOT
BRANCH   1   2
ATOM      2  C   UNL A   1      37.343  20.148  24.849  1.00  0.00     0.023 C 
BRANCH   2   3
ATOM      3  C   UNL A   1      37.557  21.652  24.990  1.00  0.00     0.116 C 
BRANCH   3   4
ATOM      4  N   UNL A   1      36.897  22.395  23.938  1.00  0.00    -0.356 N 
ATOM      5  C   UNL A   1      35.576  22.625  23.709  1.00  0.00     0.227 C 
ATOM      6  O   UNL A   1      35.289  23.349  22.751  1.00  0.00    -0.274 OA
ATOM      7  H   UNL A   1      37.506  22.802  23.281  1.00  0.00     0.163 HD
BRANCH   5   8
ATOM      8  C   UNL A   1      34.460  22.047  24.587  1.00  0.00     0.103 C 
ATOM      9  C   UNL A   1      32.343  22.839  25.566  1.00  0.00     0.107 C 
ATOM     10  C   UNL A   1      32.125  21.991  24.355  1.00  0.00    -0.006 C 
ATOM     11  C   UNL A   1      33.874  23.001  25.635  1.00  0.00     0.047 C 
ATOM     12  C   UNL A   1      33.270  21.564  23.815  1.00  0.00    -0.016 C 
BRANCH   9  13
ATOM     13  N   UNL A   1      31.677  24.102  25.359  1.00  0.00    -0.332 N 
ATOM     14  O   UNL A   1      30.434  24.009  27.252  1.00  0.00    -0.248 OA
ATOM     15  C   UNL A   1      30.813  24.626  26.258  1.00  0.00     0.319 C 
ATOM     16  N   UNL A   1      30.440  25.924  26.122  1.00  0.00    -0.303 N 
ATOM     17  H   UNL A   1      29.911  26.250  26.886  1.00  0.00     0.172 HD
ATOM     18  H   UNL A   1      31.859  24.602  24.532  1.00  0.00     0.165 HD
BRANCH  16  19
ATOM     19  C   UNL A   1      30.636  26.916  25.136  1.00  0.00     0.115 A 
ATOM     20  C   UNL A   1      31.641  27.888  25.117  1.00  0.00     0.152 A 
ATOM     21  C   UNL A   1      29.736  26.901  24.060  1.00  0.00     0.152 A 
ATOM     22  F   UNL A   1      32.572  27.943  26.079  1.00  0.00    -0.204 F 
ATOM     23  C   UNL A   1      31.730  28.820  24.084  1.00  0.00     0.081 A 
ATOM     24  C   UNL A   1      29.795  27.835  23.033  1.00  0.00     0.081 A 
ATOM     25  F   UNL A   1      28.766  25.972  24.026  1.00  0.00    -0.204 F 
ATOM     26  C   UNL A   1      30.800  28.788  23.055  1.00  0.00     0.129 A 
ATOM     27  F   UNL A   1      30.882  29.674  22.057  1.00  0.00    -0.207 F 
ENDBRANCH  16  19
ENDBRANCH   9  13
ENDBRANCH   5   8
ENDBRANCH   3   4
ENDBRANCH   2   3
ENDBRANCH   1   2
BRANCH   1  28
ATOM     28  C   UNL A   1      39.566  19.833  26.122  1.00  0.00     0.116 C 
BRANCH  28  29
ATOM     29  N   UNL A   1      40.873  19.192  26.073  1.00  0.00    -0.352 N 
ATOM     30  C   UNL A   1      42.113  19.758  26.250  1.00  0.00     0.251 C 
ATOM     31  H   UNL A   1      40.868  18.225  25.889  1.00  0.00     0.163 HD
ATOM     32  O   UNL A   1      43.126  19.077  26.116  1.00  0.00    -0.269 OA
BRANCH  30  33
ATOM     33  C   UNL A   1      42.209  21.191  26.586  1.00  0.00     0.039 A 
ATOM     34  C   UNL A   1      42.243  21.579  27.928  1.00  0.00     0.014 A 
ATOM     35  C   UNL A   1      42.308  22.141  25.567  1.00  0.00     0.014 A 
ATOM     36  C   UNL A   1      42.438  22.924  28.248  1.00  0.00     0.010 A 
ATOM     37  C   UNL A   1      42.576  23.466  25.890  1.00  0.00     0.010 A 
ATOM     38  C   UNL A   1      42.635  23.873  27.231  1.00  0.00    -0.014 A 
BRANCH  38  39
ATOM     39  C   UNL A   1      42.897  25.301  27.536  1.00  0.00     0.031 A 
ATOM     40  C   UNL A   1      44.294  25.848  27.416  1.00  0.00     0.074 A 
ATOM     41  C   UNL A   1      41.906  26.076  28.017  1.00  0.00     0.049 A 
ATOM     42  N   UNL A   1      44.743  27.039  27.712  1.00  0.00    -0.248 NA
ATOM     43  C   UNL A   1      45.327  24.919  26.929  1.00  0.00     0.031 C 
ATOM     44  C   UNL A   1      40.527  25.641  28.245  1.00  0.00     0.029 A 
ATOM     45  N   UNL A   1      41.914  27.386  28.427  1.00  0.00    -0.354 N 
ATOM     46  C   UNL A   1      46.114  26.992  27.487  1.00  0.00     0.074 A 
ATOM     47  C   UNL A   1      46.428  25.643  27.071  1.00  0.00     0.031 C 
ATOM     48  C   UNL A   1      39.819  26.669  28.740  1.00  0.00     0.029 A 
ATOM     49  C   UNL A   1      40.698  27.824  28.895  1.00  0.00     0.049 A 
ATOM     50  H   UNL A   1      42.715  27.957  28.389  1.00  0.00     0.167 HD
ATOM     51  C   UNL A   1      47.026  27.988  27.585  1.00  0.00     0.034 A 
ATOM     52  C   UNL A   1      40.333  29.022  29.391  1.00  0.00     0.034 A 
ATOM     53  C   UNL A   1      46.701  29.338  27.960  1.00  0.00     0.049 A 
ATOM     54  C   UNL A   1      41.357  30.123  29.467  1.00  0.00     0.074 A 
ATOM     55  C   UNL A   1      47.530  30.443  28.007  1.00  0.00     0.029 A 
ATOM     56  N   UNL A   1      45.443  29.764  28.359  1.00  0.00    -0.354 N 
ATOM     57  N   UNL A   1      42.618  30.103  29.107  1.00  0.00    -0.248 NA
ATOM     58  C   UNL A   1      40.900  31.419  29.986  1.00  0.00     0.031 C 
ATOM     59  C   UNL A   1      46.777  31.534  28.456  1.00  0.00     0.029 A 
ATOM     60  C   UNL A   1      45.473  31.114  28.664  1.00  0.00     0.049 A 
ATOM     61  H   UNL A   1      44.645  29.190  28.416  1.00  0.00     0.167 HD
ATOM     62  C   UNL A   1      43.095  31.392  29.317  1.00  0.00     0.074 A 
ATOM     63  C   UNL A   1      41.982  32.170  29.825  1.00  0.00     0.031 C 
ATOM     64  C   UNL A   1      44.344  31.884  29.120  1.00  0.00     0.034 A 
BRANCH  51  65
ATOM     65  C   UNL A   1      48.453  27.655  27.229  1.00  0.00     0.023 A 
ATOM     66  C   UNL A   1      49.339  27.222  28.237  1.00  0.00     0.012 A 
ATOM     67  C   UNL A   1      48.917  27.758  25.903  1.00  0.00     0.148 A 
ATOM     68  C   UNL A   1      50.675  26.952  27.946  1.00  0.00     0.002 A 
ATOM     69  C   UNL A   1      50.239  27.439  25.611  1.00  0.00     0.091 A 
ATOM     70  F   UNL A   1      48.072  28.192  24.958  1.00  0.00    -0.205 F 
ATOM     71  C   UNL A   1      51.122  27.051  26.632  1.00  0.00     0.022 A 
BRANCH  69  72
ATOM     72  S   UNL A   1      50.886  27.461  23.935  1.00  0.00     0.127 S 
ATOM     73  O   UNL A   1      49.850  26.729  23.209  1.00  0.00    -0.237 OA
ATOM     74  O   UNL A   1      50.939  28.894  23.641  1.00  0.00    -0.237 OA
ATOM     75  O   UNL A   1      52.187  26.813  24.006  1.00  0.00    -0.744 OA
ENDBRANCH  69  72
ENDBRANCH  51  65
BRANCH  52  76
ATOM     76  C   UNL A   1      38.911  29.268  29.762  1.00  0.00     0.023 A 
ATOM     77  C   UNL A   1      38.492  28.988  31.077  1.00  0.00     0.012 A 
ATOM     78  C   UNL A   1      37.991  29.822  28.851  1.00  0.00     0.148 A 
ATOM     79  C   UNL A   1      37.177  29.232  31.474  1.00  0.00     0.002 A 
ATOM     80  C   UNL A   1      36.696  30.112  29.267  1.00  0.00     0.091 A 
ATOM     81  F   UNL A   1      38.410  30.077  27.603  1.00  0.00    -0.205 F 
ATOM     82  C   UNL A   1      36.283  29.803  30.572  1.00  0.00     0.022 A 
BRANCH  80  83
ATOM     83  S   UNL A   1      35.509  30.963  28.221  1.00  0.00     0.127 S 
ATOM     84  O   UNL A   1      35.103  29.901  27.303  1.00  0.00    -0.237 OA
ATOM     85  O   UNL A   1      34.490  31.362  29.191  1.00  0.00    -0.237 OA
ATOM     86  O   UNL A   1      36.237  32.072  27.619  1.00  0.00    -0.744 OA
ENDBRANCH  80  83
ENDBRANCH  52  76
BRANCH  64  87
ATOM     87  C   UNL A   1      44.573  33.343  29.418  1.00  0.00     0.023 A 
ATOM     88  C   UNL A   1      45.044  33.735  30.687  1.00  0.00     0.012 A 
ATOM     89  C   UNL A   1      44.394  34.318  28.416  1.00  0.00     0.148 A 
ATOM     90  C   UNL A   1      45.306  35.077  30.962  1.00  0.00     0.002 A 
ATOM     91  C   UNL A   1      44.703  35.646  28.682  1.00  0.00     0.091 A 
ATOM     92  F   UNL A   1      43.926  33.928  27.221  1.00  0.00    -0.205 F 
ATOM     93  C   UNL A   1      45.148  36.029  29.958  1.00  0.00     0.022 A 
BRANCH  91  94
ATOM     94  S   UNL A   1      44.624  36.923  27.422  1.00  0.00     0.127 S 
ATOM     95  O   UNL A   1      43.280  36.726  26.881  1.00  0.00    -0.237 OA
ATOM     96  O   UNL A   1      44.790  38.147  28.208  1.00  0.00    -0.237 OA
ATOM     97  O   UNL A   1      45.717  36.646  26.500  1.00  0.00    -0.744 OA
ENDBRANCH  91  94
ENDBRANCH  64  87
ENDBRANCH  38  39
ENDBRANCH  30  33
ENDBRANCH  28  29
ENDBRANCH   1  28
TORSDOF 16
ENDMDL
MODEL 2
REMARK VINA RESULT:     -12.1      6.539     10.141
REMARK SMILES O=C(Nc1c(F)cc(F)cc1F)N[C@H]1C=C[C@@H](C(=O)NCCCCNC(=O)c2ccc(-c3c4nc(c(-c5cccc(S(=O)(=O)[O-])c5F)c5ccc([nH]5)c(-c5cccc(S(=O)(=O)[O-])c5F)c5nc(c(-c6cccc(S(=O)(=O)[O-])c6F)c6ccc3[nH]6)C=C5)C=C4)cc2)C1
REMARK SMILES IDX 23 1 22 2 21 3 20 4 18 5 19 6 17 8 14 9 15 10 91 11 16 12
REMARK SMILES IDX 13 13 1 14 2 15 3 16 4 19 5 20 11 21 6 22 7 23 10 24 12 25
REMARK SMILES IDX 8 26 9 27 24 28 25 29 26 30 27 32 28 33 29 34 90 35 30 36
REMARK SMILES IDX 89 37 31 38 32 39 33 40 83 41 34 42 88 43 82 44 84 45 35 46
REMARK SMILES IDX 87 47 81 48 80 49 36 51 68 52 48 53 67 54 49 55 52 56 66 57
REMARK SMILES IDX 85 58 50 59 51 60 65 62 86 63 53 64 37 65 38 66 46 67 39 68
REMARK SMILES IDX 41 69 47 70 40 71 42 72 43 73 44 74 45 75 69 76 70 77 78 78
REMARK SMILES IDX 71 79 73 80 79 81 72 82 74 83 75 84 76 85 77 86 54 87 55 88
REMARK SMILES IDX 63 89 56 90 58 91 64 92 57 93 59 94 60 95 61 96 62 97
REMARK H PARENT 20 7 3 17 13 18 25 31 84 50 52 61
REMARK Flexibility Score: inf
ROOT
ATOM      1  C   UNL A   1      33.275  31.848  27.829  1.00  0.00     0.023 C 
ENDROOT
BRANCH   1   2
ATOM      2  C   UNL A   1      34.532  31.036  28.144  1.00  0.00     0.023 C 
BRANCH   2   3
ATOM      3  C   UNL A   1      34.578  29.652  27.504  1.00  0.00     0.116 C 
BRANCH   3   4
ATOM      4  N   UNL A   1      33.381  28.887  27.780  1.00  0.00    -0.356 N 
ATOM      5  C   UNL A   1      32.410  28.427  26.945  1.00  0.00     0.227 C 
ATOM      6  O   UNL A   1      31.512  27.744  27.449  1.00  0.00    -0.274 OA
ATOM      7  H   UNL A   1      33.249  28.661  28.728  1.00  0.00     0.163 HD
BRANCH   5   8
ATOM      8  C   UNL A   1      32.400  28.704  25.437  1.00  0.00     0.103 C 
ATOM      9  C   UNL A   1      32.645  27.398  23.363  1.00  0.00     0.107 C 
ATOM     10  C   UNL A   1      31.219  27.739  23.652  1.00  0.00    -0.006 C 
ATOM     11  C   UNL A   1      33.406  27.899  24.605  1.00  0.00     0.047 C 
ATOM     12  C   UNL A   1      31.079  28.441  24.781  1.00  0.00    -0.016 C 
BRANCH   9  13
ATOM     13  N   UNL A   1      32.746  25.967  23.211  1.00  0.00    -0.332 N 
ATOM     14  O   UNL A   1      33.238  26.014  21.000  1.00  0.00    -0.248 OA
ATOM     15  C   UNL A   1      33.101  25.381  22.045  1.00  0.00     0.319 C 
ATOM     16  N   UNL A   1      33.432  24.065  22.053  1.00  0.00    -0.303 N 
ATOM     17  H   UNL A   1      33.793  23.758  21.190  1.00  0.00     0.172 HD
ATOM     18  H   UNL A   1      32.548  25.395  23.987  1.00  0.00     0.165 HD
BRANCH  16  19
ATOM     19  C   UNL A   1      33.380  23.032  23.015  1.00  0.00     0.115 A 
ATOM     20  C   UNL A   1      32.247  22.312  23.407  1.00  0.00     0.152 A 
ATOM     21  C   UNL A   1      34.600  22.688  23.616  1.00  0.00     0.152 A 
ATOM     22  F   UNL A   1      31.051  22.542  22.848  1.00  0.00    -0.204 F 
ATOM     23  C   UNL A   1      32.322  21.311  24.375  1.00  0.00     0.081 A 
ATOM     24  C   UNL A   1      34.691  21.709  24.598  1.00  0.00     0.081 A 
ATOM     25  F   UNL A   1      35.718  23.340  23.256  1.00  0.00    -0.204 F 
ATOM     26  C   UNL A   1      33.544  21.025  24.966  1.00  0.00     0.129 A 
ATOM     27  F   UNL A   1      33.626  20.061  25.889  1.00  0.00    -0.207 F 
ENDBRANCH  16  19
ENDBRANCH   9  13
ENDBRANCH   5   8
ENDBRANCH   3   4
ENDBRANCH   2   3
ENDBRANCH   1   2
BRANCH   1  28
ATOM     28  C   UNL A   1      33.511  33.155  27.080  1.00  0.00     0.116 C 
BRANCH  28  29
ATOM     29  N   UNL A   1      32.868  34.302  27.706  1.00  0.00    -0.352 N 
ATOM     30  C   UNL A   1      33.171  34.911  28.900  1.00  0.00     0.251 C 
ATOM     31  H   UNL A   1      32.115  34.694  27.207  1.00  0.00     0.163 HD
ATOM     32  O   UNL A   1      32.483  35.841  29.311  1.00  0.00    -0.269 OA
BRANCH  30  33
ATOM     33  C   UNL A   1      34.321  34.423  29.685  1.00  0.00     0.039 A 
ATOM     34  C   UNL A   1      34.093  33.727  30.874  1.00  0.00     0.014 A 
ATOM     35  C   UNL A   1      35.621  34.621  29.214  1.00  0.00     0.014 A 
ATOM     36  C   UNL A   1      35.175  33.176  31.564  1.00  0.00     0.010 A 
ATOM     37  C   UNL A   1      36.686  34.008  29.862  1.00  0.00     0.010 A 
ATOM     38  C   UNL A   1      36.476  33.287  31.047  1.00  0.00    -0.014 A 
BRANCH  38  39
ATOM     39  C   UNL A   1      37.641  32.668  31.725  1.00  0.00     0.031 A 
ATOM     40  C   UNL A   1      38.366  31.523  31.072  1.00  0.00     0.074 A 
ATOM     41  C   UNL A   1      37.982  33.064  32.968  1.00  0.00     0.049 A 
ATOM     42  N   UNL A   1      39.350  30.797  31.534  1.00  0.00    -0.248 NA
ATOM     43  C   UNL A   1      37.898  31.121  29.735  1.00  0.00     0.031 C 
ATOM     44  C   UNL A   1      37.310  34.115  33.733  1.00  0.00     0.029 A 
ATOM     45  N   UNL A   1      38.961  32.610  33.814  1.00  0.00    -0.354 N 
ATOM     46  C   UNL A   1      39.593  29.830  30.564  1.00  0.00     0.074 A 
ATOM     47  C   UNL A   1      38.624  30.036  29.511  1.00  0.00     0.031 C 
ATOM     48  C   UNL A   1      37.906  34.234  34.931  1.00  0.00     0.029 A 
ATOM     49  C   UNL A   1      38.978  33.249  35.030  1.00  0.00     0.049 A 
ATOM     50  H   UNL A   1      39.592  31.893  33.572  1.00  0.00     0.167 HD
ATOM     51  C   UNL A   1      40.554  28.877  30.537  1.00  0.00     0.034 A 
ATOM     52  C   UNL A   1      39.771  33.063  36.104  1.00  0.00     0.034 A 
ATOM     53  C   UNL A   1      41.541  28.704  31.569  1.00  0.00     0.049 A 
ATOM     54  C   UNL A   1      40.850  32.016  36.041  1.00  0.00     0.074 A 
ATOM     55  C   UNL A   1      42.610  27.829  31.602  1.00  0.00     0.029 A 
ATOM     56  N   UNL A   1      41.572  29.419  32.757  1.00  0.00    -0.354 N 
ATOM     57  N   UNL A   1      41.162  31.210  35.055  1.00  0.00    -0.248 NA
ATOM     58  C   UNL A   1      41.707  31.876  37.227  1.00  0.00     0.031 C 
ATOM     59  C   UNL A   1      43.277  28.000  32.821  1.00  0.00     0.029 A 
ATOM     60  C   UNL A   1      42.637  28.999  33.536  1.00  0.00     0.049 A 
ATOM     61  H   UNL A   1      40.931  30.122  33.010  1.00  0.00     0.167 HD
ATOM     62  C   UNL A   1      42.274  30.495  35.484  1.00  0.00     0.074 A 
ATOM     63  C   UNL A   1      42.589  30.974  36.815  1.00  0.00     0.031 C 
ATOM     64  C   UNL A   1      42.966  29.522  34.839  1.00  0.00     0.034 A 
BRANCH  51  65
ATOM     65  C   UNL A   1      40.609  27.987  29.321  1.00  0.00     0.023 A 
ATOM     66  C   UNL A   1      39.807  26.827  29.272  1.00  0.00     0.012 A 
ATOM     67  C   UNL A   1      41.440  28.296  28.227  1.00  0.00     0.148 A 
ATOM     68  C   UNL A   1      39.871  25.962  28.181  1.00  0.00     0.002 A 
ATOM     69  C   UNL A   1      41.461  27.452  27.121  1.00  0.00     0.091 A 
ATOM     70  F   UNL A   1      42.214  29.387  28.296  1.00  0.00    -0.205 F 
ATOM     71  C   UNL A   1      40.691  26.278  27.103  1.00  0.00     0.022 A 
BRANCH  69  72
ATOM     72  S   UNL A   1      42.427  27.820  25.651  1.00  0.00     0.127 S 
ATOM     73  O   UNL A   1      43.780  27.895  26.198  1.00  0.00    -0.237 OA
ATOM     74  O   UNL A   1      42.173  26.649  24.811  1.00  0.00    -0.237 OA
ATOM     75  O   UNL A   1      41.887  29.066  25.126  1.00  0.00    -0.744 OA
ENDBRANCH  69  72
ENDBRANCH  51  65
BRANCH  52  76
ATOM     76  C   UNL A   1      39.634  33.956  37.289  1.00  0.00     0.023 A 
ATOM     77  C   UNL A   1      40.122  35.274  37.209  1.00  0.00     0.012 A 
ATOM     78  C   UNL A   1      38.982  33.534  38.464  1.00  0.00     0.148 A 
ATOM     79  C   UNL A   1      39.985  36.152  38.285  1.00  0.00     0.002 A 
ATOM     80  C   UNL A   1      38.803  34.428  39.514  1.00  0.00     0.091 A 
ATOM     81  F   UNL A   1      38.529  32.273  38.521  1.00  0.00    -0.205 F 
ATOM     82  C   UNL A   1      39.318  35.732  39.433  1.00  0.00     0.022 A 
BRANCH  80  83
ATOM     83  S   UNL A   1      37.848  34.025  40.980  1.00  0.00     0.127 S 
ATOM     84  O   UNL A   1      38.750  33.117  41.685  1.00  0.00    -0.237 OA
ATOM     85  O   UNL A   1      37.685  35.339  41.602  1.00  0.00    -0.237 OA
ATOM     86  O   UNL A   1      36.609  33.430  40.494  1.00  0.00    -0.744 OA
ENDBRANCH  80  83
ENDBRANCH  52  76
BRANCH  64  87
ATOM     87  C   UNL A   1      44.157  28.929  35.545  1.00  0.00     0.023 A 
ATOM     88  C   UNL A   1      45.432  29.508  35.379  1.00  0.00     0.012 A 
ATOM     89  C   UNL A   1      44.000  27.846  36.432  1.00  0.00     0.148 A 
ATOM     90  C   UNL A   1      46.535  28.999  36.063  1.00  0.00     0.002 A 
ATOM     91  C   UNL A   1      45.095  27.375  37.147  1.00  0.00     0.091 A 
ATOM     92  F   UNL A   1      42.784  27.296  36.562  1.00  0.00    -0.205 F 
ATOM     93  C   UNL A   1      46.366  27.943  36.955  1.00  0.00     0.022 A 
BRANCH  91  94
ATOM     94  S   UNL A   1      44.951  26.085  38.389  1.00  0.00     0.127 S 
ATOM     95  O   UNL A   1      46.350  25.863  38.751  1.00  0.00    -0.237 OA
ATOM     96  O   UNL A   1      44.150  26.738  39.425  1.00  0.00    -0.237 OA
ATOM     97  O   UNL A   1      44.290  24.967  37.730  1.00  0.00    -0.744 OA
ENDBRANCH  91  94
ENDBRANCH  64  87
ENDBRANCH  38  39
ENDBRANCH  30  33
ENDBRANCH  28  29
ENDBRANCH   1  28
TORSDOF 16
ENDMDL
MODEL 3
REMARK VINA RESULT:     -12.0      5.540      8.829
REMARK SMILES O=C(Nc1c(F)cc(F)cc1F)N[C@H]1C=C[C@@H](C(=O)NCCCCNC(=O)c2ccc(-c3c4nc(c(-c5cccc(S(=O)(=O)[O-])c5F)c5ccc([nH]5)c(-c5cccc(S(=O)(=O)[O-])c5F)c5nc(c(-c6cccc(S(=O)(=O)[O-])c6F)c6ccc3[nH]6)C=C5)C=C4)cc2)C1
REMARK SMILES IDX 23 1 22 2 21 3 20 4 18 5 19 6 17 8 14 9 15 10 91 11 16 12
REMARK SMILES IDX 13 13 1 14 2 15 3 16 4 19 5 20 11 21 6 22 7 23 10 24 12 25
REMARK SMILES IDX 8 26 9 27 24 28 25 29 26 30 27 32 28 33 29 34 90 35 30 36
REMARK SMILES IDX 89 37 31 38 32 39 33 40 83 41 34 42 88 43 82 44 84 45 35 46
REMARK SMILES IDX 87 47 81 48 80 49 36 51 68 52 48 53 67 54 49 55 52 56 66 57
REMARK SMILES IDX 85 58 50 59 51 60 65 62 86 63 53 64 37 65 38 66 46 67 39 68
REMARK SMILES IDX 41 69 47 70 40 71 42 72 43 73 44 74 45 75 69 76 70 77 78 78
REMARK SMILES IDX 71 79 73 80 79 81 72 82 74 83 75 84 76 85 77 86 54 87 55 88
REMARK SMILES IDX 63 89 56 90 58 91 64 92 57 93 59 94 60 95 61 96 62 97
REMARK H PARENT 20 7 3 17 13 18 25 31 84 50 52 61
REMARK Flexibility Score: inf
ROOT
ATOM      1  C   UNL A   1      32.909  29.113  24.845  1.00  0.00     0.023 C 
ENDROOT
BRANCH   1   2
ATOM      2  C   UNL A   1      33.671  27.796  24.685  1.00  0.00     0.023 C 
BRANCH   2   3
ATOM      3  C   UNL A   1      33.176  26.903  23.551  1.00  0.00     0.116 C 
BRANCH   3   4
ATOM      4  N   UNL A   1      32.228  27.585  22.697  1.00  0.00    -0.356 N 
ATOM      5  C   UNL A   1      30.872  27.497  22.628  1.00  0.00     0.227 C 
ATOM      6  O   UNL A   1      30.298  28.244  21.830  1.00  0.00    -0.274 OA
ATOM      7  H   UNL A   1      32.630  28.219  22.062  1.00  0.00     0.163 HD
BRANCH   5   8
ATOM      8  C   UNL A   1      30.049  26.539  23.499  1.00  0.00     0.103 C 
ATOM      9  C   UNL A   1      30.488  24.619  24.977  1.00  0.00     0.107 C 
ATOM     10  C   UNL A   1      30.233  25.877  25.743  1.00  0.00    -0.006 C 
ATOM     11  C   UNL A   1      30.515  25.078  23.507  1.00  0.00     0.047 C 
ATOM     12  C   UNL A   1      30.002  26.924  24.946  1.00  0.00    -0.016 C 
BRANCH   9  13
ATOM     13  N   UNL A   1      31.760  24.083  25.398  1.00  0.00    -0.332 N 
ATOM     14  O   UNL A   1      31.095  23.559  27.499  1.00  0.00    -0.248 OA
ATOM     15  C   UNL A   1      31.951  23.529  26.617  1.00  0.00     0.319 C 
ATOM     16  N   UNL A   1      33.083  22.814  26.837  1.00  0.00    -0.303 N 
ATOM     17  H   UNL A   1      33.077  22.351  27.705  1.00  0.00     0.172 HD
ATOM     18  H   UNL A   1      32.518  24.122  24.772  1.00  0.00     0.165 HD
BRANCH  16  19
ATOM     19  C   UNL A   1      34.269  22.581  26.107  1.00  0.00     0.115 A 
ATOM     20  C   UNL A   1      35.180  23.544  25.663  1.00  0.00     0.152 A 
ATOM     21  C   UNL A   1      34.563  21.239  25.823  1.00  0.00     0.152 A 
ATOM     22  F   UNL A   1      35.003  24.845  25.934  1.00  0.00    -0.204 F 
ATOM     23  C   UNL A   1      36.321  23.188  24.945  1.00  0.00     0.081 A 
ATOM     24  C   UNL A   1      35.683  20.865  25.089  1.00  0.00     0.081 A 
ATOM     25  F   UNL A   1      33.725  20.278  26.246  1.00  0.00    -0.204 F 
ATOM     26  C   UNL A   1      36.556  21.851  24.659  1.00  0.00     0.129 A 
ATOM     27  F   UNL A   1      37.651  21.499  23.977  1.00  0.00    -0.207 F 
ENDBRANCH  16  19
ENDBRANCH   9  13
ENDBRANCH   5   8
ENDBRANCH   3   4
ENDBRANCH   2   3
ENDBRANCH   1   2
BRANCH   1  28
ATOM     28  C   UNL A   1      32.534  29.482  26.276  1.00  0.00     0.116 C 
BRANCH  28  29
ATOM     29  N   UNL A   1      32.224  30.895  26.444  1.00  0.00    -0.352 N 
ATOM     30  C   UNL A   1      32.942  31.858  27.113  1.00  0.00     0.251 C 
ATOM     31  H   UNL A   1      31.389  31.202  26.023  1.00  0.00     0.163 HD
ATOM     32  O   UNL A   1      32.503  33.000  27.208  1.00  0.00    -0.269 OA
BRANCH  30  33
ATOM     33  C   UNL A   1      34.234  31.496  27.724  1.00  0.00     0.039 A 
ATOM     34  C   UNL A   1      35.159  32.501  28.019  1.00  0.00     0.014 A 
ATOM     35  C   UNL A   1      34.507  30.163  28.042  1.00  0.00     0.014 A 
ATOM     36  C   UNL A   1      36.338  32.173  28.691  1.00  0.00     0.010 A 
ATOM     37  C   UNL A   1      35.645  29.853  28.777  1.00  0.00     0.010 A 
ATOM     38  C   UNL A   1      36.575  30.851  29.101  1.00  0.00    -0.014 A 
BRANCH  38  39
ATOM     39  C   UNL A   1      37.792  30.477  29.863  1.00  0.00     0.031 A 
ATOM     40  C   UNL A   1      38.801  29.542  29.252  1.00  0.00     0.074 A 
ATOM     41  C   UNL A   1      37.938  30.891  31.137  1.00  0.00     0.049 A 
ATOM     42  N   UNL A   1      39.881  29.033  29.782  1.00  0.00    -0.248 NA
ATOM     43  C   UNL A   1      38.539  29.098  27.873  1.00  0.00     0.031 C 
ATOM     44  C   UNL A   1      36.993  31.741  31.863  1.00  0.00     0.029 A 
ATOM     45  N   UNL A   1      38.924  30.631  32.054  1.00  0.00    -0.354 N 
ATOM     46  C   UNL A   1      40.407  28.179  28.818  1.00  0.00     0.074 A 
ATOM     47  C   UNL A   1      39.501  28.207  27.691  1.00  0.00     0.031 C 
ATOM     48  C   UNL A   1      37.453  31.943  33.109  1.00  0.00     0.029 A 
ATOM     49  C   UNL A   1      38.705  31.213  33.280  1.00  0.00     0.049 A 
ATOM     50  H   UNL A   1      39.715  30.079  31.853  1.00  0.00     0.167 HD
ATOM     51  C   UNL A   1      41.554  27.461  28.853  1.00  0.00     0.034 A 
ATOM     52  C   UNL A   1      39.433  31.165  34.413  1.00  0.00     0.034 A 
ATOM     53  C   UNL A   1      42.470  27.469  29.962  1.00  0.00     0.049 A 
ATOM     54  C   UNL A   1      40.718  30.382  34.422  1.00  0.00     0.074 A 
ATOM     55  C   UNL A   1      43.701  26.848  30.069  1.00  0.00     0.029 A 
ATOM     56  N   UNL A   1      42.250  28.129  31.162  1.00  0.00    -0.354 N 
ATOM     57  N   UNL A   1      41.276  29.701  33.450  1.00  0.00    -0.248 NA
ATOM     58  C   UNL A   1      41.490  30.389  35.672  1.00  0.00     0.031 C 
ATOM     59  C   UNL A   1      44.216  27.116  31.342  1.00  0.00     0.029 A 
ATOM     60  C   UNL A   1      43.317  27.924  32.020  1.00  0.00     0.049 A 
ATOM     61  H   UNL A   1      41.452  28.666  31.372  1.00  0.00     0.167 HD
ATOM     62  C   UNL A   1      42.482  29.231  33.958  1.00  0.00     0.074 A 
ATOM     63  C   UNL A   1      42.578  29.717  35.320  1.00  0.00     0.031 C 
ATOM     64  C   UNL A   1      43.420  28.457  33.355  1.00  0.00     0.034 A 
BRANCH  51  65
ATOM     65  C   UNL A   1      41.899  26.650  27.630  1.00  0.00     0.023 A 
ATOM     66  C   UNL A   1      42.439  27.294  26.498  1.00  0.00     0.012 A 
ATOM     67  C   UNL A   1      41.700  25.256  27.599  1.00  0.00     0.148 A 
ATOM     68  C   UNL A   1      42.725  26.577  25.337  1.00  0.00     0.002 A 
ATOM     69  C   UNL A   1      42.032  24.540  26.454  1.00  0.00     0.091 A 
ATOM     70  F   UNL A   1      41.163  24.659  28.672  1.00  0.00    -0.205 F 
ATOM     71  C   UNL A   1      42.529  25.200  25.318  1.00  0.00     0.022 A 
BRANCH  69  72
ATOM     72  S   UNL A   1      41.890  22.751  26.364  1.00  0.00     0.127 S 
ATOM     73  O   UNL A   1      40.440  22.569  26.388  1.00  0.00    -0.237 OA
ATOM     74  O   UNL A   1      42.520  22.453  25.077  1.00  0.00    -0.237 OA
ATOM     75  O   UNL A   1      42.611  22.239  27.520  1.00  0.00    -0.744 OA
ENDBRANCH  69  72
ENDBRANCH  51  65
BRANCH  52  76
ATOM     76  C   UNL A   1      39.009  31.962  35.599  1.00  0.00     0.023 A 
ATOM     77  C   UNL A   1      39.286  33.342  35.627  1.00  0.00     0.012 A 
ATOM     78  C   UNL A   1      38.294  31.383  36.665  1.00  0.00     0.148 A 
ATOM     79  C   UNL A   1      38.880  34.129  36.705  1.00  0.00     0.002 A 
ATOM     80  C   UNL A   1      37.846  32.181  37.711  1.00  0.00     0.091 A 
ATOM     81  F   UNL A   1      38.044  30.066  36.620  1.00  0.00    -0.205 F 
ATOM     82  C   UNL A   1      38.152  33.551  37.741  1.00  0.00     0.022 A 
BRANCH  80  83
ATOM     83  S   UNL A   1      36.794  31.558  39.027  1.00  0.00     0.127 S 
ATOM     84  O   UNL A   1      36.424  30.240  38.515  1.00  0.00    -0.237 OA
ATOM     85  O   UNL A   1      37.715  31.542  40.163  1.00  0.00    -0.237 OA
ATOM     86  O   UNL A   1      35.703  32.515  39.148  1.00  0.00    -0.744 OA
ENDBRANCH  80  83
ENDBRANCH  52  76
BRANCH  64  87
ATOM     87  C   UNL A   1      44.654  28.113  34.148  1.00  0.00     0.023 A 
ATOM     88  C   UNL A   1      45.793  28.939  34.067  1.00  0.00     0.012 A 
ATOM     89  C   UNL A   1      44.657  27.015  35.031  1.00  0.00     0.148 A 
ATOM     90  C   UNL A   1      46.925  28.660  34.831  1.00  0.00     0.002 A 
ATOM     91  C   UNL A   1      45.771  26.772  35.824  1.00  0.00     0.091 A 
ATOM     92  F   UNL A   1      43.572  26.229  35.078  1.00  0.00    -0.205 F 
ATOM     93  C   UNL A   1      46.911  27.586  35.717  1.00  0.00     0.022 A 
BRANCH  91  94
ATOM     94  S   UNL A   1      45.805  25.471  37.063  1.00  0.00     0.127 S 
ATOM     95  O   UNL A   1      44.544  25.697  37.767  1.00  0.00    -0.237 OA
ATOM     96  O   UNL A   1      45.835  24.259  36.242  1.00  0.00    -0.237 OA
ATOM     97  O   UNL A   1      47.010  25.697  37.849  1.00  0.00    -0.744 OA
ENDBRANCH  91  94
ENDBRANCH  64  87
ENDBRANCH  38  39
ENDBRANCH  30  33
ENDBRANCH  28  29
ENDBRANCH   1  28
TORSDOF 16
ENDMDL
