MODEL 1
REMARK VINA RESULT:     -11.6      0.000      0.000
REMARK SMILES CC[C@H](C)CN(CC)c1nc(C(=O)NCCCCNC(=O)c2ccc(-c3c4nc(c(-c5cccc(S(=O)(=O)[O-])c5F)c5ccc([nH]5)c(-c5cccc(S(=O)(=O)[O-])c5F)c5nc(c(-c6cccc(S(=O)(=O)[O-])c6F)c6ccc3[nH]6)C=C5)C=C4)cc2)cc2ccccc12
REMARK SMILES IDX 16 1 15 2 14 3 12 4 13 5 11 7 9 8 10 9 91 10 86 11 90 12
REMARK SMILES IDX 85 13 87 14 89 15 88 16 6 17 5 18 3 19 4 20 2 21 1 22 7 23
REMARK SMILES IDX 8 24 17 25 18 26 19 27 20 28 21 30 22 31 23 32 84 33 24 34
REMARK SMILES IDX 83 35 25 36 26 37 27 38 77 39 28 40 82 41 76 42 78 43 29 44
REMARK SMILES IDX 81 45 75 46 74 47 30 49 62 50 42 51 61 52 43 53 46 54 60 55
REMARK SMILES IDX 79 56 44 57 45 58 59 60 80 61 47 62 31 63 32 64 40 65 33 66
REMARK SMILES IDX 35 67 41 68 34 69 36 70 37 71 38 72 39 73 63 74 64 75 72 76
REMARK SMILES IDX 65 77 67 78 73 79 66 80 68 81 69 82 70 83 71 84 48 85 49 86
REMARK SMILES IDX 57 87 50 88 52 89 58 90 51 91 53 92 54 93 55 94 56 95
REMARK H PARENT 14 6 19 29 78 48 46 59
REMARK Flexibility Score: inf
ROOT
ATOM      1  C   UNL A   1      32.369  27.098  25.455  1.00  0.00     0.023 C 
ENDROOT
BRANCH   1   2
ATOM      2  C   UNL A   1      31.544  26.474  24.338  1.00  0.00     0.116 C 
BRANCH   2   3
ATOM      3  N   UNL A   1      32.210  26.499  23.058  1.00  0.00    -0.351 N 
ATOM      4  C   UNL A   1      33.189  25.672  22.562  1.00  0.00     0.269 C 
ATOM      5  O   UNL A   1      33.625  25.926  21.435  1.00  0.00    -0.268 OA
ATOM      6  H   UNL A   1      31.920  27.217  22.449  1.00  0.00     0.163 HD
BRANCH   4   7
ATOM      7  C   UNL A   1      33.742  24.489  23.309  1.00  0.00     0.131 A 
ATOM      8  C   UNL A   1      33.571  22.280  24.034  1.00  0.00     0.137 A 
ATOM      9  N   UNL A   1      33.000  23.360  23.453  1.00  0.00    -0.225 NA
ATOM     10  C   UNL A   1      34.957  22.270  24.359  1.00  0.00     0.024 A 
ATOM     11  C   UNL A   1      35.652  23.493  24.344  1.00  0.00    -0.012 A 
ATOM     12  C   UNL A   1      35.691  21.118  24.720  1.00  0.00     0.012 A 
ATOM     13  C   UNL A   1      35.034  24.611  23.797  1.00  0.00     0.043 A 
ATOM     14  C   UNL A   1      36.949  23.576  24.879  1.00  0.00     0.009 A 
ATOM     15  C   UNL A   1      36.976  21.202  25.255  1.00  0.00     0.001 A 
ATOM     16  C   UNL A   1      37.590  22.440  25.372  1.00  0.00     0.001 A 
BRANCH   8  17
ATOM     17  N   UNL A   1      32.743  21.215  24.437  1.00  0.00    -0.356 N 
BRANCH  17  18
ATOM     18  C   UNL A   1      31.757  21.492  25.521  1.00  0.00     0.121 C 
BRANCH  18  19
ATOM     19  C   UNL A   1      32.107  22.752  26.350  1.00  0.00     0.005 C 
ATOM     20  C   UNL A   1      30.908  23.707  26.437  1.00  0.00     0.009 C 
BRANCH  19  21
ATOM     21  C   UNL A   1      32.672  22.483  27.760  1.00  0.00     0.002 C 
ATOM     22  C   UNL A   1      34.195  22.316  27.701  1.00  0.00     0.004 C 
ENDBRANCH  19  21
ENDBRANCH  18  19
ENDBRANCH  17  18
BRANCH  17  23
ATOM     23  C   UNL A   1      32.339  20.250  23.406  1.00  0.00     0.114 C 
ATOM     24  C   UNL A   1      32.533  18.789  23.784  1.00  0.00     0.027 C 
ENDBRANCH  17  23
ENDBRANCH   8  17
ENDBRANCH   4   7
ENDBRANCH   2   3
ENDBRANCH   1   2
BRANCH   1  25
ATOM     25  C   UNL A   1      31.948  28.501  25.880  1.00  0.00     0.023 C 
BRANCH  25  26
ATOM     26  C   UNL A   1      32.910  29.616  25.494  1.00  0.00     0.116 C 
BRANCH  26  27
ATOM     27  N   UNL A   1      32.536  30.914  26.043  1.00  0.00    -0.352 N 
ATOM     28  C   UNL A   1      33.132  31.645  27.042  1.00  0.00     0.251 C 
ATOM     29  H   UNL A   1      31.740  31.328  25.637  1.00  0.00     0.163 HD
ATOM     30  O   UNL A   1      32.591  32.667  27.460  1.00  0.00    -0.269 OA
BRANCH  28  31
ATOM     31  C   UNL A   1      34.408  31.185  27.631  1.00  0.00     0.039 A 
ATOM     32  C   UNL A   1      35.426  32.116  27.854  1.00  0.00     0.014 A 
ATOM     33  C   UNL A   1      34.594  29.846  27.983  1.00  0.00     0.014 A 
ATOM     34  C   UNL A   1      36.602  31.713  28.491  1.00  0.00     0.010 A 
ATOM     35  C   UNL A   1      35.723  29.470  28.705  1.00  0.00     0.010 A 
ATOM     36  C   UNL A   1      36.747  30.394  28.955  1.00  0.00    -0.014 A 
BRANCH  36  37
ATOM     37  C   UNL A   1      37.964  29.968  29.695  1.00  0.00     0.031 A 
ATOM     38  C   UNL A   1      38.222  30.477  31.090  1.00  0.00     0.074 A 
ATOM     39  C   UNL A   1      38.873  29.178  29.090  1.00  0.00     0.049 A 
ATOM     40  N   UNL A   1      39.231  30.228  31.884  1.00  0.00    -0.248 NA
ATOM     41  C   UNL A   1      37.234  31.409  31.657  1.00  0.00     0.031 C 
ATOM     42  C   UNL A   1      38.788  28.691  27.710  1.00  0.00     0.029 A 
ATOM     43  N   UNL A   1      40.059  28.661  29.549  1.00  0.00    -0.354 N 
ATOM     44  C   UNL A   1      39.018  30.994  33.023  1.00  0.00     0.074 A 
ATOM     45  C   UNL A   1      37.807  31.752  32.800  1.00  0.00     0.031 C 
ATOM     46  C   UNL A   1      39.864  27.934  27.442  1.00  0.00     0.029 A 
ATOM     47  C   UNL A   1      40.731  27.905  28.615  1.00  0.00     0.049 A 
ATOM     48  H   UNL A   1      40.397  28.816  30.459  1.00  0.00     0.167 HD
ATOM     49  C   UNL A   1      39.742  31.041  34.167  1.00  0.00     0.034 A 
ATOM     50  C   UNL A   1      41.914  27.263  28.695  1.00  0.00     0.034 A 
ATOM     51  C   UNL A   1      40.924  30.257  34.401  1.00  0.00     0.049 A 
ATOM     52  C   UNL A   1      42.677  27.295  29.992  1.00  0.00     0.074 A 
ATOM     53  C   UNL A   1      41.679  30.164  35.556  1.00  0.00     0.029 A 
ATOM     54  N   UNL A   1      41.531  29.440  33.460  1.00  0.00    -0.354 N 
ATOM     55  N   UNL A   1      42.371  27.895  31.116  1.00  0.00    -0.248 NA
ATOM     56  C   UNL A   1      43.929  26.527  30.044  1.00  0.00     0.031 C 
ATOM     57  C   UNL A   1      42.762  29.316  35.304  1.00  0.00     0.029 A 
ATOM     58  C   UNL A   1      42.657  28.848  34.004  1.00  0.00     0.049 A 
ATOM     59  H   UNL A   1      41.208  29.301  32.540  1.00  0.00     0.167 HD
ATOM     60  C   UNL A   1      43.368  27.547  32.019  1.00  0.00     0.074 A 
ATOM     61  C   UNL A   1      44.276  26.664  31.316  1.00  0.00     0.031 C 
ATOM     62  C   UNL A   1      43.527  27.932  33.309  1.00  0.00     0.034 A 
BRANCH  49  63
ATOM     63  C   UNL A   1      39.247  31.937  35.273  1.00  0.00     0.023 A 
ATOM     64  C   UNL A   1      38.285  31.456  36.185  1.00  0.00     0.012 A 
ATOM     65  C   UNL A   1      39.771  33.234  35.445  1.00  0.00     0.148 A 
ATOM     66  C   UNL A   1      37.822  32.262  37.224  1.00  0.00     0.002 A 
ATOM     67  C   UNL A   1      39.342  34.013  36.513  1.00  0.00     0.091 A 
ATOM     68  F   UNL A   1      40.671  33.682  34.558  1.00  0.00    -0.205 F 
ATOM     69  C   UNL A   1      38.358  33.535  37.394  1.00  0.00     0.022 A 
BRANCH  67  70
ATOM     70  S   UNL A   1      40.032  35.633  36.870  1.00  0.00     0.127 S 
ATOM     71  O   UNL A   1      39.598  36.401  35.704  1.00  0.00    -0.237 OA
ATOM     72  O   UNL A   1      39.352  35.985  38.118  1.00  0.00    -0.237 OA
ATOM     73  O   UNL A   1      41.469  35.442  36.992  1.00  0.00    -0.744 OA
ENDBRANCH  67  70
ENDBRANCH  49  63
BRANCH  50  74
ATOM     74  C   UNL A   1      42.417  26.478  27.531  1.00  0.00     0.023 A 
ATOM     75  C   UNL A   1      43.213  27.112  26.558  1.00  0.00     0.012 A 
ATOM     76  C   UNL A   1      42.124  25.108  27.392  1.00  0.00     0.148 A 
ATOM     77  C   UNL A   1      43.677  26.406  25.446  1.00  0.00     0.002 A 
ATOM     78  C   UNL A   1      42.636  24.397  26.313  1.00  0.00     0.091 A 
ATOM     79  F   UNL A   1      41.357  24.525  28.324  1.00  0.00    -0.205 F 
ATOM     80  C   UNL A   1      43.396  25.048  25.329  1.00  0.00     0.022 A 
BRANCH  78  81
ATOM     81  S   UNL A   1      42.435  22.620  26.146  1.00  0.00     0.127 S 
ATOM     82  O   UNL A   1      40.983  22.486  26.089  1.00  0.00    -0.237 OA
ATOM     83  O   UNL A   1      43.131  22.356  24.885  1.00  0.00    -0.237 OA
ATOM     84  O   UNL A   1      43.078  22.039  27.318  1.00  0.00    -0.744 OA
ENDBRANCH  78  81
ENDBRANCH  50  74
BRANCH  62  85
ATOM     85  C   UNL A   1      44.699  27.367  34.068  1.00  0.00     0.023 A 
ATOM     86  C   UNL A   1      45.941  28.031  34.048  1.00  0.00     0.012 A 
ATOM     87  C   UNL A   1      44.549  26.206  34.854  1.00  0.00     0.148 A 
ATOM     88  C   UNL A   1      47.027  27.526  34.764  1.00  0.00     0.002 A 
ATOM     89  C   UNL A   1      45.618  25.740  35.608  1.00  0.00     0.091 A 
ATOM     90  F   UNL A   1      43.364  25.579  34.848  1.00  0.00    -0.205 F 
ATOM     91  C   UNL A   1      46.863  26.389  35.551  1.00  0.00     0.022 A 
BRANCH  89  92
ATOM     92  S   UNL A   1      45.471  24.344  36.728  1.00  0.00     0.127 S 
ATOM     93  O   UNL A   1      45.138  23.258  35.809  1.00  0.00    -0.237 OA
ATOM     94  O   UNL A   1      46.813  24.266  37.306  1.00  0.00    -0.237 OA
ATOM     95  O   UNL A   1      44.424  24.701  37.678  1.00  0.00    -0.744 OA
ENDBRANCH  89  92
ENDBRANCH  62  85
ENDBRANCH  36  37
ENDBRANCH  28  31
ENDBRANCH  26  27
ENDBRANCH  25  26
ENDBRANCH   1  25
TORSDOF 19
ENDMDL
MODEL 2
REMARK VINA RESULT:     -11.5      0.846      2.215
REMARK SMILES CC[C@H](C)CN(CC)c1nc(C(=O)NCCCCNC(=O)c2ccc(-c3c4nc(c(-c5cccc(S(=O)(=O)[O-])c5F)c5ccc([nH]5)c(-c5cccc(S(=O)(=O)[O-])c5F)c5nc(c(-c6cccc(S(=O)(=O)[O-])c6F)c6ccc3[nH]6)C=C5)C=C4)cc2)cc2ccccc12
REMARK SMILES IDX 16 1 15 2 14 3 12 4 13 5 11 7 9 8 10 9 91 10 86 11 90 12
REMARK SMILES IDX 85 13 87 14 89 15 88 16 6 17 5 18 3 19 4 20 2 21 1 22 7 23
REMARK SMILES IDX 8 24 17 25 18 26 19 27 20 28 21 30 22 31 23 32 84 33 24 34
REMARK SMILES IDX 83 35 25 36 26 37 27 38 77 39 28 40 82 41 76 42 78 43 29 44
REMARK SMILES IDX 81 45 75 46 74 47 30 49 62 50 42 51 61 52 43 53 46 54 60 55
REMARK SMILES IDX 79 56 44 57 45 58 59 60 80 61 47 62 31 63 32 64 40 65 33 66
REMARK SMILES IDX 35 67 41 68 34 69 36 70 37 71 38 72 39 73 63 74 64 75 72 76
REMARK SMILES IDX 65 77 67 78 73 79 66 80 68 81 69 82 70 83 71 84 48 85 49 86
REMARK SMILES IDX 57 87 50 88 52 89 58 90 51 91 53 92 54 93 55 94 56 95
REMARK H PARENT 14 6 19 29 78 48 46 59
REMARK Flexibility Score: inf
ROOT
ATOM      1  C   UNL A   1      31.844  28.928  23.519  1.00  0.00     0.023 C 
ENDROOT
BRANCH   1   2
ATOM      2  C   UNL A   1      33.232  28.515  23.048  1.00  0.00     0.116 C 
BRANCH   2   3
ATOM      3  N   UNL A   1      33.208  27.704  21.855  1.00  0.00    -0.351 N 
ATOM      4  C   UNL A   1      33.220  26.336  21.722  1.00  0.00     0.269 C 
ATOM      5  O   UNL A   1      33.228  25.879  20.576  1.00  0.00    -0.268 OA
ATOM      6  H   UNL A   1      33.179  28.206  21.008  1.00  0.00     0.163 HD
BRANCH   4   7
ATOM      7  C   UNL A   1      33.219  25.384  22.887  1.00  0.00     0.131 A 
ATOM      8  C   UNL A   1      34.342  23.954  24.346  1.00  0.00     0.137 A 
ATOM      9  N   UNL A   1      34.352  24.715  23.229  1.00  0.00    -0.225 NA
ATOM     10  C   UNL A   1      33.224  23.960  25.228  1.00  0.00     0.024 A 
ATOM     11  C   UNL A   1      32.022  24.531  24.772  1.00  0.00    -0.012 A 
ATOM     12  C   UNL A   1      33.223  23.414  26.531  1.00  0.00     0.012 A 
ATOM     13  C   UNL A   1      32.030  25.264  23.591  1.00  0.00     0.043 A 
ATOM     14  C   UNL A   1      30.834  24.357  25.503  1.00  0.00     0.009 A 
ATOM     15  C   UNL A   1      32.043  23.236  27.253  1.00  0.00     0.001 A 
ATOM     16  C   UNL A   1      30.840  23.674  26.718  1.00  0.00     0.001 A 
BRANCH   8  17
ATOM     17  N   UNL A   1      35.401  23.050  24.555  1.00  0.00    -0.356 N 
BRANCH  17  18
ATOM     18  C   UNL A   1      35.258  21.687  23.966  1.00  0.00     0.121 C 
BRANCH  18  19
ATOM     19  C   UNL A   1      35.325  20.560  25.024  1.00  0.00     0.005 C 
ATOM     20  C   UNL A   1      33.938  19.951  25.272  1.00  0.00     0.009 C 
BRANCH  19  21
ATOM     21  C   UNL A   1      36.350  19.442  24.740  1.00  0.00     0.002 C 
ATOM     22  C   UNL A   1      37.776  19.953  24.981  1.00  0.00     0.004 C 
ENDBRANCH  19  21
ENDBRANCH  18  19
ENDBRANCH  17  18
BRANCH  17  23
ATOM     23  C   UNL A   1      36.759  23.606  24.615  1.00  0.00     0.114 C 
ATOM     24  C   UNL A   1      37.212  24.045  25.999  1.00  0.00     0.027 C 
ENDBRANCH  17  23
ENDBRANCH   8  17
ENDBRANCH   4   7
ENDBRANCH   2   3
ENDBRANCH   1   2
BRANCH   1  25
ATOM     25  C   UNL A   1      31.637  28.937  25.029  1.00  0.00     0.023 C 
BRANCH  25  26
ATOM     26  C   UNL A   1      32.769  29.553  25.840  1.00  0.00     0.116 C 
BRANCH  26  27
ATOM     27  N   UNL A   1      32.505  30.928  26.246  1.00  0.00    -0.352 N 
ATOM     28  C   UNL A   1      33.190  31.724  27.132  1.00  0.00     0.251 C 
ATOM     29  H   UNL A   1      31.721  31.348  25.822  1.00  0.00     0.163 HD
ATOM     30  O   UNL A   1      32.736  32.823  27.446  1.00  0.00    -0.269 OA
BRANCH  28  31
ATOM     31  C   UNL A   1      34.457  31.246  27.726  1.00  0.00     0.039 A 
ATOM     32  C   UNL A   1      35.492  32.159  27.941  1.00  0.00     0.014 A 
ATOM     33  C   UNL A   1      34.618  29.907  28.091  1.00  0.00     0.014 A 
ATOM     34  C   UNL A   1      36.661  31.741  28.582  1.00  0.00     0.010 A 
ATOM     35  C   UNL A   1      35.739  29.517  28.817  1.00  0.00     0.010 A 
ATOM     36  C   UNL A   1      36.780  30.423  29.058  1.00  0.00    -0.014 A 
BRANCH  36  37
ATOM     37  C   UNL A   1      37.989  29.982  29.803  1.00  0.00     0.031 A 
ATOM     38  C   UNL A   1      38.254  30.496  31.194  1.00  0.00     0.074 A 
ATOM     39  C   UNL A   1      38.885  29.172  29.204  1.00  0.00     0.049 A 
ATOM     40  N   UNL A   1      39.258  30.235  31.992  1.00  0.00    -0.248 NA
ATOM     41  C   UNL A   1      37.281  31.449  31.754  1.00  0.00     0.031 C 
ATOM     42  C   UNL A   1      38.793  28.677  27.828  1.00  0.00     0.029 A 
ATOM     43  N   UNL A   1      40.061  28.637  29.669  1.00  0.00    -0.354 N 
ATOM     44  C   UNL A   1      39.056  31.013  33.125  1.00  0.00     0.074 A 
ATOM     45  C   UNL A   1      37.859  31.790  32.896  1.00  0.00     0.031 C 
ATOM     46  C   UNL A   1      39.856  27.899  27.567  1.00  0.00     0.029 A 
ATOM     47  C   UNL A   1      40.721  27.864  28.741  1.00  0.00     0.049 A 
ATOM     48  H   UNL A   1      40.401  28.793  30.579  1.00  0.00     0.167 HD
ATOM     49  C   UNL A   1      39.779  31.055  34.270  1.00  0.00     0.034 A 
ATOM     50  C   UNL A   1      41.892  27.202  28.827  1.00  0.00     0.034 A 
ATOM     51  C   UNL A   1      40.948  30.253  34.511  1.00  0.00     0.049 A 
ATOM     52  C   UNL A   1      42.654  27.230  30.125  1.00  0.00     0.074 A 
ATOM     53  C   UNL A   1      41.699  30.155  35.668  1.00  0.00     0.029 A 
ATOM     54  N   UNL A   1      41.541  29.418  33.577  1.00  0.00    -0.354 N 
ATOM     55  N   UNL A   1      42.357  27.843  31.244  1.00  0.00    -0.248 NA
ATOM     56  C   UNL A   1      43.893  26.440  30.184  1.00  0.00     0.031 C 
ATOM     57  C   UNL A   1      42.767  29.286  35.423  1.00  0.00     0.029 A 
ATOM     58  C   UNL A   1      42.656  28.810  34.126  1.00  0.00     0.049 A 
ATOM     59  H   UNL A   1      41.217  29.279  32.658  1.00  0.00     0.167 HD
ATOM     60  C   UNL A   1      43.347  27.484  32.151  1.00  0.00     0.074 A 
ATOM     61  C   UNL A   1      44.241  26.580  31.456  1.00  0.00     0.031 C 
ATOM     62  C   UNL A   1      43.511  27.876  33.439  1.00  0.00     0.034 A 
BRANCH  49  63
ATOM     63  C   UNL A   1      39.299  31.968  35.369  1.00  0.00     0.023 A 
ATOM     64  C   UNL A   1      38.370  31.490  36.317  1.00  0.00     0.012 A 
ATOM     65  C   UNL A   1      39.804  33.277  35.498  1.00  0.00     0.148 A 
ATOM     66  C   UNL A   1      37.921  32.312  37.350  1.00  0.00     0.002 A 
ATOM     67  C   UNL A   1      39.391  34.072  36.559  1.00  0.00     0.091 A 
ATOM     68  F   UNL A   1      40.672  33.720  34.577  1.00  0.00    -0.205 F 
ATOM     69  C   UNL A   1      38.439  33.597  37.478  1.00  0.00     0.022 A 
BRANCH  67  70
ATOM     70  S   UNL A   1      40.061  35.711  36.862  1.00  0.00     0.127 S 
ATOM     71  O   UNL A   1      39.397  36.074  38.112  1.00  0.00    -0.237 OA
ATOM     72  O   UNL A   1      41.493  35.436  36.991  1.00  0.00    -0.237 OA
ATOM     73  O   UNL A   1      39.697  36.515  35.705  1.00  0.00    -0.744 OA
ENDBRANCH  67  70
ENDBRANCH  49  63
BRANCH  50  74
ATOM     74  C   UNL A   1      42.383  26.400  27.670  1.00  0.00     0.023 A 
ATOM     75  C   UNL A   1      43.245  26.996  26.728  1.00  0.00     0.012 A 
ATOM     76  C   UNL A   1      42.014  25.051  27.505  1.00  0.00     0.148 A 
ATOM     77  C   UNL A   1      43.700  26.275  25.622  1.00  0.00     0.002 A 
ATOM     78  C   UNL A   1      42.516  24.322  26.434  1.00  0.00     0.091 A 
ATOM     79  F   UNL A   1      41.186  24.505  28.408  1.00  0.00    -0.205 F 
ATOM     80  C   UNL A   1      43.343  24.937  25.481  1.00  0.00     0.022 A 
BRANCH  78  81
ATOM     81  S   UNL A   1      42.216  22.562  26.240  1.00  0.00     0.127 S 
ATOM     82  O   UNL A   1      40.759  22.511  26.181  1.00  0.00    -0.237 OA
ATOM     83  O   UNL A   1      42.897  22.279  24.976  1.00  0.00    -0.237 OA
ATOM     84  O   UNL A   1      42.824  21.928  27.404  1.00  0.00    -0.744 OA
ENDBRANCH  78  81
ENDBRANCH  50  74
BRANCH  62  85
ATOM     85  C   UNL A   1      44.672  27.295  34.204  1.00  0.00     0.023 A 
ATOM     86  C   UNL A   1      45.913  27.962  34.220  1.00  0.00     0.012 A 
ATOM     87  C   UNL A   1      44.512  26.115  34.959  1.00  0.00     0.148 A 
ATOM     88  C   UNL A   1      46.988  27.443  34.941  1.00  0.00     0.002 A 
ATOM     89  C   UNL A   1      45.571  25.635  35.719  1.00  0.00     0.091 A 
ATOM     90  F   UNL A   1      43.329  25.486  34.918  1.00  0.00    -0.205 F 
ATOM     91  C   UNL A   1      46.814  26.288  35.698  1.00  0.00     0.022 A 
BRANCH  89  92
ATOM     92  S   UNL A   1      45.409  24.212  36.804  1.00  0.00     0.127 S 
ATOM     93  O   UNL A   1      44.446  24.698  37.790  1.00  0.00    -0.237 OA
ATOM     94  O   UNL A   1      44.890  23.187  35.897  1.00  0.00    -0.237 OA
ATOM     95  O   UNL A   1      46.746  23.944  37.316  1.00  0.00    -0.744 OA
ENDBRANCH  89  92
ENDBRANCH  62  85
ENDBRANCH  36  37
ENDBRANCH  28  31
ENDBRANCH  26  27
ENDBRANCH  25  26
ENDBRANCH   1  25
TORSDOF 19
ENDMDL
MODEL 3
REMARK VINA RESULT:     -11.1      4.647      9.773
REMARK SMILES CC[C@H](C)CN(CC)c1nc(C(=O)NCCCCNC(=O)c2ccc(-c3c4nc(c(-c5cccc(S(=O)(=O)[O-])c5F)c5ccc([nH]5)c(-c5cccc(S(=O)(=O)[O-])c5F)c5nc(c(-c6cccc(S(=O)(=O)[O-])c6F)c6ccc3[nH]6)C=C5)C=C4)cc2)cc2ccccc12
REMARK SMILES IDX 16 1 15 2 14 3 12 4 13 5 11 7 9 8 10 9 91 10 86 11 90 12
REMARK SMILES IDX 85 13 87 14 89 15 88 16 6 17 5 18 3 19 4 20 2 21 1 22 7 23
REMARK SMILES IDX 8 24 17 25 18 26 19 27 20 28 21 30 22 31 23 32 84 33 24 34
REMARK SMILES IDX 83 35 25 36 26 37 27 38 77 39 28 40 82 41 76 42 78 43 29 44
REMARK SMILES IDX 81 45 75 46 74 47 30 49 62 50 42 51 61 52 43 53 46 54 60 55
REMARK SMILES IDX 79 56 44 57 45 58 59 60 80 61 47 62 31 63 32 64 40 65 33 66
REMARK SMILES IDX 35 67 41 68 34 69 36 70 37 71 38 72 39 73 63 74 64 75 72 76
REMARK SMILES IDX 65 77 67 78 73 79 66 80 68 81 69 82 70 83 71 84 48 85 49 86
REMARK SMILES IDX 57 87 50 88 52 89 58 90 51 91 53 92 54 93 55 94 56 95
REMARK H PARENT 14 6 19 29 78 48 46 59
REMARK Flexibility Score: inf
ROOT
ATOM      1  C   UNL A   1      34.380  23.424  25.717  1.00  0.00     0.023 C 
ENDROOT
BRANCH   1   2
ATOM      2  C   UNL A   1      33.215  23.379  24.739  1.00  0.00     0.116 C 
BRANCH   2   3
ATOM      3  N   UNL A   1      33.587  23.751  23.395  1.00  0.00    -0.351 N 
ATOM      4  C   UNL A   1      33.470  24.960  22.753  1.00  0.00     0.269 C 
ATOM      5  O   UNL A   1      33.836  25.013  21.576  1.00  0.00    -0.268 OA
ATOM      6  H   UNL A   1      33.985  23.028  22.856  1.00  0.00     0.163 HD
BRANCH   4   7
ATOM      7  C   UNL A   1      32.931  26.204  23.407  1.00  0.00     0.131 A 
ATOM      8  C   UNL A   1      31.199  27.721  23.774  1.00  0.00     0.137 A 
ATOM      9  N   UNL A   1      31.694  26.667  23.087  1.00  0.00    -0.225 NA
ATOM     10  C   UNL A   1      31.888  28.249  24.902  1.00  0.00     0.024 A 
ATOM     11  C   UNL A   1      33.223  27.855  25.109  1.00  0.00    -0.012 A 
ATOM     12  C   UNL A   1      31.336  29.161  25.829  1.00  0.00     0.012 A 
ATOM     13  C   UNL A   1      33.740  26.808  24.357  1.00  0.00     0.043 A 
ATOM     14  C   UNL A   1      34.016  28.519  26.062  1.00  0.00     0.009 A 
ATOM     15  C   UNL A   1      32.125  29.823  26.770  1.00  0.00     0.001 A 
ATOM     16  C   UNL A   1      33.478  29.528  26.857  1.00  0.00     0.001 A 
BRANCH   8  17
ATOM     17  N   UNL A   1      30.058  28.376  23.273  1.00  0.00    -0.356 N 
BRANCH  17  18
ATOM     18  C   UNL A   1      30.250  29.271  22.095  1.00  0.00     0.121 C 
BRANCH  18  19
ATOM     19  C   UNL A   1      29.551  30.642  22.256  1.00  0.00     0.005 C 
ATOM     20  C   UNL A   1      28.410  30.804  21.242  1.00  0.00     0.009 C 
BRANCH  19  21
ATOM     21  C   UNL A   1      29.045  30.967  23.677  1.00  0.00     0.002 C 
ATOM     22  C   UNL A   1      27.556  31.334  23.642  1.00  0.00     0.004 C 
ENDBRANCH  19  21
ENDBRANCH  18  19
ENDBRANCH  17  18
BRANCH  17  23
ATOM     23  C   UNL A   1      28.779  27.662  23.361  1.00  0.00     0.114 C 
ATOM     24  C   UNL A   1      28.801  26.408  24.222  1.00  0.00     0.027 C 
ENDBRANCH  17  23
ENDBRANCH   8  17
ENDBRANCH   4   7
ENDBRANCH   2   3
ENDBRANCH   1   2
BRANCH   1  25
ATOM     25  C   UNL A   1      35.603  22.604  25.321  1.00  0.00     0.023 C 
BRANCH  25  26
ATOM     26  C   UNL A   1      36.943  23.309  25.485  1.00  0.00     0.116 C 
BRANCH  26  27
ATOM     27  N   UNL A   1      38.012  22.419  25.921  1.00  0.00    -0.352 N 
ATOM     28  C   UNL A   1      39.209  22.721  26.524  1.00  0.00     0.251 C 
ATOM     29  H   UNL A   1      37.852  21.461  25.761  1.00  0.00     0.163 HD
ATOM     30  O   UNL A   1      40.047  21.838  26.700  1.00  0.00    -0.269 OA
BRANCH  28  31
ATOM     31  C   UNL A   1      39.499  24.112  26.933  1.00  0.00     0.039 A 
ATOM     32  C   UNL A   1      39.232  24.501  28.248  1.00  0.00     0.014 A 
ATOM     33  C   UNL A   1      40.051  25.025  26.031  1.00  0.00     0.014 A 
ATOM     34  C   UNL A   1      39.582  25.786  28.673  1.00  0.00     0.010 A 
ATOM     35  C   UNL A   1      40.490  26.266  26.483  1.00  0.00     0.010 A 
ATOM     36  C   UNL A   1      40.248  26.668  27.804  1.00  0.00    -0.014 A 
BRANCH  36  37
ATOM     37  C   UNL A   1      40.688  28.012  28.262  1.00  0.00     0.031 A 
ATOM     38  C   UNL A   1      42.152  28.367  28.278  1.00  0.00     0.074 A 
ATOM     39  C   UNL A   1      39.779  28.891  28.728  1.00  0.00     0.049 A 
ATOM     40  N   UNL A   1      42.726  29.481  28.654  1.00  0.00    -0.248 NA
ATOM     41  C   UNL A   1      43.099  27.327  27.840  1.00  0.00     0.031 C 
ATOM     42  C   UNL A   1      38.341  28.638  28.852  1.00  0.00     0.029 A 
ATOM     43  N   UNL A   1      39.930  30.170  29.205  1.00  0.00    -0.354 N 
ATOM     44  C   UNL A   1      44.093  29.264  28.534  1.00  0.00     0.074 A 
ATOM     45  C   UNL A   1      44.267  27.899  28.091  1.00  0.00     0.031 C 
ATOM     46  C   UNL A   1      37.742  29.730  29.353  1.00  0.00     0.029 A 
ATOM     47  C   UNL A   1      38.752  30.750  29.617  1.00  0.00     0.049 A 
ATOM     48  H   UNL A   1      40.800  30.628  29.249  1.00  0.00     0.167 HD
ATOM     49  C   UNL A   1      45.115  30.131  28.737  1.00  0.00     0.034 A 
ATOM     50  C   UNL A   1      38.513  31.965  30.147  1.00  0.00     0.034 A 
ATOM     51  C   UNL A   1      44.937  31.500  29.140  1.00  0.00     0.049 A 
ATOM     52  C   UNL A   1      39.659  32.924  30.323  1.00  0.00     0.074 A 
ATOM     53  C   UNL A   1      45.898  32.484  29.287  1.00  0.00     0.029 A 
ATOM     54  N   UNL A   1      43.720  32.077  29.470  1.00  0.00    -0.354 N 
ATOM     55  N   UNL A   1      40.929  32.755  30.045  1.00  0.00    -0.248 NA
ATOM     56  C   UNL A   1      39.333  34.259  30.848  1.00  0.00     0.031 C 
ATOM     57  C   UNL A   1      45.267  33.648  29.739  1.00  0.00     0.029 A 
ATOM     58  C   UNL A   1      43.907  33.399  29.831  1.00  0.00     0.049 A 
ATOM     59  H   UNL A   1      42.852  31.614  29.450  1.00  0.00     0.167 HD
ATOM     60  C   UNL A   1      41.546  33.969  30.322  1.00  0.00     0.074 A 
ATOM     61  C   UNL A   1      40.506  34.872  30.769  1.00  0.00     0.031 C 
ATOM     62  C   UNL A   1      42.857  34.303  30.229  1.00  0.00     0.034 A 
BRANCH  49  63
ATOM     63  C   UNL A   1      46.515  29.636  28.483  1.00  0.00     0.023 A 
ATOM     64  C   UNL A   1      47.097  29.813  27.210  1.00  0.00     0.012 A 
ATOM     65  C   UNL A   1      47.275  29.047  29.512  1.00  0.00     0.148 A 
ATOM     66  C   UNL A   1      48.396  29.375  26.954  1.00  0.00     0.002 A 
ATOM     67  C   UNL A   1      48.586  28.659  29.264  1.00  0.00     0.091 A 
ATOM     68  F   UNL A   1      46.699  28.869  30.710  1.00  0.00    -0.205 F 
ATOM     69  C   UNL A   1      49.143  28.809  27.983  1.00  0.00     0.022 A 
BRANCH  67  70
ATOM     70  S   UNL A   1      49.660  27.998  30.542  1.00  0.00     0.127 S 
ATOM     71  O   UNL A   1      48.932  26.797  30.948  1.00  0.00    -0.237 OA
ATOM     72  O   UNL A   1      50.895  27.739  29.800  1.00  0.00    -0.237 OA
ATOM     73  O   UNL A   1      49.767  29.036  31.557  1.00  0.00    -0.744 OA
ENDBRANCH  67  70
ENDBRANCH  49  63
BRANCH  50  74
ATOM     74  C   UNL A   1      37.119  32.370  30.489  1.00  0.00     0.023 A 
ATOM     75  C   UNL A   1      36.647  32.194  31.805  1.00  0.00     0.012 A 
ATOM     76  C   UNL A   1      36.265  32.938  29.525  1.00  0.00     0.148 A 
ATOM     77  C   UNL A   1      35.339  32.542  32.145  1.00  0.00     0.002 A 
ATOM     78  C   UNL A   1      34.982  33.335  29.884  1.00  0.00     0.091 A 
ATOM     79  F   UNL A   1      36.729  33.089  28.276  1.00  0.00    -0.205 F 
ATOM     80  C   UNL A   1      34.511  33.120  31.188  1.00  0.00     0.022 A 
BRANCH  78  81
ATOM     81  S   UNL A   1      33.891  34.206  28.754  1.00  0.00     0.127 S 
ATOM     82  O   UNL A   1      34.762  35.263  28.251  1.00  0.00    -0.237 OA
ATOM     83  O   UNL A   1      33.565  33.159  27.785  1.00  0.00    -0.237 OA
ATOM     84  O   UNL A   1      32.761  34.649  29.561  1.00  0.00    -0.744 OA
ENDBRANCH  78  81
ENDBRANCH  50  74
BRANCH  62  85
ATOM     85  C   UNL A   1      43.243  35.719  30.569  1.00  0.00     0.023 A 
ATOM     86  C   UNL A   1      43.620  36.053  31.885  1.00  0.00     0.012 A 
ATOM     87  C   UNL A   1      43.292  36.708  29.565  1.00  0.00     0.148 A 
ATOM     88  C   UNL A   1      43.998  37.356  32.206  1.00  0.00     0.002 A 
ATOM     89  C   UNL A   1      43.722  37.990  29.881  1.00  0.00     0.091 A 
ATOM     90  F   UNL A   1      42.914  36.376  28.322  1.00  0.00    -0.205 F 
ATOM     91  C   UNL A   1      44.059  38.320  31.203  1.00  0.00     0.022 A 
BRANCH  89  92
ATOM     92  S   UNL A   1      43.931  39.268  28.636  1.00  0.00     0.127 S 
ATOM     93  O   UNL A   1      44.892  38.646  27.728  1.00  0.00    -0.237 OA
ATOM     94  O   UNL A   1      42.577  39.401  28.096  1.00  0.00    -0.237 OA
ATOM     95  O   UNL A   1      44.415  40.445  29.347  1.00  0.00    -0.744 OA
ENDBRANCH  89  92
ENDBRANCH  62  85
ENDBRANCH  36  37
ENDBRANCH  28  31
ENDBRANCH  26  27
ENDBRANCH  25  26
ENDBRANCH   1  25
TORSDOF 19
ENDMDL
