MODEL 1
REMARK VINA RESULT:     -12.7      0.000      0.000
REMARK SMILES COc1cc2c(cc1OC)[C@H](C(=O)NCCCCNC(=O)c1ccc(-c3c4nc(c(-c5cccc(S(=O)(=O)[O-])c5F)c5ccc([nH]5)c(-c5cccc(S(=O)(=O)[O-])c5F)c5nc(c(-c6cccc(S(=O)(=O)[O-])c6F)c6ccc3[nH]6)C=C5)C=C4)cc1)[C@@H](c1ccc(SC)cc1)N(C)C2=O
REMARK SMILES IDX 17 1 16 2 15 3 14 4 12 5 13 6 11 8 3 9 4 10 8 11 5 12 7 13
REMARK SMILES IDX 6 14 96 15 94 16 97 17 85 18 95 19 2 20 1 21 9 22 10 23
REMARK SMILES IDX 86 24 87 25 93 26 88 27 92 28 89 29 90 30 91 31 18 32 19 33
REMARK SMILES IDX 20 34 21 36 22 37 23 38 84 39 24 40 83 41 25 42 26 43 27 44
REMARK SMILES IDX 77 45 28 46 82 47 76 48 78 49 29 50 81 51 75 52 74 53 30 55
REMARK SMILES IDX 62 56 42 57 61 58 43 59 46 60 60 61 79 62 44 63 45 64 59 66
REMARK SMILES IDX 80 67 47 68 31 69 32 70 40 71 33 72 35 73 41 74 34 75 36 76
REMARK SMILES IDX 37 77 38 78 39 79 63 80 64 81 72 82 65 83 67 84 73 85 66 86
REMARK SMILES IDX 68 87 69 88 70 89 71 90 48 91 49 92 57 93 50 94 52 95 58 96
REMARK SMILES IDX 51 97 53 98 54 99 55 100 56 101
REMARK H PARENT 14 7 19 35 78 54 46 65
REMARK Flexibility Score: inf
ROOT
ATOM      1  C   UNL A   1      37.571  20.334  24.711  1.00  0.00     0.023 C 
ENDROOT
BRANCH   1   2
ATOM      2  C   UNL A   1      36.172  20.875  25.006  1.00  0.00     0.023 C 
BRANCH   2   3
ATOM      3  C   UNL A   1      36.048  22.390  24.898  1.00  0.00     0.116 C 
BRANCH   3   4
ATOM      4  N   UNL A   1      35.467  22.801  23.627  1.00  0.00    -0.355 N 
ATOM      5  C   UNL A   1      34.278  23.442  23.387  1.00  0.00     0.230 C 
ATOM      6  O   UNL A   1      34.031  23.827  22.245  1.00  0.00    -0.274 OA
ATOM      7  H   UNL A   1      36.003  22.590  22.830  1.00  0.00     0.163 HD
BRANCH   5   8
ATOM      8  C   UNL A   1      33.340  23.706  24.562  1.00  0.00     0.136 C 
ATOM      9  C   UNL A   1      32.130  27.886  24.884  1.00  0.00     0.161 A 
ATOM     10  C   UNL A   1      31.344  26.852  25.412  1.00  0.00     0.064 A 
ATOM     11  C   UNL A   1      33.320  27.567  24.223  1.00  0.00     0.161 A 
ATOM     12  C   UNL A   1      31.739  25.508  25.302  1.00  0.00     0.048 A 
ATOM     13  C   UNL A   1      33.695  26.218  24.108  1.00  0.00     0.056 A 
ATOM     14  C   UNL A   1      32.919  25.171  24.635  1.00  0.00    -0.016 A 
ATOM     15  C   UNL A   1      30.903  24.459  25.944  1.00  0.00     0.254 C 
ATOM     16  N   UNL A   1      31.193  23.127  25.644  1.00  0.00    -0.334 N 
ATOM     17  O   UNL A   1      30.017  24.801  26.724  1.00  0.00    -0.269 OA
ATOM     18  C   UNL A   1      32.082  22.792  24.488  1.00  0.00     0.132 C 
ATOM     19  C   UNL A   1      30.383  22.110  26.301  1.00  0.00     0.147 C 
BRANCH   9  20
ATOM     20  O   UNL A   1      31.698  29.184  24.926  1.00  0.00    -0.493 OA
ATOM     21  C   UNL A   1      30.677  29.497  23.982  1.00  0.00     0.278 C 
ENDBRANCH   9  20
BRANCH  11  22
ATOM     22  O   UNL A   1      34.234  28.406  23.646  1.00  0.00    -0.493 OA
ATOM     23  C   UNL A   1      34.182  28.623  22.245  1.00  0.00     0.278 C 
ENDBRANCH  11  22
BRANCH  18  24
ATOM     24  C   UNL A   1      32.370  21.286  24.365  1.00  0.00    -0.024 A 
ATOM     25  C   UNL A   1      32.833  20.498  25.428  1.00  0.00     0.007 A 
ATOM     26  C   UNL A   1      32.155  20.645  23.131  1.00  0.00     0.007 A 
ATOM     27  C   UNL A   1      33.079  19.128  25.257  1.00  0.00     0.015 A 
ATOM     28  C   UNL A   1      32.362  19.267  22.974  1.00  0.00     0.015 A 
ATOM     29  C   UNL A   1      32.824  18.493  24.039  1.00  0.00     0.007 A 
BRANCH  29  30
ATOM     30  S   UNL A   1      33.150  16.738  23.946  1.00  0.00    -0.130 SA
ATOM     31  C   UNL A   1      32.822  16.180  25.638  1.00  0.00     0.091 C 
ENDBRANCH  29  30
ENDBRANCH  18  24
ENDBRANCH   5   8
ENDBRANCH   3   4
ENDBRANCH   2   3
ENDBRANCH   1   2
BRANCH   1  32
ATOM     32  C   UNL A   1      38.620  20.634  25.777  1.00  0.00     0.116 C 
BRANCH  32  33
ATOM     33  N   UNL A   1      39.609  19.574  25.915  1.00  0.00    -0.352 N 
ATOM     34  C   UNL A   1      40.955  19.682  26.172  1.00  0.00     0.251 C 
ATOM     35  H   UNL A   1      39.268  18.656  25.809  1.00  0.00     0.163 HD
ATOM     36  O   UNL A   1      41.671  18.685  26.118  1.00  0.00    -0.269 OA
BRANCH  34  37
ATOM     37  C   UNL A   1      41.539  21.005  26.482  1.00  0.00     0.039 A 
ATOM     38  C   UNL A   1      41.985  21.809  25.430  1.00  0.00     0.014 A 
ATOM     39  C   UNL A   1      41.623  21.460  27.800  1.00  0.00     0.014 A 
ATOM     40  C   UNL A   1      42.461  23.094  25.699  1.00  0.00     0.010 A 
ATOM     41  C   UNL A   1      42.017  22.771  28.055  1.00  0.00     0.010 A 
ATOM     42  C   UNL A   1      42.450  23.599  27.010  1.00  0.00    -0.014 A 
BRANCH  42  43
ATOM     43  C   UNL A   1      42.875  24.994  27.294  1.00  0.00     0.031 A 
ATOM     44  C   UNL A   1      41.922  25.971  27.931  1.00  0.00     0.074 A 
ATOM     45  C   UNL A   1      44.098  25.409  26.907  1.00  0.00     0.049 A 
ATOM     46  N   UNL A   1      42.121  27.224  28.252  1.00  0.00    -0.248 NA
ATOM     47  C   UNL A   1      40.561  25.490  28.218  1.00  0.00     0.031 C 
ATOM     48  C   UNL A   1      45.077  24.593  26.185  1.00  0.00     0.029 A 
ATOM     49  N   UNL A   1      44.718  26.626  27.042  1.00  0.00    -0.354 N 
ATOM     50  C   UNL A   1      40.905  27.690  28.736  1.00  0.00     0.074 A 
ATOM     51  C   UNL A   1      39.964  26.597  28.634  1.00  0.00     0.031 C 
ATOM     52  C   UNL A   1      46.175  25.328  25.950  1.00  0.00     0.029 A 
ATOM     53  C   UNL A   1      45.971  26.673  26.479  1.00  0.00     0.049 A 
ATOM     54  H   UNL A   1      44.303  27.393  27.500  1.00  0.00     0.167 HD
ATOM     55  C   UNL A   1      40.604  28.908  29.249  1.00  0.00     0.034 A 
ATOM     56  C   UNL A   1      46.859  27.684  26.395  1.00  0.00     0.034 A 
ATOM     57  C   UNL A   1      41.554  29.979  29.388  1.00  0.00     0.049 A 
ATOM     58  C   UNL A   1      46.528  29.004  27.032  1.00  0.00     0.074 A 
ATOM     59  C   UNL A   1      41.380  31.207  30.000  1.00  0.00     0.029 A 
ATOM     60  N   UNL A   1      42.849  29.957  28.895  1.00  0.00    -0.354 N 
ATOM     61  N   UNL A   1      45.437  29.366  27.661  1.00  0.00    -0.248 NA
ATOM     62  C   UNL A   1      47.566  30.045  26.989  1.00  0.00     0.031 C 
ATOM     63  C   UNL A   1      42.560  31.943  29.846  1.00  0.00     0.029 A 
ATOM     64  C   UNL A   1      43.482  31.156  29.173  1.00  0.00     0.049 A 
ATOM     65  H   UNL A   1      43.259  29.200  28.418  1.00  0.00     0.167 HD
ATOM     66  C   UNL A   1      45.667  30.658  28.117  1.00  0.00     0.074 A 
ATOM     67  C   UNL A   1      47.011  31.010  27.708  1.00  0.00     0.031 C 
ATOM     68  C   UNL A   1      44.836  31.482  28.803  1.00  0.00     0.034 A 
BRANCH  55  69
ATOM     69  C   UNL A   1      39.195  29.134  29.736  1.00  0.00     0.023 A 
ATOM     70  C   UNL A   1      38.844  28.775  31.054  1.00  0.00     0.012 A 
ATOM     71  C   UNL A   1      38.233  29.746  28.908  1.00  0.00     0.148 A 
ATOM     72  C   UNL A   1      37.549  28.980  31.526  1.00  0.00     0.002 A 
ATOM     73  C   UNL A   1      36.958  29.991  29.403  1.00  0.00     0.091 A 
ATOM     74  F   UNL A   1      38.577  30.062  27.652  1.00  0.00    -0.205 F 
ATOM     75  C   UNL A   1      36.610  29.597  30.705  1.00  0.00     0.022 A 
BRANCH  73  76
ATOM     76  S   UNL A   1      35.704  30.858  28.453  1.00  0.00     0.127 S 
ATOM     77  O   UNL A   1      35.181  29.786  27.608  1.00  0.00    -0.237 OA
ATOM     78  O   UNL A   1      34.786  31.315  29.497  1.00  0.00    -0.237 OA
ATOM     79  O   UNL A   1      36.400  31.927  27.749  1.00  0.00    -0.744 OA
ENDBRANCH  73  76
ENDBRANCH  55  69
BRANCH  56  80
ATOM     80  C   UNL A   1      48.175  27.455  25.733  1.00  0.00     0.023 A 
ATOM     81  C   UNL A   1      49.277  27.037  26.503  1.00  0.00     0.012 A 
ATOM     82  C   UNL A   1      48.323  27.600  24.341  1.00  0.00     0.148 A 
ATOM     83  C   UNL A   1      50.513  26.794  25.902  1.00  0.00     0.002 A 
ATOM     84  C   UNL A   1      49.540  27.302  23.740  1.00  0.00     0.091 A 
ATOM     85  F   UNL A   1      47.262  28.006  23.629  1.00  0.00    -0.205 F 
ATOM     86  C   UNL A   1      50.641  26.915  24.521  1.00  0.00     0.022 A 
BRANCH  84  87
ATOM     87  S   UNL A   1      49.760  27.295  21.958  1.00  0.00     0.127 S 
ATOM     88  O   UNL A   1      51.148  26.859  21.829  1.00  0.00    -0.237 OA
ATOM     89  O   UNL A   1      48.762  26.312  21.537  1.00  0.00    -0.237 OA
ATOM     90  O   UNL A   1      49.485  28.657  21.521  1.00  0.00    -0.744 OA
ENDBRANCH  84  87
ENDBRANCH  56  80
BRANCH  68  91
ATOM     91  C   UNL A   1      45.359  32.839  29.196  1.00  0.00     0.023 A 
ATOM     92  C   UNL A   1      46.058  33.002  30.408  1.00  0.00     0.012 A 
ATOM     93  C   UNL A   1      45.227  33.936  28.322  1.00  0.00     0.148 A 
ATOM     94  C   UNL A   1      46.588  34.244  30.759  1.00  0.00     0.002 A 
ATOM     95  C   UNL A   1      45.802  35.157  28.654  1.00  0.00     0.091 A 
ATOM     96  F   UNL A   1      44.543  33.766  27.181  1.00  0.00    -0.205 F 
ATOM     97  C   UNL A   1      46.471  35.316  29.878  1.00  0.00     0.022 A 
BRANCH  95  98
ATOM     98  S   UNL A   1      45.789  36.563  27.536  1.00  0.00     0.127 S 
ATOM     99  O   UNL A   1      46.461  36.013  26.359  1.00  0.00    -0.237 OA
ATOM    100  O   UNL A   1      44.357  36.808  27.362  1.00  0.00    -0.237 OA
ATOM    101  O   UNL A   1      46.505  37.630  28.222  1.00  0.00    -0.744 OA
ENDBRANCH  95  98
ENDBRANCH  68  91
ENDBRANCH  42  43
ENDBRANCH  34  37
ENDBRANCH  32  33
ENDBRANCH   1  32
TORSDOF 18
ENDMDL
MODEL 2
REMARK VINA RESULT:     -12.7      1.729      7.411
REMARK SMILES COc1cc2c(cc1OC)[C@H](C(=O)NCCCCNC(=O)c1ccc(-c3c4nc(c(-c5cccc(S(=O)(=O)[O-])c5F)c5ccc([nH]5)c(-c5cccc(S(=O)(=O)[O-])c5F)c5nc(c(-c6cccc(S(=O)(=O)[O-])c6F)c6ccc3[nH]6)C=C5)C=C4)cc1)[C@@H](c1ccc(SC)cc1)N(C)C2=O
REMARK SMILES IDX 17 1 16 2 15 3 14 4 12 5 13 6 11 8 3 9 4 10 8 11 5 12 7 13
REMARK SMILES IDX 6 14 96 15 94 16 97 17 85 18 95 19 2 20 1 21 9 22 10 23
REMARK SMILES IDX 86 24 87 25 93 26 88 27 92 28 89 29 90 30 91 31 18 32 19 33
REMARK SMILES IDX 20 34 21 36 22 37 23 38 84 39 24 40 83 41 25 42 26 43 27 44
REMARK SMILES IDX 77 45 28 46 82 47 76 48 78 49 29 50 81 51 75 52 74 53 30 55
REMARK SMILES IDX 62 56 42 57 61 58 43 59 46 60 60 61 79 62 44 63 45 64 59 66
REMARK SMILES IDX 80 67 47 68 31 69 32 70 40 71 33 72 35 73 41 74 34 75 36 76
REMARK SMILES IDX 37 77 38 78 39 79 63 80 64 81 72 82 65 83 67 84 73 85 66 86
REMARK SMILES IDX 68 87 69 88 70 89 71 90 48 91 49 92 57 93 50 94 52 95 58 96
REMARK SMILES IDX 51 97 53 98 54 99 55 100 56 101
REMARK H PARENT 14 7 19 35 78 54 46 65
REMARK Flexibility Score: inf
ROOT
ATOM      1  C   UNL A   1      36.220  21.462  25.321  1.00  0.00     0.023 C 
ENDROOT
BRANCH   1   2
ATOM      2  C   UNL A   1      35.780  22.794  25.930  1.00  0.00     0.023 C 
BRANCH   2   3
ATOM      3  C   UNL A   1      35.999  24.001  25.026  1.00  0.00     0.116 C 
BRANCH   3   4
ATOM      4  N   UNL A   1      35.324  23.853  23.745  1.00  0.00    -0.355 N 
ATOM      5  C   UNL A   1      33.988  23.969  23.452  1.00  0.00     0.230 C 
ATOM      6  O   UNL A   1      33.633  23.943  22.275  1.00  0.00    -0.274 OA
ATOM      7  H   UNL A   1      35.907  23.642  22.981  1.00  0.00     0.163 HD
BRANCH   5   8
ATOM      8  C   UNL A   1      33.005  24.187  24.600  1.00  0.00     0.136 C 
ATOM      9  C   UNL A   1      31.516  28.282  24.826  1.00  0.00     0.161 A 
ATOM     10  C   UNL A   1      30.786  27.206  25.351  1.00  0.00     0.064 A 
ATOM     11  C   UNL A   1      32.740  28.033  24.199  1.00  0.00     0.161 A 
ATOM     12  C   UNL A   1      31.272  25.890  25.273  1.00  0.00     0.048 A 
ATOM     13  C   UNL A   1      33.206  26.710  24.114  1.00  0.00     0.056 A 
ATOM     14  C   UNL A   1      32.487  25.622  24.640  1.00  0.00    -0.016 A 
ATOM     15  C   UNL A   1      30.490  24.797  25.911  1.00  0.00     0.254 C 
ATOM     16  N   UNL A   1      30.875  23.483  25.640  1.00  0.00    -0.334 N 
ATOM     17  O   UNL A   1      29.565  25.092  26.665  1.00  0.00    -0.269 OA
ATOM     18  C   UNL A   1      31.812  23.191  24.511  1.00  0.00     0.132 C 
ATOM     19  C   UNL A   1      30.117  22.425  26.294  1.00  0.00     0.147 C 
BRANCH   9  20
ATOM     20  O   UNL A   1      30.999  29.550  24.836  1.00  0.00    -0.493 OA
ATOM     21  C   UNL A   1      30.153  29.851  23.730  1.00  0.00     0.278 C 
ENDBRANCH   9  20
BRANCH  11  22
ATOM     22  O   UNL A   1      33.612  28.922  23.630  1.00  0.00    -0.493 OA
ATOM     23  C   UNL A   1      34.278  28.562  22.431  1.00  0.00     0.278 C 
ENDBRANCH  11  22
BRANCH  18  24
ATOM     24  C   UNL A   1      32.201  21.706  24.420  1.00  0.00    -0.024 A 
ATOM     25  C   UNL A   1      32.115  20.954  23.239  1.00  0.00     0.007 A 
ATOM     26  C   UNL A   1      32.678  21.050  25.570  1.00  0.00     0.007 A 
ATOM     27  C   UNL A   1      32.482  19.602  23.216  1.00  0.00     0.015 A 
ATOM     28  C   UNL A   1      33.084  19.708  25.534  1.00  0.00     0.015 A 
ATOM     29  C   UNL A   1      32.994  18.971  24.353  1.00  0.00     0.007 A 
BRANCH  29  30
ATOM     30  S   UNL A   1      33.454  17.250  24.198  1.00  0.00    -0.130 SA
ATOM     31  C   UNL A   1      32.865  16.535  25.753  1.00  0.00     0.091 C 
ENDBRANCH  29  30
ENDBRANCH  18  24
ENDBRANCH   5   8
ENDBRANCH   3   4
ENDBRANCH   2   3
ENDBRANCH   1   2
BRANCH   1  32
ATOM     32  C   UNL A   1      37.641  21.441  24.768  1.00  0.00     0.116 C 
BRANCH  32  33
ATOM     33  N   UNL A   1      38.465  20.397  25.360  1.00  0.00    -0.352 N 
ATOM     34  C   UNL A   1      39.588  20.527  26.143  1.00  0.00     0.251 C 
ATOM     35  H   UNL A   1      38.180  19.473  25.176  1.00  0.00     0.163 HD
ATOM     36  O   UNL A   1      40.243  19.532  26.445  1.00  0.00    -0.269 OA
BRANCH  34  37
ATOM     37  C   UNL A   1      40.018  21.869  26.591  1.00  0.00     0.039 A 
ATOM     38  C   UNL A   1      40.981  21.968  27.597  1.00  0.00     0.014 A 
ATOM     39  C   UNL A   1      39.492  23.023  26.004  1.00  0.00     0.014 A 
ATOM     40  C   UNL A   1      41.460  23.225  27.973  1.00  0.00     0.010 A 
ATOM     41  C   UNL A   1      40.033  24.267  26.320  1.00  0.00     0.010 A 
ATOM     42  C   UNL A   1      41.014  24.383  27.314  1.00  0.00    -0.014 A 
BRANCH  42  43
ATOM     43  C   UNL A   1      41.580  25.717  27.648  1.00  0.00     0.031 A 
ATOM     44  C   UNL A   1      42.994  26.067  27.270  1.00  0.00     0.074 A 
ATOM     45  C   UNL A   1      40.844  26.590  28.364  1.00  0.00     0.049 A 
ATOM     46  N   UNL A   1      43.650  27.180  27.478  1.00  0.00    -0.248 NA
ATOM     47  C   UNL A   1      43.786  25.025  26.597  1.00  0.00     0.031 C 
ATOM     48  C   UNL A   1      39.499  26.334  28.885  1.00  0.00     0.029 A 
ATOM     49  N   UNL A   1      41.130  27.860  28.801  1.00  0.00    -0.354 N 
ATOM     50  C   UNL A   1      44.937  26.957  27.003  1.00  0.00     0.074 A 
ATOM     51  C   UNL A   1      44.981  25.592  26.528  1.00  0.00     0.031 C 
ATOM     52  C   UNL A   1      39.075  27.413  29.561  1.00  0.00     0.029 A 
ATOM     53  C   UNL A   1      40.123  28.428  29.545  1.00  0.00     0.049 A 
ATOM     54  H   UNL A   1      41.977  28.320  28.598  1.00  0.00     0.167 HD
ATOM     55  C   UNL A   1      45.981  27.819  26.939  1.00  0.00     0.034 A 
ATOM     56  C   UNL A   1      40.050  29.630  30.151  1.00  0.00     0.034 A 
ATOM     57  C   UNL A   1      45.921  29.188  27.374  1.00  0.00     0.049 A 
ATOM     58  C   UNL A   1      41.194  30.594  30.005  1.00  0.00     0.074 A 
ATOM     59  C   UNL A   1      46.883  30.174  27.244  1.00  0.00     0.029 A 
ATOM     60  N   UNL A   1      44.847  29.762  28.035  1.00  0.00    -0.354 N 
ATOM     61  N   UNL A   1      42.335  30.432  29.381  1.00  0.00    -0.248 NA
ATOM     62  C   UNL A   1      41.026  31.924  30.610  1.00  0.00     0.031 C 
ATOM     63  C   UNL A   1      46.405  31.335  27.860  1.00  0.00     0.029 A 
ATOM     64  C   UNL A   1      45.127  31.084  28.338  1.00  0.00     0.049 A 
ATOM     65  H   UNL A   1      44.007  29.299  28.258  1.00  0.00     0.167 HD
ATOM     66  C   UNL A   1      43.005  31.645  29.487  1.00  0.00     0.074 A 
ATOM     67  C   UNL A   1      42.134  32.539  30.220  1.00  0.00     0.031 C 
ATOM     68  C   UNL A   1      44.236  31.982  29.027  1.00  0.00     0.034 A 
BRANCH  55  69
ATOM     69  C   UNL A   1      47.269  27.315  26.339  1.00  0.00     0.023 A 
ATOM     70  C   UNL A   1      47.582  27.618  24.997  1.00  0.00     0.012 A 
ATOM     71  C   UNL A   1      48.191  26.585  27.115  1.00  0.00     0.148 A 
ATOM     72  C   UNL A   1      48.770  27.167  24.425  1.00  0.00     0.002 A 
ATOM     73  C   UNL A   1      49.395  26.181  26.550  1.00  0.00     0.091 A 
ATOM     74  F   UNL A   1      47.869  26.288  28.381  1.00  0.00    -0.205 F 
ATOM     75  C   UNL A   1      49.680  26.457  25.203  1.00  0.00     0.022 A 
BRANCH  73  76
ATOM     76  S   UNL A   1      50.669  25.338  27.495  1.00  0.00     0.127 S 
ATOM     77  O   UNL A   1      49.934  24.190  28.022  1.00  0.00    -0.237 OA
ATOM     78  O   UNL A   1      51.653  25.010  26.462  1.00  0.00    -0.237 OA
ATOM     79  O   UNL A   1      51.133  26.296  28.489  1.00  0.00    -0.744 OA
ENDBRANCH  73  76
ENDBRANCH  55  69
BRANCH  56  80
ATOM     80  C   UNL A   1      38.813  30.007  30.893  1.00  0.00     0.023 A 
ATOM     81  C   UNL A   1      38.672  29.637  32.244  1.00  0.00     0.012 A 
ATOM     82  C   UNL A   1      37.803  30.771  30.279  1.00  0.00     0.148 A 
ATOM     83  C   UNL A   1      37.533  29.998  32.964  1.00  0.00     0.002 A 
ATOM     84  C   UNL A   1      36.698  31.177  31.018  1.00  0.00     0.091 A 
ATOM     85  F   UNL A   1      37.955  31.106  28.991  1.00  0.00    -0.205 F 
ATOM     86  C   UNL A   1      36.553  30.777  32.356  1.00  0.00     0.022 A 
BRANCH  84  87
ATOM     87  S   UNL A   1      35.455  32.294  30.361  1.00  0.00     0.127 S 
ATOM     88  O   UNL A   1      34.988  31.565  29.185  1.00  0.00    -0.237 OA
ATOM     89  O   UNL A   1      34.498  32.360  31.466  1.00  0.00    -0.237 OA
ATOM     90  O   UNL A   1      36.151  33.545  30.092  1.00  0.00    -0.744 OA
ENDBRANCH  84  87
ENDBRANCH  56  80
BRANCH  68  91
ATOM     91  C   UNL A   1      44.712  33.391  29.264  1.00  0.00     0.023 A 
ATOM     92  C   UNL A   1      45.381  33.719  30.461  1.00  0.00     0.012 A 
ATOM     93  C   UNL A   1      44.567  34.372  28.264  1.00  0.00     0.148 A 
ATOM     94  C   UNL A   1      45.867  35.009  30.670  1.00  0.00     0.002 A 
ATOM     95  C   UNL A   1      45.100  35.641  28.459  1.00  0.00     0.091 A 
ATOM     96  F   UNL A   1      43.912  34.047  27.140  1.00  0.00    -0.205 F 
ATOM     97  C   UNL A   1      45.739  35.965  29.666  1.00  0.00     0.022 A 
BRANCH  95  98
ATOM     98  S   UNL A   1      45.070  36.903  27.180  1.00  0.00     0.127 S 
ATOM     99  O   UNL A   1      45.660  38.046  27.877  1.00  0.00    -0.237 OA
ATOM    100  O   UNL A   1      45.919  36.316  26.144  1.00  0.00    -0.237 OA
ATOM    101  O   UNL A   1      43.672  37.058  26.800  1.00  0.00    -0.744 OA
ENDBRANCH  95  98
ENDBRANCH  68  91
ENDBRANCH  42  43
ENDBRANCH  34  37
ENDBRANCH  32  33
ENDBRANCH   1  32
TORSDOF 18
ENDMDL
MODEL 3
REMARK VINA RESULT:     -11.8      2.274      7.657
REMARK SMILES COc1cc2c(cc1OC)[C@H](C(=O)NCCCCNC(=O)c1ccc(-c3c4nc(c(-c5cccc(S(=O)(=O)[O-])c5F)c5ccc([nH]5)c(-c5cccc(S(=O)(=O)[O-])c5F)c5nc(c(-c6cccc(S(=O)(=O)[O-])c6F)c6ccc3[nH]6)C=C5)C=C4)cc1)[C@@H](c1ccc(SC)cc1)N(C)C2=O
REMARK SMILES IDX 17 1 16 2 15 3 14 4 12 5 13 6 11 8 3 9 4 10 8 11 5 12 7 13
REMARK SMILES IDX 6 14 96 15 94 16 97 17 85 18 95 19 2 20 1 21 9 22 10 23
REMARK SMILES IDX 86 24 87 25 93 26 88 27 92 28 89 29 90 30 91 31 18 32 19 33
REMARK SMILES IDX 20 34 21 36 22 37 23 38 84 39 24 40 83 41 25 42 26 43 27 44
REMARK SMILES IDX 77 45 28 46 82 47 76 48 78 49 29 50 81 51 75 52 74 53 30 55
REMARK SMILES IDX 62 56 42 57 61 58 43 59 46 60 60 61 79 62 44 63 45 64 59 66
REMARK SMILES IDX 80 67 47 68 31 69 32 70 40 71 33 72 35 73 41 74 34 75 36 76
REMARK SMILES IDX 37 77 38 78 39 79 63 80 64 81 72 82 65 83 67 84 73 85 66 86
REMARK SMILES IDX 68 87 69 88 70 89 71 90 48 91 49 92 57 93 50 94 52 95 58 96
REMARK SMILES IDX 51 97 53 98 54 99 55 100 56 101
REMARK H PARENT 14 7 19 35 78 54 46 65
REMARK Flexibility Score: inf
ROOT
ATOM      1  C   UNL A   1      38.461  21.859  25.762  1.00  0.00     0.023 C 
ENDROOT
BRANCH   1   2
ATOM      2  C   UNL A   1      37.785  23.193  25.442  1.00  0.00     0.023 C 
BRANCH   2   3
ATOM      3  C   UNL A   1      36.262  23.139  25.435  1.00  0.00     0.116 C 
BRANCH   3   4
ATOM      4  N   UNL A   1      35.715  23.311  24.097  1.00  0.00    -0.355 N 
ATOM      5  C   UNL A   1      34.449  23.684  23.721  1.00  0.00     0.230 C 
ATOM      6  O   UNL A   1      34.224  23.908  22.532  1.00  0.00    -0.274 OA
ATOM      7  H   UNL A   1      36.342  23.138  23.359  1.00  0.00     0.163 HD
BRANCH   5   8
ATOM      8  C   UNL A   1      33.389  23.864  24.804  1.00  0.00     0.136 C 
ATOM      9  C   UNL A   1      31.961  27.974  25.137  1.00  0.00     0.161 A 
ATOM     10  C   UNL A   1      31.175  26.889  25.551  1.00  0.00     0.064 A 
ATOM     11  C   UNL A   1      33.223  27.731  24.588  1.00  0.00     0.161 A 
ATOM     12  C   UNL A   1      31.642  25.568  25.439  1.00  0.00     0.048 A 
ATOM     13  C   UNL A   1      33.670  26.404  24.468  1.00  0.00     0.056 A 
ATOM     14  C   UNL A   1      32.895  25.306  24.882  1.00  0.00    -0.016 A 
ATOM     15  C   UNL A   1      30.796  24.461  25.960  1.00  0.00     0.254 C 
ATOM     16  N   UNL A   1      31.176  23.154  25.649  1.00  0.00    -0.334 N 
ATOM     17  O   UNL A   1      29.823  24.737  26.659  1.00  0.00    -0.269 OA
ATOM     18  C   UNL A   1      32.188  22.901  24.577  1.00  0.00     0.132 C 
ATOM     19  C   UNL A   1      30.353  22.081  26.190  1.00  0.00     0.147 C 
BRANCH   9  20
ATOM     20  O   UNL A   1      31.467  29.250  25.177  1.00  0.00    -0.493 OA
ATOM     21  C   UNL A   1      30.618  29.589  24.083  1.00  0.00     0.278 C 
ENDBRANCH   9  20
BRANCH  11  22
ATOM     22  O   UNL A   1      34.150  28.628  24.131  1.00  0.00    -0.493 OA
ATOM     23  C   UNL A   1      34.172  28.953  22.751  1.00  0.00     0.278 C 
ENDBRANCH  11  22
BRANCH  18  24
ATOM     24  C   UNL A   1      32.556  21.414  24.436  1.00  0.00    -0.024 A 
ATOM     25  C   UNL A   1      32.155  20.616  23.355  1.00  0.00     0.007 A 
ATOM     26  C   UNL A   1      33.343  20.804  25.431  1.00  0.00     0.007 A 
ATOM     27  C   UNL A   1      32.519  19.265  23.280  1.00  0.00     0.015 A 
ATOM     28  C   UNL A   1      33.741  19.463  25.333  1.00  0.00     0.015 A 
ATOM     29  C   UNL A   1      33.335  18.680  24.253  1.00  0.00     0.007 A 
BRANCH  29  30
ATOM     30  S   UNL A   1      33.757  16.956  24.038  1.00  0.00    -0.130 SA
ATOM     31  C   UNL A   1      32.887  16.157  25.410  1.00  0.00     0.091 C 
ENDBRANCH  29  30
ENDBRANCH  18  24
ENDBRANCH   5   8
ENDBRANCH   3   4
ENDBRANCH   2   3
ENDBRANCH   1   2
BRANCH   1  32
ATOM     32  C   UNL A   1      39.652  21.947  26.710  1.00  0.00     0.116 C 
BRANCH  32  33
ATOM     33  N   UNL A   1      40.919  21.638  26.063  1.00  0.00    -0.352 N 
ATOM     34  C   UNL A   1      42.005  22.456  25.863  1.00  0.00     0.251 C 
ATOM     35  H   UNL A   1      41.010  20.719  25.721  1.00  0.00     0.163 HD
ATOM     36  O   UNL A   1      42.944  22.070  25.171  1.00  0.00    -0.269 OA
BRANCH  34  37
ATOM     37  C   UNL A   1      42.023  23.811  26.457  1.00  0.00     0.039 A 
ATOM     38  C   UNL A   1      42.179  23.939  27.839  1.00  0.00     0.014 A 
ATOM     39  C   UNL A   1      41.911  24.948  25.652  1.00  0.00     0.014 A 
ATOM     40  C   UNL A   1      42.282  25.212  28.405  1.00  0.00     0.010 A 
ATOM     41  C   UNL A   1      42.100  26.210  26.208  1.00  0.00     0.010 A 
ATOM     42  C   UNL A   1      42.277  26.357  27.591  1.00  0.00    -0.014 A 
BRANCH  42  43
ATOM     43  C   UNL A   1      42.472  27.710  28.175  1.00  0.00     0.031 A 
ATOM     44  C   UNL A   1      43.855  28.273  28.363  1.00  0.00     0.074 A 
ATOM     45  C   UNL A   1      41.403  28.405  28.613  1.00  0.00     0.049 A 
ATOM     46  N   UNL A   1      44.213  29.432  28.853  1.00  0.00    -0.248 NA
ATOM     47  C   UNL A   1      44.986  27.414  27.978  1.00  0.00     0.031 C 
ATOM     48  C   UNL A   1      40.018  27.929  28.588  1.00  0.00     0.029 A 
ATOM     49  N   UNL A   1      41.314  29.649  29.186  1.00  0.00    -0.354 N 
ATOM     50  C   UNL A   1      45.602  29.424  28.875  1.00  0.00     0.074 A 
ATOM     51  C   UNL A   1      46.024  28.132  28.382  1.00  0.00     0.031 C 
ATOM     52  C   UNL A   1      39.218  28.870  29.113  1.00  0.00     0.029 A 
ATOM     53  C   UNL A   1      40.032  30.006  29.535  1.00  0.00     0.049 A 
ATOM     54  H   UNL A   1      42.094  30.231  29.334  1.00  0.00     0.167 HD
ATOM     55  C   UNL A   1      46.453  30.413  29.243  1.00  0.00     0.034 A 
ATOM     56  C   UNL A   1      39.562  31.121  30.130  1.00  0.00     0.034 A 
ATOM     57  C   UNL A   1      46.030  31.712  29.692  1.00  0.00     0.049 A 
ATOM     58  C   UNL A   1      40.518  32.231  30.464  1.00  0.00     0.074 A 
ATOM     59  C   UNL A   1      46.809  32.819  29.975  1.00  0.00     0.029 A 
ATOM     60  N   UNL A   1      44.715  32.074  29.940  1.00  0.00    -0.354 N 
ATOM     61  N   UNL A   1      41.817  32.279  30.297  1.00  0.00    -0.248 NA
ATOM     62  C   UNL A   1      39.941  33.460  31.030  1.00  0.00     0.031 C 
ATOM     63  C   UNL A   1      45.969  33.841  30.428  1.00  0.00     0.029 A 
ATOM     64  C   UNL A   1      44.661  33.382  30.389  1.00  0.00     0.049 A 
ATOM     65  H   UNL A   1      43.934  31.488  29.814  1.00  0.00     0.167 HD
ATOM     66  C   UNL A   1      42.209  33.549  30.703  1.00  0.00     0.074 A 
ATOM     67  C   UNL A   1      41.005  34.247  31.106  1.00  0.00     0.031 C 
ATOM     68  C   UNL A   1      43.454  34.085  30.746  1.00  0.00     0.034 A 
BRANCH  55  69
ATOM     69  C   UNL A   1      47.931  30.141  29.135  1.00  0.00     0.023 A 
ATOM     70  C   UNL A   1      48.636  29.647  30.254  1.00  0.00     0.012 A 
ATOM     71  C   UNL A   1      48.614  30.325  27.917  1.00  0.00     0.148 A 
ATOM     72  C   UNL A   1      50.003  29.385  30.174  1.00  0.00     0.002 A 
ATOM     73  C   UNL A   1      49.966  30.014  27.833  1.00  0.00     0.091 A 
ATOM     74  F   UNL A   1      47.935  30.814  26.870  1.00  0.00    -0.205 F 
ATOM     75  C   UNL A   1      50.665  29.558  28.962  1.00  0.00     0.022 A 
BRANCH  73  76
ATOM     76  S   UNL A   1      50.887  30.122  26.294  1.00  0.00     0.127 S 
ATOM     77  O   UNL A   1      50.222  29.105  25.481  1.00  0.00    -0.237 OA
ATOM     78  O   UNL A   1      50.631  31.500  25.877  1.00  0.00    -0.237 OA
ATOM     79  O   UNL A   1      52.275  29.840  26.637  1.00  0.00    -0.744 OA
ENDBRANCH  73  76
ENDBRANCH  55  69
BRANCH  56  80
ATOM     80  C   UNL A   1      38.099  31.259  30.382  1.00  0.00     0.023 A 
ATOM     81  C   UNL A   1      37.565  30.852  31.619  1.00  0.00     0.012 A 
ATOM     82  C   UNL A   1      37.249  31.839  29.422  1.00  0.00     0.148 A 
ATOM     83  C   UNL A   1      36.202  30.993  31.886  1.00  0.00     0.002 A 
ATOM     84  C   UNL A   1      35.904  32.030  29.714  1.00  0.00     0.091 A 
ATOM     85  F   UNL A   1      37.779  32.213  28.249  1.00  0.00    -0.205 F 
ATOM     86  C   UNL A   1      35.375  31.593  30.939  1.00  0.00     0.022 A 
BRANCH  84  87
ATOM     87  S   UNL A   1      34.793  32.915  28.615  1.00  0.00     0.127 S 
ATOM     88  O   UNL A   1      34.206  33.903  29.516  1.00  0.00    -0.237 OA
ATOM     89  O   UNL A   1      35.723  33.459  27.625  1.00  0.00    -0.237 OA
ATOM     90  O   UNL A   1      33.875  31.914  28.092  1.00  0.00    -0.744 OA
ENDBRANCH  84  87
ENDBRANCH  56  80
BRANCH  68  91
ATOM     91  C   UNL A   1      43.589  35.511  31.211  1.00  0.00     0.023 A 
ATOM     92  C   UNL A   1      43.780  35.792  32.579  1.00  0.00     0.012 A 
ATOM     93  C   UNL A   1      43.607  36.568  30.280  1.00  0.00     0.148 A 
ATOM     94  C   UNL A   1      43.954  37.106  33.015  1.00  0.00     0.002 A 
ATOM     95  C   UNL A   1      43.833  37.868  30.716  1.00  0.00     0.091 A 
ATOM     96  F   UNL A   1      43.406  36.283  28.985  1.00  0.00    -0.205 F 
ATOM     97  C   UNL A   1      43.993  38.141  32.083  1.00  0.00     0.022 A 
BRANCH  95  98
ATOM     98  S   UNL A   1      43.999  39.249  29.578  1.00  0.00     0.127 S 
ATOM     99  O   UNL A   1      44.136  40.377  30.498  1.00  0.00    -0.237 OA
ATOM    100  O   UNL A   1      45.220  38.905  28.849  1.00  0.00    -0.237 OA
ATOM    101  O   UNL A   1      42.790  39.249  28.765  1.00  0.00    -0.744 OA
ENDBRANCH  95  98
ENDBRANCH  68  91
ENDBRANCH  42  43
ENDBRANCH  34  37
ENDBRANCH  32  33
ENDBRANCH   1  32
TORSDOF 18
ENDMDL
