MODEL 1
REMARK VINA RESULT:     -11.4      0.000      0.000
REMARK SMILES COc1ccccc1Nc1snc(C)c1C(=O)NCCCCNC(=O)c1ccc(-c2c3nc(c(-c4cccc(S(=O)(=O)[O-])c4F)c4ccc([nH]4)c(-c4cccc(S(=O)(=O)[O-])c4F)c4nc(c(-c5cccc(S(=O)(=O)[O-])c5F)c5ccc2[nH]5)C=C4)C=C3)cc1
REMARK SMILES IDX 20 1 19 2 18 3 16 4 17 5 15 7 10 8 11 9 12 10 13 11 14 12
REMARK SMILES IDX 9 13 8 15 3 16 4 17 5 18 7 19 6 20 2 21 1 22 21 23 22 24
REMARK SMILES IDX 23 25 24 26 25 28 26 29 27 30 88 31 28 32 87 33 29 34 30 35
REMARK SMILES IDX 31 36 81 37 32 38 86 39 80 40 82 41 33 42 85 43 79 44 78 45
REMARK SMILES IDX 34 47 66 48 46 49 65 50 47 51 50 52 64 53 83 54 48 55 49 56
REMARK SMILES IDX 63 58 84 59 51 60 35 61 36 62 44 63 37 64 39 65 45 66 38 67
REMARK SMILES IDX 40 68 41 69 42 70 43 71 67 72 68 73 76 74 69 75 71 76 77 77
REMARK SMILES IDX 70 78 72 79 73 80 74 81 75 82 52 83 53 84 61 85 54 86 56 87
REMARK SMILES IDX 62 88 55 89 57 90 58 91 59 92 60 93
REMARK H PARENT 18 6 9 14 23 27 82 46 50 57
REMARK Flexibility Score: inf
ROOT
ATOM      1  C   UNL A   1      39.133  22.648  26.220  1.00  0.00     0.023 C 
ENDROOT
BRANCH   1   2
ATOM      2  C   UNL A   1      37.988  23.592  25.841  1.00  0.00     0.116 C 
BRANCH   2   3
ATOM      3  N   UNL A   1      37.351  23.419  24.561  1.00  0.00    -0.352 N 
ATOM      4  C   UNL A   1      36.010  23.294  24.229  1.00  0.00     0.256 C 
ATOM      5  O   UNL A   1      35.771  23.421  23.026  1.00  0.00    -0.269 OA
ATOM      6  H   UNL A   1      37.968  23.383  23.796  1.00  0.00     0.163 HD
BRANCH   4   7
ATOM      7  C   UNL A   1      34.928  22.904  25.160  1.00  0.00     0.097 A 
ATOM      8  C   UNL A   1      33.942  23.665  25.802  1.00  0.00     0.127 A 
ATOM      9  S   UNL A   1      33.115  22.652  26.929  1.00  0.00    -0.018 S 
ATOM     10  N   UNL A   1      33.779  21.243  26.446  1.00  0.00    -0.195 NA
ATOM     11  C   UNL A   1      34.682  21.488  25.496  1.00  0.00     0.066 A 
ATOM     12  C   UNL A   1      35.325  20.269  24.914  1.00  0.00     0.069 C 
BRANCH   8  13
ATOM     13  N   UNL A   1      33.527  24.957  25.756  1.00  0.00    -0.342 N 
ATOM     14  H   UNL A   1      34.180  25.621  26.079  1.00  0.00     0.168 HD
BRANCH  13  15
ATOM     15  C   UNL A   1      32.300  25.483  25.313  1.00  0.00     0.082 A 
ATOM     16  C   UNL A   1      32.258  26.193  24.092  1.00  0.00     0.142 A 
ATOM     17  C   UNL A   1      31.051  26.693  23.608  1.00  0.00     0.048 A 
ATOM     18  C   UNL A   1      29.874  26.488  24.335  1.00  0.00     0.004 A 
ATOM     19  C   UNL A   1      31.104  25.273  26.012  1.00  0.00     0.030 A 
ATOM     20  C   UNL A   1      29.896  25.772  25.528  1.00  0.00     0.002 A 
BRANCH  16  21
ATOM     21  O   UNL A   1      33.405  26.559  23.424  1.00  0.00    -0.495 OA
ATOM     22  C   UNL A   1      33.881  27.862  23.753  1.00  0.00     0.278 C 
ENDBRANCH  16  21
ENDBRANCH  13  15
ENDBRANCH   8  13
ENDBRANCH   4   7
ENDBRANCH   2   3
ENDBRANCH   1   2
BRANCH   1  23
ATOM     23  C   UNL A   1      39.180  21.231  25.636  1.00  0.00     0.023 C 
BRANCH  23  24
ATOM     24  C   UNL A   1      39.720  20.123  26.532  1.00  0.00     0.116 C 
BRANCH  24  25
ATOM     25  N   UNL A   1      40.868  19.375  26.007  1.00  0.00    -0.352 N 
ATOM     26  C   UNL A   1      42.131  19.893  25.708  1.00  0.00     0.251 C 
ATOM     27  H   UNL A   1      40.736  18.412  25.850  1.00  0.00     0.163 HD
ATOM     28  O   UNL A   1      42.906  19.300  24.979  1.00  0.00    -0.269 OA
BRANCH  26  29
ATOM     29  C   UNL A   1      42.517  21.175  26.339  1.00  0.00     0.039 A 
ATOM     30  C   UNL A   1      42.794  22.343  25.627  1.00  0.00     0.014 A 
ATOM     31  C   UNL A   1      42.540  21.183  27.727  1.00  0.00     0.014 A 
ATOM     32  C   UNL A   1      42.989  23.528  26.343  1.00  0.00     0.010 A 
ATOM     33  C   UNL A   1      42.594  22.357  28.425  1.00  0.00     0.010 A 
ATOM     34  C   UNL A   1      42.858  23.531  27.746  1.00  0.00    -0.014 A 
BRANCH  34  35
ATOM     35  C   UNL A   1      42.791  24.771  28.509  1.00  0.00     0.031 A 
ATOM     36  C   UNL A   1      41.521  25.515  28.296  1.00  0.00     0.074 A 
ATOM     37  C   UNL A   1      43.660  25.112  29.487  1.00  0.00     0.049 A 
ATOM     38  N   UNL A   1      41.367  26.589  27.597  1.00  0.00    -0.248 NA
ATOM     39  C   UNL A   1      40.256  24.905  28.734  1.00  0.00     0.031 C 
ATOM     40  C   UNL A   1      44.763  24.322  30.050  1.00  0.00     0.029 A 
ATOM     41  N   UNL A   1      43.659  26.215  30.284  1.00  0.00    -0.354 N 
ATOM     42  C   UNL A   1      40.026  26.938  27.736  1.00  0.00     0.074 A 
ATOM     43  C   UNL A   1      39.363  25.764  28.235  1.00  0.00     0.031 C 
ATOM     44  C   UNL A   1      45.150  24.853  31.232  1.00  0.00     0.029 A 
ATOM     45  C   UNL A   1      44.462  26.115  31.418  1.00  0.00     0.049 A 
ATOM     46  H   UNL A   1      43.130  27.019  30.076  1.00  0.00     0.167 HD
ATOM     47  C   UNL A   1      39.642  28.244  27.685  1.00  0.00     0.034 A 
ATOM     48  C   UNL A   1      44.535  27.003  32.442  1.00  0.00     0.034 A 
ATOM     49  C   UNL A   1      40.714  29.071  27.182  1.00  0.00     0.049 A 
ATOM     50  C   UNL A   1      44.038  28.294  31.918  1.00  0.00     0.074 A 
ATOM     51  C   UNL A   1      41.458  29.113  26.021  1.00  0.00     0.029 A 
ATOM     52  N   UNL A   1      41.437  29.763  28.125  1.00  0.00    -0.354 N 
ATOM     53  N   UNL A   1      44.648  28.970  30.984  1.00  0.00    -0.248 NA
ATOM     54  C   UNL A   1      42.633  28.608  32.109  1.00  0.00     0.031 C 
ATOM     55  C   UNL A   1      42.787  29.401  26.451  1.00  0.00     0.029 A 
ATOM     56  C   UNL A   1      42.764  29.609  27.833  1.00  0.00     0.049 A 
ATOM     57  H   UNL A   1      41.067  30.279  28.876  1.00  0.00     0.167 HD
ATOM     58  C   UNL A   1      43.619  29.422  30.170  1.00  0.00     0.074 A 
ATOM     59  C   UNL A   1      42.403  29.266  30.969  1.00  0.00     0.031 C 
ATOM     60  C   UNL A   1      43.811  29.597  28.831  1.00  0.00     0.034 A 
BRANCH  47  61
ATOM     61  C   UNL A   1      38.490  28.860  28.450  1.00  0.00     0.023 A 
ATOM     62  C   UNL A   1      37.565  29.625  27.699  1.00  0.00     0.012 A 
ATOM     63  C   UNL A   1      38.423  28.982  29.856  1.00  0.00     0.148 A 
ATOM     64  C   UNL A   1      36.683  30.523  28.308  1.00  0.00     0.002 A 
ATOM     65  C   UNL A   1      37.495  29.823  30.461  1.00  0.00     0.091 A 
ATOM     66  F   UNL A   1      39.334  28.389  30.628  1.00  0.00    -0.205 F 
ATOM     67  C   UNL A   1      36.647  30.623  29.692  1.00  0.00     0.022 A 
BRANCH  65  68
ATOM     68  S   UNL A   1      37.375  29.965  32.249  1.00  0.00     0.127 S 
ATOM     69  O   UNL A   1      36.235  30.867  32.393  1.00  0.00    -0.237 OA
ATOM     70  O   UNL A   1      37.122  28.578  32.640  1.00  0.00    -0.237 OA
ATOM     71  O   UNL A   1      38.661  30.486  32.692  1.00  0.00    -0.744 OA
ENDBRANCH  65  68
ENDBRANCH  47  61
BRANCH  48  72
ATOM     72  C   UNL A   1      44.754  26.793  33.891  1.00  0.00     0.023 A 
ATOM     73  C   UNL A   1      45.939  27.261  34.497  1.00  0.00     0.012 A 
ATOM     74  C   UNL A   1      43.678  26.429  34.729  1.00  0.00     0.148 A 
ATOM     75  C   UNL A   1      46.033  27.407  35.887  1.00  0.00     0.002 A 
ATOM     76  C   UNL A   1      43.775  26.579  36.111  1.00  0.00     0.091 A 
ATOM     77  F   UNL A   1      42.532  26.027  34.163  1.00  0.00    -0.205 F 
ATOM     78  C   UNL A   1      44.947  27.080  36.693  1.00  0.00     0.022 A 
BRANCH  76  79
ATOM     79  S   UNL A   1      42.401  26.224  37.215  1.00  0.00     0.127 S 
ATOM     80  O   UNL A   1      42.074  24.844  36.853  1.00  0.00    -0.237 OA
ATOM     81  O   UNL A   1      43.022  26.382  38.528  1.00  0.00    -0.237 OA
ATOM     82  O   UNL A   1      41.368  27.195  36.883  1.00  0.00    -0.744 OA
ENDBRANCH  76  79
ENDBRANCH  48  72
BRANCH  60  83
ATOM     83  C   UNL A   1      45.221  29.563  28.299  1.00  0.00     0.023 A 
ATOM     84  C   UNL A   1      45.819  28.396  27.777  1.00  0.00     0.012 A 
ATOM     85  C   UNL A   1      45.869  30.796  28.129  1.00  0.00     0.148 A 
ATOM     86  C   UNL A   1      47.041  28.465  27.100  1.00  0.00     0.002 A 
ATOM     87  C   UNL A   1      47.052  30.869  27.409  1.00  0.00     0.091 A 
ATOM     88  F   UNL A   1      45.283  31.890  28.639  1.00  0.00    -0.205 F 
ATOM     89  C   UNL A   1      47.648  29.705  26.899  1.00  0.00     0.022 A 
BRANCH  87  90
ATOM     90  S   UNL A   1      47.794  32.447  26.995  1.00  0.00     0.127 S 
ATOM     91  O   UNL A   1      47.897  33.089  28.302  1.00  0.00    -0.237 OA
ATOM     92  O   UNL A   1      49.073  32.044  26.406  1.00  0.00    -0.237 OA
ATOM     93  O   UNL A   1      46.883  33.088  26.054  1.00  0.00    -0.744 OA
ENDBRANCH  87  90
ENDBRANCH  60  83
ENDBRANCH  34  35
ENDBRANCH  26  29
ENDBRANCH  24  25
ENDBRANCH  23  24
ENDBRANCH   1  23
TORSDOF 17
ENDMDL
MODEL 2
REMARK VINA RESULT:     -11.3      3.685      9.162
REMARK SMILES COc1ccccc1Nc1snc(C)c1C(=O)NCCCCNC(=O)c1ccc(-c2c3nc(c(-c4cccc(S(=O)(=O)[O-])c4F)c4ccc([nH]4)c(-c4cccc(S(=O)(=O)[O-])c4F)c4nc(c(-c5cccc(S(=O)(=O)[O-])c5F)c5ccc2[nH]5)C=C4)C=C3)cc1
REMARK SMILES IDX 20 1 19 2 18 3 16 4 17 5 15 7 10 8 11 9 12 10 13 11 14 12
REMARK SMILES IDX 9 13 8 15 3 16 4 17 5 18 7 19 6 20 2 21 1 22 21 23 22 24
REMARK SMILES IDX 23 25 24 26 25 28 26 29 27 30 88 31 28 32 87 33 29 34 30 35
REMARK SMILES IDX 31 36 81 37 32 38 86 39 80 40 82 41 33 42 85 43 79 44 78 45
REMARK SMILES IDX 34 47 66 48 46 49 65 50 47 51 50 52 64 53 83 54 48 55 49 56
REMARK SMILES IDX 63 58 84 59 51 60 35 61 36 62 44 63 37 64 39 65 45 66 38 67
REMARK SMILES IDX 40 68 41 69 42 70 43 71 67 72 68 73 76 74 69 75 71 76 77 77
REMARK SMILES IDX 70 78 72 79 73 80 74 81 75 82 52 83 53 84 61 85 54 86 56 87
REMARK SMILES IDX 62 88 55 89 57 90 58 91 59 92 60 93
REMARK H PARENT 18 6 9 14 23 27 82 46 50 57
REMARK Flexibility Score: inf
ROOT
ATOM      1  C   UNL A   1      34.590  30.891  27.617  1.00  0.00     0.023 C 
ENDROOT
BRANCH   1   2
ATOM      2  C   UNL A   1      34.376  29.513  26.983  1.00  0.00     0.116 C 
BRANCH   2   3
ATOM      3  N   UNL A   1      33.981  29.449  25.598  1.00  0.00    -0.352 N 
ATOM      4  C   UNL A   1      33.111  28.587  24.947  1.00  0.00     0.256 C 
ATOM      5  O   UNL A   1      32.787  28.953  23.816  1.00  0.00    -0.269 OA
ATOM      6  H   UNL A   1      34.396  30.127  25.020  1.00  0.00     0.163 HD
BRANCH   4   7
ATOM      7  C   UNL A   1      32.683  27.261  25.445  1.00  0.00     0.097 A 
ATOM      8  C   UNL A   1      33.018  25.965  25.031  1.00  0.00     0.127 A 
ATOM      9  S   UNL A   1      32.015  24.842  25.876  1.00  0.00    -0.018 S 
ATOM     10  N   UNL A   1      31.366  25.912  26.923  1.00  0.00    -0.195 NA
ATOM     11  C   UNL A   1      31.812  27.134  26.630  1.00  0.00     0.066 A 
ATOM     12  C   UNL A   1      31.343  28.209  27.559  1.00  0.00     0.069 C 
BRANCH   8  13
ATOM     13  N   UNL A   1      33.893  25.423  24.145  1.00  0.00    -0.342 N 
ATOM     14  H   UNL A   1      33.798  25.734  23.215  1.00  0.00     0.168 HD
BRANCH  13  15
ATOM     15  C   UNL A   1      34.916  24.482  24.366  1.00  0.00     0.082 A 
ATOM     16  C   UNL A   1      35.182  23.513  23.373  1.00  0.00     0.142 A 
ATOM     17  C   UNL A   1      36.214  22.592  23.546  1.00  0.00     0.048 A 
ATOM     18  C   UNL A   1      36.990  22.630  24.708  1.00  0.00     0.004 A 
ATOM     19  C   UNL A   1      35.721  24.513  25.512  1.00  0.00     0.030 A 
ATOM     20  C   UNL A   1      36.753  23.592  25.685  1.00  0.00     0.002 A 
BRANCH  16  21
ATOM     21  O   UNL A   1      34.350  23.332  22.292  1.00  0.00    -0.495 OA
ATOM     22  C   UNL A   1      33.152  22.619  22.590  1.00  0.00     0.278 C 
ENDBRANCH  16  21
ENDBRANCH  13  15
ENDBRANCH   8  13
ENDBRANCH   4   7
ENDBRANCH   2   3
ENDBRANCH   1   2
BRANCH   1  23
ATOM     23  C   UNL A   1      33.381  31.769  27.962  1.00  0.00     0.023 C 
BRANCH  23  24
ATOM     24  C   UNL A   1      33.305  33.143  27.308  1.00  0.00     0.116 C 
BRANCH  24  25
ATOM     25  N   UNL A   1      32.806  34.232  28.156  1.00  0.00    -0.352 N 
ATOM     26  C   UNL A   1      33.240  34.547  29.446  1.00  0.00     0.251 C 
ATOM     27  H   UNL A   1      32.093  34.796  27.779  1.00  0.00     0.163 HD
ATOM     28  O   UNL A   1      32.566  35.229  30.197  1.00  0.00    -0.269 OA
BRANCH  26  29
ATOM     29  C   UNL A   1      34.573  34.056  29.863  1.00  0.00     0.039 A 
ATOM     30  C   UNL A   1      34.781  33.157  30.910  1.00  0.00     0.014 A 
ATOM     31  C   UNL A   1      35.646  34.501  29.104  1.00  0.00     0.014 A 
ATOM     32  C   UNL A   1      36.068  32.646  31.102  1.00  0.00     0.010 A 
ATOM     33  C   UNL A   1      36.873  33.905  29.197  1.00  0.00     0.010 A 
ATOM     34  C   UNL A   1      37.106  33.005  30.219  1.00  0.00    -0.014 A 
BRANCH  34  35
ATOM     35  C   UNL A   1      38.385  32.307  30.213  1.00  0.00     0.031 A 
ATOM     36  C   UNL A   1      38.337  31.011  29.485  1.00  0.00     0.074 A 
ATOM     37  C   UNL A   1      39.556  32.858  30.606  1.00  0.00     0.049 A 
ATOM     38  N   UNL A   1      38.328  29.833  30.012  1.00  0.00    -0.248 NA
ATOM     39  C   UNL A   1      38.068  31.017  28.038  1.00  0.00     0.031 C 
ATOM     40  C   UNL A   1      39.824  34.240  31.023  1.00  0.00     0.029 A 
ATOM     41  N   UNL A   1      40.802  32.312  30.596  1.00  0.00    -0.354 N 
ATOM     42  C   UNL A   1      38.330  28.943  28.941  1.00  0.00     0.074 A 
ATOM     43  C   UNL A   1      37.937  29.711  27.790  1.00  0.00     0.031 C 
ATOM     44  C   UNL A   1      41.155  34.481  30.983  1.00  0.00     0.029 A 
ATOM     45  C   UNL A   1      41.842  33.231  30.725  1.00  0.00     0.049 A 
ATOM     46  H   UNL A   1      40.958  31.345  30.504  1.00  0.00     0.167 HD
ATOM     47  C   UNL A   1      38.918  27.720  29.057  1.00  0.00     0.034 A 
ATOM     48  C   UNL A   1      43.169  32.977  30.606  1.00  0.00     0.034 A 
ATOM     49  C   UNL A   1      39.210  27.425  30.440  1.00  0.00     0.049 A 
ATOM     50  C   UNL A   1      43.344  31.526  30.837  1.00  0.00     0.074 A 
ATOM     51  C   UNL A   1      38.466  27.318  31.597  1.00  0.00     0.029 A 
ATOM     52  N   UNL A   1      40.511  27.617  30.839  1.00  0.00    -0.354 N 
ATOM     53  N   UNL A   1      43.101  30.949  31.980  1.00  0.00    -0.248 NA
ATOM     54  C   UNL A   1      43.354  30.652  29.677  1.00  0.00     0.031 C 
ATOM     55  C   UNL A   1      39.269  27.928  32.604  1.00  0.00     0.029 A 
ATOM     56  C   UNL A   1      40.491  28.291  32.029  1.00  0.00     0.049 A 
ATOM     57  H   UNL A   1      41.316  27.323  30.355  1.00  0.00     0.167 HD
ATOM     58  C   UNL A   1      42.462  29.768  31.632  1.00  0.00     0.074 A 
ATOM     59  C   UNL A   1      42.746  29.587  30.208  1.00  0.00     0.031 C 
ATOM     60  C   UNL A   1      41.524  29.212  32.450  1.00  0.00     0.034 A 
BRANCH  47  61
ATOM     61  C   UNL A   1      39.613  26.961  27.946  1.00  0.00     0.023 A 
ATOM     62  C   UNL A   1      39.282  25.591  27.809  1.00  0.00     0.012 A 
ATOM     63  C   UNL A   1      40.752  27.413  27.243  1.00  0.00     0.148 A 
ATOM     64  C   UNL A   1      40.086  24.707  27.085  1.00  0.00     0.002 A 
ATOM     65  C   UNL A   1      41.509  26.544  26.465  1.00  0.00     0.091 A 
ATOM     66  F   UNL A   1      41.198  28.658  27.414  1.00  0.00    -0.205 F 
ATOM     67  C   UNL A   1      41.201  25.183  26.410  1.00  0.00     0.022 A 
BRANCH  65  68
ATOM     68  S   UNL A   1      42.941  27.110  25.537  1.00  0.00     0.127 S 
ATOM     69  O   UNL A   1      43.388  25.870  24.910  1.00  0.00    -0.237 OA
ATOM     70  O   UNL A   1      42.337  28.085  24.627  1.00  0.00    -0.237 OA
ATOM     71  O   UNL A   1      43.844  27.690  26.522  1.00  0.00    -0.744 OA
ENDBRANCH  65  68
ENDBRANCH  47  61
BRANCH  48  72
ATOM     72  C   UNL A   1      44.270  33.811  30.070  1.00  0.00     0.023 A 
ATOM     73  C   UNL A   1      45.543  33.765  30.676  1.00  0.00     0.012 A 
ATOM     74  C   UNL A   1      44.164  34.393  28.789  1.00  0.00     0.148 A 
ATOM     75  C   UNL A   1      46.680  34.241  30.009  1.00  0.00     0.002 A 
ATOM     76  C   UNL A   1      45.297  34.861  28.128  1.00  0.00     0.091 A 
ATOM     77  F   UNL A   1      42.968  34.399  28.184  1.00  0.00    -0.205 F 
ATOM     78  C   UNL A   1      46.559  34.775  28.730  1.00  0.00     0.022 A 
BRANCH  76  79
ATOM     79  S   UNL A   1      45.231  35.522  26.457  1.00  0.00     0.127 S 
ATOM     80  O   UNL A   1      44.281  36.625  26.607  1.00  0.00    -0.237 OA
ATOM     81  O   UNL A   1      46.617  35.932  26.241  1.00  0.00    -0.237 OA
ATOM     82  O   UNL A   1      44.758  34.428  25.619  1.00  0.00    -0.744 OA
ENDBRANCH  76  79
ENDBRANCH  48  72
BRANCH  60  83
ATOM     83  C   UNL A   1      41.394  29.740  33.856  1.00  0.00     0.023 A 
ATOM     84  C   UNL A   1      42.281  29.388  34.895  1.00  0.00     0.012 A 
ATOM     85  C   UNL A   1      40.479  30.784  34.063  1.00  0.00     0.148 A 
ATOM     86  C   UNL A   1      42.249  30.069  36.118  1.00  0.00     0.002 A 
ATOM     87  C   UNL A   1      40.488  31.493  35.255  1.00  0.00     0.091 A 
ATOM     88  F   UNL A   1      39.642  31.095  33.061  1.00  0.00    -0.205 F 
ATOM     89  C   UNL A   1      41.366  31.134  36.290  1.00  0.00     0.022 A 
BRANCH  87  90
ATOM     90  S   UNL A   1      39.481  32.959  35.474  1.00  0.00     0.127 S 
ATOM     91  O   UNL A   1      38.133  32.439  35.263  1.00  0.00    -0.237 OA
ATOM     92  O   UNL A   1      39.783  33.341  36.855  1.00  0.00    -0.237 OA
ATOM     93  O   UNL A   1      39.942  33.919  34.477  1.00  0.00    -0.744 OA
ENDBRANCH  87  90
ENDBRANCH  60  83
ENDBRANCH  34  35
ENDBRANCH  26  29
ENDBRANCH  24  25
ENDBRANCH  23  24
ENDBRANCH   1  23
TORSDOF 17
ENDMDL
MODEL 3
REMARK VINA RESULT:     -11.1      2.707      7.459
REMARK SMILES COc1ccccc1Nc1snc(C)c1C(=O)NCCCCNC(=O)c1ccc(-c2c3nc(c(-c4cccc(S(=O)(=O)[O-])c4F)c4ccc([nH]4)c(-c4cccc(S(=O)(=O)[O-])c4F)c4nc(c(-c5cccc(S(=O)(=O)[O-])c5F)c5ccc2[nH]5)C=C4)C=C3)cc1
REMARK SMILES IDX 20 1 19 2 18 3 16 4 17 5 15 7 10 8 11 9 12 10 13 11 14 12
REMARK SMILES IDX 9 13 8 15 3 16 4 17 5 18 7 19 6 20 2 21 1 22 21 23 22 24
REMARK SMILES IDX 23 25 24 26 25 28 26 29 27 30 88 31 28 32 87 33 29 34 30 35
REMARK SMILES IDX 31 36 81 37 32 38 86 39 80 40 82 41 33 42 85 43 79 44 78 45
REMARK SMILES IDX 34 47 66 48 46 49 65 50 47 51 50 52 64 53 83 54 48 55 49 56
REMARK SMILES IDX 63 58 84 59 51 60 35 61 36 62 44 63 37 64 39 65 45 66 38 67
REMARK SMILES IDX 40 68 41 69 42 70 43 71 67 72 68 73 76 74 69 75 71 76 77 77
REMARK SMILES IDX 70 78 72 79 73 80 74 81 75 82 52 83 53 84 61 85 54 86 56 87
REMARK SMILES IDX 62 88 55 89 57 90 58 91 59 92 60 93
REMARK H PARENT 18 6 9 14 23 27 82 46 50 57
REMARK Flexibility Score: inf
ROOT
ATOM      1  C   UNL A   1      32.765  27.745  26.586  1.00  0.00     0.023 C 
ENDROOT
BRANCH   1   2
ATOM      2  C   UNL A   1      32.673  26.269  26.185  1.00  0.00     0.116 C 
BRANCH   2   3
ATOM      3  N   UNL A   1      31.544  25.503  26.646  1.00  0.00    -0.352 N 
ATOM      4  C   UNL A   1      31.200  24.178  26.424  1.00  0.00     0.256 C 
ATOM      5  O   UNL A   1      30.314  23.752  27.167  1.00  0.00    -0.269 OA
ATOM      6  H   UNL A   1      30.912  26.001  27.213  1.00  0.00     0.163 HD
BRANCH   4   7
ATOM      7  C   UNL A   1      31.707  23.334  25.318  1.00  0.00     0.097 A 
ATOM      8  C   UNL A   1      31.540  23.431  23.930  1.00  0.00     0.127 A 
ATOM      9  S   UNL A   1      32.203  22.015  23.198  1.00  0.00    -0.018 S 
ATOM     10  N   UNL A   1      32.917  21.420  24.539  1.00  0.00    -0.195 NA
ATOM     11  C   UNL A   1      32.623  22.206  25.575  1.00  0.00     0.066 A 
ATOM     12  C   UNL A   1      33.270  21.809  26.864  1.00  0.00     0.069 C 
BRANCH   8  13
ATOM     13  N   UNL A   1      30.984  24.330  23.078  1.00  0.00    -0.342 N 
ATOM     14  H   UNL A   1      30.328  23.959  22.443  1.00  0.00     0.168 HD
BRANCH  13  15
ATOM     15  C   UNL A   1      31.211  25.715  22.972  1.00  0.00     0.082 A 
ATOM     16  C   UNL A   1      30.241  26.610  23.474  1.00  0.00     0.142 A 
ATOM     17  C   UNL A   1      30.454  27.985  23.418  1.00  0.00     0.048 A 
ATOM     18  C   UNL A   1      31.637  28.482  22.862  1.00  0.00     0.004 A 
ATOM     19  C   UNL A   1      32.398  26.236  22.439  1.00  0.00     0.030 A 
ATOM     20  C   UNL A   1      32.612  27.612  22.382  1.00  0.00     0.002 A 
BRANCH  16  21
ATOM     21  O   UNL A   1      28.998  26.181  23.881  1.00  0.00    -0.495 OA
ATOM     22  C   UNL A   1      27.969  27.159  23.743  1.00  0.00     0.278 C 
ENDBRANCH  16  21
ENDBRANCH  13  15
ENDBRANCH   8  13
ENDBRANCH   4   7
ENDBRANCH   2   3
ENDBRANCH   1   2
BRANCH   1  23
ATOM     23  C   UNL A   1      33.829  28.645  25.946  1.00  0.00     0.023 C 
BRANCH  23  24
ATOM     24  C   UNL A   1      34.882  29.247  26.868  1.00  0.00     0.116 C 
BRANCH  24  25
ATOM     25  N   UNL A   1      34.636  30.625  27.312  1.00  0.00    -0.352 N 
ATOM     26  C   UNL A   1      35.136  31.226  28.470  1.00  0.00     0.251 C 
ATOM     27  H   UNL A   1      34.061  31.180  26.737  1.00  0.00     0.163 HD
ATOM     28  O   UNL A   1      34.630  32.232  28.934  1.00  0.00    -0.269 OA
BRANCH  26  29
ATOM     29  C   UNL A   1      36.332  30.622  29.098  1.00  0.00     0.039 A 
ATOM     30  C   UNL A   1      36.298  29.483  29.904  1.00  0.00     0.014 A 
ATOM     31  C   UNL A   1      37.544  31.227  28.797  1.00  0.00     0.014 A 
ATOM     32  C   UNL A   1      37.512  28.917  30.307  1.00  0.00     0.010 A 
ATOM     33  C   UNL A   1      38.731  30.605  29.070  1.00  0.00     0.010 A 
ATOM     34  C   UNL A   1      38.728  29.471  29.859  1.00  0.00    -0.014 A 
BRANCH  34  35
ATOM     35  C   UNL A   1      39.998  28.775  30.028  1.00  0.00     0.031 A 
ATOM     36  C   UNL A   1      40.478  28.778  31.436  1.00  0.00     0.074 A 
ATOM     37  C   UNL A   1      40.575  28.001  29.081  1.00  0.00     0.049 A 
ATOM     38  N   UNL A   1      41.441  29.489  31.919  1.00  0.00    -0.248 NA
ATOM     39  C   UNL A   1      39.689  28.074  32.459  1.00  0.00     0.031 C 
ATOM     40  C   UNL A   1      40.051  27.621  27.763  1.00  0.00     0.029 A 
ATOM     41  N   UNL A   1      41.725  27.278  29.154  1.00  0.00    -0.354 N 
ATOM     42  C   UNL A   1      41.552  29.113  33.254  1.00  0.00     0.074 A 
ATOM     43  C   UNL A   1      40.325  28.435  33.577  1.00  0.00     0.031 C 
ATOM     44  C   UNL A   1      40.745  26.565  27.282  1.00  0.00     0.029 A 
ATOM     45  C   UNL A   1      41.873  26.316  28.157  1.00  0.00     0.049 A 
ATOM     46  H   UNL A   1      42.399  27.421  29.857  1.00  0.00     0.167 HD
ATOM     47  C   UNL A   1      42.757  29.158  33.888  1.00  0.00     0.034 A 
ATOM     48  C   UNL A   1      42.845  25.373  28.076  1.00  0.00     0.034 A 
ATOM     49  C   UNL A   1      43.717  29.900  33.105  1.00  0.00     0.049 A 
ATOM     50  C   UNL A   1      43.974  25.858  28.901  1.00  0.00     0.074 A 
ATOM     51  C   UNL A   1      43.791  31.183  32.604  1.00  0.00     0.029 A 
ATOM     52  N   UNL A   1      44.609  29.151  32.373  1.00  0.00    -0.354 N 
ATOM     53  N   UNL A   1      44.664  26.926  28.611  1.00  0.00    -0.248 NA
ATOM     54  C   UNL A   1      44.044  25.417  30.282  1.00  0.00     0.031 C 
ATOM     55  C   UNL A   1      44.351  31.033  31.301  1.00  0.00     0.029 A 
ATOM     56  C   UNL A   1      44.672  29.685  31.116  1.00  0.00     0.049 A 
ATOM     57  H   UNL A   1      45.113  28.370  32.696  1.00  0.00     0.167 HD
ATOM     58  C   UNL A   1      44.850  27.549  29.836  1.00  0.00     0.074 A 
ATOM     59  C   UNL A   1      44.547  26.524  30.835  1.00  0.00     0.031 C 
ATOM     60  C   UNL A   1      44.938  28.907  29.925  1.00  0.00     0.034 A 
BRANCH  47  61
ATOM     61  C   UNL A   1      43.219  28.218  34.982  1.00  0.00     0.023 A 
ATOM     62  C   UNL A   1      43.797  28.814  36.129  1.00  0.00     0.012 A 
ATOM     63  C   UNL A   1      43.391  26.824  34.835  1.00  0.00     0.148 A 
ATOM     64  C   UNL A   1      44.572  28.079  37.031  1.00  0.00     0.002 A 
ATOM     65  C   UNL A   1      44.102  26.083  35.773  1.00  0.00     0.091 A 
ATOM     66  F   UNL A   1      42.981  26.208  33.725  1.00  0.00    -0.205 F 
ATOM     67  C   UNL A   1      44.725  26.711  36.854  1.00  0.00     0.022 A 
BRANCH  65  68
ATOM     68  S   UNL A   1      44.301  24.304  35.618  1.00  0.00     0.127 S 
ATOM     69  O   UNL A   1      45.010  23.983  36.853  1.00  0.00    -0.237 OA
ATOM     70  O   UNL A   1      42.910  23.854  35.564  1.00  0.00    -0.237 OA
ATOM     71  O   UNL A   1      45.045  24.096  34.382  1.00  0.00    -0.744 OA
ENDBRANCH  65  68
ENDBRANCH  47  61
BRANCH  48  72
ATOM     72  C   UNL A   1      42.806  23.984  27.565  1.00  0.00     0.023 A 
ATOM     73  C   UNL A   1      41.612  23.238  27.653  1.00  0.00     0.012 A 
ATOM     74  C   UNL A   1      43.825  23.509  26.711  1.00  0.00     0.148 A 
ATOM     75  C   UNL A   1      41.420  22.084  26.882  1.00  0.00     0.002 A 
ATOM     76  C   UNL A   1      43.627  22.364  25.942  1.00  0.00     0.091 A 
ATOM     77  F   UNL A   1      44.944  24.235  26.583  1.00  0.00    -0.205 F 
ATOM     78  C   UNL A   1      42.421  21.655  26.016  1.00  0.00     0.022 A 
BRANCH  76  79
ATOM     79  S   UNL A   1      44.853  21.773  24.768  1.00  0.00     0.127 S 
ATOM     80  O   UNL A   1      44.252  20.519  24.311  1.00  0.00    -0.237 OA
ATOM     81  O   UNL A   1      44.861  22.846  23.776  1.00  0.00    -0.237 OA
ATOM     82  O   UNL A   1      46.083  21.609  25.530  1.00  0.00    -0.744 OA
ENDBRANCH  76  79
ENDBRANCH  48  72
BRANCH  60  83
ATOM     83  C   UNL A   1      45.113  29.699  28.654  1.00  0.00     0.023 A 
ATOM     84  C   UNL A   1      44.028  30.163  27.881  1.00  0.00     0.012 A 
ATOM     85  C   UNL A   1      46.406  30.161  28.364  1.00  0.00     0.148 A 
ATOM     86  C   UNL A   1      44.237  31.072  26.837  1.00  0.00     0.002 A 
ATOM     87  C   UNL A   1      46.601  31.104  27.366  1.00  0.00     0.091 A 
ATOM     88  F   UNL A   1      47.422  29.700  29.110  1.00  0.00    -0.205 F 
ATOM     89  C   UNL A   1      45.521  31.557  26.593  1.00  0.00     0.022 A 
BRANCH  87  90
ATOM     90  S   UNL A   1      48.201  31.870  27.109  1.00  0.00     0.127 S 
ATOM     91  O   UNL A   1      47.904  32.858  26.075  1.00  0.00    -0.237 OA
ATOM     92  O   UNL A   1      48.493  32.433  28.429  1.00  0.00    -0.237 OA
ATOM     93  O   UNL A   1      49.104  30.797  26.706  1.00  0.00    -0.744 OA
ENDBRANCH  87  90
ENDBRANCH  60  83
ENDBRANCH  34  35
ENDBRANCH  26  29
ENDBRANCH  24  25
ENDBRANCH  23  24
ENDBRANCH   1  23
TORSDOF 17
ENDMDL
