MODEL 1
REMARK VINA RESULT:     -10.7      0.000      0.000
REMARK SMILES COC(=O)CCN(C)C(=O)NCc1ccc(C(=O)NCCCCNC(=O)c2ccc(-c3c4nc(c(-c5cccc(S(=O)(=O)[O-])c5F)c5ccc([nH]5)c(-c5cccc(S(=O)(=O)[O-])c5F)c5nc(c(-c6cccc(S(=O)(=O)[O-])c6F)c6ccc3[nH]6)C=C5)C=C4)cc2)o1
REMARK SMILES IDX 17 1 18 2 19 3 16 5 13 6 14 7 90 8 15 9 12 10 11 11 9 12
REMARK SMILES IDX 10 13 7 15 8 16 6 17 5 18 3 19 4 20 2 21 1 22 20 23 21 24
REMARK SMILES IDX 22 25 23 26 24 27 25 28 26 30 27 31 28 32 89 33 29 34 88 35
REMARK SMILES IDX 30 36 31 37 32 38 82 39 33 40 87 41 81 42 83 43 34 44 86 45
REMARK SMILES IDX 80 46 79 47 35 49 67 50 47 51 66 52 48 53 51 54 65 55 84 56
REMARK SMILES IDX 49 57 50 58 64 60 85 61 52 62 36 63 37 64 45 65 38 66 40 67
REMARK SMILES IDX 46 68 39 69 41 70 42 71 43 72 44 73 68 74 69 75 77 76 70 77
REMARK SMILES IDX 72 78 78 79 71 80 73 81 74 82 75 83 76 84 53 85 54 86 62 87
REMARK SMILES IDX 55 88 57 89 63 90 56 91 58 92 59 93 60 94 61 95
REMARK H PARENT 19 4 11 14 24 29 83 48 51 59
REMARK Flexibility Score: inf
ROOT
ATOM      1  C   UNL A   1      30.683  28.385  22.557  1.00  0.00     0.286 C 
ATOM      2  O   UNL A   1      29.750  28.739  21.836  1.00  0.00    -0.266 OA
ATOM      3  N   UNL A   1      31.133  29.324  23.457  1.00  0.00    -0.349 N 
ATOM      4  H   UNL A   1      30.674  30.193  23.404  1.00  0.00     0.163 HD
ENDROOT
BRANCH   1   5
ATOM      5  C   UNL A   1      31.270  27.055  22.483  1.00  0.00     0.191 A 
ATOM      6  C   UNL A   1      31.238  24.891  22.951  1.00  0.00     0.124 A 
ATOM      7  C   UNL A   1      32.421  25.118  22.288  1.00  0.00     0.048 A 
ATOM      8  O   UNL A   1      30.530  26.045  23.051  1.00  0.00    -0.454 OA
ATOM      9  C   UNL A   1      32.431  26.498  21.973  1.00  0.00     0.056 A 
BRANCH   6  10
ATOM     10  C   UNL A   1      30.671  23.708  23.638  1.00  0.00     0.193 C 
BRANCH  10  11
ATOM     11  N   UNL A   1      30.720  24.020  25.049  1.00  0.00    -0.331 N 
ATOM     12  C   UNL A   1      31.642  24.120  26.011  1.00  0.00     0.317 C 
ATOM     13  O   UNL A   1      31.194  24.401  27.127  1.00  0.00    -0.249 OA
ATOM     14  H   UNL A   1      29.821  24.213  25.400  1.00  0.00     0.165 HD
BRANCH  12  15
ATOM     15  N   UNL A   1      32.982  24.013  25.784  1.00  0.00    -0.327 N 
ATOM     16  C   UNL A   1      33.933  25.107  25.704  1.00  0.00     0.148 C 
BRANCH  15  17
ATOM     17  C   UNL A   1      33.520  22.654  25.626  1.00  0.00     0.132 C 
BRANCH  17  18
ATOM     18  C   UNL A   1      34.361  22.496  24.361  1.00  0.00     0.144 C 
BRANCH  18  19
ATOM     19  C   UNL A   1      35.471  21.497  24.560  1.00  0.00     0.307 C 
ATOM     20  O   UNL A   1      35.293  20.348  24.942  1.00  0.00    -0.252 OA
BRANCH  19  21
ATOM     21  O   UNL A   1      36.677  22.054  24.259  1.00  0.00    -0.469 OA
ATOM     22  C   UNL A   1      37.173  22.966  25.242  1.00  0.00     0.282 C 
ENDBRANCH  19  21
ENDBRANCH  18  19
ENDBRANCH  17  18
ENDBRANCH  15  17
ENDBRANCH  12  15
ENDBRANCH  10  11
ENDBRANCH   6  10
ENDBRANCH   1   5
BRANCH   3  23
ATOM     23  C   UNL A   1      32.162  29.248  24.467  1.00  0.00     0.116 C 
BRANCH  23  24
ATOM     24  C   UNL A   1      31.567  28.901  25.831  1.00  0.00     0.023 C 
BRANCH  24  25
ATOM     25  C   UNL A   1      31.810  29.970  26.902  1.00  0.00     0.023 C 
BRANCH  25  26
ATOM     26  C   UNL A   1      33.184  30.634  26.849  1.00  0.00     0.116 C 
BRANCH  26  27
ATOM     27  N   UNL A   1      33.153  32.043  27.213  1.00  0.00    -0.352 N 
ATOM     28  C   UNL A   1      34.037  32.752  27.988  1.00  0.00     0.251 C 
ATOM     29  H   UNL A   1      32.396  32.559  26.853  1.00  0.00     0.163 HD
ATOM     30  O   UNL A   1      33.783  33.913  28.295  1.00  0.00    -0.269 OA
BRANCH  28  31
ATOM     31  C   UNL A   1      35.269  32.100  28.477  1.00  0.00     0.039 A 
ATOM     32  C   UNL A   1      36.471  32.807  28.410  1.00  0.00     0.014 A 
ATOM     33  C   UNL A   1      35.242  30.809  29.013  1.00  0.00     0.014 A 
ATOM     34  C   UNL A   1      37.634  32.237  28.927  1.00  0.00     0.010 A 
ATOM     35  C   UNL A   1      36.385  30.278  29.604  1.00  0.00     0.010 A 
ATOM     36  C   UNL A   1      37.596  30.983  29.560  1.00  0.00    -0.014 A 
BRANCH  36  37
ATOM     37  C   UNL A   1      38.817  30.427  30.196  1.00  0.00     0.031 A 
ATOM     38  C   UNL A   1      39.242  30.861  31.573  1.00  0.00     0.074 A 
ATOM     39  C   UNL A   1      39.570  29.546  29.506  1.00  0.00     0.049 A 
ATOM     40  N   UNL A   1      40.234  30.420  32.303  1.00  0.00    -0.248 NA
ATOM     41  C   UNL A   1      38.473  31.945  32.204  1.00  0.00     0.031 C 
ATOM     42  C   UNL A   1      39.323  29.124  28.125  1.00  0.00     0.029 A 
ATOM     43  N   UNL A   1      40.695  28.850  29.868  1.00  0.00    -0.354 N 
ATOM     44  C   UNL A   1      40.222  31.183  33.464  1.00  0.00     0.074 A 
ATOM     45  C   UNL A   1      39.154  32.146  33.323  1.00  0.00     0.031 C 
ATOM     46  C   UNL A   1      40.248  28.220  27.768  1.00  0.00     0.029 A 
ATOM     47  C   UNL A   1      41.168  28.016  28.882  1.00  0.00     0.049 A 
ATOM     48  H   UNL A   1      41.122  28.938  30.750  1.00  0.00     0.167 HD
ATOM     49  C   UNL A   1      41.009  31.071  34.561  1.00  0.00     0.034 A 
ATOM     50  C   UNL A   1      42.219  27.175  28.878  1.00  0.00     0.034 A 
ATOM     51  C   UNL A   1      42.056  30.095  34.706  1.00  0.00     0.049 A 
ATOM     52  C   UNL A   1      43.041  27.031  30.129  1.00  0.00     0.074 A 
ATOM     53  C   UNL A   1      42.853  29.843  35.808  1.00  0.00     0.029 A 
ATOM     54  N   UNL A   1      42.464  29.218  33.712  1.00  0.00    -0.354 N 
ATOM     55  N   UNL A   1      42.903  27.637  31.282  1.00  0.00    -0.248 NA
ATOM     56  C   UNL A   1      44.134  26.050  30.092  1.00  0.00     0.031 C 
ATOM     57  C   UNL A   1      43.766  28.838  35.469  1.00  0.00     0.029 A 
ATOM     58  C   UNL A   1      43.510  28.434  34.170  1.00  0.00     0.049 A 
ATOM     59  H   UNL A   1      42.068  29.161  32.812  1.00  0.00     0.167 HD
ATOM     60  C   UNL A   1      43.870  27.091  32.118  1.00  0.00     0.074 A 
ATOM     61  C   UNL A   1      44.562  26.080  31.346  1.00  0.00     0.031 C 
ATOM     62  C   UNL A   1      44.169  27.408  33.403  1.00  0.00     0.034 A 
BRANCH  49  63
ATOM     63  C   UNL A   1      40.736  32.003  35.716  1.00  0.00     0.023 A 
ATOM     64  C   UNL A   1      41.623  33.070  35.977  1.00  0.00     0.012 A 
ATOM     65  C   UNL A   1      39.578  31.863  36.504  1.00  0.00     0.148 A 
ATOM     66  C   UNL A   1      41.382  33.956  37.025  1.00  0.00     0.002 A 
ATOM     67  C   UNL A   1      39.318  32.781  37.516  1.00  0.00     0.091 A 
ATOM     68  F   UNL A   1      38.755  30.834  36.256  1.00  0.00    -0.205 F 
ATOM     69  C   UNL A   1      40.225  33.819  37.787  1.00  0.00     0.022 A 
BRANCH  67  70
ATOM     70  S   UNL A   1      37.816  32.743  38.499  1.00  0.00     0.127 S 
ATOM     71  O   UNL A   1      37.849  31.384  39.038  1.00  0.00    -0.237 OA
ATOM     72  O   UNL A   1      38.068  33.795  39.484  1.00  0.00    -0.237 OA
ATOM     73  O   UNL A   1      36.724  33.021  37.578  1.00  0.00    -0.744 OA
ENDBRANCH  67  70
ENDBRANCH  49  63
BRANCH  50  74
ATOM     74  C   UNL A   1      42.510  26.351  27.670  1.00  0.00     0.023 A 
ATOM     75  C   UNL A   1      43.247  26.906  26.606  1.00  0.00     0.012 A 
ATOM     76  C   UNL A   1      42.077  25.014  27.581  1.00  0.00     0.148 A 
ATOM     77  C   UNL A   1      43.515  26.159  25.459  1.00  0.00     0.002 A 
ATOM     78  C   UNL A   1      42.400  24.256  26.462  1.00  0.00     0.091 A 
ATOM     79  F   UNL A   1      41.369  24.507  28.600  1.00  0.00    -0.205 F 
ATOM     80  C   UNL A   1      43.099  24.830  25.391  1.00  0.00     0.022 A 
BRANCH  78  81
ATOM     81  S   UNL A   1      42.027  22.502  26.350  1.00  0.00     0.127 S 
ATOM     82  O   UNL A   1      40.566  22.507  26.346  1.00  0.00    -0.237 OA
ATOM     83  O   UNL A   1      42.647  22.145  25.074  1.00  0.00    -0.237 OA
ATOM     84  O   UNL A   1      42.655  21.891  27.513  1.00  0.00    -0.744 OA
ENDBRANCH  78  81
ENDBRANCH  50  74
BRANCH  62  85
ATOM     85  C   UNL A   1      45.277  26.626  34.065  1.00  0.00     0.023 A 
ATOM     86  C   UNL A   1      46.621  27.009  33.879  1.00  0.00     0.012 A 
ATOM     87  C   UNL A   1      44.982  25.524  34.891  1.00  0.00     0.148 A 
ATOM     88  C   UNL A   1      47.654  26.274  34.457  1.00  0.00     0.002 A 
ATOM     89  C   UNL A   1      46.015  24.831  35.510  1.00  0.00     0.091 A 
ATOM     90  F   UNL A   1      43.701  25.161  35.044  1.00  0.00    -0.205 F 
ATOM     91  C   UNL A   1      47.353  25.192  35.279  1.00  0.00     0.022 A 
BRANCH  89  92
ATOM     92  S   UNL A   1      45.713  23.488  36.663  1.00  0.00     0.127 S 
ATOM     93  O   UNL A   1      47.072  23.127  37.064  1.00  0.00    -0.237 OA
ATOM     94  O   UNL A   1      44.923  24.145  37.707  1.00  0.00    -0.237 OA
ATOM     95  O   UNL A   1      44.989  22.472  35.911  1.00  0.00    -0.744 OA
ENDBRANCH  89  92
ENDBRANCH  62  85
ENDBRANCH  36  37
ENDBRANCH  28  31
ENDBRANCH  26  27
ENDBRANCH  25  26
ENDBRANCH  24  25
ENDBRANCH  23  24
ENDBRANCH   3  23
TORSDOF 21
ENDMDL
MODEL 2
REMARK VINA RESULT:     -10.3      1.641      3.687
REMARK SMILES COC(=O)CCN(C)C(=O)NCc1ccc(C(=O)NCCCCNC(=O)c2ccc(-c3c4nc(c(-c5cccc(S(=O)(=O)[O-])c5F)c5ccc([nH]5)c(-c5cccc(S(=O)(=O)[O-])c5F)c5nc(c(-c6cccc(S(=O)(=O)[O-])c6F)c6ccc3[nH]6)C=C5)C=C4)cc2)o1
REMARK SMILES IDX 17 1 18 2 19 3 16 5 13 6 14 7 90 8 15 9 12 10 11 11 9 12
REMARK SMILES IDX 10 13 7 15 8 16 6 17 5 18 3 19 4 20 2 21 1 22 20 23 21 24
REMARK SMILES IDX 22 25 23 26 24 27 25 28 26 30 27 31 28 32 89 33 29 34 88 35
REMARK SMILES IDX 30 36 31 37 32 38 82 39 33 40 87 41 81 42 83 43 34 44 86 45
REMARK SMILES IDX 80 46 79 47 35 49 67 50 47 51 66 52 48 53 51 54 65 55 84 56
REMARK SMILES IDX 49 57 50 58 64 60 85 61 52 62 36 63 37 64 45 65 38 66 40 67
REMARK SMILES IDX 46 68 39 69 41 70 42 71 43 72 44 73 68 74 69 75 77 76 70 77
REMARK SMILES IDX 72 78 78 79 71 80 73 81 74 82 75 83 76 84 53 85 54 86 62 87
REMARK SMILES IDX 55 88 57 89 63 90 56 91 58 92 59 93 60 94 61 95
REMARK H PARENT 19 4 11 14 24 29 83 48 51 59
REMARK Flexibility Score: inf
ROOT
ATOM      1  C   UNL A   1      34.920  24.443  25.165  1.00  0.00     0.286 C 
ATOM      2  O   UNL A   1      35.935  23.857  25.542  1.00  0.00    -0.266 OA
ATOM      3  N   UNL A   1      34.662  25.647  25.779  1.00  0.00    -0.349 N 
ATOM      4  H   UNL A   1      35.308  25.896  26.479  1.00  0.00     0.163 HD
ENDROOT
BRANCH   1   5
ATOM      5  C   UNL A   1      34.050  23.914  24.125  1.00  0.00     0.191 A 
ATOM      6  C   UNL A   1      32.055  23.692  23.190  1.00  0.00     0.124 A 
ATOM      7  C   UNL A   1      32.910  22.911  22.449  1.00  0.00     0.048 A 
ATOM      8  O   UNL A   1      32.736  24.316  24.185  1.00  0.00    -0.454 OA
ATOM      9  C   UNL A   1      34.188  23.069  23.036  1.00  0.00     0.056 A 
BRANCH   6  10
ATOM     10  C   UNL A   1      30.587  23.883  23.177  1.00  0.00     0.193 C 
BRANCH  10  11
ATOM     11  N   UNL A   1      30.312  24.849  24.218  1.00  0.00    -0.331 N 
ATOM     12  C   UNL A   1      30.278  26.177  24.353  1.00  0.00     0.317 C 
ATOM     13  O   UNL A   1      30.003  26.572  25.490  1.00  0.00    -0.249 OA
ATOM     14  H   UNL A   1      30.086  24.401  25.064  1.00  0.00     0.165 HD
BRANCH  12  15
ATOM     15  N   UNL A   1      30.440  27.045  23.314  1.00  0.00    -0.327 N 
ATOM     16  C   UNL A   1      31.108  26.768  22.055  1.00  0.00     0.148 C 
BRANCH  15  17
ATOM     17  C   UNL A   1      29.863  28.387  23.478  1.00  0.00     0.132 C 
BRANCH  17  18
ATOM     18  C   UNL A   1      28.578  28.578  22.676  1.00  0.00     0.144 C 
BRANCH  18  19
ATOM     19  C   UNL A   1      28.538  29.931  22.013  1.00  0.00     0.307 C 
ATOM     20  O   UNL A   1      28.102  30.125  20.885  1.00  0.00    -0.252 OA
BRANCH  19  21
ATOM     21  O   UNL A   1      29.051  30.885  22.838  1.00  0.00    -0.469 OA
ATOM     22  C   UNL A   1      28.072  31.691  23.498  1.00  0.00     0.282 C 
ENDBRANCH  19  21
ENDBRANCH  18  19
ENDBRANCH  17  18
ENDBRANCH  15  17
ENDBRANCH  12  15
ENDBRANCH  10  11
ENDBRANCH   6  10
ENDBRANCH   1   5
BRANCH   3  23
ATOM     23  C   UNL A   1      33.606  26.609  25.568  1.00  0.00     0.116 C 
BRANCH  23  24
ATOM     24  C   UNL A   1      33.997  27.626  24.496  1.00  0.00     0.023 C 
BRANCH  24  25
ATOM     25  C   UNL A   1      33.300  28.983  24.647  1.00  0.00     0.023 C 
BRANCH  25  26
ATOM     26  C   UNL A   1      32.638  29.221  26.002  1.00  0.00     0.116 C 
BRANCH  26  27
ATOM     27  N   UNL A   1      32.387  30.628  26.277  1.00  0.00    -0.352 N 
ATOM     28  C   UNL A   1      33.114  31.497  27.052  1.00  0.00     0.251 C 
ATOM     29  H   UNL A   1      31.587  31.008  25.849  1.00  0.00     0.163 HD
ATOM     30  O   UNL A   1      32.681  32.623  27.275  1.00  0.00    -0.269 OA
BRANCH  28  31
ATOM     31  C   UNL A   1      34.395  31.056  27.643  1.00  0.00     0.039 A 
ATOM     32  C   UNL A   1      35.399  32.005  27.842  1.00  0.00     0.014 A 
ATOM     33  C   UNL A   1      34.602  29.724  28.013  1.00  0.00     0.014 A 
ATOM     34  C   UNL A   1      36.591  31.625  28.459  1.00  0.00     0.010 A 
ATOM     35  C   UNL A   1      35.756  29.367  28.704  1.00  0.00     0.010 A 
ATOM     36  C   UNL A   1      36.768  30.311  28.927  1.00  0.00    -0.014 A 
BRANCH  36  37
ATOM     37  C   UNL A   1      37.998  29.940  29.671  1.00  0.00     0.031 A 
ATOM     38  C   UNL A   1      38.241  30.442  31.069  1.00  0.00     0.074 A 
ATOM     39  C   UNL A   1      38.922  29.168  29.063  1.00  0.00     0.049 A 
ATOM     40  N   UNL A   1      39.221  30.153  31.885  1.00  0.00    -0.248 NA
ATOM     41  C   UNL A   1      37.278  31.412  31.613  1.00  0.00     0.031 C 
ATOM     42  C   UNL A   1      38.851  28.703  27.675  1.00  0.00     0.029 A 
ATOM     43  N   UNL A   1      40.099  28.642  29.529  1.00  0.00    -0.354 N 
ATOM     44  C   UNL A   1      39.007  30.917  33.026  1.00  0.00     0.074 A 
ATOM     45  C   UNL A   1      37.828  31.718  32.779  1.00  0.00     0.031 C 
ATOM     46  C   UNL A   1      39.921  27.936  27.413  1.00  0.00     0.029 A 
ATOM     47  C   UNL A   1      40.765  27.874  28.602  1.00  0.00     0.049 A 
ATOM     48  H   UNL A   1      40.435  28.797  30.441  1.00  0.00     0.167 HD
ATOM     49  C   UNL A   1      39.707  30.927  34.185  1.00  0.00     0.034 A 
ATOM     50  C   UNL A   1      41.920  27.191  28.701  1.00  0.00     0.034 A 
ATOM     51  C   UNL A   1      40.865  30.111  34.435  1.00  0.00     0.049 A 
ATOM     52  C   UNL A   1      42.647  27.176  30.017  1.00  0.00     0.074 A 
ATOM     53  C   UNL A   1      41.595  29.985  35.603  1.00  0.00     0.029 A 
ATOM     54  N   UNL A   1      41.473  29.292  33.495  1.00  0.00    -0.354 N 
ATOM     55  N   UNL A   1      42.330  27.767  31.142  1.00  0.00    -0.248 NA
ATOM     56  C   UNL A   1      43.866  26.360  30.089  1.00  0.00     0.031 C 
ATOM     57  C   UNL A   1      42.665  29.117  35.360  1.00  0.00     0.029 A 
ATOM     58  C   UNL A   1      42.577  28.668  34.052  1.00  0.00     0.049 A 
ATOM     59  H   UNL A   1      41.165  29.172  32.568  1.00  0.00     0.167 HD
ATOM     60  C   UNL A   1      43.291  27.371  32.064  1.00  0.00     0.074 A 
ATOM     61  C   UNL A   1      44.180  26.461  31.372  1.00  0.00     0.031 C 
ATOM     62  C   UNL A   1      43.436  27.739  33.363  1.00  0.00     0.034 A 
BRANCH  49  63
ATOM     63  C   UNL A   1      39.211  31.822  35.294  1.00  0.00     0.023 A 
ATOM     64  C   UNL A   1      38.243  31.341  36.201  1.00  0.00     0.012 A 
ATOM     65  C   UNL A   1      39.742  33.114  35.477  1.00  0.00     0.148 A 
ATOM     66  C   UNL A   1      37.784  32.141  37.245  1.00  0.00     0.002 A 
ATOM     67  C   UNL A   1      39.316  33.888  36.550  1.00  0.00     0.091 A 
ATOM     68  F   UNL A   1      40.646  33.565  34.596  1.00  0.00    -0.205 F 
ATOM     69  C   UNL A   1      38.328  33.410  37.427  1.00  0.00     0.022 A 
BRANCH  67  70
ATOM     70  S   UNL A   1      40.013  35.501  36.922  1.00  0.00     0.127 S 
ATOM     71  O   UNL A   1      41.437  35.188  37.038  1.00  0.00    -0.237 OA
ATOM     72  O   UNL A   1      39.653  36.272  35.731  1.00  0.00    -0.237 OA
ATOM     73  O   UNL A   1      39.371  35.944  38.151  1.00  0.00    -0.744 OA
ENDBRANCH  67  70
ENDBRANCH  49  63
BRANCH  50  74
ATOM     74  C   UNL A   1      42.423  26.405  27.538  1.00  0.00     0.023 A 
ATOM     75  C   UNL A   1      43.260  27.022  26.587  1.00  0.00     0.012 A 
ATOM     76  C   UNL A   1      42.092  25.046  27.381  1.00  0.00     0.148 A 
ATOM     77  C   UNL A   1      43.727  26.310  25.482  1.00  0.00     0.002 A 
ATOM     78  C   UNL A   1      42.611  24.326  26.311  1.00  0.00     0.091 A 
ATOM     79  F   UNL A   1      41.288  24.480  28.292  1.00  0.00    -0.205 F 
ATOM     80  C   UNL A   1      43.410  24.960  25.349  1.00  0.00     0.022 A 
BRANCH  78  81
ATOM     81  S   UNL A   1      42.370  22.555  26.138  1.00  0.00     0.127 S 
ATOM     82  O   UNL A   1      40.913  22.453  26.108  1.00  0.00    -0.237 OA
ATOM     83  O   UNL A   1      43.035  22.285  24.862  1.00  0.00    -0.237 OA
ATOM     84  O   UNL A   1      43.022  21.953  27.293  1.00  0.00    -0.744 OA
ENDBRANCH  78  81
ENDBRANCH  50  74
BRANCH  62  85
ATOM     85  C   UNL A   1      44.583  27.128  34.128  1.00  0.00     0.023 A 
ATOM     86  C   UNL A   1      45.861  27.722  34.079  1.00  0.00     0.012 A 
ATOM     87  C   UNL A   1      44.387  25.977  34.916  1.00  0.00     0.148 A 
ATOM     88  C   UNL A   1      46.936  27.147  34.754  1.00  0.00     0.002 A 
ATOM     89  C   UNL A   1      45.452  25.442  35.632  1.00  0.00     0.091 A 
ATOM     90  F   UNL A   1      43.171  25.413  34.939  1.00  0.00    -0.205 F 
ATOM     91  C   UNL A   1      46.731  26.014  35.537  1.00  0.00     0.022 A 
BRANCH  89  92
ATOM     92  S   UNL A   1      45.255  24.046  36.743  1.00  0.00     0.127 S 
ATOM     93  O   UNL A   1      44.516  24.649  37.851  1.00  0.00    -0.237 OA
ATOM     94  O   UNL A   1      44.478  23.108  35.931  1.00  0.00    -0.237 OA
ATOM     95  O   UNL A   1      46.604  23.595  37.060  1.00  0.00    -0.744 OA
ENDBRANCH  89  92
ENDBRANCH  62  85
ENDBRANCH  36  37
ENDBRANCH  28  31
ENDBRANCH  26  27
ENDBRANCH  25  26
ENDBRANCH  24  25
ENDBRANCH  23  24
ENDBRANCH   3  23
TORSDOF 21
ENDMDL
MODEL 3
REMARK VINA RESULT:     -10.3      1.887      2.526
REMARK SMILES COC(=O)CCN(C)C(=O)NCc1ccc(C(=O)NCCCCNC(=O)c2ccc(-c3c4nc(c(-c5cccc(S(=O)(=O)[O-])c5F)c5ccc([nH]5)c(-c5cccc(S(=O)(=O)[O-])c5F)c5nc(c(-c6cccc(S(=O)(=O)[O-])c6F)c6ccc3[nH]6)C=C5)C=C4)cc2)o1
REMARK SMILES IDX 17 1 18 2 19 3 16 5 13 6 14 7 90 8 15 9 12 10 11 11 9 12
REMARK SMILES IDX 10 13 7 15 8 16 6 17 5 18 3 19 4 20 2 21 1 22 20 23 21 24
REMARK SMILES IDX 22 25 23 26 24 27 25 28 26 30 27 31 28 32 89 33 29 34 88 35
REMARK SMILES IDX 30 36 31 37 32 38 82 39 33 40 87 41 81 42 83 43 34 44 86 45
REMARK SMILES IDX 80 46 79 47 35 49 67 50 47 51 66 52 48 53 51 54 65 55 84 56
REMARK SMILES IDX 49 57 50 58 64 60 85 61 52 62 36 63 37 64 45 65 38 66 40 67
REMARK SMILES IDX 46 68 39 69 41 70 42 71 43 72 44 73 68 74 69 75 77 76 70 77
REMARK SMILES IDX 72 78 78 79 71 80 73 81 74 82 75 83 76 84 53 85 54 86 62 87
REMARK SMILES IDX 55 88 57 89 63 90 56 91 58 92 59 93 60 94 61 95
REMARK H PARENT 19 4 11 14 24 29 83 48 51 59
REMARK Flexibility Score: inf
ROOT
ATOM      1  C   UNL A   1      30.289  28.755  22.738  1.00  0.00     0.286 C 
ATOM      2  O   UNL A   1      29.779  29.152  21.690  1.00  0.00    -0.266 OA
ATOM      3  N   UNL A   1      30.752  29.733  23.587  1.00  0.00    -0.349 N 
ATOM      4  H   UNL A   1      30.650  30.651  23.247  1.00  0.00     0.163 HD
ENDROOT
BRANCH   1   5
ATOM      5  C   UNL A   1      30.385  27.342  23.075  1.00  0.00     0.191 A 
ATOM      6  C   UNL A   1      31.449  25.401  23.020  1.00  0.00     0.124 A 
ATOM      7  C   UNL A   1      30.256  25.161  23.660  1.00  0.00     0.048 A 
ATOM      8  O   UNL A   1      31.544  26.713  22.686  1.00  0.00    -0.454 OA
ATOM      9  C   UNL A   1      29.585  26.407  23.712  1.00  0.00     0.056 A 
BRANCH   6  10
ATOM     10  C   UNL A   1      32.543  24.520  22.550  1.00  0.00     0.193 C 
BRANCH  10  11
ATOM     11  N   UNL A   1      33.463  24.421  23.662  1.00  0.00    -0.331 N 
ATOM     12  C   UNL A   1      33.677  23.610  24.701  1.00  0.00     0.317 C 
ATOM     13  O   UNL A   1      34.610  23.949  25.436  1.00  0.00    -0.249 OA
ATOM     14  H   UNL A   1      34.116  25.157  23.647  1.00  0.00     0.165 HD
BRANCH  12  15
ATOM     15  N   UNL A   1      32.992  22.449  24.905  1.00  0.00    -0.327 N 
ATOM     16  C   UNL A   1      31.822  22.274  25.746  1.00  0.00     0.148 C 
BRANCH  15  17
ATOM     17  C   UNL A   1      33.475  21.261  24.185  1.00  0.00     0.132 C 
BRANCH  17  18
ATOM     18  C   UNL A   1      33.923  20.144  25.124  1.00  0.00     0.144 C 
BRANCH  18  19
ATOM     19  C   UNL A   1      33.354  18.812  24.706  1.00  0.00     0.307 C 
ATOM     20  O   UNL A   1      32.168  18.522  24.791  1.00  0.00    -0.252 OA
BRANCH  19  21
ATOM     21  O   UNL A   1      34.337  17.997  24.234  1.00  0.00    -0.469 OA
ATOM     22  C   UNL A   1      34.360  16.692  24.816  1.00  0.00     0.282 C 
ENDBRANCH  19  21
ENDBRANCH  18  19
ENDBRANCH  17  18
ENDBRANCH  15  17
ENDBRANCH  12  15
ENDBRANCH  10  11
ENDBRANCH   6  10
ENDBRANCH   1   5
BRANCH   3  23
ATOM     23  C   UNL A   1      31.360  29.641  24.894  1.00  0.00     0.116 C 
BRANCH  23  24
ATOM     24  C   UNL A   1      32.845  29.296  24.784  1.00  0.00     0.023 C 
BRANCH  24  25
ATOM     25  C   UNL A   1      33.322  28.275  25.822  1.00  0.00     0.023 C 
BRANCH  25  26
ATOM     26  C   UNL A   1      34.215  28.844  26.923  1.00  0.00     0.116 C 
BRANCH  26  27
ATOM     27  N   UNL A   1      33.855  30.200  27.309  1.00  0.00    -0.352 N 
ATOM     28  C   UNL A   1      34.536  31.074  28.121  1.00  0.00     0.251 C 
ATOM     29  H   UNL A   1      33.008  30.538  26.937  1.00  0.00     0.163 HD
ATOM     30  O   UNL A   1      34.017  32.139  28.440  1.00  0.00    -0.269 OA
BRANCH  28  31
ATOM     31  C   UNL A   1      35.872  30.708  28.633  1.00  0.00     0.039 A 
ATOM     32  C   UNL A   1      35.962  29.718  29.613  1.00  0.00     0.014 A 
ATOM     33  C   UNL A   1      37.029  31.321  28.144  1.00  0.00     0.014 A 
ATOM     34  C   UNL A   1      37.217  29.308  30.064  1.00  0.00     0.010 A 
ATOM     35  C   UNL A   1      38.281  30.852  28.533  1.00  0.00     0.010 A 
ATOM     36  C   UNL A   1      38.389  29.846  29.504  1.00  0.00    -0.014 A 
BRANCH  36  37
ATOM     37  C   UNL A   1      39.720  29.335  29.917  1.00  0.00     0.031 A 
ATOM     38  C   UNL A   1      40.472  29.961  31.061  1.00  0.00     0.074 A 
ATOM     39  C   UNL A   1      40.271  28.314  29.228  1.00  0.00     0.049 A 
ATOM     40  N   UNL A   1      41.605  29.590  31.599  1.00  0.00    -0.248 NA
ATOM     41  C   UNL A   1      39.894  31.173  31.663  1.00  0.00     0.031 C 
ATOM     42  C   UNL A   1      39.690  27.690  28.037  1.00  0.00     0.029 A 
ATOM     43  N   UNL A   1      41.440  27.625  29.426  1.00  0.00    -0.354 N 
ATOM     44  C   UNL A   1      41.887  30.529  32.583  1.00  0.00     0.074 A 
ATOM     45  C   UNL A   1      40.829  31.514  32.538  1.00  0.00     0.031 C 
ATOM     46  C   UNL A   1      40.488  26.691  27.630  1.00  0.00     0.029 A 
ATOM     47  C   UNL A   1      41.648  26.619  28.512  1.00  0.00     0.049 A 
ATOM     48  H   UNL A   1      42.070  27.831  30.154  1.00  0.00     0.167 HD
ATOM     49  C   UNL A   1      42.914  30.553  33.465  1.00  0.00     0.034 A 
ATOM     50  C   UNL A   1      42.655  25.732  28.402  1.00  0.00     0.034 A 
ATOM     51  C   UNL A   1      43.951  29.558  33.521  1.00  0.00     0.049 A 
ATOM     52  C   UNL A   1      43.754  25.747  29.428  1.00  0.00     0.074 A 
ATOM     53  C   UNL A   1      44.989  29.444  34.430  1.00  0.00     0.029 A 
ATOM     54  N   UNL A   1      44.094  28.512  32.622  1.00  0.00    -0.354 N 
ATOM     55  N   UNL A   1      43.908  26.538  30.462  1.00  0.00    -0.248 NA
ATOM     56  C   UNL A   1      44.791  24.715  29.300  1.00  0.00     0.031 C 
ATOM     57  C   UNL A   1      45.778  28.349  34.059  1.00  0.00     0.029 A 
ATOM     58  C   UNL A   1      45.208  27.755  32.945  1.00  0.00     0.049 A 
ATOM     59  H   UNL A   1      43.491  28.332  31.865  1.00  0.00     0.167 HD
ATOM     60  C   UNL A   1      45.041  26.082  31.124  1.00  0.00     0.074 A 
ATOM     61  C   UNL A   1      45.511  24.924  30.393  1.00  0.00     0.031 C 
ATOM     62  C   UNL A   1      45.648  26.585  32.229  1.00  0.00     0.034 A 
BRANCH  49  63
ATOM     63  C   UNL A   1      42.943  31.673  34.476  1.00  0.00     0.023 A 
ATOM     64  C   UNL A   1      43.671  32.849  34.196  1.00  0.00     0.012 A 
ATOM     65  C   UNL A   1      42.206  31.589  35.674  1.00  0.00     0.148 A 
ATOM     66  C   UNL A   1      43.696  33.905  35.105  1.00  0.00     0.002 A 
ATOM     67  C   UNL A   1      42.196  32.666  36.552  1.00  0.00     0.091 A 
ATOM     68  F   UNL A   1      41.536  30.457  35.935  1.00  0.00    -0.205 F 
ATOM     69  C   UNL A   1      42.950  33.818  36.277  1.00  0.00     0.022 A 
BRANCH  67  70
ATOM     70  S   UNL A   1      41.202  32.689  38.048  1.00  0.00     0.127 S 
ATOM     71  O   UNL A   1      39.905  32.236  37.549  1.00  0.00    -0.237 OA
ATOM     72  O   UNL A   1      41.901  31.722  38.895  1.00  0.00    -0.237 OA
ATOM     73  O   UNL A   1      41.238  34.061  38.534  1.00  0.00    -0.744 OA
ENDBRANCH  67  70
ENDBRANCH  49  63
BRANCH  50  74
ATOM     74  C   UNL A   1      42.632  24.710  27.318  1.00  0.00     0.023 A 
ATOM     75  C   UNL A   1      43.284  24.972  26.096  1.00  0.00     0.012 A 
ATOM     76  C   UNL A   1      41.986  23.473  27.498  1.00  0.00     0.148 A 
ATOM     77  C   UNL A   1      43.260  24.037  25.062  1.00  0.00     0.002 A 
ATOM     78  C   UNL A   1      42.018  22.521  26.486  1.00  0.00     0.091 A 
ATOM     79  F   UNL A   1      41.364  23.246  28.664  1.00  0.00    -0.205 F 
ATOM     80  C   UNL A   1      42.635  22.807  25.260  1.00  0.00     0.022 A 
BRANCH  78  81
ATOM     81  S   UNL A   1      41.361  20.863  26.705  1.00  0.00     0.127 S 
ATOM     82  O   UNL A   1      41.934  20.483  27.994  1.00  0.00    -0.237 OA
ATOM     83  O   UNL A   1      39.919  21.112  26.719  1.00  0.00    -0.237 OA
ATOM     84  O   UNL A   1      41.827  20.100  25.556  1.00  0.00    -0.744 OA
ENDBRANCH  78  81
ENDBRANCH  50  74
BRANCH  62  85
ATOM     85  C   UNL A   1      46.872  25.861  32.732  1.00  0.00     0.023 A 
ATOM     86  C   UNL A   1      48.155  26.262  32.307  1.00  0.00     0.012 A 
ATOM     87  C   UNL A   1      46.750  24.796  33.647  1.00  0.00     0.148 A 
ATOM     88  C   UNL A   1      49.291  25.579  32.739  1.00  0.00     0.002 A 
ATOM     89  C   UNL A   1      47.891  24.157  34.117  1.00  0.00     0.091 A 
ATOM     90  F   UNL A   1      45.522  24.415  34.028  1.00  0.00    -0.205 F 
ATOM     91  C   UNL A   1      49.161  24.533  33.648  1.00  0.00     0.022 A 
BRANCH  89  92
ATOM     92  S   UNL A   1      47.822  22.868  35.365  1.00  0.00     0.127 S 
ATOM     93  O   UNL A   1      47.294  23.597  36.517  1.00  0.00    -0.237 OA
ATOM     94  O   UNL A   1      46.891  21.907  34.772  1.00  0.00    -0.237 OA
ATOM     95  O   UNL A   1      49.187  22.376  35.506  1.00  0.00    -0.744 OA
ENDBRANCH  89  92
ENDBRANCH  62  85
ENDBRANCH  36  37
ENDBRANCH  28  31
ENDBRANCH  26  27
ENDBRANCH  25  26
ENDBRANCH  24  25
ENDBRANCH  23  24
ENDBRANCH   3  23
TORSDOF 21
ENDMDL
