MODEL 1
REMARK VINA RESULT:     -11.1      0.000      0.000
REMARK SMILES CN(C)c1oc(/C=N/c2ccc(O)c(C(=O)NCCCCNC(=O)c3ccc(-c4c5nc(c(-c6cccc(S(=O)(=O)[O-])c6F)c6ccc([nH]6)c(-c6cccc(S(=O)(=O)[O-])c6F)c6nc(c(-c7cccc(S(=O)(=O)[O-])c7F)c7ccc4[nH]7)C=C6)C=C5)cc3)c2)cc1Br
REMARK SMILES IDX 19 1 18 2 17 3 15 4 16 5 14 7 9 8 10 9 88 10 11 11 12 12
REMARK SMILES IDX 8 13 7 14 6 15 4 16 5 17 90 18 89 19 91 20 2 21 1 22 3 23
REMARK SMILES IDX 13 24 20 26 21 27 22 28 23 29 24 31 25 32 26 33 87 34 27 35
REMARK SMILES IDX 86 36 28 37 29 38 30 39 80 40 31 41 85 42 79 43 81 44 32 45
REMARK SMILES IDX 84 46 78 47 77 48 33 50 65 51 45 52 64 53 46 54 49 55 63 56
REMARK SMILES IDX 82 57 47 58 48 59 62 61 83 62 50 63 34 64 35 65 43 66 36 67
REMARK SMILES IDX 38 68 44 69 37 70 39 71 40 72 41 73 42 74 66 75 67 76 75 77
REMARK SMILES IDX 68 78 70 79 76 80 69 81 71 82 72 83 73 84 74 85 51 86 52 87
REMARK SMILES IDX 60 88 53 89 55 90 61 91 54 92 56 93 57 94 58 95 59 96
REMARK H PARENT 17 6 13 25 22 30 81 49 49 60
REMARK Flexibility Score: inf
ROOT
ATOM      1  C   UNL A   1      31.269  30.759  25.271  1.00  0.00     0.023 C 
ENDROOT
BRANCH   1   2
ATOM      2  C   UNL A   1      29.940  31.214  24.660  1.00  0.00     0.116 C 
BRANCH   2   3
ATOM      3  N   UNL A   1      29.938  30.978  23.235  1.00  0.00    -0.352 N 
ATOM      4  C   UNL A   1      29.610  29.891  22.471  1.00  0.00     0.255 C 
ATOM      5  O   UNL A   1      29.784  30.026  21.255  1.00  0.00    -0.269 OA
ATOM      6  H   UNL A   1      30.230  31.755  22.707  1.00  0.00     0.163 HD
BRANCH   4   7
ATOM      7  C   UNL A   1      29.009  28.606  22.959  1.00  0.00     0.083 A 
ATOM      8  C   UNL A   1      29.599  26.296  23.586  1.00  0.00     0.064 A 
ATOM      9  C   UNL A   1      28.282  26.062  23.968  1.00  0.00     0.032 A 
ATOM     10  C   UNL A   1      29.941  27.548  23.068  1.00  0.00     0.046 A 
ATOM     11  C   UNL A   1      27.338  27.079  23.872  1.00  0.00     0.049 A 
ATOM     12  C   UNL A   1      27.707  28.351  23.409  1.00  0.00     0.128 A 
BRANCH   8  13
ATOM     13  N   UNL A   1      30.628  25.399  23.884  1.00  0.00    -0.253 NA
ATOM     14  C   UNL A   1      31.862  25.769  23.793  1.00  0.00     0.158 C 
BRANCH  14  15
ATOM     15  C   UNL A   1      32.884  24.777  23.968  1.00  0.00     0.149 A 
ATOM     16  C   UNL A   1      33.916  23.131  25.015  1.00  0.00     0.210 A 
ATOM     17  O   UNL A   1      32.752  23.854  24.967  1.00  0.00    -0.438 OA
ATOM     18  C   UNL A   1      34.749  23.567  24.004  1.00  0.00     0.082 A 
ATOM     19  C   UNL A   1      34.088  24.601  23.318  1.00  0.00     0.070 A 
ATOM     20  Br  UNL A   1      36.448  22.955  23.500  1.00  0.00    -0.045 Br
BRANCH  16  21
ATOM     21  N   UNL A   1      34.021  22.220  26.014  1.00  0.00    -0.348 N 
ATOM     22  C   UNL A   1      33.964  22.631  27.403  1.00  0.00     0.146 C 
ATOM     23  C   UNL A   1      34.119  20.810  25.693  1.00  0.00     0.146 C 
ENDBRANCH  16  21
ENDBRANCH  14  15
ENDBRANCH   8  13
BRANCH  12  24
ATOM     24  O   UNL A   1      26.757  29.324  23.505  1.00  0.00    -0.507 OA
ATOM     25  H   UNL A   1      25.896  29.109  23.805  1.00  0.00     0.293 HD
ENDBRANCH  12  24
ENDBRANCH   4   7
ENDBRANCH   2   3
ENDBRANCH   1   2
BRANCH   1  26
ATOM     26  C   UNL A   1      31.490  31.198  26.721  1.00  0.00     0.023 C 
BRANCH  26  27
ATOM     27  C   UNL A   1      32.760  32.007  26.958  1.00  0.00     0.116 C 
BRANCH  27  28
ATOM     28  N   UNL A   1      32.506  33.409  27.254  1.00  0.00    -0.352 N 
ATOM     29  C   UNL A   1      33.135  34.226  28.163  1.00  0.00     0.251 C 
ATOM     30  H   UNL A   1      31.784  33.831  26.733  1.00  0.00     0.163 HD
ATOM     31  O   UNL A   1      32.727  35.365  28.351  1.00  0.00    -0.269 OA
BRANCH  29  32
ATOM     32  C   UNL A   1      34.279  33.701  28.940  1.00  0.00     0.039 A 
ATOM     33  C   UNL A   1      34.024  32.801  29.976  1.00  0.00     0.014 A 
ATOM     34  C   UNL A   1      35.591  34.066  28.628  1.00  0.00     0.014 A 
ATOM     35  C   UNL A   1      35.092  32.214  30.656  1.00  0.00     0.010 A 
ATOM     36  C   UNL A   1      36.654  33.425  29.257  1.00  0.00     0.010 A 
ATOM     37  C   UNL A   1      36.416  32.494  30.277  1.00  0.00    -0.014 A 
BRANCH  37  38
ATOM     38  C   UNL A   1      37.556  31.785  30.914  1.00  0.00     0.031 A 
ATOM     39  C   UNL A   1      38.328  30.740  30.157  1.00  0.00     0.074 A 
ATOM     40  C   UNL A   1      37.845  32.035  32.206  1.00  0.00     0.049 A 
ATOM     41  N   UNL A   1      39.355  30.033  30.552  1.00  0.00    -0.248 NA
ATOM     42  C   UNL A   1      37.877  30.429  28.791  1.00  0.00     0.031 C 
ATOM     43  C   UNL A   1      37.106  32.955  33.076  1.00  0.00     0.029 A 
ATOM     44  N   UNL A   1      38.824  31.525  33.021  1.00  0.00    -0.354 N 
ATOM     45  C   UNL A   1      39.653  29.173  29.501  1.00  0.00     0.074 A 
ATOM     46  C   UNL A   1      38.678  29.424  28.462  1.00  0.00     0.031 C 
ATOM     47  C   UNL A   1      37.668  32.956  34.295  1.00  0.00     0.029 A 
ATOM     48  C   UNL A   1      38.791  32.024  34.303  1.00  0.00     0.049 A 
ATOM     49  H   UNL A   1      39.487  30.865  32.718  1.00  0.00     0.167 HD
ATOM     50  C   UNL A   1      40.664  28.279  29.398  1.00  0.00     0.034 A 
ATOM     51  C   UNL A   1      39.579  31.764  35.364  1.00  0.00     0.034 A 
ATOM     52  C   UNL A   1      41.659  28.067  30.414  1.00  0.00     0.049 A 
ATOM     53  C   UNL A   1      40.727  30.805  35.200  1.00  0.00     0.074 A 
ATOM     54  C   UNL A   1      42.785  27.265  30.361  1.00  0.00     0.029 A 
ATOM     55  N   UNL A   1      41.643  28.649  31.672  1.00  0.00    -0.354 N 
ATOM     56  N   UNL A   1      41.108  30.146  34.132  1.00  0.00    -0.248 NA
ATOM     57  C   UNL A   1      41.580  30.585  36.378  1.00  0.00     0.031 C 
ATOM     58  C   UNL A   1      43.437  27.344  31.596  1.00  0.00     0.029 A 
ATOM     59  C   UNL A   1      42.730  28.213  32.410  1.00  0.00     0.049 A 
ATOM     60  H   UNL A   1      40.959  29.280  31.993  1.00  0.00     0.167 HD
ATOM     61  C   UNL A   1      42.260  29.460  34.499  1.00  0.00     0.074 A 
ATOM     62  C   UNL A   1      42.531  29.808  35.879  1.00  0.00     0.031 C 
ATOM     63  C   UNL A   1      43.015  28.604  33.766  1.00  0.00     0.034 A 
BRANCH  50  64
ATOM     64  C   UNL A   1      40.783  27.498  28.114  1.00  0.00     0.023 A 
ATOM     65  C   UNL A   1      41.393  28.096  26.992  1.00  0.00     0.012 A 
ATOM     66  C   UNL A   1      40.361  26.157  28.038  1.00  0.00     0.148 A 
ATOM     67  C   UNL A   1      41.553  27.383  25.805  1.00  0.00     0.002 A 
ATOM     68  C   UNL A   1      40.564  25.437  26.865  1.00  0.00     0.091 A 
ATOM     69  F   UNL A   1      39.764  25.612  29.108  1.00  0.00    -0.205 F 
ATOM     70  C   UNL A   1      41.151  26.051  25.745  1.00  0.00     0.022 A 
BRANCH  68  71
ATOM     71  S   UNL A   1      40.153  23.696  26.711  1.00  0.00     0.127 S 
ATOM     72  O   UNL A   1      40.328  23.229  28.086  1.00  0.00    -0.237 OA
ATOM     73  O   UNL A   1      38.762  23.747  26.258  1.00  0.00    -0.237 OA
ATOM     74  O   UNL A   1      41.088  23.146  25.741  1.00  0.00    -0.744 OA
ENDBRANCH  68  71
ENDBRANCH  50  64
BRANCH  51  75
ATOM     75  C   UNL A   1      39.362  32.479  36.653  1.00  0.00     0.023 A 
ATOM     76  C   UNL A   1      40.082  33.662  36.914  1.00  0.00     0.012 A 
ATOM     77  C   UNL A   1      38.442  32.011  37.610  1.00  0.00     0.148 A 
ATOM     78  C   UNL A   1      39.918  34.344  38.120  1.00  0.00     0.002 A 
ATOM     79  C   UNL A   1      38.242  32.726  38.786  1.00  0.00     0.091 A 
ATOM     80  F   UNL A   1      37.775  30.877  37.350  1.00  0.00    -0.205 F 
ATOM     81  C   UNL A   1      38.992  33.882  39.051  1.00  0.00     0.022 A 
BRANCH  79  82
ATOM     82  S   UNL A   1      36.976  32.277  39.979  1.00  0.00     0.127 S 
ATOM     83  O   UNL A   1      37.112  33.338  40.972  1.00  0.00    -0.237 OA
ATOM     84  O   UNL A   1      35.759  32.342  39.169  1.00  0.00    -0.237 OA
ATOM     85  O   UNL A   1      37.324  30.936  40.427  1.00  0.00    -0.744 OA
ENDBRANCH  79  82
ENDBRANCH  51  75
BRANCH  63  86
ATOM     86  C   UNL A   1      44.222  27.998  34.434  1.00  0.00     0.023 A 
ATOM     87  C   UNL A   1      45.481  28.616  34.298  1.00  0.00     0.012 A 
ATOM     88  C   UNL A   1      44.100  26.849  35.239  1.00  0.00     0.148 A 
ATOM     89  C   UNL A   1      46.606  28.078  34.919  1.00  0.00     0.002 A 
ATOM     90  C   UNL A   1      45.217  26.346  35.896  1.00  0.00     0.091 A 
ATOM     91  F   UNL A   1      42.898  26.261  35.342  1.00  0.00    -0.205 F 
ATOM     92  C   UNL A   1      46.473  26.951  35.727  1.00  0.00     0.022 A 
BRANCH  90  93
ATOM     93  S   UNL A   1      45.118  24.957  37.032  1.00  0.00     0.127 S 
ATOM     94  O   UNL A   1      43.793  25.145  37.618  1.00  0.00    -0.237 OA
ATOM     95  O   UNL A   1      45.231  23.809  36.132  1.00  0.00    -0.237 OA
ATOM     96  O   UNL A   1      46.239  25.114  37.949  1.00  0.00    -0.744 OA
ENDBRANCH  90  93
ENDBRANCH  63  86
ENDBRANCH  37  38
ENDBRANCH  29  32
ENDBRANCH  27  28
ENDBRANCH  26  27
ENDBRANCH   1  26
TORSDOF 18
ENDMDL
MODEL 2
REMARK VINA RESULT:     -11.0      4.641     10.826
REMARK SMILES CN(C)c1oc(/C=N/c2ccc(O)c(C(=O)NCCCCNC(=O)c3ccc(-c4c5nc(c(-c6cccc(S(=O)(=O)[O-])c6F)c6ccc([nH]6)c(-c6cccc(S(=O)(=O)[O-])c6F)c6nc(c(-c7cccc(S(=O)(=O)[O-])c7F)c7ccc4[nH]7)C=C6)C=C5)cc3)c2)cc1Br
REMARK SMILES IDX 19 1 18 2 17 3 15 4 16 5 14 7 9 8 10 9 88 10 11 11 12 12
REMARK SMILES IDX 8 13 7 14 6 15 4 16 5 17 90 18 89 19 91 20 2 21 1 22 3 23
REMARK SMILES IDX 13 24 20 26 21 27 22 28 23 29 24 31 25 32 26 33 87 34 27 35
REMARK SMILES IDX 86 36 28 37 29 38 30 39 80 40 31 41 85 42 79 43 81 44 32 45
REMARK SMILES IDX 84 46 78 47 77 48 33 50 65 51 45 52 64 53 46 54 49 55 63 56
REMARK SMILES IDX 82 57 47 58 48 59 62 61 83 62 50 63 34 64 35 65 43 66 36 67
REMARK SMILES IDX 38 68 44 69 37 70 39 71 40 72 41 73 42 74 66 75 67 76 75 77
REMARK SMILES IDX 68 78 70 79 76 80 69 81 71 82 72 83 73 84 74 85 51 86 52 87
REMARK SMILES IDX 60 88 53 89 55 90 61 91 54 92 56 93 57 94 58 95 59 96
REMARK H PARENT 17 6 13 25 22 30 81 49 49 60
REMARK Flexibility Score: inf
ROOT
ATOM      1  C   UNL A   1      34.214  34.258  29.750  1.00  0.00     0.023 C 
ENDROOT
BRANCH   1   2
ATOM      2  C   UNL A   1      34.035  34.080  31.262  1.00  0.00     0.116 C 
BRANCH   2   3
ATOM      3  N   UNL A   1      34.421  32.744  31.656  1.00  0.00    -0.352 N 
ATOM      4  C   UNL A   1      35.504  32.249  32.331  1.00  0.00     0.255 C 
ATOM      5  O   UNL A   1      35.538  31.019  32.447  1.00  0.00    -0.269 OA
ATOM      6  H   UNL A   1      33.775  32.052  31.386  1.00  0.00     0.163 HD
BRANCH   4   7
ATOM      7  C   UNL A   1      36.590  33.049  32.985  1.00  0.00     0.083 A 
ATOM      8  C   UNL A   1      38.699  34.230  32.499  1.00  0.00     0.064 A 
ATOM      9  C   UNL A   1      38.757  34.672  33.817  1.00  0.00     0.032 A 
ATOM     10  C   UNL A   1      37.637  33.412  32.107  1.00  0.00     0.046 A 
ATOM     11  C   UNL A   1      37.745  34.333  34.711  1.00  0.00     0.049 A 
ATOM     12  C   UNL A   1      36.652  33.561  34.288  1.00  0.00     0.128 A 
BRANCH   8  13
ATOM     13  N   UNL A   1      39.548  34.734  31.511  1.00  0.00    -0.253 NA
ATOM     14  C   UNL A   1      40.193  33.929  30.733  1.00  0.00     0.158 C 
BRANCH  14  15
ATOM     15  C   UNL A   1      41.160  34.486  29.831  1.00  0.00     0.149 A 
ATOM     16  C   UNL A   1      43.193  35.003  29.148  1.00  0.00     0.210 A 
ATOM     17  O   UNL A   1      42.487  34.244  30.045  1.00  0.00    -0.438 OA
ATOM     18  C   UNL A   1      42.300  35.671  28.334  1.00  0.00     0.082 A 
ATOM     19  C   UNL A   1      41.002  35.329  28.750  1.00  0.00     0.070 A 
ATOM     20  Br  UNL A   1      42.620  36.816  26.885  1.00  0.00    -0.045 Br
BRANCH  16  21
ATOM     21  N   UNL A   1      44.544  34.975  29.264  1.00  0.00    -0.348 N 
ATOM     22  C   UNL A   1      45.290  33.768  28.969  1.00  0.00     0.146 C 
ATOM     23  C   UNL A   1      45.260  36.185  29.620  1.00  0.00     0.146 C 
ENDBRANCH  16  21
ENDBRANCH  14  15
ENDBRANCH   8  13
BRANCH  12  24
ATOM     24  O   UNL A   1      35.636  33.419  35.185  1.00  0.00    -0.507 OA
ATOM     25  H   UNL A   1      35.430  34.117  35.774  1.00  0.00     0.293 HD
ENDBRANCH  12  24
ENDBRANCH   4   7
ENDBRANCH   2   3
ENDBRANCH   1   2
BRANCH   1  26
ATOM     26  C   UNL A   1      35.639  34.019  29.244  1.00  0.00     0.023 C 
BRANCH  26  27
ATOM     27  C   UNL A   1      35.728  33.317  27.893  1.00  0.00     0.116 C 
BRANCH  27  28
ATOM     28  N   UNL A   1      34.627  32.396  27.647  1.00  0.00    -0.352 N 
ATOM     29  C   UNL A   1      34.622  31.023  27.711  1.00  0.00     0.251 C 
ATOM     30  H   UNL A   1      33.770  32.813  27.399  1.00  0.00     0.163 HD
ATOM     31  O   UNL A   1      33.624  30.397  27.377  1.00  0.00    -0.269 OA
BRANCH  29  32
ATOM     32  C   UNL A   1      35.844  30.312  28.145  1.00  0.00     0.039 A 
ATOM     33  C   UNL A   1      36.952  30.309  27.294  1.00  0.00     0.014 A 
ATOM     34  C   UNL A   1      35.909  29.684  29.391  1.00  0.00     0.014 A 
ATOM     35  C   UNL A   1      38.148  29.733  27.724  1.00  0.00     0.010 A 
ATOM     36  C   UNL A   1      37.123  29.176  29.846  1.00  0.00     0.010 A 
ATOM     37  C   UNL A   1      38.253  29.195  29.018  1.00  0.00    -0.014 A 
BRANCH  37  38
ATOM     38  C   UNL A   1      39.553  28.688  29.527  1.00  0.00     0.031 A 
ATOM     39  C   UNL A   1      40.241  29.363  30.681  1.00  0.00     0.074 A 
ATOM     40  C   UNL A   1      40.150  27.659  28.894  1.00  0.00     0.049 A 
ATOM     41  N   UNL A   1      41.370  29.049  31.261  1.00  0.00    -0.248 NA
ATOM     42  C   UNL A   1      39.592  30.558  31.244  1.00  0.00     0.031 C 
ATOM     43  C   UNL A   1      39.630  26.983  27.701  1.00  0.00     0.029 A 
ATOM     44  N   UNL A   1      41.332  27.011  29.151  1.00  0.00    -0.354 N 
ATOM     45  C   UNL A   1      41.584  30.022  32.230  1.00  0.00     0.074 A 
ATOM     46  C   UNL A   1      40.484  30.957  32.140  1.00  0.00     0.031 C 
ATOM     47  C   UNL A   1      40.480  26.008  27.342  1.00  0.00     0.029 A 
ATOM     48  C   UNL A   1      41.614  26.001  28.260  1.00  0.00     0.049 A 
ATOM     49  H   UNL A   1      41.923  27.248  29.901  1.00  0.00     0.167 HD
ATOM     50  C   UNL A   1      42.589  30.112  33.133  1.00  0.00     0.034 A 
ATOM     51  C   UNL A   1      42.664  25.160  28.195  1.00  0.00     0.034 A 
ATOM     52  C   UNL A   1      43.656  29.154  33.250  1.00  0.00     0.049 A 
ATOM     53  C   UNL A   1      43.736  25.251  29.246  1.00  0.00     0.074 A 
ATOM     54  C   UNL A   1      44.659  29.096  34.201  1.00  0.00     0.029 A 
ATOM     55  N   UNL A   1      43.867  28.094  32.383  1.00  0.00    -0.354 N 
ATOM     56  N   UNL A   1      43.819  26.060  30.275  1.00  0.00    -0.248 NA
ATOM     57  C   UNL A   1      44.841  24.286  29.151  1.00  0.00     0.031 C 
ATOM     58  C   UNL A   1      45.491  28.014  33.894  1.00  0.00     0.029 A 
ATOM     59  C   UNL A   1      44.992  27.385  32.766  1.00  0.00     0.049 A 
ATOM     60  H   UNL A   1      43.299  27.878  31.608  1.00  0.00     0.167 HD
ATOM     61  C   UNL A   1      44.965  25.682  30.966  1.00  0.00     0.074 A 
ATOM     62  C   UNL A   1      45.526  24.551  30.255  1.00  0.00     0.031 C 
ATOM     63  C   UNL A   1      45.513  26.232  32.078  1.00  0.00     0.034 A 
BRANCH  50  64
ATOM     64  C   UNL A   1      42.554  31.258  34.112  1.00  0.00     0.023 A 
ATOM     65  C   UNL A   1      43.368  32.387  33.889  1.00  0.00     0.012 A 
ATOM     66  C   UNL A   1      41.669  31.250  35.207  1.00  0.00     0.148 A 
ATOM     67  C   UNL A   1      43.325  33.478  34.756  1.00  0.00     0.002 A 
ATOM     68  C   UNL A   1      41.599  32.360  36.043  1.00  0.00     0.091 A 
ATOM     69  F   UNL A   1      40.917  30.159  35.416  1.00  0.00    -0.205 F 
ATOM     70  C   UNL A   1      42.432  33.469  35.824  1.00  0.00     0.022 A 
BRANCH  68  71
ATOM     71  S   UNL A   1      40.428  32.481  37.399  1.00  0.00     0.127 S 
ATOM     72  O   UNL A   1      39.365  31.582  36.952  1.00  0.00    -0.237 OA
ATOM     73  O   UNL A   1      41.213  31.981  38.529  1.00  0.00    -0.237 OA
ATOM     74  O   UNL A   1      40.061  33.887  37.490  1.00  0.00    -0.744 OA
ENDBRANCH  68  71
ENDBRANCH  50  64
BRANCH  51  75
ATOM     75  C   UNL A   1      42.715  24.105  27.144  1.00  0.00     0.023 A 
ATOM     76  C   UNL A   1      43.499  24.317  25.992  1.00  0.00     0.012 A 
ATOM     77  C   UNL A   1      42.012  22.893  27.280  1.00  0.00     0.148 A 
ATOM     78  C   UNL A   1      43.552  23.359  24.980  1.00  0.00     0.002 A 
ATOM     79  C   UNL A   1      42.113  21.919  26.294  1.00  0.00     0.091 A 
ATOM     80  F   UNL A   1      41.260  22.714  28.376  1.00  0.00    -0.205 F 
ATOM     81  C   UNL A   1      42.867  22.157  25.134  1.00  0.00     0.022 A 
BRANCH  79  82
ATOM     82  S   UNL A   1      41.372  20.292  26.472  1.00  0.00     0.127 S 
ATOM     83  O   UNL A   1      39.956  20.585  26.267  1.00  0.00    -0.237 OA
ATOM     84  O   UNL A   1      42.011  19.547  25.385  1.00  0.00    -0.237 OA
ATOM     85  O   UNL A   1      41.743  19.840  27.805  1.00  0.00    -0.744 OA
ENDBRANCH  79  82
ENDBRANCH  51  75
BRANCH  63  86
ATOM     86  C   UNL A   1      46.776  25.606  32.610  1.00  0.00     0.023 A 
ATOM     87  C   UNL A   1      48.028  26.057  32.147  1.00  0.00     0.012 A 
ATOM     88  C   UNL A   1      46.724  24.611  33.606  1.00  0.00     0.148 A 
ATOM     89  C   UNL A   1      49.208  25.499  32.638  1.00  0.00     0.002 A 
ATOM     90  C   UNL A   1      47.905  24.095  34.126  1.00  0.00     0.091 A 
ATOM     91  F   UNL A   1      45.524  24.179  34.021  1.00  0.00    -0.205 F 
ATOM     92  C   UNL A   1      49.147  24.528  33.634  1.00  0.00     0.022 A 
BRANCH  90  93
ATOM     93  S   UNL A   1      47.922  22.912  35.478  1.00  0.00     0.127 S 
ATOM     94  O   UNL A   1      47.779  21.644  34.767  1.00  0.00    -0.237 OA
ATOM     95  O   UNL A   1      49.241  23.134  36.072  1.00  0.00    -0.237 OA
ATOM     96  O   UNL A   1      46.806  23.278  36.341  1.00  0.00    -0.744 OA
ENDBRANCH  90  93
ENDBRANCH  63  86
ENDBRANCH  37  38
ENDBRANCH  29  32
ENDBRANCH  27  28
ENDBRANCH  26  27
ENDBRANCH   1  26
TORSDOF 18
ENDMDL
MODEL 3
REMARK VINA RESULT:     -10.8      6.601     12.253
REMARK SMILES CN(C)c1oc(/C=N/c2ccc(O)c(C(=O)NCCCCNC(=O)c3ccc(-c4c5nc(c(-c6cccc(S(=O)(=O)[O-])c6F)c6ccc([nH]6)c(-c6cccc(S(=O)(=O)[O-])c6F)c6nc(c(-c7cccc(S(=O)(=O)[O-])c7F)c7ccc4[nH]7)C=C6)C=C5)cc3)c2)cc1Br
REMARK SMILES IDX 19 1 18 2 17 3 15 4 16 5 14 7 9 8 10 9 88 10 11 11 12 12
REMARK SMILES IDX 8 13 7 14 6 15 4 16 5 17 90 18 89 19 91 20 2 21 1 22 3 23
REMARK SMILES IDX 13 24 20 26 21 27 22 28 23 29 24 31 25 32 26 33 87 34 27 35
REMARK SMILES IDX 86 36 28 37 29 38 30 39 80 40 31 41 85 42 79 43 81 44 32 45
REMARK SMILES IDX 84 46 78 47 77 48 33 50 65 51 45 52 64 53 46 54 49 55 63 56
REMARK SMILES IDX 82 57 47 58 48 59 62 61 83 62 50 63 34 64 35 65 43 66 36 67
REMARK SMILES IDX 38 68 44 69 37 70 39 71 40 72 41 73 42 74 66 75 67 76 75 77
REMARK SMILES IDX 68 78 70 79 76 80 69 81 71 82 72 83 73 84 74 85 51 86 52 87
REMARK SMILES IDX 60 88 53 89 55 90 61 91 54 92 56 93 57 94 58 95 59 96
REMARK H PARENT 17 6 13 25 22 30 81 49 49 60
REMARK Flexibility Score: inf
ROOT
ATOM      1  C   UNL A   1      42.657  23.135  28.415  1.00  0.00     0.023 C 
ENDROOT
BRANCH   1   2
ATOM      2  C   UNL A   1      44.158  23.304  28.672  1.00  0.00     0.116 C 
BRANCH   2   3
ATOM      3  N   UNL A   1      44.919  22.642  27.638  1.00  0.00    -0.352 N 
ATOM      4  C   UNL A   1      45.492  23.082  26.475  1.00  0.00     0.255 C 
ATOM      5  O   UNL A   1      46.032  22.210  25.787  1.00  0.00    -0.269 OA
ATOM      6  H   UNL A   1      45.054  21.681  27.803  1.00  0.00     0.163 HD
BRANCH   4   7
ATOM      7  C   UNL A   1      45.577  24.504  26.006  1.00  0.00     0.083 A 
ATOM      8  C   UNL A   1      47.178  26.347  25.663  1.00  0.00     0.064 A 
ATOM      9  C   UNL A   1      46.167  27.123  25.105  1.00  0.00     0.032 A 
ATOM     10  C   UNL A   1      46.869  25.065  26.124  1.00  0.00     0.046 A 
ATOM     11  C   UNL A   1      44.883  26.604  24.974  1.00  0.00     0.049 A 
ATOM     12  C   UNL A   1      44.600  25.293  25.385  1.00  0.00     0.128 A 
BRANCH   8  13
ATOM     13  N   UNL A   1      48.522  26.723  25.598  1.00  0.00    -0.253 NA
ATOM     14  C   UNL A   1      49.010  27.210  24.507  1.00  0.00     0.158 C 
BRANCH  14  15
ATOM     15  C   UNL A   1      50.424  27.446  24.441  1.00  0.00     0.149 A 
ATOM     16  C   UNL A   1      52.238  28.676  24.179  1.00  0.00     0.210 A 
ATOM     17  O   UNL A   1      50.883  28.732  24.389  1.00  0.00    -0.438 OA
ATOM     18  C   UNL A   1      52.629  27.353  24.162  1.00  0.00     0.082 A 
ATOM     19  C   UNL A   1      51.481  26.564  24.351  1.00  0.00     0.070 A 
ATOM     20  Br  UNL A   1      54.339  26.608  23.975  1.00  0.00    -0.045 Br
BRANCH  16  21
ATOM     21  N   UNL A   1      52.870  29.863  24.001  1.00  0.00    -0.348 N 
ATOM     22  C   UNL A   1      52.393  30.818  23.021  1.00  0.00     0.146 C 
ATOM     23  C   UNL A   1      53.994  30.213  24.848  1.00  0.00     0.146 C 
ENDBRANCH  16  21
ENDBRANCH  14  15
ENDBRANCH   8  13
BRANCH  12  24
ATOM     24  O   UNL A   1      43.362  24.818  25.068  1.00  0.00    -0.507 OA
ATOM     25  H   UNL A   1      42.691  24.788  25.720  1.00  0.00     0.293 HD
ENDBRANCH  12  24
ENDBRANCH   4   7
ENDBRANCH   2   3
ENDBRANCH   1   2
BRANCH   1  26
ATOM     26  C   UNL A   1      42.284  21.898  27.594  1.00  0.00     0.023 C 
BRANCH  26  27
ATOM     27  C   UNL A   1      41.763  22.194  26.192  1.00  0.00     0.116 C 
BRANCH  27  28
ATOM     28  N   UNL A   1      40.342  21.923  26.035  1.00  0.00    -0.352 N 
ATOM     29  C   UNL A   1      39.273  22.741  26.313  1.00  0.00     0.251 C 
ATOM     30  H   UNL A   1      40.115  21.032  25.681  1.00  0.00     0.163 HD
ATOM     31  O   UNL A   1      38.130  22.313  26.209  1.00  0.00    -0.269 OA
BRANCH  29  32
ATOM     32  C   UNL A   1      39.518  24.122  26.780  1.00  0.00     0.039 A 
ATOM     33  C   UNL A   1      39.289  24.423  28.124  1.00  0.00     0.014 A 
ATOM     34  C   UNL A   1      40.001  25.102  25.909  1.00  0.00     0.014 A 
ATOM     35  C   UNL A   1      39.610  25.691  28.610  1.00  0.00     0.010 A 
ATOM     36  C   UNL A   1      40.388  26.342  26.411  1.00  0.00     0.010 A 
ATOM     37  C   UNL A   1      40.197  26.649  27.765  1.00  0.00    -0.014 A 
BRANCH  37  38
ATOM     38  C   UNL A   1      40.651  27.958  28.299  1.00  0.00     0.031 A 
ATOM     39  C   UNL A   1      42.116  28.280  28.396  1.00  0.00     0.074 A 
ATOM     40  C   UNL A   1      39.735  28.829  28.768  1.00  0.00     0.049 A 
ATOM     41  N   UNL A   1      42.689  29.375  28.824  1.00  0.00    -0.248 NA
ATOM     42  C   UNL A   1      43.063  27.233  27.982  1.00  0.00     0.031 C 
ATOM     43  C   UNL A   1      38.290  28.591  28.819  1.00  0.00     0.029 A 
ATOM     44  N   UNL A   1      39.883  30.082  29.308  1.00  0.00    -0.354 N 
ATOM     45  C   UNL A   1      44.057  29.139  28.764  1.00  0.00     0.074 A 
ATOM     46  C   UNL A   1      44.230  27.784  28.287  1.00  0.00     0.031 C 
ATOM     47  C   UNL A   1      37.684  29.668  29.345  1.00  0.00     0.029 A 
ATOM     48  C   UNL A   1      38.695  30.663  29.688  1.00  0.00     0.049 A 
ATOM     49  H   UNL A   1      40.756  30.523  29.414  1.00  0.00     0.167 HD
ATOM     50  C   UNL A   1      45.077  29.982  29.050  1.00  0.00     0.034 A 
ATOM     51  C   UNL A   1      38.448  31.864  30.245  1.00  0.00     0.034 A 
ATOM     52  C   UNL A   1      44.900  31.344  29.478  1.00  0.00     0.049 A 
ATOM     53  C   UNL A   1      39.598  32.800  30.499  1.00  0.00     0.074 A 
ATOM     54  C   UNL A   1      45.866  32.312  29.687  1.00  0.00     0.029 A 
ATOM     55  N   UNL A   1      43.680  31.928  29.776  1.00  0.00    -0.354 N 
ATOM     56  N   UNL A   1      40.875  32.628  30.252  1.00  0.00    -0.248 NA
ATOM     57  C   UNL A   1      39.270  34.113  31.073  1.00  0.00     0.031 C 
ATOM     58  C   UNL A   1      45.231  33.475  30.134  1.00  0.00     0.029 A 
ATOM     59  C   UNL A   1      43.867  33.239  30.182  1.00  0.00     0.049 A 
ATOM     60  H   UNL A   1      42.807  31.477  29.709  1.00  0.00     0.167 HD
ATOM     61  C   UNL A   1      41.496  33.818  30.609  1.00  0.00     0.074 A 
ATOM     62  C   UNL A   1      40.452  34.715  31.061  1.00  0.00     0.031 C 
ATOM     63  C   UNL A   1      42.815  34.136  30.583  1.00  0.00     0.034 A 
BRANCH  50  64
ATOM     64  C   UNL A   1      46.483  29.477  28.852  1.00  0.00     0.023 A 
ATOM     65  C   UNL A   1      47.180  29.808  27.672  1.00  0.00     0.012 A 
ATOM     66  C   UNL A   1      47.138  28.741  29.858  1.00  0.00     0.148 A 
ATOM     67  C   UNL A   1      48.496  29.389  27.482  1.00  0.00     0.002 A 
ATOM     68  C   UNL A   1      48.465  28.364  29.681  1.00  0.00     0.091 A 
ATOM     69  F   UNL A   1      46.453  28.418  30.964  1.00  0.00    -0.205 F 
ATOM     70  C   UNL A   1      49.142  28.678  28.490  1.00  0.00     0.022 A 
BRANCH  68  71
ATOM     71  S   UNL A   1      49.411  27.514  30.949  1.00  0.00     0.127 S 
ATOM     72  O   UNL A   1      49.830  28.628  31.799  1.00  0.00    -0.237 OA
ATOM     73  O   UNL A   1      48.404  26.637  31.548  1.00  0.00    -0.237 OA
ATOM     74  O   UNL A   1      50.485  26.821  30.254  1.00  0.00    -0.744 OA
ENDBRANCH  68  71
ENDBRANCH  50  64
BRANCH  51  75
ATOM     75  C   UNL A   1      37.046  32.286  30.526  1.00  0.00     0.023 A 
ATOM     76  C   UNL A   1      36.508  32.076  31.811  1.00  0.00     0.012 A 
ATOM     77  C   UNL A   1      36.252  32.906  29.543  1.00  0.00     0.148 A 
ATOM     78  C   UNL A   1      35.193  32.439  32.100  1.00  0.00     0.002 A 
ATOM     79  C   UNL A   1      34.960  33.317  29.854  1.00  0.00     0.091 A 
ATOM     80  F   UNL A   1      36.776  33.087  28.322  1.00  0.00    -0.205 F 
ATOM     81  C   UNL A   1      34.423  33.068  31.126  1.00  0.00     0.022 A 
BRANCH  79  82
ATOM     82  S   UNL A   1      33.947  34.251  28.702  1.00  0.00     0.127 S 
ATOM     83  O   UNL A   1      33.632  33.241  27.695  1.00  0.00    -0.237 OA
ATOM     84  O   UNL A   1      32.820  34.653  29.546  1.00  0.00    -0.237 OA
ATOM     85  O   UNL A   1      34.783  35.357  28.257  1.00  0.00    -0.744 OA
ENDBRANCH  79  82
ENDBRANCH  51  75
BRANCH  63  86
ATOM     86  C   UNL A   1      43.204  35.519  31.037  1.00  0.00     0.023 A 
ATOM     87  C   UNL A   1      43.497  35.752  32.395  1.00  0.00     0.012 A 
ATOM     88  C   UNL A   1      43.331  36.573  30.111  1.00  0.00     0.148 A 
ATOM     89  C   UNL A   1      43.872  37.021  32.832  1.00  0.00     0.002 A 
ATOM     90  C   UNL A   1      43.754  37.823  30.546  1.00  0.00     0.091 A 
ATOM     91  F   UNL A   1      43.030  36.338  28.825  1.00  0.00    -0.205 F 
ATOM     92  C   UNL A   1      44.011  38.054  31.907  1.00  0.00     0.022 A 
BRANCH  90  93
ATOM     93  S   UNL A   1      44.054  39.183  29.410  1.00  0.00     0.127 S 
ATOM     94  O   UNL A   1      44.522  40.230  30.315  1.00  0.00    -0.237 OA
ATOM     95  O   UNL A   1      45.084  38.633  28.528  1.00  0.00    -0.237 OA
ATOM     96  O   UNL A   1      42.778  39.442  28.755  1.00  0.00    -0.744 OA
ENDBRANCH  90  93
ENDBRANCH  63  86
ENDBRANCH  37  38
ENDBRANCH  29  32
ENDBRANCH  27  28
ENDBRANCH  26  27
ENDBRANCH   1  26
TORSDOF 18
ENDMDL
