MODEL 1
REMARK VINA RESULT:     -12.2      0.000      0.000
REMARK SMILES COc1ccc(C(=O)c2ccccc2)cc1[C@@H](C)C(=O)NCCCCNC(=O)c1ccc(-c2c3nc(c(-c4cccc(S(=O)(=O)[O-])c4F)c4ccc([nH]4)c(-c4cccc(S(=O)(=O)[O-])c4F)c4nc(c(-c5cccc(S(=O)(=O)[O-])c5F)c5ccc2[nH]5)C=C4)C=C3)cc1
REMARK SMILES IDX 23 1 22 2 21 3 19 4 20 5 17 7 18 8 16 9 3 10 4 11 5 12 15 13
REMARK SMILES IDX 6 14 2 15 1 16 7 17 8 18 9 19 10 20 14 21 11 22 13 23 12 24
REMARK SMILES IDX 24 25 25 26 26 27 27 28 28 30 29 31 30 32 91 33 31 34 90 35
REMARK SMILES IDX 32 36 33 37 34 38 84 39 35 40 89 41 83 42 85 43 36 44 88 45
REMARK SMILES IDX 82 46 81 47 37 49 69 50 49 51 68 52 50 53 53 54 67 55 86 56
REMARK SMILES IDX 51 57 52 58 66 60 87 61 54 62 38 63 39 64 47 65 40 66 42 67
REMARK SMILES IDX 48 68 41 69 43 70 44 71 45 72 46 73 70 74 71 75 79 76 72 77
REMARK SMILES IDX 74 78 80 79 73 80 75 81 76 82 77 83 78 84 55 85 56 86 64 87
REMARK SMILES IDX 57 88 59 89 65 90 58 91 60 92 61 93 62 94 63 95
REMARK H PARENT 21 6 26 29 85 48 53 59
REMARK Flexibility Score: inf
ROOT
ATOM      1  C   UNL A   1      33.113  29.257  27.070  1.00  0.00     0.023 C 
ENDROOT
BRANCH   1   2
ATOM      2  C   UNL A   1      32.730  28.363  25.893  1.00  0.00     0.116 C 
BRANCH   2   3
ATOM      3  N   UNL A   1      33.009  28.997  24.624  1.00  0.00    -0.356 N 
ATOM      4  C   UNL A   1      32.957  28.544  23.344  1.00  0.00     0.227 C 
ATOM      5  O   UNL A   1      33.336  29.335  22.471  1.00  0.00    -0.274 OA
ATOM      6  H   UNL A   1      33.292  29.936  24.702  1.00  0.00     0.163 HD
BRANCH   4   7
ATOM      7  C   UNL A   1      32.477  27.137  22.934  1.00  0.00     0.109 C 
ATOM      8  C   UNL A   1      32.941  26.634  21.569  1.00  0.00     0.023 C 
BRANCH   7   9
ATOM      9  C   UNL A   1      31.006  26.887  23.244  1.00  0.00     0.007 A 
ATOM     10  C   UNL A   1      30.562  25.693  23.836  1.00  0.00     0.122 A 
ATOM     11  C   UNL A   1      29.219  25.523  24.189  1.00  0.00     0.047 A 
ATOM     12  C   UNL A   1      28.294  26.545  23.964  1.00  0.00     0.016 A 
ATOM     13  C   UNL A   1      30.035  27.872  22.965  1.00  0.00     0.020 A 
ATOM     14  C   UNL A   1      28.688  27.724  23.329  1.00  0.00     0.023 A 
BRANCH  10  15
ATOM     15  O   UNL A   1      31.360  24.584  23.935  1.00  0.00    -0.496 OA
ATOM     16  C   UNL A   1      31.863  24.365  25.254  1.00  0.00     0.278 C 
ENDBRANCH  10  15
BRANCH  14  17
ATOM     17  C   UNL A   1      27.656  28.788  23.118  1.00  0.00     0.193 C 
ATOM     18  O   UNL A   1      26.480  28.552  23.384  1.00  0.00    -0.289 OA
BRANCH  17  19
ATOM     19  C   UNL A   1      27.982  30.144  22.617  1.00  0.00     0.022 A 
ATOM     20  C   UNL A   1      28.253  31.150  23.555  1.00  0.00     0.012 A 
ATOM     21  C   UNL A   1      27.966  30.448  21.251  1.00  0.00     0.012 A 
ATOM     22  C   UNL A   1      28.539  32.446  23.126  1.00  0.00     0.001 A 
ATOM     23  C   UNL A   1      28.255  31.747  20.827  1.00  0.00     0.001 A 
ATOM     24  C   UNL A   1      28.536  32.742  21.763  1.00  0.00     0.000 A 
ENDBRANCH  17  19
ENDBRANCH  14  17
ENDBRANCH   7   9
ENDBRANCH   4   7
ENDBRANCH   2   3
ENDBRANCH   1   2
BRANCH   1  25
ATOM     25  C   UNL A   1      32.570  30.677  27.030  1.00  0.00     0.023 C 
BRANCH  25  26
ATOM     26  C   UNL A   1      33.536  31.752  27.509  1.00  0.00     0.116 C 
BRANCH  26  27
ATOM     27  N   UNL A   1      32.933  33.071  27.685  1.00  0.00    -0.352 N 
ATOM     28  C   UNL A   1      33.335  34.084  28.524  1.00  0.00     0.251 C 
ATOM     29  H   UNL A   1      32.139  33.260  27.133  1.00  0.00     0.163 HD
ATOM     30  O   UNL A   1      32.734  35.151  28.583  1.00  0.00    -0.269 OA
BRANCH  28  31
ATOM     31  C   UNL A   1      34.495  33.837  29.389  1.00  0.00     0.039 A 
ATOM     32  C   UNL A   1      34.364  32.968  30.476  1.00  0.00     0.014 A 
ATOM     33  C   UNL A   1      35.734  34.362  29.021  1.00  0.00     0.014 A 
ATOM     34  C   UNL A   1      35.508  32.552  31.154  1.00  0.00     0.010 A 
ATOM     35  C   UNL A   1      36.873  33.883  29.644  1.00  0.00     0.010 A 
ATOM     36  C   UNL A   1      36.770  32.973  30.711  1.00  0.00    -0.014 A 
BRANCH  36  37
ATOM     37  C   UNL A   1      38.030  32.494  31.322  1.00  0.00     0.031 A 
ATOM     38  C   UNL A   1      38.749  31.348  30.673  1.00  0.00     0.074 A 
ATOM     39  C   UNL A   1      38.407  32.962  32.528  1.00  0.00     0.049 A 
ATOM     40  N   UNL A   1      39.698  30.592  31.149  1.00  0.00    -0.248 NA
ATOM     41  C   UNL A   1      38.292  30.967  29.323  1.00  0.00     0.031 C 
ATOM     42  C   UNL A   1      37.734  34.028  33.273  1.00  0.00     0.029 A 
ATOM     43  N   UNL A   1      39.416  32.558  33.365  1.00  0.00    -0.354 N 
ATOM     44  C   UNL A   1      39.908  29.607  30.191  1.00  0.00     0.074 A 
ATOM     45  C   UNL A   1      38.970  29.850  29.116  1.00  0.00     0.031 C 
ATOM     46  C   UNL A   1      38.335  34.180  34.465  1.00  0.00     0.029 A 
ATOM     47  C   UNL A   1      39.404  33.195  34.585  1.00  0.00     0.049 A 
ATOM     48  H   UNL A   1      40.084  31.879  33.117  1.00  0.00     0.167 HD
ATOM     49  C   UNL A   1      40.817  28.605  30.199  1.00  0.00     0.034 A 
ATOM     50  C   UNL A   1      40.151  32.981  35.686  1.00  0.00     0.034 A 
ATOM     51  C   UNL A   1      41.780  28.423  31.248  1.00  0.00     0.049 A 
ATOM     52  C   UNL A   1      41.194  31.896  35.647  1.00  0.00     0.074 A 
ATOM     53  C   UNL A   1      42.822  27.518  31.313  1.00  0.00     0.029 A 
ATOM     54  N   UNL A   1      41.819  29.167  32.418  1.00  0.00    -0.354 N 
ATOM     55  N   UNL A   1      41.481  31.065  34.674  1.00  0.00    -0.248 NA
ATOM     56  C   UNL A   1      42.030  31.733  36.844  1.00  0.00     0.031 C 
ATOM     57  C   UNL A   1      43.482  27.703  32.532  1.00  0.00     0.029 A 
ATOM     58  C   UNL A   1      42.861  28.735  33.218  1.00  0.00     0.049 A 
ATOM     59  H   UNL A   1      41.196  29.895  32.645  1.00  0.00     0.167 HD
ATOM     60  C   UNL A   1      42.544  30.295  35.129  1.00  0.00     0.074 A 
ATOM     61  C   UNL A   1      42.867  30.779  36.457  1.00  0.00     0.031 C 
ATOM     62  C   UNL A   1      43.186  29.270  34.517  1.00  0.00     0.034 A 
BRANCH  49  63
ATOM     63  C   UNL A   1      40.839  27.672  29.018  1.00  0.00     0.023 A 
ATOM     64  C   UNL A   1      39.884  26.637  28.930  1.00  0.00     0.012 A 
ATOM     65  C   UNL A   1      41.778  27.833  27.981  1.00  0.00     0.148 A 
ATOM     66  C   UNL A   1      39.890  25.753  27.852  1.00  0.00     0.002 A 
ATOM     67  C   UNL A   1      41.748  26.977  26.887  1.00  0.00     0.091 A 
ATOM     68  F   UNL A   1      42.694  28.807  28.092  1.00  0.00    -0.205 F 
ATOM     69  C   UNL A   1      40.814  25.929  26.827  1.00  0.00     0.022 A 
BRANCH  67  70
ATOM     70  S   UNL A   1      42.848  27.161  25.478  1.00  0.00     0.127 S 
ATOM     71  O   UNL A   1      44.130  27.414  26.136  1.00  0.00    -0.237 OA
ATOM     72  O   UNL A   1      42.742  25.852  24.833  1.00  0.00    -0.237 OA
ATOM     73  O   UNL A   1      42.317  28.268  24.696  1.00  0.00    -0.744 OA
ENDBRANCH  67  70
ENDBRANCH  49  63
BRANCH  50  74
ATOM     74  C   UNL A   1      39.973  33.844  36.889  1.00  0.00     0.023 A 
ATOM     75  C   UNL A   1      40.426  35.177  36.850  1.00  0.00     0.012 A 
ATOM     76  C   UNL A   1      39.322  33.375  38.047  1.00  0.00     0.148 A 
ATOM     77  C   UNL A   1      40.255  36.020  37.949  1.00  0.00     0.002 A 
ATOM     78  C   UNL A   1      39.108  34.236  39.118  1.00  0.00     0.091 A 
ATOM     79  F   UNL A   1      38.911  32.099  38.073  1.00  0.00    -0.205 F 
ATOM     80  C   UNL A   1      39.587  35.555  39.077  1.00  0.00     0.022 A 
BRANCH  78  81
ATOM     81  S   UNL A   1      38.140  33.762  40.556  1.00  0.00     0.127 S 
ATOM     82  O   UNL A   1      36.944  33.194  39.938  1.00  0.00    -0.237 OA
ATOM     83  O   UNL A   1      39.018  32.789  41.207  1.00  0.00    -0.237 OA
ATOM     84  O   UNL A   1      37.940  34.990  41.314  1.00  0.00    -0.744 OA
ENDBRANCH  78  81
ENDBRANCH  50  74
BRANCH  62  85
ATOM     85  C   UNL A   1      44.309  28.608  35.267  1.00  0.00     0.023 A 
ATOM     86  C   UNL A   1      45.633  29.039  35.055  1.00  0.00     0.012 A 
ATOM     87  C   UNL A   1      44.043  27.633  36.246  1.00  0.00     0.148 A 
ATOM     88  C   UNL A   1      46.680  28.491  35.792  1.00  0.00     0.002 A 
ATOM     89  C   UNL A   1      45.085  27.124  37.010  1.00  0.00     0.091 A 
ATOM     90  F   UNL A   1      42.775  27.228  36.417  1.00  0.00    -0.205 F 
ATOM     91  C   UNL A   1      46.405  27.545  36.779  1.00  0.00     0.022 A 
BRANCH  89  92
ATOM     92  S   UNL A   1      44.817  25.977  38.366  1.00  0.00     0.127 S 
ATOM     93  O   UNL A   1      44.277  24.812  37.666  1.00  0.00    -0.237 OA
ATOM     94  O   UNL A   1      46.170  25.799  38.893  1.00  0.00    -0.237 OA
ATOM     95  O   UNL A   1      43.894  26.638  39.277  1.00  0.00    -0.744 OA
ENDBRANCH  89  92
ENDBRANCH  62  85
ENDBRANCH  36  37
ENDBRANCH  28  31
ENDBRANCH  26  27
ENDBRANCH  25  26
ENDBRANCH   1  25
TORSDOF 18
ENDMDL
MODEL 2
REMARK VINA RESULT:     -12.2      5.796     10.611
REMARK SMILES COc1ccc(C(=O)c2ccccc2)cc1[C@@H](C)C(=O)NCCCCNC(=O)c1ccc(-c2c3nc(c(-c4cccc(S(=O)(=O)[O-])c4F)c4ccc([nH]4)c(-c4cccc(S(=O)(=O)[O-])c4F)c4nc(c(-c5cccc(S(=O)(=O)[O-])c5F)c5ccc2[nH]5)C=C4)C=C3)cc1
REMARK SMILES IDX 23 1 22 2 21 3 19 4 20 5 17 7 18 8 16 9 3 10 4 11 5 12 15 13
REMARK SMILES IDX 6 14 2 15 1 16 7 17 8 18 9 19 10 20 14 21 11 22 13 23 12 24
REMARK SMILES IDX 24 25 25 26 26 27 27 28 28 30 29 31 30 32 91 33 31 34 90 35
REMARK SMILES IDX 32 36 33 37 34 38 84 39 35 40 89 41 83 42 85 43 36 44 88 45
REMARK SMILES IDX 82 46 81 47 37 49 69 50 49 51 68 52 50 53 53 54 67 55 86 56
REMARK SMILES IDX 51 57 52 58 66 60 87 61 54 62 38 63 39 64 47 65 40 66 42 67
REMARK SMILES IDX 48 68 41 69 43 70 44 71 45 72 46 73 70 74 71 75 79 76 72 77
REMARK SMILES IDX 74 78 80 79 73 80 75 81 76 82 77 83 78 84 55 85 56 86 64 87
REMARK SMILES IDX 57 88 59 89 65 90 58 91 60 92 61 93 62 94 63 95
REMARK H PARENT 21 6 26 29 85 48 53 59
REMARK Flexibility Score: inf
ROOT
ATOM      1  C   UNL A   1      34.742  23.200  23.685  1.00  0.00     0.023 C 
ENDROOT
BRANCH   1   2
ATOM      2  C   UNL A   1      34.350  24.662  23.480  1.00  0.00     0.116 C 
BRANCH   2   3
ATOM      3  N   UNL A   1      33.939  24.921  22.119  1.00  0.00    -0.356 N 
ATOM      4  C   UNL A   1      33.212  25.923  21.559  1.00  0.00     0.227 C 
ATOM      5  O   UNL A   1      32.971  25.810  20.349  1.00  0.00    -0.274 OA
ATOM      6  H   UNL A   1      34.243  24.242  21.475  1.00  0.00     0.163 HD
BRANCH   4   7
ATOM      7  C   UNL A   1      32.676  27.149  22.325  1.00  0.00     0.109 C 
ATOM      8  C   UNL A   1      33.717  28.015  23.029  1.00  0.00     0.023 C 
BRANCH   7   9
ATOM      9  C   UNL A   1      31.429  26.847  23.149  1.00  0.00     0.007 A 
ATOM     10  C   UNL A   1      30.178  27.409  22.840  1.00  0.00     0.122 A 
ATOM     11  C   UNL A   1      29.033  27.049  23.557  1.00  0.00     0.047 A 
ATOM     12  C   UNL A   1      29.112  26.117  24.594  1.00  0.00     0.016 A 
ATOM     13  C   UNL A   1      31.489  25.963  24.246  1.00  0.00     0.020 A 
ATOM     14  C   UNL A   1      30.347  25.579  24.965  1.00  0.00     0.023 A 
BRANCH  10  15
ATOM     15  O   UNL A   1      30.041  28.448  21.959  1.00  0.00    -0.496 OA
ATOM     16  C   UNL A   1      29.916  29.719  22.598  1.00  0.00     0.278 C 
ENDBRANCH  10  15
BRANCH  14  17
ATOM     17  C   UNL A   1      30.372  24.580  26.080  1.00  0.00     0.193 C 
ATOM     18  O   UNL A   1      29.498  24.614  26.944  1.00  0.00    -0.289 OA
BRANCH  17  19
ATOM     19  C   UNL A   1      31.399  23.517  26.192  1.00  0.00     0.022 A 
ATOM     20  C   UNL A   1      31.207  22.331  25.470  1.00  0.00     0.012 A 
ATOM     21  C   UNL A   1      32.507  23.651  27.036  1.00  0.00     0.012 A 
ATOM     22  C   UNL A   1      32.137  21.296  25.568  1.00  0.00     0.001 A 
ATOM     23  C   UNL A   1      33.436  22.611  27.129  1.00  0.00     0.001 A 
ATOM     24  C   UNL A   1      33.247  21.437  26.400  1.00  0.00     0.000 A 
ENDBRANCH  17  19
ENDBRANCH  14  17
ENDBRANCH   7   9
ENDBRANCH   4   7
ENDBRANCH   2   3
ENDBRANCH   1   2
BRANCH   1  25
ATOM     25  C   UNL A   1      36.234  22.916  23.764  1.00  0.00     0.023 C 
BRANCH  25  26
ATOM     26  C   UNL A   1      36.746  22.533  25.146  1.00  0.00     0.116 C 
BRANCH  26  27
ATOM     27  N   UNL A   1      37.616  21.359  25.164  1.00  0.00    -0.352 N 
ATOM     28  C   UNL A   1      38.835  21.214  25.784  1.00  0.00     0.251 C 
ATOM     29  H   UNL A   1      37.288  20.572  24.670  1.00  0.00     0.163 HD
ATOM     30  O   UNL A   1      39.474  20.170  25.717  1.00  0.00    -0.269 OA
BRANCH  28  31
ATOM     31  C   UNL A   1      39.378  22.372  26.505  1.00  0.00     0.039 A 
ATOM     32  C   UNL A   1      40.349  22.168  27.491  1.00  0.00     0.014 A 
ATOM     33  C   UNL A   1      39.020  23.654  26.090  1.00  0.00     0.014 A 
ATOM     34  C   UNL A   1      41.030  23.267  28.010  1.00  0.00     0.010 A 
ATOM     35  C   UNL A   1      39.754  24.733  26.547  1.00  0.00     0.010 A 
ATOM     36  C   UNL A   1      40.766  24.549  27.506  1.00  0.00    -0.014 A 
BRANCH  36  37
ATOM     37  C   UNL A   1      41.519  25.747  27.941  1.00  0.00     0.031 A 
ATOM     38  C   UNL A   1      40.777  26.833  28.664  1.00  0.00     0.074 A 
ATOM     39  C   UNL A   1      42.788  25.924  27.527  1.00  0.00     0.049 A 
ATOM     40  N   UNL A   1      41.139  28.062  28.904  1.00  0.00    -0.248 NA
ATOM     41  C   UNL A   1      39.418  26.500  29.129  1.00  0.00     0.031 C 
ATOM     42  C   UNL A   1      43.575  24.956  26.759  1.00  0.00     0.029 A 
ATOM     43  N   UNL A   1      43.622  27.008  27.646  1.00  0.00    -0.354 N 
ATOM     44  C   UNL A   1      40.033  28.670  29.486  1.00  0.00     0.074 A 
ATOM     45  C   UNL A   1      38.981  27.680  29.542  1.00  0.00     0.031 C 
ATOM     46  C   UNL A   1      44.766  25.497  26.457  1.00  0.00     0.029 A 
ATOM     47  C   UNL A   1      44.812  26.861  26.971  1.00  0.00     0.049 A 
ATOM     48  H   UNL A   1      43.390  27.813  28.164  1.00  0.00     0.167 HD
ATOM     49  C   UNL A   1      39.916  29.935  29.951  1.00  0.00     0.034 A 
ATOM     50  C   UNL A   1      45.809  27.742  26.763  1.00  0.00     0.034 A 
ATOM     51  C   UNL A   1      40.996  30.881  29.943  1.00  0.00     0.049 A 
ATOM     52  C   UNL A   1      45.678  29.126  27.341  1.00  0.00     0.074 A 
ATOM     53  C   UNL A   1      41.034  32.151  30.488  1.00  0.00     0.029 A 
ATOM     54  N   UNL A   1      42.235  30.657  29.359  1.00  0.00    -0.354 N 
ATOM     55  N   UNL A   1      44.681  29.643  28.020  1.00  0.00    -0.248 NA
ATOM     56  C   UNL A   1      46.811  30.040  27.147  1.00  0.00     0.031 C 
ATOM     57  C   UNL A   1      42.291  32.701  30.218  1.00  0.00     0.029 A 
ATOM     58  C   UNL A   1      43.042  31.767  29.519  1.00  0.00     0.049 A 
ATOM     59  H   UNL A   1      42.499  29.828  28.896  1.00  0.00     0.167 HD
ATOM     60  C   UNL A   1      45.074  30.933  28.354  1.00  0.00     0.074 A 
ATOM     61  C   UNL A   1      46.412  31.109  27.825  1.00  0.00     0.031 C 
ATOM     62  C   UNL A   1      44.388  31.894  29.020  1.00  0.00     0.034 A 
BRANCH  49  63
ATOM     63  C   UNL A   1      38.596  30.341  30.550  1.00  0.00     0.023 A 
ATOM     64  C   UNL A   1      38.313  30.019  31.894  1.00  0.00     0.012 A 
ATOM     65  C   UNL A   1      37.650  31.066  29.801  1.00  0.00     0.148 A 
ATOM     66  C   UNL A   1      37.094  30.375  32.470  1.00  0.00     0.002 A 
ATOM     67  C   UNL A   1      36.455  31.457  30.395  1.00  0.00     0.091 A 
ATOM     68  F   UNL A   1      37.924  31.342  28.517  1.00  0.00    -0.205 F 
ATOM     69  C   UNL A   1      36.171  31.102  31.724  1.00  0.00     0.022 A 
BRANCH  67  70
ATOM     70  S   UNL A   1      35.229  32.458  29.545  1.00  0.00     0.127 S 
ATOM     71  O   UNL A   1      34.738  31.524  28.532  1.00  0.00    -0.237 OA
ATOM     72  O   UNL A   1      34.277  32.751  30.617  1.00  0.00    -0.237 OA
ATOM     73  O   UNL A   1      35.943  33.618  29.032  1.00  0.00    -0.744 OA
ENDBRANCH  67  70
ENDBRANCH  49  63
BRANCH  50  74
ATOM     74  C   UNL A   1      47.034  27.325  26.022  1.00  0.00     0.023 A 
ATOM     75  C   UNL A   1      47.154  27.652  24.658  1.00  0.00     0.012 A 
ATOM     76  C   UNL A   1      48.094  26.653  26.662  1.00  0.00     0.148 A 
ATOM     77  C   UNL A   1      48.297  27.297  23.937  1.00  0.00     0.002 A 
ATOM     78  C   UNL A   1      49.252  26.351  25.952  1.00  0.00     0.091 A 
ATOM     79  F   UNL A   1      47.957  26.337  27.957  1.00  0.00    -0.205 F 
ATOM     80  C   UNL A   1      49.349  26.658  24.586  1.00  0.00     0.022 A 
BRANCH  78  81
ATOM     81  S   UNL A   1      50.708  25.650  26.739  1.00  0.00     0.127 S 
ATOM     82  O   UNL A   1      51.078  26.705  27.678  1.00  0.00    -0.237 OA
ATOM     83  O   UNL A   1      50.168  24.438  27.355  1.00  0.00    -0.237 OA
ATOM     84  O   UNL A   1      51.653  25.402  25.658  1.00  0.00    -0.744 OA
ENDBRANCH  78  81
ENDBRANCH  50  74
BRANCH  62  85
ATOM     85  C   UNL A   1      45.073  33.217  29.229  1.00  0.00     0.023 A 
ATOM     86  C   UNL A   1      45.935  33.386  30.330  1.00  0.00     0.012 A 
ATOM     87  C   UNL A   1      44.938  34.252  28.285  1.00  0.00     0.148 A 
ATOM     88  C   UNL A   1      46.636  34.577  30.501  1.00  0.00     0.002 A 
ATOM     89  C   UNL A   1      45.676  35.419  28.436  1.00  0.00     0.091 A 
ATOM     90  F   UNL A   1      44.099  34.072  27.254  1.00  0.00    -0.205 F 
ATOM     91  C   UNL A   1      46.518  35.587  29.548  1.00  0.00     0.022 A 
BRANCH  89  92
ATOM     92  S   UNL A   1      45.663  36.733  27.213  1.00  0.00     0.127 S 
ATOM     93  O   UNL A   1      44.229  36.951  27.025  1.00  0.00    -0.237 OA
ATOM     94  O   UNL A   1      46.357  37.814  27.912  1.00  0.00    -0.237 OA
ATOM     95  O   UNL A   1      46.371  36.210  26.052  1.00  0.00    -0.744 OA
ENDBRANCH  89  92
ENDBRANCH  62  85
ENDBRANCH  36  37
ENDBRANCH  28  31
ENDBRANCH  26  27
ENDBRANCH  25  26
ENDBRANCH   1  25
TORSDOF 18
ENDMDL
MODEL 3
REMARK VINA RESULT:     -12.0      5.719     10.151
REMARK SMILES COc1ccc(C(=O)c2ccccc2)cc1[C@@H](C)C(=O)NCCCCNC(=O)c1ccc(-c2c3nc(c(-c4cccc(S(=O)(=O)[O-])c4F)c4ccc([nH]4)c(-c4cccc(S(=O)(=O)[O-])c4F)c4nc(c(-c5cccc(S(=O)(=O)[O-])c5F)c5ccc2[nH]5)C=C4)C=C3)cc1
REMARK SMILES IDX 23 1 22 2 21 3 19 4 20 5 17 7 18 8 16 9 3 10 4 11 5 12 15 13
REMARK SMILES IDX 6 14 2 15 1 16 7 17 8 18 9 19 10 20 14 21 11 22 13 23 12 24
REMARK SMILES IDX 24 25 25 26 26 27 27 28 28 30 29 31 30 32 91 33 31 34 90 35
REMARK SMILES IDX 32 36 33 37 34 38 84 39 35 40 89 41 83 42 85 43 36 44 88 45
REMARK SMILES IDX 82 46 81 47 37 49 69 50 49 51 68 52 50 53 53 54 67 55 86 56
REMARK SMILES IDX 51 57 52 58 66 60 87 61 54 62 38 63 39 64 47 65 40 66 42 67
REMARK SMILES IDX 48 68 41 69 43 70 44 71 45 72 46 73 70 74 71 75 79 76 72 77
REMARK SMILES IDX 74 78 80 79 73 80 75 81 76 82 77 83 78 84 55 85 56 86 64 87
REMARK SMILES IDX 57 88 59 89 65 90 58 91 60 92 61 93 62 94 63 95
REMARK H PARENT 21 6 26 29 85 48 53 59
REMARK Flexibility Score: inf
ROOT
ATOM      1  C   UNL A   1      34.748  23.115  23.491  1.00  0.00     0.023 C 
ENDROOT
BRANCH   1   2
ATOM      2  C   UNL A   1      34.344  24.588  23.496  1.00  0.00     0.116 C 
BRANCH   2   3
ATOM      3  N   UNL A   1      33.820  25.004  22.215  1.00  0.00    -0.356 N 
ATOM      4  C   UNL A   1      33.008  26.032  21.850  1.00  0.00     0.227 C 
ATOM      5  O   UNL A   1      32.682  26.069  20.656  1.00  0.00    -0.274 OA
ATOM      6  H   UNL A   1      34.104  24.435  21.464  1.00  0.00     0.163 HD
BRANCH   4   7
ATOM      7  C   UNL A   1      32.479  27.113  22.813  1.00  0.00     0.109 C 
ATOM      8  C   UNL A   1      33.406  27.513  23.957  1.00  0.00     0.023 C 
BRANCH   7   9
ATOM      9  C   UNL A   1      31.022  26.904  23.210  1.00  0.00     0.007 A 
ATOM     10  C   UNL A   1      30.600  25.773  23.930  1.00  0.00     0.122 A 
ATOM     11  C   UNL A   1      29.274  25.647  24.356  1.00  0.00     0.047 A 
ATOM     12  C   UNL A   1      28.344  26.650  24.078  1.00  0.00     0.016 A 
ATOM     13  C   UNL A   1      30.043  27.866  22.883  1.00  0.00     0.020 A 
ATOM     14  C   UNL A   1      28.713  27.763  23.318  1.00  0.00     0.023 A 
BRANCH  10  15
ATOM     15  O   UNL A   1      31.399  24.673  24.097  1.00  0.00    -0.496 OA
ATOM     16  C   UNL A   1      30.853  23.485  23.522  1.00  0.00     0.278 C 
ENDBRANCH  10  15
BRANCH  14  17
ATOM     17  C   UNL A   1      27.676  28.810  23.054  1.00  0.00     0.193 C 
ATOM     18  O   UNL A   1      26.488  28.541  23.223  1.00  0.00    -0.289 OA
BRANCH  17  19
ATOM     19  C   UNL A   1      28.008  30.185  22.614  1.00  0.00     0.022 A 
ATOM     20  C   UNL A   1      28.180  31.172  23.595  1.00  0.00     0.012 A 
ATOM     21  C   UNL A   1      28.092  30.524  21.258  1.00  0.00     0.012 A 
ATOM     22  C   UNL A   1      28.468  32.485  23.221  1.00  0.00     0.001 A 
ATOM     23  C   UNL A   1      28.382  31.839  20.890  1.00  0.00     0.001 A 
ATOM     24  C   UNL A   1      28.565  32.816  21.870  1.00  0.00     0.000 A 
ENDBRANCH  17  19
ENDBRANCH  14  17
ENDBRANCH   7   9
ENDBRANCH   4   7
ENDBRANCH   2   3
ENDBRANCH   1   2
BRANCH   1  25
ATOM     25  C   UNL A   1      36.242  22.835  23.528  1.00  0.00     0.023 C 
BRANCH  25  26
ATOM     26  C   UNL A   1      36.818  22.583  24.915  1.00  0.00     0.116 C 
BRANCH  26  27
ATOM     27  N   UNL A   1      37.611  21.360  25.026  1.00  0.00    -0.352 N 
ATOM     28  C   UNL A   1      38.771  21.162  25.739  1.00  0.00     0.251 C 
ATOM     29  H   UNL A   1      37.274  20.580  24.528  1.00  0.00     0.163 HD
ATOM     30  O   UNL A   1      39.348  20.080  25.745  1.00  0.00    -0.269 OA
BRANCH  28  31
ATOM     31  C   UNL A   1      39.329  22.306  26.471  1.00  0.00     0.039 A 
ATOM     32  C   UNL A   1      40.338  22.087  27.413  1.00  0.00     0.014 A 
ATOM     33  C   UNL A   1      38.941  23.594  26.105  1.00  0.00     0.014 A 
ATOM     34  C   UNL A   1      41.027  23.179  27.936  1.00  0.00     0.010 A 
ATOM     35  C   UNL A   1      39.681  24.669  26.563  1.00  0.00     0.010 A 
ATOM     36  C   UNL A   1      40.731  24.471  27.478  1.00  0.00    -0.014 A 
BRANCH  36  37
ATOM     37  C   UNL A   1      41.487  25.666  27.916  1.00  0.00     0.031 A 
ATOM     38  C   UNL A   1      40.749  26.750  28.646  1.00  0.00     0.074 A 
ATOM     39  C   UNL A   1      42.756  25.842  27.501  1.00  0.00     0.049 A 
ATOM     40  N   UNL A   1      41.113  27.977  28.891  1.00  0.00    -0.248 NA
ATOM     41  C   UNL A   1      39.390  26.418  29.113  1.00  0.00     0.031 C 
ATOM     42  C   UNL A   1      43.539  24.876  26.727  1.00  0.00     0.029 A 
ATOM     43  N   UNL A   1      43.591  26.924  27.624  1.00  0.00    -0.354 N 
ATOM     44  C   UNL A   1      40.010  28.584  29.478  1.00  0.00     0.074 A 
ATOM     45  C   UNL A   1      38.956  27.596  29.532  1.00  0.00     0.031 C 
ATOM     46  C   UNL A   1      44.731  25.416  26.425  1.00  0.00     0.029 A 
ATOM     47  C   UNL A   1      44.780  26.778  26.945  1.00  0.00     0.049 A 
ATOM     48  H   UNL A   1      43.363  27.726  28.146  1.00  0.00     0.167 HD
ATOM     49  C   UNL A   1      39.896  29.848  29.950  1.00  0.00     0.034 A 
ATOM     50  C   UNL A   1      45.779  27.658  26.740  1.00  0.00     0.034 A 
ATOM     51  C   UNL A   1      40.979  30.791  29.943  1.00  0.00     0.049 A 
ATOM     52  C   UNL A   1      45.651  29.040  27.324  1.00  0.00     0.074 A 
ATOM     53  C   UNL A   1      41.020  32.058  30.495  1.00  0.00     0.029 A 
ATOM     54  N   UNL A   1      42.215  30.567  29.356  1.00  0.00    -0.354 N 
ATOM     55  N   UNL A   1      44.657  29.555  28.008  1.00  0.00    -0.248 NA
ATOM     56  C   UNL A   1      46.786  29.952  27.132  1.00  0.00     0.031 C 
ATOM     57  C   UNL A   1      42.277  32.607  30.224  1.00  0.00     0.029 A 
ATOM     58  C   UNL A   1      43.025  31.676  29.520  1.00  0.00     0.049 A 
ATOM     59  H   UNL A   1      42.477  29.740  28.889  1.00  0.00     0.167 HD
ATOM     60  C   UNL A   1      45.053  30.843  28.347  1.00  0.00     0.074 A 
ATOM     61  C   UNL A   1      46.391  31.018  27.816  1.00  0.00     0.031 C 
ATOM     62  C   UNL A   1      44.371  31.802  29.019  1.00  0.00     0.034 A 
BRANCH  49  63
ATOM     63  C   UNL A   1      38.579  30.253  30.553  1.00  0.00     0.023 A 
ATOM     64  C   UNL A   1      38.288  29.906  31.890  1.00  0.00     0.012 A 
ATOM     65  C   UNL A   1      37.641  31.002  29.817  1.00  0.00     0.148 A 
ATOM     66  C   UNL A   1      37.071  30.261  32.469  1.00  0.00     0.002 A 
ATOM     67  C   UNL A   1      36.449  31.392  30.416  1.00  0.00     0.091 A 
ATOM     68  F   UNL A   1      37.922  31.303  28.540  1.00  0.00    -0.205 F 
ATOM     69  C   UNL A   1      36.157  31.012  31.736  1.00  0.00     0.022 A 
BRANCH  67  70
ATOM     70  S   UNL A   1      35.234  32.422  29.583  1.00  0.00     0.127 S 
ATOM     71  O   UNL A   1      34.758  31.524  28.532  1.00  0.00    -0.237 OA
ATOM     72  O   UNL A   1      34.267  32.679  30.651  1.00  0.00    -0.237 OA
ATOM     73  O   UNL A   1      35.955  33.599  29.121  1.00  0.00    -0.744 OA
ENDBRANCH  67  70
ENDBRANCH  49  63
BRANCH  50  74
ATOM     74  C   UNL A   1      47.001  27.242  25.994  1.00  0.00     0.023 A 
ATOM     75  C   UNL A   1      47.082  27.500  24.612  1.00  0.00     0.012 A 
ATOM     76  C   UNL A   1      48.096  26.639  26.644  1.00  0.00     0.148 A 
ATOM     77  C   UNL A   1      48.221  27.145  23.886  1.00  0.00     0.002 A 
ATOM     78  C   UNL A   1      49.248  26.337  25.925  1.00  0.00     0.091 A 
ATOM     79  F   UNL A   1      47.996  26.387  27.957  1.00  0.00    -0.205 F 
ATOM     80  C   UNL A   1      49.307  26.575  24.543  1.00  0.00     0.022 A 
BRANCH  78  81
ATOM     81  S   UNL A   1      50.742  25.726  26.714  1.00  0.00     0.127 S 
ATOM     82  O   UNL A   1      50.284  24.462  27.286  1.00  0.00    -0.237 OA
ATOM     83  O   UNL A   1      51.655  25.593  25.578  1.00  0.00    -0.237 OA
ATOM     84  O   UNL A   1      51.126  26.755  27.672  1.00  0.00    -0.744 OA
ENDBRANCH  78  81
ENDBRANCH  50  74
BRANCH  62  85
ATOM     85  C   UNL A   1      45.058  33.122  29.232  1.00  0.00     0.023 A 
ATOM     86  C   UNL A   1      45.850  33.314  30.381  1.00  0.00     0.012 A 
ATOM     87  C   UNL A   1      44.998  34.131  28.252  1.00  0.00     0.148 A 
ATOM     88  C   UNL A   1      46.555  34.502  30.562  1.00  0.00     0.002 A 
ATOM     89  C   UNL A   1      45.740  35.293  28.416  1.00  0.00     0.091 A 
ATOM     90  F   UNL A   1      44.224  33.929  27.175  1.00  0.00    -0.205 F 
ATOM     91  C   UNL A   1      46.511  35.485  29.574  1.00  0.00     0.022 A 
BRANCH  89  92
ATOM     92  S   UNL A   1      45.823  36.570  27.156  1.00  0.00     0.127 S 
ATOM     93  O   UNL A   1      46.952  37.374  27.623  1.00  0.00    -0.237 OA
ATOM     94  O   UNL A   1      46.087  35.793  25.945  1.00  0.00    -0.237 OA
ATOM     95  O   UNL A   1      44.530  37.240  27.176  1.00  0.00    -0.744 OA
ENDBRANCH  89  92
ENDBRANCH  62  85
ENDBRANCH  36  37
ENDBRANCH  28  31
ENDBRANCH  26  27
ENDBRANCH  25  26
ENDBRANCH   1  25
TORSDOF 18
ENDMDL
