MODEL 1
REMARK VINA RESULT:     -12.0      0.000      0.000
REMARK SMILES Cc1ccccc1CC(=O)Oc1cccc(C(=O)NCCCCNC(=O)c2ccc(-c3c4nc(c(-c5cccc(S(=O)(=O)[O-])c5F)c5ccc([nH]5)c(-c5cccc(S(=O)(=O)[O-])c5F)c5nc(c(-c6cccc(S(=O)(=O)[O-])c6F)c6ccc3[nH]6)C=C5)C=C4)cc2)c1
REMARK SMILES IDX 21 1 20 2 19 3 17 4 18 5 16 7 12 8 13 9 90 10 14 11 15 12
REMARK SMILES IDX 11 13 9 14 10 15 8 16 7 17 1 18 2 19 3 20 4 21 6 22 5 23
REMARK SMILES IDX 22 24 23 25 24 26 25 27 26 29 27 30 28 31 89 32 29 33 88 34
REMARK SMILES IDX 30 35 31 36 32 37 82 38 33 39 87 40 81 41 83 42 34 43 86 44
REMARK SMILES IDX 80 45 79 46 35 48 67 49 47 50 66 51 48 52 51 53 65 54 84 55
REMARK SMILES IDX 49 56 50 57 64 59 85 60 52 61 36 62 37 63 45 64 38 65 40 66
REMARK SMILES IDX 46 67 39 68 41 69 42 70 43 71 44 72 68 73 69 74 77 75 70 76
REMARK SMILES IDX 72 77 78 78 71 79 73 80 74 81 75 82 76 83 53 84 54 85 62 86
REMARK SMILES IDX 55 87 57 88 63 89 56 90 58 91 59 92 60 93 61 94
REMARK H PARENT 19 6 24 28 83 47 51 58
REMARK Flexibility Score: inf
ROOT
ATOM      1  C   UNL A   1      36.302  23.372  25.121  1.00  0.00     0.023 C 
ENDROOT
BRANCH   1   2
ATOM      2  C   UNL A   1      34.998  24.135  25.392  1.00  0.00     0.116 C 
BRANCH   2   3
ATOM      3  N   UNL A   1      33.813  23.308  25.236  1.00  0.00    -0.352 N 
ATOM      4  C   UNL A   1      32.692  23.331  24.445  1.00  0.00     0.251 C 
ATOM      5  O   UNL A   1      31.894  22.406  24.624  1.00  0.00    -0.269 OA
ATOM      6  H   UNL A   1      33.815  22.541  25.853  1.00  0.00     0.163 HD
BRANCH   4   7
ATOM      7  C   UNL A   1      32.343  24.365  23.416  1.00  0.00     0.043 A 
ATOM      8  C   UNL A   1      30.941  26.289  22.873  1.00  0.00     0.131 A 
ATOM      9  C   UNL A   1      31.561  26.426  21.636  1.00  0.00     0.047 A 
ATOM     10  C   UNL A   1      31.344  25.298  23.772  1.00  0.00     0.061 A 
ATOM     11  C   UNL A   1      32.526  25.501  21.262  1.00  0.00     0.005 A 
ATOM     12  C   UNL A   1      32.909  24.479  22.142  1.00  0.00     0.014 A 
BRANCH   8  13
ATOM     13  O   UNL A   1      29.914  27.161  23.251  1.00  0.00    -0.426 OA
BRANCH  13  14
ATOM     14  C   UNL A   1      30.105  28.471  22.814  1.00  0.00     0.315 C 
ATOM     15  O   UNL A   1      29.971  28.892  21.670  1.00  0.00    -0.251 OA
BRANCH  14  16
ATOM     16  C   UNL A   1      30.574  29.342  23.953  1.00  0.00     0.158 C 
BRANCH  16  17
ATOM     17  C   UNL A   1      31.687  28.723  24.765  1.00  0.00    -0.034 A 
ATOM     18  C   UNL A   1      33.519  29.091  22.985  1.00  0.00     0.044 C 
ATOM     19  C   UNL A   1      33.020  28.617  24.322  1.00  0.00    -0.047 A 
ATOM     20  C   UNL A   1      33.970  28.013  25.170  1.00  0.00     0.004 A 
ATOM     21  C   UNL A   1      33.616  27.524  26.427  1.00  0.00     0.000 A 
ATOM     22  C   UNL A   1      31.352  28.237  26.047  1.00  0.00     0.004 A 
ATOM     23  C   UNL A   1      32.305  27.637  26.866  1.00  0.00     0.000 A 
ENDBRANCH  16  17
ENDBRANCH  14  16
ENDBRANCH  13  14
ENDBRANCH   8  13
ENDBRANCH   4   7
ENDBRANCH   2   3
ENDBRANCH   1   2
BRANCH   1  24
ATOM     24  C   UNL A   1      37.405  23.468  26.198  1.00  0.00     0.023 C 
BRANCH  24  25
ATOM     25  C   UNL A   1      38.654  22.635  25.947  1.00  0.00     0.116 C 
BRANCH  25  26
ATOM     26  N   UNL A   1      39.573  22.616  27.089  1.00  0.00    -0.352 N 
ATOM     27  C   UNL A   1      40.351  23.604  27.666  1.00  0.00     0.251 C 
ATOM     28  H   UNL A   1      39.650  21.737  27.527  1.00  0.00     0.163 HD
ATOM     29  O   UNL A   1      41.395  23.247  28.222  1.00  0.00    -0.269 OA
BRANCH  27  30
ATOM     30  C   UNL A   1      39.924  25.020  27.705  1.00  0.00     0.039 A 
ATOM     31  C   UNL A   1      40.208  25.920  26.670  1.00  0.00     0.014 A 
ATOM     32  C   UNL A   1      39.460  25.534  28.903  1.00  0.00     0.014 A 
ATOM     33  C   UNL A   1      40.259  27.284  26.971  1.00  0.00     0.010 A 
ATOM     34  C   UNL A   1      39.140  26.838  29.066  1.00  0.00     0.010 A 
ATOM     35  C   UNL A   1      39.833  27.687  28.228  1.00  0.00    -0.014 A 
BRANCH  35  36
ATOM     36  C   UNL A   1      40.208  28.883  28.956  1.00  0.00     0.031 A 
ATOM     37  C   UNL A   1      39.298  30.020  28.908  1.00  0.00     0.074 A 
ATOM     38  C   UNL A   1      41.046  28.659  30.002  1.00  0.00     0.049 A 
ATOM     39  N   UNL A   1      39.503  31.117  29.538  1.00  0.00    -0.248 NA
ATOM     40  C   UNL A   1      38.065  30.004  28.126  1.00  0.00     0.031 C 
ATOM     41  C   UNL A   1      41.055  29.281  31.324  1.00  0.00     0.029 A 
ATOM     42  N   UNL A   1      42.097  27.746  30.076  1.00  0.00    -0.354 N 
ATOM     43  C   UNL A   1      38.294  31.766  29.558  1.00  0.00     0.074 A 
ATOM     44  C   UNL A   1      37.520  31.163  28.506  1.00  0.00     0.031 C 
ATOM     45  C   UNL A   1      42.185  28.930  31.969  1.00  0.00     0.029 A 
ATOM     46  C   UNL A   1      43.022  28.227  31.012  1.00  0.00     0.049 A 
ATOM     47  H   UNL A   1      42.175  26.910  29.563  1.00  0.00     0.167 HD
ATOM     48  C   UNL A   1      38.031  32.584  30.610  1.00  0.00     0.034 A 
ATOM     49  C   UNL A   1      44.225  28.692  30.542  1.00  0.00     0.034 A 
ATOM     50  C   UNL A   1      39.253  32.803  31.412  1.00  0.00     0.049 A 
ATOM     51  C   UNL A   1      44.345  30.207  30.634  1.00  0.00     0.074 A 
ATOM     52  C   UNL A   1      39.663  32.383  32.665  1.00  0.00     0.029 A 
ATOM     53  N   UNL A   1      40.400  33.283  30.775  1.00  0.00    -0.354 N 
ATOM     54  N   UNL A   1      43.382  31.007  31.007  1.00  0.00    -0.248 NA
ATOM     55  C   UNL A   1      45.573  30.937  30.342  1.00  0.00     0.031 C 
ATOM     56  C   UNL A   1      41.088  32.482  32.713  1.00  0.00     0.029 A 
ATOM     57  C   UNL A   1      41.543  33.016  31.517  1.00  0.00     0.049 A 
ATOM     58  H   UNL A   1      40.398  33.753  29.910  1.00  0.00     0.167 HD
ATOM     59  C   UNL A   1      43.762  32.314  30.870  1.00  0.00     0.074 A 
ATOM     60  C   UNL A   1      45.178  32.208  30.544  1.00  0.00     0.031 C 
ATOM     61  C   UNL A   1      42.870  33.354  30.983  1.00  0.00     0.034 A 
BRANCH  48  62
ATOM     62  C   UNL A   1      36.641  33.021  31.043  1.00  0.00     0.023 A 
ATOM     63  C   UNL A   1      36.193  32.561  32.300  1.00  0.00     0.012 A 
ATOM     64  C   UNL A   1      35.699  33.771  30.287  1.00  0.00     0.148 A 
ATOM     65  C   UNL A   1      34.904  32.828  32.779  1.00  0.00     0.002 A 
ATOM     66  C   UNL A   1      34.441  34.103  30.798  1.00  0.00     0.091 A 
ATOM     67  F   UNL A   1      35.951  34.091  29.016  1.00  0.00    -0.205 F 
ATOM     68  C   UNL A   1      34.034  33.617  32.039  1.00  0.00     0.022 A 
BRANCH  66  69
ATOM     69  S   UNL A   1      33.282  35.170  29.915  1.00  0.00     0.127 S 
ATOM     70  O   UNL A   1      32.605  34.224  29.029  1.00  0.00    -0.237 OA
ATOM     71  O   UNL A   1      32.448  35.691  30.998  1.00  0.00    -0.237 OA
ATOM     72  O   UNL A   1      34.088  36.181  29.241  1.00  0.00    -0.744 OA
ENDBRANCH  66  69
ENDBRANCH  48  62
BRANCH  49  73
ATOM     73  C   UNL A   1      44.732  27.817  29.424  1.00  0.00     0.023 A 
ATOM     74  C   UNL A   1      44.965  26.457  29.759  1.00  0.00     0.012 A 
ATOM     75  C   UNL A   1      44.487  28.144  28.079  1.00  0.00     0.148 A 
ATOM     76  C   UNL A   1      44.740  25.440  28.827  1.00  0.00     0.002 A 
ATOM     77  C   UNL A   1      44.283  27.122  27.147  1.00  0.00     0.091 A 
ATOM     78  F   UNL A   1      44.386  29.435  27.738  1.00  0.00    -0.205 F 
ATOM     79  C   UNL A   1      44.348  25.773  27.535  1.00  0.00     0.022 A 
BRANCH  77  80
ATOM     80  S   UNL A   1      43.826  27.492  25.447  1.00  0.00     0.127 S 
ATOM     81  O   UNL A   1      45.122  27.825  24.862  1.00  0.00    -0.237 OA
ATOM     82  O   UNL A   1      43.256  26.230  24.972  1.00  0.00    -0.237 OA
ATOM     83  O   UNL A   1      42.863  28.580  25.542  1.00  0.00    -0.744 OA
ENDBRANCH  77  80
ENDBRANCH  49  73
BRANCH  61  84
ATOM     84  C   UNL A   1      43.164  34.801  30.592  1.00  0.00     0.023 A 
ATOM     85  C   UNL A   1      43.753  35.724  31.478  1.00  0.00     0.012 A 
ATOM     86  C   UNL A   1      42.964  35.261  29.262  1.00  0.00     0.148 A 
ATOM     87  C   UNL A   1      44.036  37.045  31.109  1.00  0.00     0.002 A 
ATOM     88  C   UNL A   1      43.373  36.532  28.864  1.00  0.00     0.091 A 
ATOM     89  F   UNL A   1      42.343  34.483  28.365  1.00  0.00    -0.205 F 
ATOM     90  C   UNL A   1      43.867  37.445  29.796  1.00  0.00     0.022 A 
BRANCH  88  91
ATOM     91  S   UNL A   1      43.434  36.998  27.126  1.00  0.00     0.127 S 
ATOM     92  O   UNL A   1      42.666  38.241  27.120  1.00  0.00    -0.237 OA
ATOM     93  O   UNL A   1      44.872  37.169  26.901  1.00  0.00    -0.237 OA
ATOM     94  O   UNL A   1      42.848  35.877  26.404  1.00  0.00    -0.744 OA
ENDBRANCH  88  91
ENDBRANCH  61  84
ENDBRANCH  35  36
ENDBRANCH  27  30
ENDBRANCH  25  26
ENDBRANCH  24  25
ENDBRANCH   1  24
TORSDOF 18
ENDMDL
MODEL 2
REMARK VINA RESULT:     -11.8      4.099      9.507
REMARK SMILES Cc1ccccc1CC(=O)Oc1cccc(C(=O)NCCCCNC(=O)c2ccc(-c3c4nc(c(-c5cccc(S(=O)(=O)[O-])c5F)c5ccc([nH]5)c(-c5cccc(S(=O)(=O)[O-])c5F)c5nc(c(-c6cccc(S(=O)(=O)[O-])c6F)c6ccc3[nH]6)C=C5)C=C4)cc2)c1
REMARK SMILES IDX 21 1 20 2 19 3 17 4 18 5 16 7 12 8 13 9 90 10 14 11 15 12
REMARK SMILES IDX 11 13 9 14 10 15 8 16 7 17 1 18 2 19 3 20 4 21 6 22 5 23
REMARK SMILES IDX 22 24 23 25 24 26 25 27 26 29 27 30 28 31 89 32 29 33 88 34
REMARK SMILES IDX 30 35 31 36 32 37 82 38 33 39 87 40 81 41 83 42 34 43 86 44
REMARK SMILES IDX 80 45 79 46 35 48 67 49 47 50 66 51 48 52 51 53 65 54 84 55
REMARK SMILES IDX 49 56 50 57 64 59 85 60 52 61 36 62 37 63 45 64 38 65 40 66
REMARK SMILES IDX 46 67 39 68 41 69 42 70 43 71 44 72 68 73 69 74 77 75 70 76
REMARK SMILES IDX 72 77 78 78 71 79 73 80 74 81 75 82 76 83 53 84 54 85 62 86
REMARK SMILES IDX 55 87 57 88 63 89 56 90 58 91 59 92 60 93 61 94
REMARK H PARENT 19 6 24 28 83 47 51 58
REMARK Flexibility Score: inf
ROOT
ATOM      1  C   UNL A   1      34.820  29.351  27.226  1.00  0.00     0.023 C 
ENDROOT
BRANCH   1   2
ATOM      2  C   UNL A   1      34.029  28.519  26.207  1.00  0.00     0.116 C 
BRANCH   2   3
ATOM      3  N   UNL A   1      32.889  29.230  25.654  1.00  0.00    -0.352 N 
ATOM      4  C   UNL A   1      31.678  28.881  25.112  1.00  0.00     0.251 C 
ATOM      5  O   UNL A   1      30.962  29.821  24.753  1.00  0.00    -0.269 OA
ATOM      6  H   UNL A   1      33.019  30.205  25.672  1.00  0.00     0.163 HD
BRANCH   4   7
ATOM      7  C   UNL A   1      31.159  27.490  24.901  1.00  0.00     0.043 A 
ATOM      8  C   UNL A   1      31.166  25.523  23.453  1.00  0.00     0.131 A 
ATOM      9  C   UNL A   1      30.333  24.839  24.332  1.00  0.00     0.047 A 
ATOM     10  C   UNL A   1      31.607  26.817  23.742  1.00  0.00     0.061 A 
ATOM     11  C   UNL A   1      29.864  25.496  25.461  1.00  0.00     0.005 A 
ATOM     12  C   UNL A   1      30.270  26.809  25.739  1.00  0.00     0.014 A 
BRANCH   8  13
ATOM     13  O   UNL A   1      31.599  24.915  22.270  1.00  0.00    -0.426 OA
BRANCH  13  14
ATOM     14  C   UNL A   1      32.971  24.665  22.240  1.00  0.00     0.315 C 
ATOM     15  O   UNL A   1      33.826  25.326  21.660  1.00  0.00    -0.251 OA
BRANCH  14  16
ATOM     16  C   UNL A   1      33.290  23.395  22.989  1.00  0.00     0.158 C 
BRANCH  16  17
ATOM     17  C   UNL A   1      34.598  23.453  23.741  1.00  0.00    -0.034 A 
ATOM     18  C   UNL A   1      33.630  24.641  25.818  1.00  0.00     0.044 C 
ATOM     19  C   UNL A   1      34.744  24.014  25.025  1.00  0.00    -0.047 A 
ATOM     20  C   UNL A   1      36.020  24.014  25.624  1.00  0.00     0.004 A 
ATOM     21  C   UNL A   1      37.128  23.473  24.974  1.00  0.00     0.000 A 
ATOM     22  C   UNL A   1      35.729  22.895  23.107  1.00  0.00     0.004 A 
ATOM     23  C   UNL A   1      36.982  22.912  23.713  1.00  0.00     0.000 A 
ENDBRANCH  16  17
ENDBRANCH  14  16
ENDBRANCH  13  14
ENDBRANCH   8  13
ENDBRANCH   4   7
ENDBRANCH   2   3
ENDBRANCH   1   2
BRANCH   1  24
ATOM     24  C   UNL A   1      34.174  30.671  27.701  1.00  0.00     0.023 C 
BRANCH  24  25
ATOM     25  C   UNL A   1      35.078  31.896  27.687  1.00  0.00     0.116 C 
BRANCH  25  26
ATOM     26  N   UNL A   1      34.478  33.062  28.342  1.00  0.00    -0.352 N 
ATOM     27  C   UNL A   1      34.700  33.645  29.578  1.00  0.00     0.251 C 
ATOM     28  H   UNL A   1      33.790  33.515  27.803  1.00  0.00     0.163 HD
ATOM     29  O   UNL A   1      33.749  34.233  30.103  1.00  0.00    -0.269 OA
BRANCH  27  30
ATOM     30  C   UNL A   1      36.035  33.652  30.216  1.00  0.00     0.039 A 
ATOM     31  C   UNL A   1      37.178  34.125  29.560  1.00  0.00     0.014 A 
ATOM     32  C   UNL A   1      36.208  32.938  31.388  1.00  0.00     0.014 A 
ATOM     33  C   UNL A   1      38.425  33.643  29.968  1.00  0.00     0.010 A 
ATOM     34  C   UNL A   1      37.409  32.800  31.993  1.00  0.00     0.010 A 
ATOM     35  C   UNL A   1      38.479  32.877  31.124  1.00  0.00    -0.014 A 
BRANCH  35  36
ATOM     36  C   UNL A   1      39.475  31.893  31.497  1.00  0.00     0.031 A 
ATOM     37  C   UNL A   1      39.524  30.653  30.734  1.00  0.00     0.074 A 
ATOM     38  C   UNL A   1      40.566  32.414  32.120  1.00  0.00     0.049 A 
ATOM     39  N   UNL A   1      40.382  29.726  30.947  1.00  0.00    -0.248 NA
ATOM     40  C   UNL A   1      38.585  30.360  29.655  1.00  0.00     0.031 C 
ATOM     41  C   UNL A   1      41.972  32.047  31.974  1.00  0.00     0.029 A 
ATOM     42  N   UNL A   1      40.607  33.460  33.040  1.00  0.00    -0.354 N 
ATOM     43  C   UNL A   1      40.356  28.931  29.828  1.00  0.00     0.074 A 
ATOM     44  C   UNL A   1      39.106  29.224  29.181  1.00  0.00     0.031 C 
ATOM     45  C   UNL A   1      42.690  32.658  32.936  1.00  0.00     0.029 A 
ATOM     46  C   UNL A   1      41.743  33.286  33.842  1.00  0.00     0.049 A 
ATOM     47  H   UNL A   1      39.955  34.193  33.113  1.00  0.00     0.167 HD
ATOM     48  C   UNL A   1      41.501  28.287  29.481  1.00  0.00     0.034 A 
ATOM     49  C   UNL A   1      41.553  32.913  35.148  1.00  0.00     0.034 A 
ATOM     50  C   UNL A   1      42.497  28.385  30.568  1.00  0.00     0.049 A 
ATOM     51  C   UNL A   1      41.960  31.470  35.413  1.00  0.00     0.074 A 
ATOM     52  C   UNL A   1      43.688  29.075  30.716  1.00  0.00     0.029 A 
ATOM     53  N   UNL A   1      42.140  27.959  31.850  1.00  0.00    -0.354 N 
ATOM     54  N   UNL A   1      42.342  30.626  34.491  1.00  0.00    -0.248 NA
ATOM     55  C   UNL A   1      41.999  30.874  36.743  1.00  0.00     0.031 C 
ATOM     56  C   UNL A   1      43.959  29.181  32.116  1.00  0.00     0.029 A 
ATOM     57  C   UNL A   1      42.971  28.508  32.818  1.00  0.00     0.049 A 
ATOM     58  H   UNL A   1      41.395  27.346  32.043  1.00  0.00     0.167 HD
ATOM     59  C   UNL A   1      42.523  29.380  35.027  1.00  0.00     0.074 A 
ATOM     60  C   UNL A   1      42.390  29.618  36.458  1.00  0.00     0.031 C 
ATOM     61  C   UNL A   1      42.711  28.264  34.244  1.00  0.00     0.034 A 
BRANCH  48  62
ATOM     62  C   UNL A   1      41.807  27.749  28.094  1.00  0.00     0.023 A 
ATOM     63  C   UNL A   1      41.672  28.652  27.017  1.00  0.00     0.012 A 
ATOM     64  C   UNL A   1      42.131  26.410  27.740  1.00  0.00     0.148 A 
ATOM     65  C   UNL A   1      41.848  28.261  25.684  1.00  0.00     0.002 A 
ATOM     66  C   UNL A   1      42.383  26.037  26.416  1.00  0.00     0.091 A 
ATOM     67  F   UNL A   1      42.098  25.440  28.657  1.00  0.00    -0.205 F 
ATOM     68  C   UNL A   1      42.225  26.959  25.383  1.00  0.00     0.022 A 
BRANCH  66  69
ATOM     69  S   UNL A   1      42.931  24.379  25.960  1.00  0.00     0.127 S 
ATOM     70  O   UNL A   1      43.331  24.558  24.565  1.00  0.00    -0.237 OA
ATOM     71  O   UNL A   1      44.041  24.150  26.886  1.00  0.00    -0.237 OA
ATOM     72  O   UNL A   1      41.788  23.498  26.167  1.00  0.00    -0.744 OA
ENDBRANCH  66  69
ENDBRANCH  48  62
BRANCH  49  73
ATOM     73  C   UNL A   1      40.369  33.635  35.739  1.00  0.00     0.023 A 
ATOM     74  C   UNL A   1      39.130  32.944  35.681  1.00  0.00     0.012 A 
ATOM     75  C   UNL A   1      40.539  34.623  36.725  1.00  0.00     0.148 A 
ATOM     76  C   UNL A   1      38.186  33.076  36.703  1.00  0.00     0.002 A 
ATOM     77  C   UNL A   1      39.582  34.764  37.733  1.00  0.00     0.091 A 
ATOM     78  F   UNL A   1      41.658  35.361  36.710  1.00  0.00    -0.205 F 
ATOM     79  C   UNL A   1      38.438  33.949  37.756  1.00  0.00     0.022 A 
BRANCH  77  80
ATOM     80  S   UNL A   1      39.827  35.915  39.093  1.00  0.00     0.127 S 
ATOM     81  O   UNL A   1      38.811  35.467  40.042  1.00  0.00    -0.237 OA
ATOM     82  O   UNL A   1      41.204  35.649  39.513  1.00  0.00    -0.237 OA
ATOM     83  O   UNL A   1      39.628  37.236  38.513  1.00  0.00    -0.744 OA
ENDBRANCH  77  80
ENDBRANCH  49  73
BRANCH  61  84
ATOM     84  C   UNL A   1      42.661  26.825  34.752  1.00  0.00     0.023 A 
ATOM     85  C   UNL A   1      41.519  26.273  35.365  1.00  0.00     0.012 A 
ATOM     86  C   UNL A   1      43.736  25.924  34.521  1.00  0.00     0.148 A 
ATOM     87  C   UNL A   1      41.472  24.947  35.813  1.00  0.00     0.002 A 
ATOM     88  C   UNL A   1      43.633  24.572  34.844  1.00  0.00     0.091 A 
ATOM     89  F   UNL A   1      44.892  26.369  34.011  1.00  0.00    -0.205 F 
ATOM     90  C   UNL A   1      42.521  24.089  35.533  1.00  0.00     0.022 A 
BRANCH  88  91
ATOM     91  S   UNL A   1      44.837  23.371  34.257  1.00  0.00     0.127 S 
ATOM     92  O   UNL A   1      44.261  22.112  34.725  1.00  0.00    -0.237 OA
ATOM     93  O   UNL A   1      44.784  23.563  32.805  1.00  0.00    -0.237 OA
ATOM     94  O   UNL A   1      46.102  23.764  34.862  1.00  0.00    -0.744 OA
ENDBRANCH  88  91
ENDBRANCH  61  84
ENDBRANCH  35  36
ENDBRANCH  27  30
ENDBRANCH  25  26
ENDBRANCH  24  25
ENDBRANCH   1  24
TORSDOF 18
ENDMDL
MODEL 3
REMARK VINA RESULT:     -11.7      3.308      4.559
REMARK SMILES Cc1ccccc1CC(=O)Oc1cccc(C(=O)NCCCCNC(=O)c2ccc(-c3c4nc(c(-c5cccc(S(=O)(=O)[O-])c5F)c5ccc([nH]5)c(-c5cccc(S(=O)(=O)[O-])c5F)c5nc(c(-c6cccc(S(=O)(=O)[O-])c6F)c6ccc3[nH]6)C=C5)C=C4)cc2)c1
REMARK SMILES IDX 21 1 20 2 19 3 17 4 18 5 16 7 12 8 13 9 90 10 14 11 15 12
REMARK SMILES IDX 11 13 9 14 10 15 8 16 7 17 1 18 2 19 3 20 4 21 6 22 5 23
REMARK SMILES IDX 22 24 23 25 24 26 25 27 26 29 27 30 28 31 89 32 29 33 88 34
REMARK SMILES IDX 30 35 31 36 32 37 82 38 33 39 87 40 81 41 83 42 34 43 86 44
REMARK SMILES IDX 80 45 79 46 35 48 67 49 47 50 66 51 48 52 51 53 65 54 84 55
REMARK SMILES IDX 49 56 50 57 64 59 85 60 52 61 36 62 37 63 45 64 38 65 40 66
REMARK SMILES IDX 46 67 39 68 41 69 42 70 43 71 44 72 68 73 69 74 77 75 70 76
REMARK SMILES IDX 72 77 78 78 71 79 73 80 74 81 75 82 76 83 53 84 54 85 62 86
REMARK SMILES IDX 55 87 57 88 63 89 56 90 58 91 59 92 60 93 61 94
REMARK H PARENT 19 6 24 28 83 47 51 58
REMARK Flexibility Score: inf
ROOT
ATOM      1  C   UNL A   1      37.938  21.079  25.367  1.00  0.00     0.023 C 
ENDROOT
BRANCH   1   2
ATOM      2  C   UNL A   1      36.444  20.800  25.155  1.00  0.00     0.116 C 
BRANCH   2   3
ATOM      3  N   UNL A   1      35.611  21.318  26.227  1.00  0.00    -0.352 N 
ATOM      4  C   UNL A   1      34.415  21.987  26.312  1.00  0.00     0.251 C 
ATOM      5  O   UNL A   1      34.030  22.251  27.455  1.00  0.00    -0.269 OA
ATOM      6  H   UNL A   1      36.002  21.148  27.114  1.00  0.00     0.163 HD
BRANCH   4   7
ATOM      7  C   UNL A   1      33.557  22.434  25.166  1.00  0.00     0.043 A 
ATOM      8  C   UNL A   1      33.437  23.778  23.130  1.00  0.00     0.131 A 
ATOM      9  C   UNL A   1      32.128  23.368  22.904  1.00  0.00     0.047 A 
ATOM     10  C   UNL A   1      34.162  23.296  24.223  1.00  0.00     0.061 A 
ATOM     11  C   UNL A   1      31.513  22.543  23.835  1.00  0.00     0.005 A 
ATOM     12  C   UNL A   1      32.219  22.085  24.956  1.00  0.00     0.014 A 
BRANCH   8  13
ATOM     13  O   UNL A   1      34.063  24.667  22.249  1.00  0.00    -0.426 OA
BRANCH  13  14
ATOM     14  C   UNL A   1      33.254  25.736  21.866  1.00  0.00     0.315 C 
ATOM     15  O   UNL A   1      32.644  25.855  20.809  1.00  0.00    -0.251 OA
BRANCH  14  16
ATOM     16  C   UNL A   1      33.262  26.809  22.927  1.00  0.00     0.158 C 
BRANCH  16  17
ATOM     17  C   UNL A   1      32.246  26.581  24.021  1.00  0.00    -0.034 A 
ATOM     18  C   UNL A   1      33.971  26.471  25.936  1.00  0.00     0.044 C 
ATOM     19  C   UNL A   1      32.573  26.434  25.383  1.00  0.00    -0.047 A 
ATOM     20  C   UNL A   1      31.534  26.221  26.310  1.00  0.00     0.004 A 
ATOM     21  C   UNL A   1      30.202  26.154  25.907  1.00  0.00     0.000 A 
ATOM     22  C   UNL A   1      30.889  26.527  23.634  1.00  0.00     0.004 A 
ATOM     23  C   UNL A   1      29.879  26.308  24.567  1.00  0.00     0.000 A 
ENDBRANCH  16  17
ENDBRANCH  14  16
ENDBRANCH  13  14
ENDBRANCH   8  13
ENDBRANCH   4   7
ENDBRANCH   2   3
ENDBRANCH   1   2
BRANCH   1  24
ATOM     24  C   UNL A   1      38.328  22.512  25.790  1.00  0.00     0.023 C 
BRANCH  24  25
ATOM     25  C   UNL A   1      39.592  22.637  26.630  1.00  0.00     0.116 C 
BRANCH  25  26
ATOM     26  N   UNL A   1      40.510  21.506  26.460  1.00  0.00    -0.352 N 
ATOM     27  C   UNL A   1      41.880  21.446  26.277  1.00  0.00     0.251 C 
ATOM     28  H   UNL A   1      40.069  20.625  26.482  1.00  0.00     0.163 HD
ATOM     29  O   UNL A   1      42.323  20.485  25.639  1.00  0.00    -0.269 OA
BRANCH  27  30
ATOM     30  C   UNL A   1      42.799  22.432  26.888  1.00  0.00     0.039 A 
ATOM     31  C   UNL A   1      43.005  22.511  28.271  1.00  0.00     0.014 A 
ATOM     32  C   UNL A   1      43.268  23.469  26.102  1.00  0.00     0.014 A 
ATOM     33  C   UNL A   1      43.432  23.727  28.811  1.00  0.00     0.010 A 
ATOM     34  C   UNL A   1      44.031  24.473  26.591  1.00  0.00     0.010 A 
ATOM     35  C   UNL A   1      43.817  24.728  27.931  1.00  0.00    -0.014 A 
BRANCH  35  36
ATOM     36  C   UNL A   1      43.830  26.159  28.158  1.00  0.00     0.031 A 
ATOM     37  C   UNL A   1      42.550  26.853  28.193  1.00  0.00     0.074 A 
ATOM     38  C   UNL A   1      44.925  26.607  28.830  1.00  0.00     0.049 A 
ATOM     39  N   UNL A   1      42.432  28.109  28.420  1.00  0.00    -0.248 NA
ATOM     40  C   UNL A   1      41.281  26.167  27.964  1.00  0.00     0.031 C 
ATOM     41  C   UNL A   1      45.014  27.636  29.863  1.00  0.00     0.029 A 
ATOM     42  N   UNL A   1      46.241  26.163  28.713  1.00  0.00    -0.354 N 
ATOM     43  C   UNL A   1      41.113  28.305  28.743  1.00  0.00     0.074 A 
ATOM     44  C   UNL A   1      40.420  27.151  28.237  1.00  0.00     0.031 C 
ATOM     45  C   UNL A   1      46.310  27.918  30.094  1.00  0.00     0.029 A 
ATOM     46  C   UNL A   1      47.087  27.216  29.086  1.00  0.00     0.049 A 
ATOM     47  H   UNL A   1      46.527  25.267  28.421  1.00  0.00     0.167 HD
ATOM     48  C   UNL A   1      40.813  29.323  29.592  1.00  0.00     0.034 A 
ATOM     49  C   UNL A   1      47.817  27.829  28.101  1.00  0.00     0.034 A 
ATOM     50  C   UNL A   1      41.992  30.190  29.794  1.00  0.00     0.049 A 
ATOM     51  C   UNL A   1      47.312  29.229  27.780  1.00  0.00     0.074 A 
ATOM     52  C   UNL A   1      42.849  30.407  30.860  1.00  0.00     0.029 A 
ATOM     53  N   UNL A   1      42.625  30.740  28.676  1.00  0.00    -0.354 N 
ATOM     54  N   UNL A   1      46.234  29.764  28.291  1.00  0.00    -0.248 NA
ATOM     55  C   UNL A   1      47.999  30.149  26.882  1.00  0.00     0.031 C 
ATOM     56  C   UNL A   1      44.060  30.959  30.339  1.00  0.00     0.029 A 
ATOM     57  C   UNL A   1      43.924  31.135  28.970  1.00  0.00     0.049 A 
ATOM     58  H   UNL A   1      42.203  30.837  27.792  1.00  0.00     0.167 HD
ATOM     59  C   UNL A   1      45.983  30.980  27.716  1.00  0.00     0.074 A 
ATOM     60  C   UNL A   1      47.175  31.213  26.912  1.00  0.00     0.031 C 
ATOM     61  C   UNL A   1      44.799  31.653  27.909  1.00  0.00     0.034 A 
BRANCH  48  62
ATOM     62  C   UNL A   1      39.532  29.428  30.402  1.00  0.00     0.023 A 
ATOM     63  C   UNL A   1      39.230  28.345  31.256  1.00  0.00     0.012 A 
ATOM     64  C   UNL A   1      38.551  30.455  30.335  1.00  0.00     0.148 A 
ATOM     65  C   UNL A   1      38.042  28.283  31.996  1.00  0.00     0.002 A 
ATOM     66  C   UNL A   1      37.402  30.430  31.132  1.00  0.00     0.091 A 
ATOM     67  F   UNL A   1      38.647  31.426  29.425  1.00  0.00    -0.205 F 
ATOM     68  C   UNL A   1      37.137  29.335  31.952  1.00  0.00     0.022 A 
BRANCH  66  69
ATOM     69  S   UNL A   1      36.213  31.788  31.167  1.00  0.00     0.127 S 
ATOM     70  O   UNL A   1      35.470  31.581  29.925  1.00  0.00    -0.237 OA
ATOM     71  O   UNL A   1      35.451  31.506  32.385  1.00  0.00    -0.237 OA
ATOM     72  O   UNL A   1      36.995  33.017  31.223  1.00  0.00    -0.744 OA
ENDBRANCH  66  69
ENDBRANCH  48  62
BRANCH  49  73
ATOM     73  C   UNL A   1      48.337  26.815  27.114  1.00  0.00     0.023 A 
ATOM     74  C   UNL A   1      47.529  26.595  25.968  1.00  0.00     0.012 A 
ATOM     75  C   UNL A   1      49.709  26.517  27.035  1.00  0.00     0.148 A 
ATOM     76  C   UNL A   1      48.106  26.303  24.729  1.00  0.00     0.002 A 
ATOM     77  C   UNL A   1      50.277  26.207  25.796  1.00  0.00     0.091 A 
ATOM     78  F   UNL A   1      50.453  26.608  28.146  1.00  0.00    -0.205 F 
ATOM     79  C   UNL A   1      49.487  26.162  24.635  1.00  0.00     0.022 A 
BRANCH  77  80
ATOM     80  S   UNL A   1      52.050  25.959  25.622  1.00  0.00     0.127 S 
ATOM     81  O   UNL A   1      52.235  26.167  24.188  1.00  0.00    -0.237 OA
ATOM     82  O   UNL A   1      52.619  27.014  26.463  1.00  0.00    -0.237 OA
ATOM     83  O   UNL A   1      52.294  24.611  26.114  1.00  0.00    -0.744 OA
ENDBRANCH  77  80
ENDBRANCH  49  73
BRANCH  61  84
ATOM     84  C   UNL A   1      44.348  32.872  27.107  1.00  0.00     0.023 A 
ATOM     85  C   UNL A   1      44.162  32.838  25.711  1.00  0.00     0.012 A 
ATOM     86  C   UNL A   1      43.973  34.082  27.752  1.00  0.00     0.148 A 
ATOM     87  C   UNL A   1      43.731  33.953  24.982  1.00  0.00     0.002 A 
ATOM     88  C   UNL A   1      43.416  35.142  27.039  1.00  0.00     0.091 A 
ATOM     89  F   UNL A   1      44.180  34.238  29.066  1.00  0.00    -0.205 F 
ATOM     90  C   UNL A   1      43.337  35.100  25.648  1.00  0.00     0.022 A 
BRANCH  88  91
ATOM     91  S   UNL A   1      42.635  36.530  27.878  1.00  0.00     0.127 S 
ATOM     92  O   UNL A   1      43.677  36.940  28.817  1.00  0.00    -0.237 OA
ATOM     93  O   UNL A   1      42.404  37.468  26.776  1.00  0.00    -0.237 OA
ATOM     94  O   UNL A   1      41.416  35.991  28.465  1.00  0.00    -0.744 OA
ENDBRANCH  88  91
ENDBRANCH  61  84
ENDBRANCH  35  36
ENDBRANCH  27  30
ENDBRANCH  25  26
ENDBRANCH  24  25
ENDBRANCH   1  24
TORSDOF 18
ENDMDL
