MODEL 1
REMARK VINA RESULT:     -11.3      0.000      0.000
REMARK SMILES CCNC(=O)NC(=O)[C@@H](C)[NH2+][C@](C)(CC)C(=O)NCCCCNC(=O)c1ccc(-c2c3nc(c(-c4cccc(S(=O)(=O)[O-])c4F)c4ccc([nH]4)c(-c4cccc(S(=O)(=O)[O-])c4F)c4nc(c(-c5cccc(S(=O)(=O)[O-])c5F)c5ccc2[nH]5)C=C4)C=C3)cc1
REMARK SMILES IDX 20 1 19 2 18 3 16 4 17 5 12 7 13 8 11 9 9 12 10 13 7 14 3 15
REMARK SMILES IDX 4 16 5 18 6 19 8 21 2 22 1 23 14 24 15 25 21 26 22 27 23 28
REMARK SMILES IDX 24 29 25 31 26 32 27 33 88 34 28 35 87 36 29 37 30 38 31 39
REMARK SMILES IDX 81 40 32 41 86 42 80 43 82 44 33 45 85 46 79 47 78 48 34 50
REMARK SMILES IDX 66 51 46 52 65 53 47 54 50 55 64 56 83 57 48 58 49 59 63 61
REMARK SMILES IDX 84 62 51 63 35 64 36 65 44 66 37 67 39 68 45 69 38 70 40 71
REMARK SMILES IDX 41 72 42 73 43 74 67 75 68 76 76 77 69 78 71 79 77 80 70 81
REMARK SMILES IDX 72 82 73 83 74 84 75 85 52 86 53 87 61 88 54 89 56 90 62 91
REMARK SMILES IDX 55 92 57 93 58 94 59 95 60 96
REMARK H PARENT 18 6 11 10 11 11 3 17 6 20 23 30 82 49 50 60
REMARK Flexibility Score: inf
ROOT
ATOM      1  C   UNL A   1      32.059  29.664  26.453  1.00  0.00     0.023 C 
ENDROOT
BRANCH   1   2
ATOM      2  C   UNL A   1      33.483  29.238  26.093  1.00  0.00     0.116 C 
BRANCH   2   3
ATOM      3  N   UNL A   1      33.726  29.271  24.663  1.00  0.00    -0.351 N 
ATOM      4  C   UNL A   1      33.577  28.306  23.706  1.00  0.00     0.281 C 
ATOM      5  O   UNL A   1      33.670  28.685  22.533  1.00  0.00    -0.268 OA
ATOM      6  H   UNL A   1      34.053  30.134  24.324  1.00  0.00     0.163 HD
BRANCH   4   7
ATOM      7  C   UNL A   1      33.291  26.800  24.056  1.00  0.00     0.173 C 
ATOM      8  C   UNL A   1      33.795  25.933  22.872  1.00  0.00     0.090 C 
BRANCH   7   9
ATOM      9  N   UNL A   1      31.827  26.679  24.357  1.00  0.00    -0.324 N 
ATOM     10  H   UNL A   1      31.650  27.244  25.188  1.00  0.00     0.347 HD
ATOM     11  H   UNL A   1      31.384  26.973  23.486  1.00  0.00     0.347 HD
BRANCH   9  12
ATOM     12  C   UNL A   1      31.231  25.354  24.608  1.00  0.00     0.270 C 
ATOM     13  C   UNL A   1      30.342  24.682  23.560  1.00  0.00     0.086 C 
BRANCH  12  14
ATOM     14  C   UNL A   1      30.493  25.336  25.958  1.00  0.00     0.285 C 
ATOM     15  N   UNL A   1      30.919  22.000  26.144  1.00  0.00    -0.338 N 
ATOM     16  C   UNL A   1      30.030  22.835  26.685  1.00  0.00     0.321 C 
ATOM     17  H   UNL A   1      30.660  21.052  26.192  1.00  0.00     0.165 HD
ATOM     18  O   UNL A   1      29.078  22.338  27.295  1.00  0.00    -0.248 OA
ATOM     19  N   UNL A   1      30.107  24.202  26.658  1.00  0.00    -0.273 N 
ATOM     20  H   UNL A   1      29.719  24.519  27.506  1.00  0.00     0.175 HD
ATOM     21  O   UNL A   1      30.191  26.421  26.484  1.00  0.00    -0.268 OA
BRANCH  15  22
ATOM     22  C   UNL A   1      32.187  22.229  25.505  1.00  0.00     0.114 C 
ATOM     23  C   UNL A   1      32.275  21.650  24.107  1.00  0.00     0.027 C 
ENDBRANCH  15  22
ENDBRANCH  12  14
ENDBRANCH   9  12
ENDBRANCH   7   9
BRANCH   7  24
ATOM     24  C   UNL A   1      34.113  26.336  25.302  1.00  0.00     0.075 C 
ATOM     25  C   UNL A   1      34.644  24.905  25.242  1.00  0.00     0.011 C 
ENDBRANCH   7  24
ENDBRANCH   4   7
ENDBRANCH   2   3
ENDBRANCH   1   2
BRANCH   1  26
ATOM     26  C   UNL A   1      31.834  31.176  26.519  1.00  0.00     0.023 C 
BRANCH  26  27
ATOM     27  C   UNL A   1      32.938  31.967  27.213  1.00  0.00     0.116 C 
BRANCH  27  28
ATOM     28  N   UNL A   1      32.577  33.359  27.445  1.00  0.00    -0.352 N 
ATOM     29  C   UNL A   1      33.073  34.239  28.378  1.00  0.00     0.251 C 
ATOM     30  H   UNL A   1      31.881  33.720  26.850  1.00  0.00     0.163 HD
ATOM     31  O   UNL A   1      32.532  35.329  28.549  1.00  0.00    -0.269 OA
BRANCH  29  32
ATOM     32  C   UNL A   1      34.244  33.856  29.196  1.00  0.00     0.039 A 
ATOM     33  C   UNL A   1      34.063  33.005  30.291  1.00  0.00     0.014 A 
ATOM     34  C   UNL A   1      35.520  34.317  28.864  1.00  0.00     0.014 A 
ATOM     35  C   UNL A   1      35.176  32.549  31.002  1.00  0.00     0.010 A 
ATOM     36  C   UNL A   1      36.631  33.808  29.532  1.00  0.00     0.010 A 
ATOM     37  C   UNL A   1      36.473  32.915  30.603  1.00  0.00    -0.014 A 
BRANCH  37  38
ATOM     38  C   UNL A   1      37.686  32.366  31.266  1.00  0.00     0.031 A 
ATOM     39  C   UNL A   1      38.434  31.224  30.631  1.00  0.00     0.074 A 
ATOM     40  C   UNL A   1      38.032  32.799  32.496  1.00  0.00     0.049 A 
ATOM     41  N   UNL A   1      39.411  30.507  31.120  1.00  0.00    -0.248 NA
ATOM     42  C   UNL A   1      38.006  30.814  29.282  1.00  0.00     0.031 C 
ATOM     43  C   UNL A   1      37.345  33.851  33.250  1.00  0.00     0.029 A 
ATOM     44  N   UNL A   1      39.022  32.376  33.349  1.00  0.00    -0.354 N 
ATOM     45  C   UNL A   1      39.676  29.528  30.171  1.00  0.00     0.074 A 
ATOM     46  C   UNL A   1      38.752  29.736  29.077  1.00  0.00     0.031 C 
ATOM     47  C   UNL A   1      37.923  33.979  34.456  1.00  0.00     0.029 A 
ATOM     48  C   UNL A   1      38.997  32.997  34.578  1.00  0.00     0.049 A 
ATOM     49  H   UNL A   1      39.687  31.692  33.105  1.00  0.00     0.167 HD
ATOM     50  C   UNL A   1      40.617  28.555  30.197  1.00  0.00     0.034 A 
ATOM     51  C   UNL A   1      39.739  32.788  35.684  1.00  0.00     0.034 A 
ATOM     52  C   UNL A   1      41.583  28.396  31.248  1.00  0.00     0.049 A 
ATOM     53  C   UNL A   1      40.818  31.737  35.654  1.00  0.00     0.074 A 
ATOM     54  C   UNL A   1      42.648  27.513  31.307  1.00  0.00     0.029 A 
ATOM     55  N   UNL A   1      41.604  29.130  32.422  1.00  0.00    -0.354 N 
ATOM     56  N   UNL A   1      41.163  30.937  34.676  1.00  0.00    -0.248 NA
ATOM     57  C   UNL A   1      41.633  31.582  36.870  1.00  0.00     0.031 C 
ATOM     58  C   UNL A   1      43.303  27.702  32.527  1.00  0.00     0.029 A 
ATOM     59  C   UNL A   1      42.659  28.715  33.216  1.00  0.00     0.049 A 
ATOM     60  H   UNL A   1      40.964  29.840  32.657  1.00  0.00     0.167 HD
ATOM     61  C   UNL A   1      42.262  30.221  35.140  1.00  0.00     0.074 A 
ATOM     62  C   UNL A   1      42.534  30.690  36.481  1.00  0.00     0.031 C 
ATOM     63  C   UNL A   1      42.972  29.250  34.515  1.00  0.00     0.034 A 
BRANCH  50  64
ATOM     64  C   UNL A   1      40.697  27.608  29.029  1.00  0.00     0.023 A 
ATOM     65  C   UNL A   1      39.761  26.562  28.918  1.00  0.00     0.012 A 
ATOM     66  C   UNL A   1      41.625  27.824  27.992  1.00  0.00     0.148 A 
ATOM     67  C   UNL A   1      39.760  25.729  27.799  1.00  0.00     0.002 A 
ATOM     68  C   UNL A   1      41.591  27.016  26.861  1.00  0.00     0.091 A 
ATOM     69  F   UNL A   1      42.517  28.815  28.128  1.00  0.00    -0.205 F 
ATOM     70  C   UNL A   1      40.664  25.964  26.768  1.00  0.00     0.022 A 
BRANCH  68  71
ATOM     71  S   UNL A   1      42.656  27.287  25.441  1.00  0.00     0.127 S 
ATOM     72  O   UNL A   1      43.966  27.418  26.078  1.00  0.00    -0.237 OA
ATOM     73  O   UNL A   1      42.471  26.052  24.678  1.00  0.00    -0.237 OA
ATOM     74  O   UNL A   1      42.161  28.489  24.786  1.00  0.00    -0.744 OA
ENDBRANCH  68  71
ENDBRANCH  50  64
BRANCH  51  75
ATOM     75  C   UNL A   1      39.531  33.622  36.902  1.00  0.00     0.023 A 
ATOM     76  C   UNL A   1      40.056  34.929  36.941  1.00  0.00     0.012 A 
ATOM     77  C   UNL A   1      38.830  33.134  38.021  1.00  0.00     0.148 A 
ATOM     78  C   UNL A   1      39.927  35.717  38.085  1.00  0.00     0.002 A 
ATOM     79  C   UNL A   1      38.656  33.944  39.138  1.00  0.00     0.091 A 
ATOM     80  F   UNL A   1      38.351  31.882  37.978  1.00  0.00    -0.205 F 
ATOM     81  C   UNL A   1      39.220  35.229  39.180  1.00  0.00     0.022 A 
BRANCH  79  82
ATOM     82  S   UNL A   1      37.647  33.434  40.533  1.00  0.00     0.127 S 
ATOM     83  O   UNL A   1      37.621  34.647  41.346  1.00  0.00    -0.237 OA
ATOM     84  O   UNL A   1      36.376  33.098  39.889  1.00  0.00    -0.237 OA
ATOM     85  O   UNL A   1      38.340  32.290  41.109  1.00  0.00    -0.744 OA
ENDBRANCH  79  82
ENDBRANCH  51  75
BRANCH  63  86
ATOM     86  C   UNL A   1      44.158  28.664  35.233  1.00  0.00     0.023 A 
ATOM     87  C   UNL A   1      45.438  29.215  35.036  1.00  0.00     0.012 A 
ATOM     88  C   UNL A   1      43.980  27.641  36.185  1.00  0.00     0.148 A 
ATOM     89  C   UNL A   1      46.530  28.740  35.763  1.00  0.00     0.002 A 
ATOM     90  C   UNL A   1      45.063  27.206  36.939  1.00  0.00     0.091 A 
ATOM     91  F   UNL A   1      42.754  27.121  36.342  1.00  0.00    -0.205 F 
ATOM     92  C   UNL A   1      46.340  27.749  36.723  1.00  0.00     0.022 A 
BRANCH  90  93
ATOM     93  S   UNL A   1      44.892  26.008  38.266  1.00  0.00     0.127 S 
ATOM     94  O   UNL A   1      43.855  26.624  39.092  1.00  0.00    -0.237 OA
ATOM     95  O   UNL A   1      44.466  24.807  37.548  1.00  0.00    -0.237 OA
ATOM     96  O   UNL A   1      46.206  25.906  38.888  1.00  0.00    -0.744 OA
ENDBRANCH  90  93
ENDBRANCH  63  86
ENDBRANCH  37  38
ENDBRANCH  29  32
ENDBRANCH  27  28
ENDBRANCH  26  27
ENDBRANCH   1  26
TORSDOF 19
ENDMDL
MODEL 2
REMARK VINA RESULT:     -10.9      2.164      3.499
REMARK SMILES CCNC(=O)NC(=O)[C@@H](C)[NH2+][C@](C)(CC)C(=O)NCCCCNC(=O)c1ccc(-c2c3nc(c(-c4cccc(S(=O)(=O)[O-])c4F)c4ccc([nH]4)c(-c4cccc(S(=O)(=O)[O-])c4F)c4nc(c(-c5cccc(S(=O)(=O)[O-])c5F)c5ccc2[nH]5)C=C4)C=C3)cc1
REMARK SMILES IDX 20 1 19 2 18 3 16 4 17 5 12 7 13 8 11 9 9 12 10 13 7 14 3 15
REMARK SMILES IDX 4 16 5 18 6 19 8 21 2 22 1 23 14 24 15 25 21 26 22 27 23 28
REMARK SMILES IDX 24 29 25 31 26 32 27 33 88 34 28 35 87 36 29 37 30 38 31 39
REMARK SMILES IDX 81 40 32 41 86 42 80 43 82 44 33 45 85 46 79 47 78 48 34 50
REMARK SMILES IDX 66 51 46 52 65 53 47 54 50 55 64 56 83 57 48 58 49 59 63 61
REMARK SMILES IDX 84 62 51 63 35 64 36 65 44 66 37 67 39 68 45 69 38 70 40 71
REMARK SMILES IDX 41 72 42 73 43 74 67 75 68 76 76 77 69 78 71 79 77 80 70 81
REMARK SMILES IDX 72 82 73 83 74 84 75 85 52 86 53 87 61 88 54 89 56 90 62 91
REMARK SMILES IDX 55 92 57 93 58 94 59 95 60 96
REMARK H PARENT 18 6 11 10 11 11 3 17 6 20 23 30 82 49 50 60
REMARK Flexibility Score: inf
ROOT
ATOM      1  C   UNL A   1      32.184  27.782  27.255  1.00  0.00     0.023 C 
ENDROOT
BRANCH   1   2
ATOM      2  C   UNL A   1      32.004  26.646  26.247  1.00  0.00     0.116 C 
BRANCH   2   3
ATOM      3  N   UNL A   1      31.432  25.456  26.850  1.00  0.00    -0.351 N 
ATOM      4  C   UNL A   1      31.861  24.159  26.853  1.00  0.00     0.281 C 
ATOM      5  O   UNL A   1      31.270  23.393  27.624  1.00  0.00    -0.268 OA
ATOM      6  H   UNL A   1      30.593  25.610  27.340  1.00  0.00     0.163 HD
BRANCH   4   7
ATOM      7  C   UNL A   1      33.041  23.652  25.947  1.00  0.00     0.173 C 
ATOM      8  C   UNL A   1      34.014  24.840  25.724  1.00  0.00     0.090 C 
BRANCH   7   9
ATOM      9  N   UNL A   1      32.437  23.080  24.699  1.00  0.00    -0.324 N 
ATOM     10  H   UNL A   1      33.122  22.432  24.312  1.00  0.00     0.347 HD
ATOM     11  H   UNL A   1      31.552  22.689  25.026  1.00  0.00     0.347 HD
BRANCH   9  12
ATOM     12  C   UNL A   1      32.026  23.973  23.601  1.00  0.00     0.270 C 
ATOM     13  C   UNL A   1      30.550  24.305  23.370  1.00  0.00     0.086 C 
BRANCH  12  14
ATOM     14  C   UNL A   1      32.636  23.510  22.266  1.00  0.00     0.285 C 
ATOM     15  N   UNL A   1      32.869  26.718  21.264  1.00  0.00    -0.338 N 
ATOM     16  C   UNL A   1      32.794  25.561  20.602  1.00  0.00     0.321 C 
ATOM     17  H   UNL A   1      32.698  27.510  20.706  1.00  0.00     0.165 HD
ATOM     18  O   UNL A   1      32.664  25.613  19.375  1.00  0.00    -0.248 OA
ATOM     19  N   UNL A   1      32.891  24.317  21.166  1.00  0.00    -0.273 N 
ATOM     20  H   UNL A   1      33.338  23.745  20.501  1.00  0.00     0.175 HD
ATOM     21  O   UNL A   1      32.922  22.309  22.129  1.00  0.00    -0.268 OA
BRANCH  15  22
ATOM     22  C   UNL A   1      33.154  27.020  22.640  1.00  0.00     0.114 C 
ATOM     23  C   UNL A   1      33.570  28.459  22.872  1.00  0.00     0.027 C 
ENDBRANCH  15  22
ENDBRANCH  12  14
ENDBRANCH   9  12
ENDBRANCH   7   9
BRANCH   7  24
ATOM     24  C   UNL A   1      33.880  22.546  26.666  1.00  0.00     0.075 C 
ATOM     25  C   UNL A   1      34.711  21.652  25.747  1.00  0.00     0.011 C 
ENDBRANCH   7  24
ENDBRANCH   4   7
ENDBRANCH   2   3
ENDBRANCH   1   2
BRANCH   1  26
ATOM     26  C   UNL A   1      31.647  29.141  26.801  1.00  0.00     0.023 C 
BRANCH  26  27
ATOM     27  C   UNL A   1      32.694  30.099  26.243  1.00  0.00     0.116 C 
BRANCH  27  28
ATOM     28  N   UNL A   1      32.431  31.489  26.588  1.00  0.00    -0.352 N 
ATOM     29  C   UNL A   1      33.161  32.337  27.387  1.00  0.00     0.251 C 
ATOM     30  H   UNL A   1      31.616  31.876  26.194  1.00  0.00     0.163 HD
ATOM     31  O   UNL A   1      32.703  33.430  27.711  1.00  0.00    -0.269 OA
BRANCH  29  32
ATOM     32  C   UNL A   1      34.491  31.916  27.878  1.00  0.00     0.039 A 
ATOM     33  C   UNL A   1      35.514  32.864  27.973  1.00  0.00     0.014 A 
ATOM     34  C   UNL A   1      34.715  30.594  28.268  1.00  0.00     0.014 A 
ATOM     35  C   UNL A   1      36.740  32.502  28.539  1.00  0.00     0.010 A 
ATOM     36  C   UNL A   1      35.912  30.254  28.892  1.00  0.00     0.010 A 
ATOM     37  C   UNL A   1      36.935  31.204  29.041  1.00  0.00    -0.014 A 
BRANCH  37  38
ATOM     38  C   UNL A   1      38.184  30.811  29.746  1.00  0.00     0.031 A 
ATOM     39  C   UNL A   1      39.107  29.797  29.125  1.00  0.00     0.074 A 
ATOM     40  C   UNL A   1      38.418  31.261  30.996  1.00  0.00     0.049 A 
ATOM     41  N   UNL A   1      40.154  29.210  29.643  1.00  0.00    -0.248 NA
ATOM     42  C   UNL A   1      38.795  29.363  27.752  1.00  0.00     0.031 C 
ATOM     43  C   UNL A   1      37.563  32.191  31.738  1.00  0.00     0.029 A 
ATOM     44  N   UNL A   1      39.422  30.957  31.884  1.00  0.00    -0.354 N 
ATOM     45  C   UNL A   1      40.589  28.298  28.690  1.00  0.00     0.074 A 
ATOM     46  C   UNL A   1      39.689  28.402  27.561  1.00  0.00     0.031 C 
ATOM     47  C   UNL A   1      38.069  32.370  32.969  1.00  0.00     0.029 A 
ATOM     48  C   UNL A   1      39.262  31.542  33.121  1.00  0.00     0.049 A 
ATOM     49  H   UNL A   1      40.184  30.377  31.658  1.00  0.00     0.167 HD
ATOM     50  C   UNL A   1      41.653  27.463  28.740  1.00  0.00     0.034 A 
ATOM     51  C   UNL A   1      39.981  31.412  34.254  1.00  0.00     0.034 A 
ATOM     52  C   UNL A   1      42.588  27.414  29.829  1.00  0.00     0.049 A 
ATOM     53  C   UNL A   1      41.194  30.518  34.254  1.00  0.00     0.074 A 
ATOM     54  C   UNL A   1      43.761  26.684  29.918  1.00  0.00     0.029 A 
ATOM     55  N   UNL A   1      42.461  28.117  31.015  1.00  0.00    -0.354 N 
ATOM     56  N   UNL A   1      41.685  29.795  33.278  1.00  0.00    -0.248 NA
ATOM     57  C   UNL A   1      41.973  30.449  35.501  1.00  0.00     0.031 C 
ATOM     58  C   UNL A   1      44.335  26.932  31.169  1.00  0.00     0.029 A 
ATOM     59  C   UNL A   1      43.530  27.833  31.846  1.00  0.00     0.049 A 
ATOM     60  H   UNL A   1      41.720  28.727  31.234  1.00  0.00     0.167 HD
ATOM     61  C   UNL A   1      42.852  29.226  33.776  1.00  0.00     0.074 A 
ATOM     62  C   UNL A   1      43.003  29.697  35.135  1.00  0.00     0.031 C 
ATOM     63  C   UNL A   1      43.714  28.376  33.166  1.00  0.00     0.034 A 
BRANCH  50  64
ATOM     64  C   UNL A   1      41.910  26.562  27.561  1.00  0.00     0.023 A 
ATOM     65  C   UNL A   1      42.646  27.048  26.463  1.00  0.00     0.012 A 
ATOM     66  C   UNL A   1      41.519  25.209  27.592  1.00  0.00     0.148 A 
ATOM     67  C   UNL A   1      42.974  26.206  25.402  1.00  0.00     0.002 A 
ATOM     68  C   UNL A   1      41.886  24.366  26.550  1.00  0.00     0.091 A 
ATOM     69  F   UNL A   1      40.805  24.774  28.639  1.00  0.00    -0.205 F 
ATOM     70  C   UNL A   1      42.606  24.864  25.451  1.00  0.00     0.022 A 
BRANCH  68  71
ATOM     71  S   UNL A   1      41.533  22.605  26.556  1.00  0.00     0.127 S 
ATOM     72  O   UNL A   1      42.106  22.195  27.838  1.00  0.00    -0.237 OA
ATOM     73  O   UNL A   1      40.071  22.584  26.509  1.00  0.00    -0.237 OA
ATOM     74  O   UNL A   1      42.189  22.056  25.378  1.00  0.00    -0.744 OA
ENDBRANCH  68  71
ENDBRANCH  50  64
BRANCH  51  75
ATOM     75  C   UNL A   1      39.611  32.181  35.476  1.00  0.00     0.023 A 
ATOM     76  C   UNL A   1      40.184  33.451  35.691  1.00  0.00     0.012 A 
ATOM     77  C   UNL A   1      38.710  31.669  36.429  1.00  0.00     0.148 A 
ATOM     78  C   UNL A   1      39.902  34.175  36.849  1.00  0.00     0.002 A 
ATOM     79  C   UNL A   1      38.389  32.420  37.554  1.00  0.00     0.091 A 
ATOM     80  F   UNL A   1      38.185  30.453  36.221  1.00  0.00    -0.205 F 
ATOM     81  C   UNL A   1      38.999  33.664  37.777  1.00  0.00     0.022 A 
BRANCH  79  82
ATOM     82  S   UNL A   1      37.136  31.888  38.726  1.00  0.00     0.127 S 
ATOM     83  O   UNL A   1      37.060  30.455  38.455  1.00  0.00    -0.237 OA
ATOM     84  O   UNL A   1      37.744  32.240  40.010  1.00  0.00    -0.237 OA
ATOM     85  O   UNL A   1      35.950  32.668  38.397  1.00  0.00    -0.744 OA
ENDBRANCH  79  82
ENDBRANCH  51  75
BRANCH  63  86
ATOM     86  C   UNL A   1      44.939  27.942  33.924  1.00  0.00     0.023 A 
ATOM     87  C   UNL A   1      46.094  28.746  33.910  1.00  0.00     0.012 A 
ATOM     88  C   UNL A   1      44.903  26.793  34.739  1.00  0.00     0.148 A 
ATOM     89  C   UNL A   1      47.205  28.402  34.681  1.00  0.00     0.002 A 
ATOM     90  C   UNL A   1      45.995  26.481  35.540  1.00  0.00     0.091 A 
ATOM     91  F   UNL A   1      43.798  26.033  34.723  1.00  0.00    -0.205 F 
ATOM     92  C   UNL A   1      47.150  27.280  35.505  1.00  0.00     0.022 A 
BRANCH  90  93
ATOM     93  S   UNL A   1      45.974  25.116  36.707  1.00  0.00     0.127 S 
ATOM     94  O   UNL A   1      47.372  25.070  37.134  1.00  0.00    -0.237 OA
ATOM     95  O   UNL A   1      45.040  25.592  37.727  1.00  0.00    -0.237 OA
ATOM     96  O   UNL A   1      45.512  23.954  35.959  1.00  0.00    -0.744 OA
ENDBRANCH  90  93
ENDBRANCH  63  86
ENDBRANCH  37  38
ENDBRANCH  29  32
ENDBRANCH  27  28
ENDBRANCH  26  27
ENDBRANCH   1  26
TORSDOF 19
ENDMDL
MODEL 3
REMARK VINA RESULT:     -10.8      5.819     10.937
REMARK SMILES CCNC(=O)NC(=O)[C@@H](C)[NH2+][C@](C)(CC)C(=O)NCCCCNC(=O)c1ccc(-c2c3nc(c(-c4cccc(S(=O)(=O)[O-])c4F)c4ccc([nH]4)c(-c4cccc(S(=O)(=O)[O-])c4F)c4nc(c(-c5cccc(S(=O)(=O)[O-])c5F)c5ccc2[nH]5)C=C4)C=C3)cc1
REMARK SMILES IDX 20 1 19 2 18 3 16 4 17 5 12 7 13 8 11 9 9 12 10 13 7 14 3 15
REMARK SMILES IDX 4 16 5 18 6 19 8 21 2 22 1 23 14 24 15 25 21 26 22 27 23 28
REMARK SMILES IDX 24 29 25 31 26 32 27 33 88 34 28 35 87 36 29 37 30 38 31 39
REMARK SMILES IDX 81 40 32 41 86 42 80 43 82 44 33 45 85 46 79 47 78 48 34 50
REMARK SMILES IDX 66 51 46 52 65 53 47 54 50 55 64 56 83 57 48 58 49 59 63 61
REMARK SMILES IDX 84 62 51 63 35 64 36 65 44 66 37 67 39 68 45 69 38 70 40 71
REMARK SMILES IDX 41 72 42 73 43 74 67 75 68 76 76 77 69 78 71 79 77 80 70 81
REMARK SMILES IDX 72 82 73 83 74 84 75 85 52 86 53 87 61 88 54 89 56 90 62 91
REMARK SMILES IDX 55 92 57 93 58 94 59 95 60 96
REMARK H PARENT 18 6 11 10 11 11 3 17 6 20 23 30 82 49 50 60
REMARK Flexibility Score: inf
ROOT
ATOM      1  C   UNL A   1      36.282  23.016  23.439  1.00  0.00     0.023 C 
ENDROOT
BRANCH   1   2
ATOM      2  C   UNL A   1      34.783  23.068  23.140  1.00  0.00     0.116 C 
BRANCH   2   3
ATOM      3  N   UNL A   1      33.991  22.408  24.161  1.00  0.00    -0.351 N 
ATOM      4  C   UNL A   1      33.001  22.883  24.975  1.00  0.00     0.281 C 
ATOM      5  O   UNL A   1      32.365  22.034  25.609  1.00  0.00    -0.268 OA
ATOM      6  H   UNL A   1      34.202  21.456  24.289  1.00  0.00     0.163 HD
BRANCH   4   7
ATOM      7  C   UNL A   1      32.668  24.414  25.100  1.00  0.00     0.173 C 
ATOM      8  C   UNL A   1      31.617  24.581  26.230  1.00  0.00     0.090 C 
BRANCH   7   9
ATOM      9  N   UNL A   1      32.230  24.891  23.747  1.00  0.00    -0.324 N 
ATOM     10  H   UNL A   1      33.076  25.155  23.242  1.00  0.00     0.347 HD
ATOM     11  H   UNL A   1      31.692  24.104  23.384  1.00  0.00     0.347 HD
BRANCH   9  12
ATOM     12  C   UNL A   1      31.293  26.023  23.631  1.00  0.00     0.270 C 
ATOM     13  C   UNL A   1      29.805  25.846  23.943  1.00  0.00     0.086 C 
BRANCH  12  14
ATOM     14  C   UNL A   1      31.425  26.699  22.255  1.00  0.00     0.285 C 
ATOM     15  N   UNL A   1      30.531  29.646  23.620  1.00  0.00    -0.338 N 
ATOM     16  C   UNL A   1      30.465  29.161  22.378  1.00  0.00     0.321 C 
ATOM     17  H   UNL A   1      29.986  30.452  23.766  1.00  0.00     0.165 HD
ATOM     18  O   UNL A   1      29.862  29.833  21.535  1.00  0.00    -0.248 OA
ATOM     19  N   UNL A   1      31.048  27.999  21.949  1.00  0.00    -0.273 N 
ATOM     20  H   UNL A   1      31.317  28.153  21.014  1.00  0.00     0.175 HD
ATOM     21  O   UNL A   1      31.895  26.040  21.312  1.00  0.00    -0.268 OA
BRANCH  15  22
ATOM     22  C   UNL A   1      31.252  29.209  24.785  1.00  0.00     0.114 C 
ATOM     23  C   UNL A   1      32.696  29.668  24.813  1.00  0.00     0.027 C 
ENDBRANCH  15  22
ENDBRANCH  12  14
ENDBRANCH   9  12
ENDBRANCH   7   9
BRANCH   7  24
ATOM     24  C   UNL A   1      33.917  25.236  25.557  1.00  0.00     0.075 C 
ATOM     25  C   UNL A   1      33.621  26.641  26.081  1.00  0.00     0.011 C 
ENDBRANCH   7  24
ENDBRANCH   4   7
ENDBRANCH   2   3
ENDBRANCH   1   2
BRANCH   1  26
ATOM     26  C   UNL A   1      36.799  21.657  23.917  1.00  0.00     0.023 C 
BRANCH  26  27
ATOM     27  C   UNL A   1      37.231  21.604  25.379  1.00  0.00     0.116 C 
BRANCH  27  28
ATOM     28  N   UNL A   1      38.191  20.542  25.647  1.00  0.00    -0.352 N 
ATOM     29  C   UNL A   1      39.461  20.632  26.166  1.00  0.00     0.251 C 
ATOM     30  H   UNL A   1      37.888  19.632  25.426  1.00  0.00     0.163 HD
ATOM     31  O   UNL A   1      40.201  19.652  26.166  1.00  0.00    -0.269 OA
BRANCH  29  32
ATOM     32  C   UNL A   1      39.944  21.925  26.700  1.00  0.00     0.039 A 
ATOM     33  C   UNL A   1      40.899  21.927  27.720  1.00  0.00     0.014 A 
ATOM     34  C   UNL A   1      39.471  23.129  26.172  1.00  0.00     0.014 A 
ATOM     35  C   UNL A   1      41.442  23.140  28.154  1.00  0.00     0.010 A 
ATOM     36  C   UNL A   1      40.062  24.328  26.559  1.00  0.00     0.010 A 
ATOM     37  C   UNL A   1      41.058  24.348  27.548  1.00  0.00    -0.014 A 
BRANCH  37  38
ATOM     38  C   UNL A   1      41.690  25.646  27.907  1.00  0.00     0.031 A 
ATOM     39  C   UNL A   1      40.883  26.700  28.616  1.00  0.00     0.074 A 
ATOM     40  C   UNL A   1      42.937  25.925  27.476  1.00  0.00     0.049 A 
ATOM     41  N   UNL A   1      41.198  27.942  28.874  1.00  0.00    -0.248 NA
ATOM     42  C   UNL A   1      39.534  26.317  29.067  1.00  0.00     0.031 C 
ATOM     43  C   UNL A   1      43.798  25.014  26.717  1.00  0.00     0.029 A 
ATOM     44  N   UNL A   1      43.683  27.075  27.576  1.00  0.00    -0.354 N 
ATOM     45  C   UNL A   1      40.071  28.506  29.461  1.00  0.00     0.074 A 
ATOM     46  C   UNL A   1      39.060  27.472  29.516  1.00  0.00     0.031 C 
ATOM     47  C   UNL A   1      44.943  25.644  26.407  1.00  0.00     0.029 A 
ATOM     48  C   UNL A   1      44.887  27.013  26.912  1.00  0.00     0.049 A 
ATOM     49  H   UNL A   1      43.383  27.869  28.075  1.00  0.00     0.167 HD
ATOM     50  C   UNL A   1      39.900  29.764  29.930  1.00  0.00     0.034 A 
ATOM     51  C   UNL A   1      45.832  27.955  26.714  1.00  0.00     0.034 A 
ATOM     52  C   UNL A   1      40.929  30.766  29.944  1.00  0.00     0.049 A 
ATOM     53  C   UNL A   1      45.632  29.327  27.304  1.00  0.00     0.074 A 
ATOM     54  C   UNL A   1      40.886  32.031  30.504  1.00  0.00     0.029 A 
ATOM     55  N   UNL A   1      42.182  30.622  29.373  1.00  0.00    -0.354 N 
ATOM     56  N   UNL A   1      44.626  29.784  28.007  1.00  0.00    -0.248 NA
ATOM     57  C   UNL A   1      46.715  30.304  27.102  1.00  0.00     0.031 C 
ATOM     58  C   UNL A   1      42.109  32.660  30.256  1.00  0.00     0.029 A 
ATOM     59  C   UNL A   1      42.919  31.778  29.560  1.00  0.00     0.049 A 
ATOM     60  H   UNL A   1      42.502  29.818  28.904  1.00  0.00     0.167 HD
ATOM     61  C   UNL A   1      44.975  31.081  28.371  1.00  0.00     0.074 A 
ATOM     62  C   UNL A   1      46.289  31.333  27.823  1.00  0.00     0.031 C 
ATOM     63  C   UNL A   1      44.261  31.986  29.084  1.00  0.00     0.034 A 
BRANCH  50  64
ATOM     64  C   UNL A   1      38.567  30.128  30.526  1.00  0.00     0.023 A 
ATOM     65  C   UNL A   1      38.296  29.809  31.871  1.00  0.00     0.012 A 
ATOM     66  C   UNL A   1      37.632  30.881  29.789  1.00  0.00     0.148 A 
ATOM     67  C   UNL A   1      37.105  30.217  32.470  1.00  0.00     0.002 A 
ATOM     68  C   UNL A   1      36.466  31.319  30.405  1.00  0.00     0.091 A 
ATOM     69  F   UNL A   1      37.904  31.157  28.506  1.00  0.00    -0.205 F 
ATOM     70  C   UNL A   1      36.198  30.981  31.742  1.00  0.00     0.022 A 
BRANCH  68  71
ATOM     71  S   UNL A   1      35.272  32.379  29.581  1.00  0.00     0.127 S 
ATOM     72  O   UNL A   1      34.322  32.647  30.661  1.00  0.00    -0.237 OA
ATOM     73  O   UNL A   1      36.094  33.525  29.195  1.00  0.00    -0.237 OA
ATOM     74  O   UNL A   1      34.743  31.604  28.467  1.00  0.00    -0.744 OA
ENDBRANCH  68  71
ENDBRANCH  50  64
BRANCH  51  75
ATOM     75  C   UNL A   1      47.080  27.629  25.967  1.00  0.00     0.023 A 
ATOM     76  C   UNL A   1      48.192  27.124  26.671  1.00  0.00     0.012 A 
ATOM     77  C   UNL A   1      47.181  27.820  24.576  1.00  0.00     0.148 A 
ATOM     78  C   UNL A   1      49.393  26.859  26.012  1.00  0.00     0.002 A 
ATOM     79  C   UNL A   1      48.363  27.501  23.916  1.00  0.00     0.091 A 
ATOM     80  F   UNL A   1      46.121  28.317  23.922  1.00  0.00    -0.205 F 
ATOM     81  C   UNL A   1      49.476  27.039  24.634  1.00  0.00     0.022 A 
BRANCH  79  82
ATOM     82  S   UNL A   1      48.503  27.581  22.127  1.00  0.00     0.127 S 
ATOM     83  O   UNL A   1      48.671  26.174  21.775  1.00  0.00    -0.237 OA
ATOM     84  O   UNL A   1      47.216  28.163  21.742  1.00  0.00    -0.237 OA
ATOM     85  O   UNL A   1      49.646  28.448  21.872  1.00  0.00    -0.744 OA
ENDBRANCH  79  82
ENDBRANCH  51  75
BRANCH  63  86
ATOM     86  C   UNL A   1      44.898  33.318  29.379  1.00  0.00     0.023 A 
ATOM     87  C   UNL A   1      45.695  33.474  30.529  1.00  0.00     0.012 A 
ATOM     88  C   UNL A   1      44.794  34.377  28.456  1.00  0.00     0.148 A 
ATOM     89  C   UNL A   1      46.364  34.675  30.768  1.00  0.00     0.002 A 
ATOM     90  C   UNL A   1      45.501  35.553  28.676  1.00  0.00     0.091 A 
ATOM     91  F   UNL A   1      44.016  34.211  27.377  1.00  0.00    -0.205 F 
ATOM     92  C   UNL A   1      46.278  35.707  29.836  1.00  0.00     0.022 A 
BRANCH  90  93
ATOM     93  S   UNL A   1      45.532  36.895  27.482  1.00  0.00     0.127 S 
ATOM     94  O   UNL A   1      46.419  37.855  28.137  1.00  0.00    -0.237 OA
ATOM     95  O   UNL A   1      46.101  36.247  26.301  1.00  0.00    -0.237 OA
ATOM     96  O   UNL A   1      44.150  37.328  27.326  1.00  0.00    -0.744 OA
ENDBRANCH  90  93
ENDBRANCH  63  86
ENDBRANCH  37  38
ENDBRANCH  29  32
ENDBRANCH  27  28
ENDBRANCH  26  27
ENDBRANCH   1  26
TORSDOF 19
ENDMDL
