MODEL 1
REMARK VINA RESULT:     -11.6      0.000      0.000
REMARK SMILES COc1ccc(OCc2cccs2)c(C(=O)NCCCCNC(=O)c2ccc(-c3c4nc(c(-c5cccc(S(=O)(=O)[O-])c5F)c5ccc([nH]5)c(-c5cccc(S(=O)(=O)[O-])c5F)c5nc(c(-c6cccc(S(=O)(=O)[O-])c6F)c6ccc3[nH]6)C=C5)C=C4)cc2)c1
REMARK SMILES IDX 19 1 18 2 17 3 15 4 16 5 14 7 3 8 4 9 88 10 5 11 6 12 2 13
REMARK SMILES IDX 1 14 7 15 8 16 9 17 10 18 13 19 11 20 12 21 20 22 21 23
REMARK SMILES IDX 22 24 23 25 24 27 25 28 26 29 87 30 27 31 86 32 28 33 29 34
REMARK SMILES IDX 30 35 80 36 31 37 85 38 79 39 81 40 32 41 84 42 78 43 77 44
REMARK SMILES IDX 33 46 65 47 45 48 64 49 46 50 49 51 63 52 82 53 47 54 48 55
REMARK SMILES IDX 62 57 83 58 50 59 34 60 35 61 43 62 36 63 38 64 44 65 37 66
REMARK SMILES IDX 39 67 40 68 41 69 42 70 66 71 67 72 75 73 68 74 70 75 76 76
REMARK SMILES IDX 69 77 71 78 72 79 73 80 74 81 51 82 52 83 60 84 53 85 55 86
REMARK SMILES IDX 61 87 54 88 56 89 57 90 58 91 59 92
REMARK H PARENT 17 6 22 26 81 45 49 56
REMARK Flexibility Score: inf
ROOT
ATOM      1  C   UNL A   1      32.101  30.177  26.896  1.00  0.00     0.023 C 
ENDROOT
BRANCH   1   2
ATOM      2  C   UNL A   1      33.502  29.737  26.484  1.00  0.00     0.116 C 
BRANCH   2   3
ATOM      3  N   UNL A   1      33.562  29.357  25.090  1.00  0.00    -0.352 N 
ATOM      4  C   UNL A   1      33.304  28.174  24.445  1.00  0.00     0.255 C 
ATOM      5  O   UNL A   1      34.006  27.959  23.456  1.00  0.00    -0.269 OA
ATOM      6  H   UNL A   1      33.841  30.085  24.489  1.00  0.00     0.163 HD
BRANCH   4   7
ATOM      7  C   UNL A   1      32.305  27.142  24.879  1.00  0.00     0.085 A 
ATOM      8  C   UNL A   1      31.904  24.826  25.561  1.00  0.00     0.119 A 
ATOM      9  C   UNL A   1      30.668  24.863  24.938  1.00  0.00     0.050 A 
ATOM     10  C   UNL A   1      32.695  25.976  25.556  1.00  0.00     0.064 A 
ATOM     11  C   UNL A   1      30.176  26.079  24.469  1.00  0.00     0.051 A 
ATOM     12  C   UNL A   1      30.953  27.249  24.517  1.00  0.00     0.132 A 
BRANCH   8  13
ATOM     13  O   UNL A   1      32.255  23.621  26.106  1.00  0.00    -0.497 OA
ATOM     14  C   UNL A   1      31.744  22.454  25.469  1.00  0.00     0.278 C 
ENDBRANCH   8  13
BRANCH  12  15
ATOM     15  O   UNL A   1      30.206  28.359  24.239  1.00  0.00    -0.487 OA
BRANCH  15  16
ATOM     16  C   UNL A   1      29.699  28.682  22.933  1.00  0.00     0.276 C 
BRANCH  16  17
ATOM     17  C   UNL A   1      29.238  30.109  22.752  1.00  0.00     0.042 A 
ATOM     18  C   UNL A   1      29.173  31.097  23.721  1.00  0.00     0.019 A 
ATOM     19  S   UNL A   1      28.470  30.642  21.311  1.00  0.00    -0.145 S 
ATOM     20  C   UNL A   1      28.479  32.264  23.282  1.00  0.00     0.012 A 
ATOM     21  C   UNL A   1      28.057  32.151  21.978  1.00  0.00     0.065 A 
ENDBRANCH  16  17
ENDBRANCH  15  16
ENDBRANCH  12  15
ENDBRANCH   4   7
ENDBRANCH   2   3
ENDBRANCH   1   2
BRANCH   1  22
ATOM     22  C   UNL A   1      31.848  31.678  26.871  1.00  0.00     0.023 C 
BRANCH  22  23
ATOM     23  C   UNL A   1      33.015  32.536  27.342  1.00  0.00     0.116 C 
BRANCH  23  24
ATOM     24  N   UNL A   1      32.632  33.916  27.621  1.00  0.00    -0.352 N 
ATOM     25  C   UNL A   1      33.102  34.772  28.588  1.00  0.00     0.251 C 
ATOM     26  H   UNL A   1      31.937  34.287  27.031  1.00  0.00     0.163 HD
ATOM     27  O   UNL A   1      32.562  35.859  28.769  1.00  0.00    -0.269 OA
BRANCH  25  28
ATOM     28  C   UNL A   1      34.246  34.355  29.420  1.00  0.00     0.039 A 
ATOM     29  C   UNL A   1      34.008  33.709  30.634  1.00  0.00     0.014 A 
ATOM     30  C   UNL A   1      35.551  34.552  28.961  1.00  0.00     0.014 A 
ATOM     31  C   UNL A   1      35.084  33.185  31.353  1.00  0.00     0.010 A 
ATOM     32  C   UNL A   1      36.608  33.952  29.632  1.00  0.00     0.010 A 
ATOM     33  C   UNL A   1      36.388  33.267  30.836  1.00  0.00    -0.014 A 
BRANCH  33  34
ATOM     34  C   UNL A   1      37.538  32.635  31.528  1.00  0.00     0.031 A 
ATOM     35  C   UNL A   1      38.263  31.486  30.882  1.00  0.00     0.074 A 
ATOM     36  C   UNL A   1      37.860  33.023  32.778  1.00  0.00     0.049 A 
ATOM     37  N   UNL A   1      39.248  30.765  31.352  1.00  0.00    -0.248 NA
ATOM     38  C   UNL A   1      37.799  31.070  29.548  1.00  0.00     0.031 C 
ATOM     39  C   UNL A   1      37.173  34.064  33.546  1.00  0.00     0.029 A 
ATOM     40  N   UNL A   1      38.831  32.569  33.633  1.00  0.00    -0.354 N 
ATOM     41  C   UNL A   1      39.487  29.785  30.397  1.00  0.00     0.074 A 
ATOM     42  C   UNL A   1      38.522  29.980  29.337  1.00  0.00     0.031 C 
ATOM     43  C   UNL A   1      37.754  34.179  34.751  1.00  0.00     0.029 A 
ATOM     44  C   UNL A   1      38.834  33.204  34.854  1.00  0.00     0.049 A 
ATOM     45  H   UNL A   1      39.467  31.856  33.396  1.00  0.00     0.167 HD
ATOM     46  C   UNL A   1      40.443  28.827  30.386  1.00  0.00     0.034 A 
ATOM     47  C   UNL A   1      39.620  33.020  35.934  1.00  0.00     0.034 A 
ATOM     48  C   UNL A   1      41.438  28.676  31.413  1.00  0.00     0.049 A 
ATOM     49  C   UNL A   1      40.713  31.988  35.872  1.00  0.00     0.074 A 
ATOM     50  C   UNL A   1      42.521  27.817  31.442  1.00  0.00     0.029 A 
ATOM     51  N   UNL A   1      41.464  29.398  32.597  1.00  0.00    -0.354 N 
ATOM     52  N   UNL A   1      41.038  31.188  34.885  1.00  0.00    -0.248 NA
ATOM     53  C   UNL A   1      41.570  31.855  37.060  1.00  0.00     0.031 C 
ATOM     54  C   UNL A   1      43.190  28.002  32.657  1.00  0.00     0.029 A 
ATOM     55  C   UNL A   1      42.538  28.994  33.372  1.00  0.00     0.049 A 
ATOM     56  H   UNL A   1      40.816  30.094  32.849  1.00  0.00     0.167 HD
ATOM     57  C   UNL A   1      42.159  30.487  35.316  1.00  0.00     0.074 A 
ATOM     58  C   UNL A   1      42.466  30.969  36.647  1.00  0.00     0.031 C 
ATOM     59  C   UNL A   1      42.861  29.521  34.673  1.00  0.00     0.034 A 
BRANCH  46  60
ATOM     60  C   UNL A   1      40.491  27.903  29.197  1.00  0.00     0.023 A 
ATOM     61  C   UNL A   1      39.598  26.814  29.122  1.00  0.00     0.012 A 
ATOM     62  C   UNL A   1      41.390  28.132  28.138  1.00  0.00     0.148 A 
ATOM     63  C   UNL A   1      39.626  25.944  28.033  1.00  0.00     0.002 A 
ATOM     64  C   UNL A   1      41.380  27.287  27.033  1.00  0.00     0.091 A 
ATOM     65  F   UNL A   1      42.250  29.157  28.236  1.00  0.00    -0.205 F 
ATOM     66  C   UNL A   1      40.509  26.187  26.985  1.00  0.00     0.022 A 
BRANCH  64  67
ATOM     67  S   UNL A   1      42.425  27.564  25.598  1.00  0.00     0.127 S 
ATOM     68  O   UNL A   1      43.759  27.529  26.195  1.00  0.00    -0.237 OA
ATOM     69  O   UNL A   1      42.103  26.413  24.755  1.00  0.00    -0.237 OA
ATOM     70  O   UNL A   1      42.016  28.850  25.048  1.00  0.00    -0.744 OA
ENDBRANCH  64  67
ENDBRANCH  46  60
BRANCH  47  71
ATOM     71  C   UNL A   1      39.460  33.897  37.129  1.00  0.00     0.023 A 
ATOM     72  C   UNL A   1      39.891  35.236  37.057  1.00  0.00     0.012 A 
ATOM     73  C   UNL A   1      38.858  33.431  38.313  1.00  0.00     0.148 A 
ATOM     74  C   UNL A   1      39.753  36.088  38.153  1.00  0.00     0.002 A 
ATOM     75  C   UNL A   1      38.675  34.300  39.384  1.00  0.00     0.091 A 
ATOM     76  F   UNL A   1      38.462  32.152  38.363  1.00  0.00    -0.205 F 
ATOM     77  C   UNL A   1      39.136  35.624  39.312  1.00  0.00     0.022 A 
BRANCH  75  78
ATOM     78  S   UNL A   1      37.781  33.829  40.869  1.00  0.00     0.127 S 
ATOM     79  O   UNL A   1      37.567  35.123  41.512  1.00  0.00    -0.237 OA
ATOM     80  O   UNL A   1      36.577  33.212  40.310  1.00  0.00    -0.237 OA
ATOM     81  O   UNL A   1      38.655  32.906  41.579  1.00  0.00    -0.744 OA
ENDBRANCH  75  78
ENDBRANCH  47  71
BRANCH  59  82
ATOM     82  C   UNL A   1      44.057  28.939  35.380  1.00  0.00     0.023 A 
ATOM     83  C   UNL A   1      45.326  29.525  35.208  1.00  0.00     0.012 A 
ATOM     84  C   UNL A   1      43.907  27.862  36.276  1.00  0.00     0.148 A 
ATOM     85  C   UNL A   1      46.434  29.030  35.896  1.00  0.00     0.002 A 
ATOM     86  C   UNL A   1      45.005  27.406  36.995  1.00  0.00     0.091 A 
ATOM     87  F   UNL A   1      42.695  27.305  36.411  1.00  0.00    -0.205 F 
ATOM     88  C   UNL A   1      46.271  27.981  36.798  1.00  0.00     0.022 A 
BRANCH  86  89
ATOM     89  S   UNL A   1      44.868  26.129  38.251  1.00  0.00     0.127 S 
ATOM     90  O   UNL A   1      43.944  26.745  39.202  1.00  0.00    -0.237 OA
ATOM     91  O   UNL A   1      44.307  25.009  37.496  1.00  0.00    -0.237 OA
ATOM     92  O   UNL A   1      46.221  25.906  38.745  1.00  0.00    -0.744 OA
ENDBRANCH  86  89
ENDBRANCH  59  82
ENDBRANCH  33  34
ENDBRANCH  25  28
ENDBRANCH  23  24
ENDBRANCH  22  23
ENDBRANCH   1  22
TORSDOF 18
ENDMDL
MODEL 2
REMARK VINA RESULT:     -11.1      4.016      9.421
REMARK SMILES COc1ccc(OCc2cccs2)c(C(=O)NCCCCNC(=O)c2ccc(-c3c4nc(c(-c5cccc(S(=O)(=O)[O-])c5F)c5ccc([nH]5)c(-c5cccc(S(=O)(=O)[O-])c5F)c5nc(c(-c6cccc(S(=O)(=O)[O-])c6F)c6ccc3[nH]6)C=C5)C=C4)cc2)c1
REMARK SMILES IDX 19 1 18 2 17 3 15 4 16 5 14 7 3 8 4 9 88 10 5 11 6 12 2 13
REMARK SMILES IDX 1 14 7 15 8 16 9 17 10 18 13 19 11 20 12 21 20 22 21 23
REMARK SMILES IDX 22 24 23 25 24 27 25 28 26 29 87 30 27 31 86 32 28 33 29 34
REMARK SMILES IDX 30 35 80 36 31 37 85 38 79 39 81 40 32 41 84 42 78 43 77 44
REMARK SMILES IDX 33 46 65 47 45 48 64 49 46 50 49 51 63 52 82 53 47 54 48 55
REMARK SMILES IDX 62 57 83 58 50 59 34 60 35 61 43 62 36 63 38 64 44 65 37 66
REMARK SMILES IDX 39 67 40 68 41 69 42 70 66 71 67 72 75 73 68 74 70 75 76 76
REMARK SMILES IDX 69 77 71 78 72 79 73 80 74 81 51 82 52 83 60 84 53 85 55 86
REMARK SMILES IDX 61 87 54 88 56 89 57 90 58 91 59 92
REMARK H PARENT 17 6 22 26 81 45 49 56
REMARK Flexibility Score: inf
ROOT
ATOM      1  C   UNL A   1      33.215  28.264  24.783  1.00  0.00     0.023 C 
ENDROOT
BRANCH   1   2
ATOM      2  C   UNL A   1      33.803  28.908  23.532  1.00  0.00     0.116 C 
BRANCH   2   3
ATOM      3  N   UNL A   1      33.796  28.002  22.404  1.00  0.00    -0.352 N 
ATOM      4  C   UNL A   1      33.025  26.908  22.104  1.00  0.00     0.255 C 
ATOM      5  O   UNL A   1      33.608  26.018  21.482  1.00  0.00    -0.269 OA
ATOM      6  H   UNL A   1      34.473  28.211  21.720  1.00  0.00     0.163 HD
BRANCH   4   7
ATOM      7  C   UNL A   1      31.597  26.706  22.516  1.00  0.00     0.085 A 
ATOM      8  C   UNL A   1      29.434  27.738  23.012  1.00  0.00     0.119 A 
ATOM      9  C   UNL A   1      29.200  26.770  23.974  1.00  0.00     0.050 A 
ATOM     10  C   UNL A   1      30.613  27.677  22.269  1.00  0.00     0.064 A 
ATOM     11  C   UNL A   1      30.056  25.675  24.063  1.00  0.00     0.051 A 
ATOM     12  C   UNL A   1      31.215  25.587  23.273  1.00  0.00     0.132 A 
BRANCH   8  13
ATOM     13  O   UNL A   1      28.476  28.709  22.906  1.00  0.00    -0.497 OA
ATOM     14  C   UNL A   1      28.882  29.956  22.349  1.00  0.00     0.278 C 
ENDBRANCH   8  13
BRANCH  12  15
ATOM     15  O   UNL A   1      31.772  24.341  23.337  1.00  0.00    -0.487 OA
BRANCH  15  16
ATOM     16  C   UNL A   1      31.998  23.624  24.562  1.00  0.00     0.276 C 
BRANCH  16  17
ATOM     17  C   UNL A   1      33.396  23.727  25.125  1.00  0.00     0.042 A 
ATOM     18  C   UNL A   1      34.470  24.410  24.577  1.00  0.00     0.019 A 
ATOM     19  S   UNL A   1      33.920  22.763  26.446  1.00  0.00    -0.145 S 
ATOM     20  C   UNL A   1      35.706  24.121  25.228  1.00  0.00     0.012 A 
ATOM     21  C   UNL A   1      35.542  23.247  26.277  1.00  0.00     0.065 A 
ENDBRANCH  16  17
ENDBRANCH  15  16
ENDBRANCH  12  15
ENDBRANCH   4   7
ENDBRANCH   2   3
ENDBRANCH   1   2
BRANCH   1  22
ATOM     22  C   UNL A   1      34.087  28.331  26.030  1.00  0.00     0.023 C 
BRANCH  22  23
ATOM     23  C   UNL A   1      33.375  28.804  27.290  1.00  0.00     0.116 C 
BRANCH  23  24
ATOM     24  N   UNL A   1      33.504  30.240  27.512  1.00  0.00    -0.352 N 
ATOM     25  C   UNL A   1      34.542  30.944  28.073  1.00  0.00     0.251 C 
ATOM     26  H   UNL A   1      32.737  30.783  27.219  1.00  0.00     0.163 HD
ATOM     27  O   UNL A   1      34.422  32.142  28.313  1.00  0.00    -0.269 OA
BRANCH  25  28
ATOM     28  C   UNL A   1      35.792  30.235  28.406  1.00  0.00     0.039 A 
ATOM     29  C   UNL A   1      36.856  30.266  27.503  1.00  0.00     0.014 A 
ATOM     30  C   UNL A   1      35.923  29.593  29.640  1.00  0.00     0.014 A 
ATOM     31  C   UNL A   1      38.086  29.721  27.876  1.00  0.00     0.010 A 
ATOM     32  C   UNL A   1      37.170  29.134  30.041  1.00  0.00     0.010 A 
ATOM     33  C   UNL A   1      38.263  29.188  29.164  1.00  0.00    -0.014 A 
BRANCH  33  34
ATOM     34  C   UNL A   1      39.584  28.691  29.623  1.00  0.00     0.031 A 
ATOM     35  C   UNL A   1      40.313  29.407  30.726  1.00  0.00     0.074 A 
ATOM     36  C   UNL A   1      40.172  27.665  28.976  1.00  0.00     0.049 A 
ATOM     37  N   UNL A   1      41.498  29.165  31.224  1.00  0.00    -0.248 NA
ATOM     38  C   UNL A   1      39.637  30.569  31.328  1.00  0.00     0.031 C 
ATOM     39  C   UNL A   1      39.605  26.947  27.832  1.00  0.00     0.029 A 
ATOM     40  N   UNL A   1      41.389  27.063  29.174  1.00  0.00    -0.354 N 
ATOM     41  C   UNL A   1      41.728  30.168  32.157  1.00  0.00     0.074 A 
ATOM     42  C   UNL A   1      40.577  31.043  32.133  1.00  0.00     0.031 C 
ATOM     43  C   UNL A   1      40.466  25.994  27.440  1.00  0.00     0.029 A 
ATOM     44  C   UNL A   1      41.655  26.049  28.282  1.00  0.00     0.049 A 
ATOM     45  H   UNL A   1      42.013  27.331  29.886  1.00  0.00     0.167 HD
ATOM     46  C   UNL A   1      42.788  30.331  32.983  1.00  0.00     0.034 A 
ATOM     47  C   UNL A   1      42.736  25.253  28.160  1.00  0.00     0.034 A 
ATOM     48  C   UNL A   1      43.901  29.423  33.045  1.00  0.00     0.049 A 
ATOM     49  C   UNL A   1      43.875  25.418  29.130  1.00  0.00     0.074 A 
ATOM     50  C   UNL A   1      44.968  29.429  33.926  1.00  0.00     0.029 A 
ATOM     51  N   UNL A   1      44.095  28.353  32.186  1.00  0.00    -0.354 N 
ATOM     52  N   UNL A   1      43.996  26.263  30.126  1.00  0.00    -0.248 NA
ATOM     53  C   UNL A   1      45.013  24.498  28.982  1.00  0.00     0.031 C 
ATOM     54  C   UNL A   1      45.821  28.375  33.583  1.00  0.00     0.029 A 
ATOM     55  C   UNL A   1      45.272  27.698  32.505  1.00  0.00     0.049 A 
ATOM     56  H   UNL A   1      43.486  28.096  31.457  1.00  0.00     0.167 HD
ATOM     57  C   UNL A   1      45.200  25.951  30.746  1.00  0.00     0.074 A 
ATOM     58  C   UNL A   1      45.764  24.829  30.024  1.00  0.00     0.031 C 
ATOM     59  C   UNL A   1      45.794  26.549  31.809  1.00  0.00     0.034 A 
BRANCH  46  60
ATOM     60  C   UNL A   1      42.764  31.506  33.926  1.00  0.00     0.023 A 
ATOM     61  C   UNL A   1      43.320  32.736  33.521  1.00  0.00     0.012 A 
ATOM     62  C   UNL A   1      42.158  31.405  35.192  1.00  0.00     0.148 A 
ATOM     63  C   UNL A   1      43.312  33.837  34.377  1.00  0.00     0.002 A 
ATOM     64  C   UNL A   1      42.112  32.520  36.023  1.00  0.00     0.091 A 
ATOM     65  F   UNL A   1      41.656  30.220  35.572  1.00  0.00    -0.205 F 
ATOM     66  C   UNL A   1      42.698  33.731  35.623  1.00  0.00     0.022 A 
BRANCH  64  67
ATOM     67  S   UNL A   1      41.275  32.505  37.612  1.00  0.00     0.127 S 
ATOM     68  O   UNL A   1      42.119  31.590  38.380  1.00  0.00    -0.237 OA
ATOM     69  O   UNL A   1      41.364  33.907  38.022  1.00  0.00    -0.237 OA
ATOM     70  O   UNL A   1      39.921  32.038  37.347  1.00  0.00    -0.744 OA
ENDBRANCH  64  67
ENDBRANCH  46  60
BRANCH  47  71
ATOM     71  C   UNL A   1      42.751  24.169  27.138  1.00  0.00     0.023 A 
ATOM     72  C   UNL A   1      43.441  24.379  25.927  1.00  0.00     0.012 A 
ATOM     73  C   UNL A   1      42.123  22.930  27.365  1.00  0.00     0.148 A 
ATOM     74  C   UNL A   1      43.482  23.385  24.950  1.00  0.00     0.002 A 
ATOM     75  C   UNL A   1      42.212  21.924  26.408  1.00  0.00     0.091 A 
ATOM     76  F   UNL A   1      41.465  22.754  28.519  1.00  0.00    -0.205 F 
ATOM     77  C   UNL A   1      42.877  22.155  25.193  1.00  0.00     0.022 A 
BRANCH  75  78
ATOM     78  S   UNL A   1      41.573  20.268  26.684  1.00  0.00     0.127 S 
ATOM     79  O   UNL A   1      41.957  19.590  25.449  1.00  0.00    -0.237 OA
ATOM     80  O   UNL A   1      42.319  19.853  27.873  1.00  0.00    -0.237 OA
ATOM     81  O   UNL A   1      40.141  20.429  26.899  1.00  0.00    -0.744 OA
ENDBRANCH  75  78
ENDBRANCH  47  71
BRANCH  59  82
ATOM     82  C   UNL A   1      47.106  25.986  32.286  1.00  0.00     0.023 A 
ATOM     83  C   UNL A   1      47.131  25.089  33.372  1.00  0.00     0.012 A 
ATOM     84  C   UNL A   1      48.304  26.283  31.607  1.00  0.00     0.148 A 
ATOM     85  C   UNL A   1      48.331  24.518  33.792  1.00  0.00     0.002 A 
ATOM     86  C   UNL A   1      49.489  25.673  31.999  1.00  0.00     0.091 A 
ATOM     87  F   UNL A   1      48.263  27.155  30.588  1.00  0.00    -0.205 F 
ATOM     88  C   UNL A   1      49.507  24.799  33.099  1.00  0.00     0.022 A 
BRANCH  86  89
ATOM     89  S   UNL A   1      51.029  25.898  31.102  1.00  0.00     0.127 S 
ATOM     90  O   UNL A   1      51.230  27.342  31.214  1.00  0.00    -0.237 OA
ATOM     91  O   UNL A   1      51.966  25.091  31.884  1.00  0.00    -0.237 OA
ATOM     92  O   UNL A   1      50.784  25.402  29.755  1.00  0.00    -0.744 OA
ENDBRANCH  86  89
ENDBRANCH  59  82
ENDBRANCH  33  34
ENDBRANCH  25  28
ENDBRANCH  23  24
ENDBRANCH  22  23
ENDBRANCH   1  22
TORSDOF 18
ENDMDL
MODEL 3
REMARK VINA RESULT:     -11.1      0.747      7.849
REMARK SMILES COc1ccc(OCc2cccs2)c(C(=O)NCCCCNC(=O)c2ccc(-c3c4nc(c(-c5cccc(S(=O)(=O)[O-])c5F)c5ccc([nH]5)c(-c5cccc(S(=O)(=O)[O-])c5F)c5nc(c(-c6cccc(S(=O)(=O)[O-])c6F)c6ccc3[nH]6)C=C5)C=C4)cc2)c1
REMARK SMILES IDX 19 1 18 2 17 3 15 4 16 5 14 7 3 8 4 9 88 10 5 11 6 12 2 13
REMARK SMILES IDX 1 14 7 15 8 16 9 17 10 18 13 19 11 20 12 21 20 22 21 23
REMARK SMILES IDX 22 24 23 25 24 27 25 28 26 29 87 30 27 31 86 32 28 33 29 34
REMARK SMILES IDX 30 35 80 36 31 37 85 38 79 39 81 40 32 41 84 42 78 43 77 44
REMARK SMILES IDX 33 46 65 47 45 48 64 49 46 50 49 51 63 52 82 53 47 54 48 55
REMARK SMILES IDX 62 57 83 58 50 59 34 60 35 61 43 62 36 63 38 64 44 65 37 66
REMARK SMILES IDX 39 67 40 68 41 69 42 70 66 71 67 72 75 73 68 74 70 75 76 76
REMARK SMILES IDX 69 77 71 78 72 79 73 80 74 81 51 82 52 83 60 84 53 85 55 86
REMARK SMILES IDX 61 87 54 88 56 89 57 90 58 91 59 92
REMARK H PARENT 17 6 22 26 81 45 49 56
REMARK Flexibility Score: inf
ROOT
ATOM      1  C   UNL A   1      31.784  30.427  26.324  1.00  0.00     0.023 C 
ENDROOT
BRANCH   1   2
ATOM      2  C   UNL A   1      33.248  30.053  26.116  1.00  0.00     0.116 C 
BRANCH   2   3
ATOM      3  N   UNL A   1      33.512  29.636  24.756  1.00  0.00    -0.352 N 
ATOM      4  C   UNL A   1      33.428  28.417  24.133  1.00  0.00     0.255 C 
ATOM      5  O   UNL A   1      34.264  28.230  23.247  1.00  0.00    -0.269 OA
ATOM      6  H   UNL A   1      33.809  30.366  24.166  1.00  0.00     0.163 HD
BRANCH   4   7
ATOM      7  C   UNL A   1      32.464  27.322  24.481  1.00  0.00     0.085 A 
ATOM      8  C   UNL A   1      32.149  24.965  25.060  1.00  0.00     0.119 A 
ATOM      9  C   UNL A   1      30.943  24.966  24.380  1.00  0.00     0.050 A 
ATOM     10  C   UNL A   1      32.880  26.151  25.133  1.00  0.00     0.064 A 
ATOM     11  C   UNL A   1      30.411  26.174  23.933  1.00  0.00     0.051 A 
ATOM     12  C   UNL A   1      31.126  27.377  24.059  1.00  0.00     0.132 A 
BRANCH   8  13
ATOM     13  O   UNL A   1      32.535  23.759  25.577  1.00  0.00    -0.497 OA
ATOM     14  C   UNL A   1      33.759  23.733  26.305  1.00  0.00     0.278 C 
ENDBRANCH   8  13
BRANCH  12  15
ATOM     15  O   UNL A   1      30.337  28.459  23.787  1.00  0.00    -0.487 OA
BRANCH  15  16
ATOM     16  C   UNL A   1      29.819  28.769  22.482  1.00  0.00     0.276 C 
BRANCH  16  17
ATOM     17  C   UNL A   1      29.029  30.053  22.387  1.00  0.00     0.042 A 
ATOM     18  C   UNL A   1      28.328  30.525  21.289  1.00  0.00     0.019 A 
ATOM     19  S   UNL A   1      29.108  31.264  23.603  1.00  0.00    -0.145 S 
ATOM     20  C   UNL A   1      27.885  31.871  21.446  1.00  0.00     0.012 A 
ATOM     21  C   UNL A   1      28.232  32.387  22.673  1.00  0.00     0.065 A 
ENDBRANCH  16  17
ENDBRANCH  15  16
ENDBRANCH  12  15
ENDBRANCH   4   7
ENDBRANCH   2   3
ENDBRANCH   1   2
BRANCH   1  22
ATOM     22  C   UNL A   1      31.535  31.796  26.944  1.00  0.00     0.023 C 
BRANCH  22  23
ATOM     23  C   UNL A   1      32.790  32.549  27.365  1.00  0.00     0.116 C 
BRANCH  23  24
ATOM     24  N   UNL A   1      32.541  33.961  27.640  1.00  0.00    -0.352 N 
ATOM     25  C   UNL A   1      33.123  34.781  28.577  1.00  0.00     0.251 C 
ATOM     26  H   UNL A   1      31.857  34.386  27.075  1.00  0.00     0.163 HD
ATOM     27  O   UNL A   1      32.688  35.913  28.766  1.00  0.00    -0.269 OA
BRANCH  25  28
ATOM     28  C   UNL A   1      34.260  34.272  29.367  1.00  0.00     0.039 A 
ATOM     29  C   UNL A   1      34.011  33.511  30.511  1.00  0.00     0.014 A 
ATOM     30  C   UNL A   1      35.569  34.503  28.935  1.00  0.00     0.014 A 
ATOM     31  C   UNL A   1      35.079  32.908  31.177  1.00  0.00     0.010 A 
ATOM     32  C   UNL A   1      36.617  33.829  29.547  1.00  0.00     0.010 A 
ATOM     33  C   UNL A   1      36.386  33.030  30.676  1.00  0.00    -0.014 A 
BRANCH  33  34
ATOM     34  C   UNL A   1      37.527  32.321  31.306  1.00  0.00     0.031 A 
ATOM     35  C   UNL A   1      38.082  32.806  32.616  1.00  0.00     0.074 A 
ATOM     36  C   UNL A   1      38.128  31.310  30.648  1.00  0.00     0.049 A 
ATOM     37  N   UNL A   1      39.108  32.361  33.292  1.00  0.00    -0.248 NA
ATOM     38  C   UNL A   1      37.417  33.967  33.233  1.00  0.00     0.031 C 
ATOM     39  C   UNL A   1      37.740  30.806  29.328  1.00  0.00     0.029 A 
ATOM     40  N   UNL A   1      39.212  30.540  30.989  1.00  0.00    -0.354 N 
ATOM     41  C   UNL A   1      39.242  33.212  34.382  1.00  0.00     0.074 A 
ATOM     42  C   UNL A   1      38.215  34.223  34.259  1.00  0.00     0.031 C 
ATOM     43  C   UNL A   1      38.563  29.803  28.980  1.00  0.00     0.029 A 
ATOM     44  C   UNL A   1      39.552  29.610  30.033  1.00  0.00     0.049 A 
ATOM     45  H   UNL A   1      39.701  30.643  31.837  1.00  0.00     0.167 HD
ATOM     46  C   UNL A   1      40.121  33.143  35.409  1.00  0.00     0.034 A 
ATOM     47  C   UNL A   1      40.550  28.704  30.011  1.00  0.00     0.034 A 
ATOM     48  C   UNL A   1      41.100  32.102  35.557  1.00  0.00     0.049 A 
ATOM     49  C   UNL A   1      41.476  28.610  31.194  1.00  0.00     0.074 A 
ATOM     50  C   UNL A   1      41.958  31.872  36.617  1.00  0.00     0.029 A 
ATOM     51  N   UNL A   1      41.358  31.122  34.611  1.00  0.00    -0.354 N 
ATOM     52  N   UNL A   1      41.473  29.312  32.301  1.00  0.00    -0.248 NA
ATOM     53  C   UNL A   1      42.521  27.577  31.139  1.00  0.00     0.031 C 
ATOM     54  C   UNL A   1      42.753  30.764  36.301  1.00  0.00     0.029 A 
ATOM     55  C   UNL A   1      42.372  30.291  35.055  1.00  0.00     0.049 A 
ATOM     56  H   UNL A   1      40.889  31.030  33.750  1.00  0.00     0.167 HD
ATOM     57  C   UNL A   1      42.487  28.782  33.091  1.00  0.00     0.074 A 
ATOM     58  C   UNL A   1      43.071  27.688  32.341  1.00  0.00     0.031 C 
ATOM     59  C   UNL A   1      42.907  29.173  34.320  1.00  0.00     0.034 A 
BRANCH  46  60
ATOM     60  C   UNL A   1      40.022  34.196  36.483  1.00  0.00     0.023 A 
ATOM     61  C   UNL A   1      40.403  35.522  36.198  1.00  0.00     0.012 A 
ATOM     62  C   UNL A   1      39.516  33.882  37.759  1.00  0.00     0.148 A 
ATOM     63  C   UNL A   1      40.323  36.513  37.176  1.00  0.00     0.002 A 
ATOM     64  C   UNL A   1      39.396  34.885  38.716  1.00  0.00     0.091 A 
ATOM     65  F   UNL A   1      39.182  32.610  38.023  1.00  0.00    -0.205 F 
ATOM     66  C   UNL A   1      39.810  36.196  38.430  1.00  0.00     0.022 A 
BRANCH  64  67
ATOM     67  S   UNL A   1      38.672  34.592  40.334  1.00  0.00     0.127 S 
ATOM     68  O   UNL A   1      39.723  33.813  40.989  1.00  0.00    -0.237 OA
ATOM     69  O   UNL A   1      38.508  35.951  40.850  1.00  0.00    -0.237 OA
ATOM     70  O   UNL A   1      37.423  33.883  40.091  1.00  0.00    -0.744 OA
ENDBRANCH  64  67
ENDBRANCH  46  60
BRANCH  47  71
ATOM     71  C   UNL A   1      40.665  27.751  28.870  1.00  0.00     0.023 A 
ATOM     72  C   UNL A   1      39.756  26.678  28.780  1.00  0.00     0.012 A 
ATOM     73  C   UNL A   1      41.635  27.917  27.863  1.00  0.00     0.148 A 
ATOM     74  C   UNL A   1      39.829  25.770  27.724  1.00  0.00     0.002 A 
ATOM     75  C   UNL A   1      41.668  27.039  26.784  1.00  0.00     0.091 A 
ATOM     76  F   UNL A   1      42.494  28.939  27.971  1.00  0.00    -0.205 F 
ATOM     77  C   UNL A   1      40.778  25.956  26.721  1.00  0.00     0.022 A 
BRANCH  75  78
ATOM     78  S   UNL A   1      42.770  27.269  25.385  1.00  0.00     0.127 S 
ATOM     79  O   UNL A   1      44.063  27.431  26.045  1.00  0.00    -0.237 OA
ATOM     80  O   UNL A   1      42.601  26.009  24.660  1.00  0.00    -0.237 OA
ATOM     81  O   UNL A   1      42.270  28.440  24.678  1.00  0.00    -0.744 OA
ENDBRANCH  75  78
ENDBRANCH  47  71
BRANCH  59  82
ATOM     82  C   UNL A   1      44.030  28.398  34.956  1.00  0.00     0.023 A 
ATOM     83  C   UNL A   1      45.366  28.756  34.692  1.00  0.00     0.012 A 
ATOM     84  C   UNL A   1      43.758  27.367  35.877  1.00  0.00     0.148 A 
ATOM     85  C   UNL A   1      46.416  28.081  35.313  1.00  0.00     0.002 A 
ATOM     86  C   UNL A   1      44.808  26.733  36.531  1.00  0.00     0.091 A 
ATOM     87  F   UNL A   1      42.480  27.028  36.100  1.00  0.00    -0.205 F 
ATOM     88  C   UNL A   1      46.137  27.080  36.241  1.00  0.00     0.022 A 
BRANCH  86  89
ATOM     89  S   UNL A   1      44.538  25.504  37.813  1.00  0.00     0.127 S 
ATOM     90  O   UNL A   1      43.798  26.275  38.812  1.00  0.00    -0.237 OA
ATOM     91  O   UNL A   1      43.746  24.493  37.115  1.00  0.00    -0.237 OA
ATOM     92  O   UNL A   1      45.863  25.056  38.223  1.00  0.00    -0.744 OA
ENDBRANCH  86  89
ENDBRANCH  59  82
ENDBRANCH  33  34
ENDBRANCH  25  28
ENDBRANCH  23  24
ENDBRANCH  22  23
ENDBRANCH   1  22
TORSDOF 18
ENDMDL
