MODEL 1
REMARK VINA RESULT:     -11.3      0.000      0.000
REMARK SMILES CCN(Cc1cccc(C)n1)C(=O)[C@@H]([NH3+])CC(=O)NCCCCNC(=O)c1ccc(-c2c3nc(c(-c4cccc(S(=O)(=O)[O-])c4F)c4ccc([nH]4)c(-c4cccc(S(=O)(=O)[O-])c4F)c4nc(c(-c5cccc(S(=O)(=O)[O-])c5F)c5ccc2[nH]5)C=C4)C=C3)cc1
REMARK SMILES IDX 20 1 19 2 17 3 18 4 16 6 14 7 12 8 13 9 3 10 2 11 1 12 4 13
REMARK SMILES IDX 5 14 6 15 11 16 7 17 9 18 8 19 10 20 15 21 21 25 22 26 23 27
REMARK SMILES IDX 24 28 25 29 26 31 27 32 28 33 89 34 29 35 88 36 30 37 31 38
REMARK SMILES IDX 32 39 82 40 33 41 87 42 81 43 83 44 34 45 86 46 80 47 79 48
REMARK SMILES IDX 35 50 67 51 47 52 66 53 48 54 51 55 65 56 84 57 49 58 50 59
REMARK SMILES IDX 64 61 85 62 52 63 36 64 37 65 45 66 38 67 40 68 46 69 39 70
REMARK SMILES IDX 41 71 42 72 43 73 44 74 68 75 69 76 77 77 70 78 72 79 78 80
REMARK SMILES IDX 71 81 73 82 74 83 75 84 76 85 53 86 54 87 62 88 55 89 57 90
REMARK SMILES IDX 63 91 56 92 58 93 59 94 60 95 61 96
REMARK H PARENT 19 5 15 22 15 23 15 24 24 30 83 49 51 60
REMARK Flexibility Score: inf
ROOT
ATOM      1  C   UNL A   1      30.546  27.657  23.133  1.00  0.00     0.116 C 
ENDROOT
BRANCH   1   2
ATOM      2  N   UNL A   1      31.532  27.319  22.127  1.00  0.00    -0.356 N 
ATOM      3  C   UNL A   1      32.381  26.254  22.089  1.00  0.00     0.226 C 
ATOM      4  O   UNL A   1      33.294  26.244  21.264  1.00  0.00    -0.275 OA
ATOM      5  H   UNL A   1      31.598  27.943  21.369  1.00  0.00     0.163 HD
BRANCH   3   6
ATOM      6  C   UNL A   1      32.149  25.074  23.010  1.00  0.00     0.175 C 
BRANCH   6   7
ATOM      7  C   UNL A   1      33.246  24.012  22.925  1.00  0.00     0.280 C 
BRANCH   7   8
ATOM      8  C   UNL A   1      33.755  23.380  24.259  1.00  0.00     0.281 C 
ATOM      9  O   UNL A   1      34.796  23.860  24.724  1.00  0.00    -0.268 OA
BRANCH   8  10
ATOM     10  N   UNL A   1      33.117  22.298  24.878  1.00  0.00    -0.332 N 
BRANCH  10  11
ATOM     11  C   UNL A   1      31.746  22.447  25.414  1.00  0.00     0.116 C 
ATOM     12  C   UNL A   1      31.509  23.302  26.653  1.00  0.00     0.027 C 
ENDBRANCH  10  11
BRANCH  10  13
ATOM     13  C   UNL A   1      33.814  21.023  25.156  1.00  0.00     0.175 C 
BRANCH  13  14
ATOM     14  C   UNL A   1      33.445  19.746  24.415  1.00  0.00     0.060 A 
ATOM     15  C   UNL A   1      32.578  19.684  23.326  1.00  0.00     0.026 A 
ATOM     16  N   UNL A   1      34.111  18.637  24.838  1.00  0.00    -0.256 NA
ATOM     17  C   UNL A   1      32.297  18.447  22.746  1.00  0.00     0.004 A 
ATOM     18  C   UNL A   1      33.882  17.452  24.222  1.00  0.00     0.038 A 
ATOM     19  C   UNL A   1      32.961  17.313  23.195  1.00  0.00     0.023 A 
ATOM     20  C   UNL A   1      34.759  16.305  24.622  1.00  0.00     0.067 C 
ENDBRANCH  13  14
ENDBRANCH  10  13
ENDBRANCH   8  10
ENDBRANCH   7   8
BRANCH   7  21
ATOM     21  N   UNL A   1      32.870  22.909  22.000  1.00  0.00    -0.347 N 
ATOM     22  H   UNL A   1      33.644  22.721  21.363  1.00  0.00     0.345 HD
ATOM     23  H   UNL A   1      32.047  23.180  21.464  1.00  0.00     0.345 HD
ATOM     24  H   UNL A   1      32.663  22.069  22.540  1.00  0.00     0.345 HD
ENDBRANCH   7  21
ENDBRANCH   6   7
ENDBRANCH   3   6
ENDBRANCH   1   2
BRANCH   1  25
ATOM     25  C   UNL A   1      31.244  28.004  24.447  1.00  0.00     0.023 C 
BRANCH  25  26
ATOM     26  C   UNL A   1      32.154  29.222  24.385  1.00  0.00     0.023 C 
BRANCH  26  27
ATOM     27  C   UNL A   1      32.826  29.572  25.704  1.00  0.00     0.116 C 
BRANCH  27  28
ATOM     28  N   UNL A   1      32.445  30.871  26.245  1.00  0.00    -0.352 N 
ATOM     29  C   UNL A   1      33.157  31.674  27.106  1.00  0.00     0.251 C 
ATOM     30  H   UNL A   1      31.570  31.216  25.959  1.00  0.00     0.163 HD
ATOM     31  O   UNL A   1      32.675  32.732  27.503  1.00  0.00    -0.269 OA
BRANCH  29  32
ATOM     32  C   UNL A   1      34.478  31.218  27.588  1.00  0.00     0.039 A 
ATOM     33  C   UNL A   1      35.479  32.167  27.806  1.00  0.00     0.014 A 
ATOM     34  C   UNL A   1      34.696  29.875  27.906  1.00  0.00     0.014 A 
ATOM     35  C   UNL A   1      36.673  31.777  28.414  1.00  0.00     0.010 A 
ATOM     36  C   UNL A   1      35.845  29.510  28.598  1.00  0.00     0.010 A 
ATOM     37  C   UNL A   1      36.850  30.453  28.854  1.00  0.00    -0.014 A 
BRANCH  37  38
ATOM     38  C   UNL A   1      38.070  30.050  29.597  1.00  0.00     0.031 A 
ATOM     39  C   UNL A   1      38.310  30.548  30.997  1.00  0.00     0.074 A 
ATOM     40  C   UNL A   1      39.004  29.297  28.982  1.00  0.00     0.049 A 
ATOM     41  N   UNL A   1      39.307  30.288  31.803  1.00  0.00    -0.248 NA
ATOM     42  C   UNL A   1      37.323  31.487  31.555  1.00  0.00     0.031 C 
ATOM     43  C   UNL A   1      38.950  28.850  27.588  1.00  0.00     0.029 A 
ATOM     44  N   UNL A   1      40.190  28.786  29.446  1.00  0.00    -0.354 N 
ATOM     45  C   UNL A   1      39.084  31.052  32.942  1.00  0.00     0.074 A 
ATOM     46  C   UNL A   1      37.886  31.824  32.705  1.00  0.00     0.031 C 
ATOM     47  C   UNL A   1      40.039  28.112  27.318  1.00  0.00     0.029 A 
ATOM     48  C   UNL A   1      40.874  28.041  28.512  1.00  0.00     0.049 A 
ATOM     49  H   UNL A   1      40.521  28.936  30.361  1.00  0.00     0.167 HD
ATOM     50  C   UNL A   1      39.787  31.078  34.099  1.00  0.00     0.034 A 
ATOM     51  C   UNL A   1      42.033  27.362  28.615  1.00  0.00     0.034 A 
ATOM     52  C   UNL A   1      40.943  30.264  34.355  1.00  0.00     0.049 A 
ATOM     53  C   UNL A   1      42.738  27.323  29.944  1.00  0.00     0.074 A 
ATOM     54  C   UNL A   1      41.672  30.143  35.524  1.00  0.00     0.029 A 
ATOM     55  N   UNL A   1      41.537  29.425  33.424  1.00  0.00    -0.354 N 
ATOM     56  N   UNL A   1      42.410  27.907  31.070  1.00  0.00    -0.248 NA
ATOM     57  C   UNL A   1      43.946  26.489  30.029  1.00  0.00     0.031 C 
ATOM     58  C   UNL A   1      42.712  29.233  35.298  1.00  0.00     0.029 A 
ATOM     59  C   UNL A   1      42.621  28.778  33.993  1.00  0.00     0.049 A 
ATOM     60  H   UNL A   1      41.234  29.307  32.495  1.00  0.00     0.167 HD
ATOM     61  C   UNL A   1      43.344  27.483  32.007  1.00  0.00     0.074 A 
ATOM     62  C   UNL A   1      44.239  26.573  31.321  1.00  0.00     0.031 C 
ATOM     63  C   UNL A   1      43.464  27.828  33.313  1.00  0.00     0.034 A 
BRANCH  50  64
ATOM     64  C   UNL A   1      39.272  31.962  35.205  1.00  0.00     0.023 A 
ATOM     65  C   UNL A   1      38.284  31.465  36.082  1.00  0.00     0.012 A 
ATOM     66  C   UNL A   1      39.784  33.257  35.408  1.00  0.00     0.148 A 
ATOM     67  C   UNL A   1      37.788  32.254  37.118  1.00  0.00     0.002 A 
ATOM     68  C   UNL A   1      39.316  34.022  36.470  1.00  0.00     0.091 A 
ATOM     69  F   UNL A   1      40.704  33.724  34.552  1.00  0.00    -0.205 F 
ATOM     70  C   UNL A   1      38.311  33.527  37.318  1.00  0.00     0.022 A 
BRANCH  68  71
ATOM     71  S   UNL A   1      39.981  35.646  36.860  1.00  0.00     0.127 S 
ATOM     72  O   UNL A   1      39.562  36.422  35.694  1.00  0.00    -0.237 OA
ATOM     73  O   UNL A   1      39.278  35.980  38.098  1.00  0.00    -0.237 OA
ATOM     74  O   UNL A   1      41.418  35.462  37.009  1.00  0.00    -0.744 OA
ENDBRANCH  68  71
ENDBRANCH  50  64
BRANCH  51  75
ATOM     75  C   UNL A   1      42.532  26.566  27.458  1.00  0.00     0.023 A 
ATOM     76  C   UNL A   1      43.389  27.177  26.521  1.00  0.00     0.012 A 
ATOM     77  C   UNL A   1      42.198  25.208  27.297  1.00  0.00     0.148 A 
ATOM     78  C   UNL A   1      43.875  26.462  25.427  1.00  0.00     0.002 A 
ATOM     79  C   UNL A   1      42.729  24.486  26.234  1.00  0.00     0.091 A 
ATOM     80  F   UNL A   1      41.373  24.646  28.192  1.00  0.00    -0.205 F 
ATOM     81  C   UNL A   1      43.555  25.116  25.289  1.00  0.00     0.022 A 
BRANCH  79  82
ATOM     82  S   UNL A   1      42.474  22.717  26.053  1.00  0.00     0.127 S 
ATOM     83  O   UNL A   1      41.017  22.619  26.095  1.00  0.00    -0.237 OA
ATOM     84  O   UNL A   1      43.072  22.455  24.743  1.00  0.00    -0.237 OA
ATOM     85  O   UNL A   1      43.187  22.107  27.167  1.00  0.00    -0.744 OA
ENDBRANCH  79  82
ENDBRANCH  51  75
BRANCH  63  86
ATOM     86  C   UNL A   1      44.580  27.195  34.101  1.00  0.00     0.023 A 
ATOM     87  C   UNL A   1      45.842  27.818  34.149  1.00  0.00     0.012 A 
ATOM     88  C   UNL A   1      44.361  26.017  34.840  1.00  0.00     0.148 A 
ATOM     89  C   UNL A   1      46.881  27.258  34.891  1.00  0.00     0.002 A 
ATOM     90  C   UNL A   1      45.387  25.490  35.616  1.00  0.00     0.091 A 
ATOM     91  F   UNL A   1      43.160  25.424  34.766  1.00  0.00    -0.205 F 
ATOM     92  C   UNL A   1      46.651  26.101  35.633  1.00  0.00     0.022 A 
BRANCH  90  93
ATOM     93  S   UNL A   1      45.138  24.057  36.672  1.00  0.00     0.127 S 
ATOM     94  O   UNL A   1      46.502  23.759  37.100  1.00  0.00    -0.237 OA
ATOM     95  O   UNL A   1      44.270  24.588  37.726  1.00  0.00    -0.237 OA
ATOM     96  O   UNL A   1      44.503  23.054  35.826  1.00  0.00    -0.744 OA
ENDBRANCH  90  93
ENDBRANCH  63  86
ENDBRANCH  37  38
ENDBRANCH  29  32
ENDBRANCH  27  28
ENDBRANCH  26  27
ENDBRANCH  25  26
ENDBRANCH   1  25
TORSDOF 21
ENDMDL
MODEL 2
REMARK VINA RESULT:     -11.3      4.784     10.532
REMARK SMILES CCN(Cc1cccc(C)n1)C(=O)[C@@H]([NH3+])CC(=O)NCCCCNC(=O)c1ccc(-c2c3nc(c(-c4cccc(S(=O)(=O)[O-])c4F)c4ccc([nH]4)c(-c4cccc(S(=O)(=O)[O-])c4F)c4nc(c(-c5cccc(S(=O)(=O)[O-])c5F)c5ccc2[nH]5)C=C4)C=C3)cc1
REMARK SMILES IDX 20 1 19 2 17 3 18 4 16 6 14 7 12 8 13 9 3 10 2 11 1 12 4 13
REMARK SMILES IDX 5 14 6 15 11 16 7 17 9 18 8 19 10 20 15 21 21 25 22 26 23 27
REMARK SMILES IDX 24 28 25 29 26 31 27 32 28 33 89 34 29 35 88 36 30 37 31 38
REMARK SMILES IDX 32 39 82 40 33 41 87 42 81 43 83 44 34 45 86 46 80 47 79 48
REMARK SMILES IDX 35 50 67 51 47 52 66 53 48 54 51 55 65 56 84 57 49 58 50 59
REMARK SMILES IDX 64 61 85 62 52 63 36 64 37 65 45 66 38 67 40 68 46 69 39 70
REMARK SMILES IDX 41 71 42 72 43 73 44 74 68 75 69 76 77 77 70 78 72 79 78 80
REMARK SMILES IDX 71 81 73 82 74 83 75 84 76 85 53 86 54 87 62 88 55 89 57 90
REMARK SMILES IDX 63 91 56 92 58 93 59 94 60 95 61 96
REMARK H PARENT 19 5 15 22 15 23 15 24 24 30 83 49 51 60
REMARK Flexibility Score: inf
ROOT
ATOM      1  C   UNL A   1      34.186  24.999  25.127  1.00  0.00     0.116 C 
ENDROOT
BRANCH   1   2
ATOM      2  N   UNL A   1      33.138  24.274  25.816  1.00  0.00    -0.356 N 
ATOM      3  C   UNL A   1      32.100  24.766  26.548  1.00  0.00     0.226 C 
ATOM      4  O   UNL A   1      31.431  23.993  27.235  1.00  0.00    -0.275 OA
ATOM      5  H   UNL A   1      33.183  23.293  25.747  1.00  0.00     0.163 HD
BRANCH   3   6
ATOM      6  C   UNL A   1      31.742  26.234  26.452  1.00  0.00     0.175 C 
BRANCH   6   7
ATOM      7  C   UNL A   1      30.623  26.523  25.450  1.00  0.00     0.280 C 
BRANCH   7   8
ATOM      8  C   UNL A   1      31.012  26.665  23.944  1.00  0.00     0.281 C 
ATOM      9  O   UNL A   1      31.303  25.615  23.359  1.00  0.00    -0.268 OA
BRANCH   8  10
ATOM     10  N   UNL A   1      31.088  27.903  23.293  1.00  0.00    -0.332 N 
BRANCH  10  11
ATOM     11  C   UNL A   1      32.038  28.935  23.764  1.00  0.00     0.116 C 
ATOM     12  C   UNL A   1      31.767  29.671  25.070  1.00  0.00     0.027 C 
ENDBRANCH  10  11
BRANCH  10  13
ATOM     13  C   UNL A   1      30.145  28.292  22.223  1.00  0.00     0.175 C 
BRANCH  13  14
ATOM     14  C   UNL A   1      29.198  29.471  22.398  1.00  0.00     0.060 A 
ATOM     15  C   UNL A   1      28.628  29.855  23.609  1.00  0.00     0.026 A 
ATOM     16  N   UNL A   1      29.007  30.212  21.272  1.00  0.00    -0.256 NA
ATOM     17  C   UNL A   1      27.752  30.940  23.638  1.00  0.00     0.004 A 
ATOM     18  C   UNL A   1      28.208  31.305  21.328  1.00  0.00     0.038 A 
ATOM     19  C   UNL A   1      27.540  31.682  22.484  1.00  0.00     0.023 A 
ATOM     20  C   UNL A   1      28.165  32.169  20.105  1.00  0.00     0.067 C 
ENDBRANCH  13  14
ENDBRANCH  10  13
ENDBRANCH   8  10
ENDBRANCH   7   8
BRANCH   7  21
ATOM     21  N   UNL A   1      29.522  25.528  25.556  1.00  0.00    -0.347 N 
ATOM     22  H   UNL A   1      29.405  25.254  26.532  1.00  0.00     0.345 HD
ATOM     23  H   UNL A   1      29.751  24.707  24.997  1.00  0.00     0.345 HD
ATOM     24  H   UNL A   1      28.656  25.942  25.214  1.00  0.00     0.345 HD
ENDBRANCH   7  21
ENDBRANCH   6   7
ENDBRANCH   3   6
ENDBRANCH   1   2
BRANCH   1  25
ATOM     25  C   UNL A   1      35.201  24.017  24.545  1.00  0.00     0.023 C 
BRANCH  25  26
ATOM     26  C   UNL A   1      35.074  22.589  25.055  1.00  0.00     0.023 C 
BRANCH  26  27
ATOM     27  C   UNL A   1      36.050  22.229  26.164  1.00  0.00     0.116 C 
BRANCH  27  28
ATOM     28  N   UNL A   1      37.099  21.300  25.761  1.00  0.00    -0.352 N 
ATOM     29  C   UNL A   1      38.460  21.445  25.897  1.00  0.00     0.251 C 
ATOM     30  H   UNL A   1      36.796  20.465  25.340  1.00  0.00     0.163 HD
ATOM     31  O   UNL A   1      39.219  20.580  25.467  1.00  0.00    -0.269 OA
BRANCH  29  32
ATOM     32  C   UNL A   1      38.993  22.679  26.514  1.00  0.00     0.039 A 
ATOM     33  C   UNL A   1      40.090  22.582  27.373  1.00  0.00     0.014 A 
ATOM     34  C   UNL A   1      38.469  23.929  26.177  1.00  0.00     0.014 A 
ATOM     35  C   UNL A   1      40.707  23.747  27.832  1.00  0.00     0.010 A 
ATOM     36  C   UNL A   1      39.143  25.084  26.556  1.00  0.00     0.010 A 
ATOM     37  C   UNL A   1      40.265  25.008  27.394  1.00  0.00    -0.014 A 
BRANCH  37  38
ATOM     38  C   UNL A   1      40.976  26.249  27.790  1.00  0.00     0.031 A 
ATOM     39  C   UNL A   1      42.398  26.484  27.353  1.00  0.00     0.074 A 
ATOM     40  C   UNL A   1      40.370  27.130  28.610  1.00  0.00     0.049 A 
ATOM     41  N   UNL A   1      43.170  27.514  27.587  1.00  0.00    -0.248 NA
ATOM     42  C   UNL A   1      43.051  25.413  26.583  1.00  0.00     0.031 C 
ATOM     43  C   UNL A   1      39.040  26.962  29.201  1.00  0.00     0.029 A 
ATOM     44  N   UNL A   1      40.798  28.339  29.100  1.00  0.00    -0.354 N 
ATOM     45  C   UNL A   1      44.402  27.201  27.026  1.00  0.00     0.074 A 
ATOM     46  C   UNL A   1      44.291  25.866  26.483  1.00  0.00     0.031 C 
ATOM     47  C   UNL A   1      38.753  28.037  29.953  1.00  0.00     0.029 A 
ATOM     48  C   UNL A   1      39.877  28.965  29.908  1.00  0.00     0.049 A 
ATOM     49  H   UNL A   1      41.681  28.721  28.893  1.00  0.00     0.167 HD
ATOM     50  C   UNL A   1      45.513  27.969  26.930  1.00  0.00     0.034 A 
ATOM     51  C   UNL A   1      39.927  30.162  30.525  1.00  0.00     0.034 A 
ATOM     52  C   UNL A   1      45.600  29.318  27.417  1.00  0.00     0.049 A 
ATOM     53  C   UNL A   1      41.132  31.039  30.315  1.00  0.00     0.074 A 
ATOM     54  C   UNL A   1      46.644  30.216  27.288  1.00  0.00     0.029 A 
ATOM     55  N   UNL A   1      44.600  29.966  28.124  1.00  0.00    -0.354 N 
ATOM     56  N   UNL A   1      42.217  30.798  29.621  1.00  0.00    -0.248 NA
ATOM     57  C   UNL A   1      41.095  32.374  30.930  1.00  0.00     0.031 C 
ATOM     58  C   UNL A   1      46.276  31.408  27.923  1.00  0.00     0.029 A 
ATOM     59  C   UNL A   1      44.997  31.255  28.434  1.00  0.00     0.049 A 
ATOM     60  H   UNL A   1      43.734  29.569  28.371  1.00  0.00     0.167 HD
ATOM     61  C   UNL A   1      42.975  31.961  29.683  1.00  0.00     0.074 A 
ATOM     62  C   UNL A   1      42.213  32.915  30.462  1.00  0.00     0.031 C 
ATOM     63  C   UNL A   1      44.201  32.213  29.158  1.00  0.00     0.034 A 
BRANCH  50  64
ATOM     64  C   UNL A   1      46.697  27.391  26.200  1.00  0.00     0.023 A 
ATOM     65  C   UNL A   1      46.775  27.524  24.797  1.00  0.00     0.012 A 
ATOM     66  C   UNL A   1      47.746  26.756  26.891  1.00  0.00     0.148 A 
ATOM     67  C   UNL A   1      47.858  27.004  24.090  1.00  0.00     0.002 A 
ATOM     68  C   UNL A   1      48.844  26.279  26.184  1.00  0.00     0.091 A 
ATOM     69  F   UNL A   1      47.645  26.615  28.220  1.00  0.00    -0.205 F 
ATOM     70  C   UNL A   1      48.896  26.391  24.784  1.00  0.00     0.022 A 
BRANCH  68  71
ATOM     71  S   UNL A   1      50.270  25.543  26.993  1.00  0.00     0.127 S 
ATOM     72  O   UNL A   1      51.160  25.301  25.858  1.00  0.00    -0.237 OA
ATOM     73  O   UNL A   1      50.704  26.613  27.891  1.00  0.00    -0.237 OA
ATOM     74  O   UNL A   1      49.774  24.351  27.667  1.00  0.00    -0.744 OA
ENDBRANCH  68  71
ENDBRANCH  50  64
BRANCH  51  75
ATOM     75  C   UNL A   1      38.750  30.648  31.299  1.00  0.00     0.023 A 
ATOM     76  C   UNL A   1      38.743  30.508  32.702  1.00  0.00     0.012 A 
ATOM     77  C   UNL A   1      37.659  31.275  30.668  1.00  0.00     0.148 A 
ATOM     78  C   UNL A   1      37.658  30.952  33.457  1.00  0.00     0.002 A 
ATOM     79  C   UNL A   1      36.605  31.763  31.432  1.00  0.00     0.091 A 
ATOM     80  F   UNL A   1      37.678  31.389  29.332  1.00  0.00    -0.205 F 
ATOM     81  C   UNL A   1      36.595  31.588  32.825  1.00  0.00     0.022 A 
BRANCH  79  82
ATOM     82  S   UNL A   1      35.258  32.711  30.714  1.00  0.00     0.127 S 
ATOM     83  O   UNL A   1      34.316  32.783  31.829  1.00  0.00    -0.237 OA
ATOM     84  O   UNL A   1      35.918  33.974  30.381  1.00  0.00    -0.237 OA
ATOM     85  O   UNL A   1      34.818  31.944  29.557  1.00  0.00    -0.744 OA
ENDBRANCH  79  82
ENDBRANCH  51  75
BRANCH  63  86
ATOM     86  C   UNL A   1      44.782  33.584  29.375  1.00  0.00     0.023 A 
ATOM     87  C   UNL A   1      45.454  33.876  30.579  1.00  0.00     0.012 A 
ATOM     88  C   UNL A   1      44.716  34.563  28.366  1.00  0.00     0.148 A 
ATOM     89  C   UNL A   1      46.018  35.133  30.789  1.00  0.00     0.002 A 
ATOM     90  C   UNL A   1      45.322  35.799  28.564  1.00  0.00     0.091 A 
ATOM     91  F   UNL A   1      44.053  34.277  27.235  1.00  0.00    -0.205 F 
ATOM     92  C   UNL A   1      45.962  36.090  29.778  1.00  0.00     0.022 A 
BRANCH  90  93
ATOM     93  S   UNL A   1      45.372  37.047  27.272  1.00  0.00     0.127 S 
ATOM     94  O   UNL A   1      43.953  37.321  27.063  1.00  0.00    -0.237 OA
ATOM     95  O   UNL A   1      46.117  38.134  27.911  1.00  0.00    -0.237 OA
ATOM     96  O   UNL A   1      46.070  36.424  26.153  1.00  0.00    -0.744 OA
ENDBRANCH  90  93
ENDBRANCH  63  86
ENDBRANCH  37  38
ENDBRANCH  29  32
ENDBRANCH  27  28
ENDBRANCH  26  27
ENDBRANCH  25  26
ENDBRANCH   1  25
TORSDOF 21
ENDMDL
MODEL 3
REMARK VINA RESULT:     -11.2      1.240      2.350
REMARK SMILES CCN(Cc1cccc(C)n1)C(=O)[C@@H]([NH3+])CC(=O)NCCCCNC(=O)c1ccc(-c2c3nc(c(-c4cccc(S(=O)(=O)[O-])c4F)c4ccc([nH]4)c(-c4cccc(S(=O)(=O)[O-])c4F)c4nc(c(-c5cccc(S(=O)(=O)[O-])c5F)c5ccc2[nH]5)C=C4)C=C3)cc1
REMARK SMILES IDX 20 1 19 2 17 3 18 4 16 6 14 7 12 8 13 9 3 10 2 11 1 12 4 13
REMARK SMILES IDX 5 14 6 15 11 16 7 17 9 18 8 19 10 20 15 21 21 25 22 26 23 27
REMARK SMILES IDX 24 28 25 29 26 31 27 32 28 33 89 34 29 35 88 36 30 37 31 38
REMARK SMILES IDX 32 39 82 40 33 41 87 42 81 43 83 44 34 45 86 46 80 47 79 48
REMARK SMILES IDX 35 50 67 51 47 52 66 53 48 54 51 55 65 56 84 57 49 58 50 59
REMARK SMILES IDX 64 61 85 62 52 63 36 64 37 65 45 66 38 67 40 68 46 69 39 70
REMARK SMILES IDX 41 71 42 72 43 73 44 74 68 75 69 76 77 77 70 78 72 79 78 80
REMARK SMILES IDX 71 81 73 82 74 83 75 84 76 85 53 86 54 87 62 88 55 89 57 90
REMARK SMILES IDX 63 91 56 92 58 93 59 94 60 95 61 96
REMARK H PARENT 19 5 15 22 15 23 15 24 24 30 83 49 51 60
REMARK Flexibility Score: inf
ROOT
ATOM      1  C   UNL A   1      31.000  28.172  23.024  1.00  0.00     0.116 C 
ENDROOT
BRANCH   1   2
ATOM      2  N   UNL A   1      32.163  28.234  22.163  1.00  0.00    -0.356 N 
ATOM      3  C   UNL A   1      33.357  27.592  22.297  1.00  0.00     0.226 C 
ATOM      4  O   UNL A   1      34.303  27.930  21.584  1.00  0.00    -0.275 OA
ATOM      5  H   UNL A   1      32.080  28.819  21.376  1.00  0.00     0.163 HD
BRANCH   3   6
ATOM      6  C   UNL A   1      33.485  26.435  23.265  1.00  0.00     0.175 C 
BRANCH   6   7
ATOM      7  C   UNL A   1      33.497  25.067  22.580  1.00  0.00     0.280 C 
BRANCH   7   8
ATOM      8  C   UNL A   1      34.306  23.918  23.260  1.00  0.00     0.281 C 
ATOM      9  O   UNL A   1      35.372  23.609  22.713  1.00  0.00    -0.268 OA
BRANCH   8  10
ATOM     10  N   UNL A   1      33.843  23.228  24.387  1.00  0.00    -0.332 N 
BRANCH  10  11
ATOM     11  C   UNL A   1      33.540  21.783  24.303  1.00  0.00     0.116 C 
ATOM     12  C   UNL A   1      32.343  21.307  23.490  1.00  0.00     0.027 C 
ENDBRANCH  10  11
BRANCH  10  13
ATOM     13  C   UNL A   1      33.496  23.917  25.649  1.00  0.00     0.175 C 
BRANCH  13  14
ATOM     14  C   UNL A   1      32.059  24.305  25.966  1.00  0.00     0.060 A 
ATOM     15  C   UNL A   1      31.477  25.526  25.636  1.00  0.00     0.026 A 
ATOM     16  N   UNL A   1      31.320  23.311  26.531  1.00  0.00    -0.256 NA
ATOM     17  C   UNL A   1      30.155  25.775  26.004  1.00  0.00     0.004 A 
ATOM     18  C   UNL A   1      30.016  23.541  26.821  1.00  0.00     0.038 A 
ATOM     19  C   UNL A   1      29.408  24.768  26.601  1.00  0.00     0.023 A 
ATOM     20  C   UNL A   1      29.215  22.365  27.290  1.00  0.00     0.067 C 
ENDBRANCH  13  14
ENDBRANCH  10  13
ENDBRANCH   8  10
ENDBRANCH   7   8
BRANCH   7  21
ATOM     21  N   UNL A   1      32.119  24.575  22.316  1.00  0.00    -0.347 N 
ATOM     22  H   UNL A   1      32.088  23.564  22.449  1.00  0.00     0.345 HD
ATOM     23  H   UNL A   1      31.854  24.801  21.358  1.00  0.00     0.345 HD
ATOM     24  H   UNL A   1      31.469  25.021  22.963  1.00  0.00     0.345 HD
ENDBRANCH   7  21
ENDBRANCH   6   7
ENDBRANCH   3   6
ENDBRANCH   1   2
BRANCH   1  25
ATOM     25  C   UNL A   1      31.034  29.326  24.025  1.00  0.00     0.023 C 
BRANCH  25  26
ATOM     26  C   UNL A   1      31.650  28.984  25.373  1.00  0.00     0.023 C 
BRANCH  26  27
ATOM     27  C   UNL A   1      32.840  29.851  25.758  1.00  0.00     0.116 C 
BRANCH  27  28
ATOM     28  N   UNL A   1      32.481  31.139  26.338  1.00  0.00    -0.352 N 
ATOM     29  C   UNL A   1      33.205  31.904  27.223  1.00  0.00     0.251 C 
ATOM     30  H   UNL A   1      31.612  31.508  26.062  1.00  0.00     0.163 HD
ATOM     31  O   UNL A   1      32.741  32.958  27.651  1.00  0.00    -0.269 OA
BRANCH  29  32
ATOM     32  C   UNL A   1      34.518  31.411  27.690  1.00  0.00     0.039 A 
ATOM     33  C   UNL A   1      35.554  32.329  27.874  1.00  0.00     0.014 A 
ATOM     34  C   UNL A   1      34.696  30.068  28.029  1.00  0.00     0.014 A 
ATOM     35  C   UNL A   1      36.745  31.909  28.470  1.00  0.00     0.010 A 
ATOM     36  C   UNL A   1      35.844  29.675  28.709  1.00  0.00     0.010 A 
ATOM     37  C   UNL A   1      36.884  30.588  28.931  1.00  0.00    -0.014 A 
BRANCH  37  38
ATOM     38  C   UNL A   1      38.103  30.156  29.660  1.00  0.00     0.031 A 
ATOM     39  C   UNL A   1      38.360  30.634  31.064  1.00  0.00     0.074 A 
ATOM     40  C   UNL A   1      39.020  29.395  29.030  1.00  0.00     0.049 A 
ATOM     41  N   UNL A   1      39.358  30.347  31.860  1.00  0.00    -0.248 NA
ATOM     42  C   UNL A   1      37.393  31.582  31.640  1.00  0.00     0.031 C 
ATOM     43  C   UNL A   1      38.949  28.964  27.631  1.00  0.00     0.029 A 
ATOM     44  N   UNL A   1      40.201  28.858  29.480  1.00  0.00    -0.354 N 
ATOM     45  C   UNL A   1      39.156  31.102  33.009  1.00  0.00     0.074 A 
ATOM     46  C   UNL A   1      37.969  31.896  32.790  1.00  0.00     0.031 C 
ATOM     47  C   UNL A   1      40.024  28.212  27.345  1.00  0.00     0.029 A 
ATOM     48  C   UNL A   1      40.866  28.114  28.533  1.00  0.00     0.049 A 
ATOM     49  H   UNL A   1      40.540  28.993  30.394  1.00  0.00     0.167 HD
ATOM     50  C   UNL A   1      39.867  31.103  34.162  1.00  0.00     0.034 A 
ATOM     51  C   UNL A   1      42.014  27.414  28.619  1.00  0.00     0.034 A 
ATOM     52  C   UNL A   1      41.011  30.267  34.400  1.00  0.00     0.049 A 
ATOM     53  C   UNL A   1      42.728  27.349  29.943  1.00  0.00     0.074 A 
ATOM     54  C   UNL A   1      41.746  30.121  35.562  1.00  0.00     0.029 A 
ATOM     55  N   UNL A   1      41.585  29.430  33.456  1.00  0.00    -0.354 N 
ATOM     56  N   UNL A   1      42.416  27.925  31.078  1.00  0.00    -0.248 NA
ATOM     57  C   UNL A   1      43.922  26.494  30.011  1.00  0.00     0.031 C 
ATOM     58  C   UNL A   1      42.769  29.197  35.319  1.00  0.00     0.029 A 
ATOM     59  C   UNL A   1      42.661  28.758  34.009  1.00  0.00     0.049 A 
ATOM     60  H   UNL A   1      41.274  29.328  32.528  1.00  0.00     0.167 HD
ATOM     61  C   UNL A   1      43.350  27.474  32.003  1.00  0.00     0.074 A 
ATOM     62  C   UNL A   1      44.224  26.558  31.301  1.00  0.00     0.031 C 
ATOM     63  C   UNL A   1      43.484  27.803  33.313  1.00  0.00     0.034 A 
BRANCH  50  64
ATOM     64  C   UNL A   1      39.374  31.982  35.282  1.00  0.00     0.023 A 
ATOM     65  C   UNL A   1      38.434  31.468  36.199  1.00  0.00     0.012 A 
ATOM     66  C   UNL A   1      39.862  33.291  35.456  1.00  0.00     0.148 A 
ATOM     67  C   UNL A   1      37.959  32.253  37.249  1.00  0.00     0.002 A 
ATOM     68  C   UNL A   1      39.417  34.053  36.530  1.00  0.00     0.091 A 
ATOM     69  F   UNL A   1      40.736  33.774  34.561  1.00  0.00    -0.205 F 
ATOM     70  C   UNL A   1      38.458  33.540  37.421  1.00  0.00     0.022 A 
BRANCH  68  71
ATOM     71  S   UNL A   1      40.057  35.695  36.883  1.00  0.00     0.127 S 
ATOM     72  O   UNL A   1      39.369  36.016  38.133  1.00  0.00    -0.237 OA
ATOM     73  O   UNL A   1      41.491  35.445  37.023  1.00  0.00    -0.237 OA
ATOM     74  O   UNL A   1      39.695  36.517  35.737  1.00  0.00    -0.744 OA
ENDBRANCH  68  71
ENDBRANCH  50  64
BRANCH  51  75
ATOM     75  C   UNL A   1      42.492  26.623  27.450  1.00  0.00     0.023 A 
ATOM     76  C   UNL A   1      43.314  27.246  26.488  1.00  0.00     0.012 A 
ATOM     77  C   UNL A   1      42.172  25.261  27.300  1.00  0.00     0.148 A 
ATOM     78  C   UNL A   1      43.779  26.536  25.382  1.00  0.00     0.002 A 
ATOM     79  C   UNL A   1      42.684  24.545  26.223  1.00  0.00     0.091 A 
ATOM     80  F   UNL A   1      41.381  24.689  28.219  1.00  0.00    -0.205 F 
ATOM     81  C   UNL A   1      43.474  25.185  25.255  1.00  0.00     0.022 A 
BRANCH  79  82
ATOM     82  S   UNL A   1      42.450  22.773  26.051  1.00  0.00     0.127 S 
ATOM     83  O   UNL A   1      43.017  22.522  24.729  1.00  0.00    -0.237 OA
ATOM     84  O   UNL A   1      43.237  22.251  27.169  1.00  0.00    -0.237 OA
ATOM     85  O   UNL A   1      41.015  22.556  26.180  1.00  0.00    -0.744 OA
ENDBRANCH  79  82
ENDBRANCH  51  75
BRANCH  63  86
ATOM     86  C   UNL A   1      44.595  27.142  34.086  1.00  0.00     0.023 A 
ATOM     87  C   UNL A   1      45.887  27.703  34.070  1.00  0.00     0.012 A 
ATOM     88  C   UNL A   1      44.345  26.002  34.873  1.00  0.00     0.148 A 
ATOM     89  C   UNL A   1      46.922  27.117  34.796  1.00  0.00     0.002 A 
ATOM     90  C   UNL A   1      45.371  25.452  35.633  1.00  0.00     0.091 A 
ATOM     91  F   UNL A   1      43.115  25.467  34.860  1.00  0.00    -0.205 F 
ATOM     92  C   UNL A   1      46.663  26.000  35.586  1.00  0.00     0.022 A 
BRANCH  90  93
ATOM     93  S   UNL A   1      45.089  24.070  36.747  1.00  0.00     0.127 S 
ATOM     94  O   UNL A   1      44.486  23.083  35.855  1.00  0.00    -0.237 OA
ATOM     95  O   UNL A   1      46.445  23.742  37.194  1.00  0.00    -0.237 OA
ATOM     96  O   UNL A   1      44.223  24.587  37.800  1.00  0.00    -0.744 OA
ENDBRANCH  90  93
ENDBRANCH  63  86
ENDBRANCH  37  38
ENDBRANCH  29  32
ENDBRANCH  27  28
ENDBRANCH  26  27
ENDBRANCH  25  26
ENDBRANCH   1  25
TORSDOF 21
ENDMDL
