MODEL 1
REMARK VINA RESULT:     -11.0      0.000      0.000
REMARK SMILES C/C(=C\C(=O)c1c(O)n(C)c2ccccc2c1=O)Nc1ccc(C(=O)NCCCCNC(=O)c2ccc(-c3c4nc(c(-c5cccc(S(=O)(=O)[O-])c5F)c5ccc([nH]5)c(-c5cccc(S(=O)(=O)[O-])c5F)c5nc(c(-c6cccc(S(=O)(=O)[O-])c6F)c6ccc3[nH]6)C=C5)C=C4)cc2)cc1
REMARK SMILES IDX 27 1 26 2 24 3 25 4 23 6 20 7 21 8 98 9 22 10 97 11 19 12
REMARK SMILES IDX 2 14 1 15 3 16 4 17 5 18 6 19 7 20 17 21 9 22 16 23 18 24
REMARK SMILES IDX 10 25 11 26 15 27 12 28 14 29 13 30 8 31 28 33 29 34 30 35
REMARK SMILES IDX 31 36 32 37 33 39 34 40 35 41 96 42 36 43 95 44 37 45 38 46
REMARK SMILES IDX 39 47 89 48 40 49 94 50 88 51 90 52 41 53 93 54 87 55 86 56
REMARK SMILES IDX 42 58 74 59 54 60 73 61 55 62 58 63 72 64 91 65 56 66 57 67
REMARK SMILES IDX 71 69 92 70 59 71 43 72 44 73 52 74 45 75 47 76 53 77 46 78
REMARK SMILES IDX 48 79 49 80 50 81 51 82 75 83 76 84 84 85 77 86 79 87 85 88
REMARK SMILES IDX 78 89 80 90 81 91 82 92 83 93 60 94 61 95 69 96 62 97 64 98
REMARK SMILES IDX 70 99 63 100 65 101 66 102 67 103 68 104
REMARK H PARENT 26 5 19 13 8 32 31 38 90 57 58 68
REMARK Flexibility Score: inf
ROOT
ATOM      1  C   UNL A   1      35.911  23.588  25.847  1.00  0.00     0.116 C 
ENDROOT
BRANCH   1   2
ATOM      2  N   UNL A   1      35.354  22.374  26.410  1.00  0.00    -0.352 N 
ATOM      3  C   UNL A   1      34.208  21.681  26.110  1.00  0.00     0.251 C 
ATOM      4  O   UNL A   1      34.009  20.611  26.684  1.00  0.00    -0.269 OA
ATOM      5  H   UNL A   1      35.892  21.976  27.132  1.00  0.00     0.163 HD
BRANCH   3   6
ATOM      6  C   UNL A   1      33.159  22.217  25.201  1.00  0.00     0.039 A 
ATOM      7  C   UNL A   1      31.188  23.599  23.702  1.00  0.00     0.038 A 
ATOM      8  C   UNL A   1      30.992  23.299  25.050  1.00  0.00     0.027 A 
ATOM      9  C   UNL A   1      32.326  23.058  23.084  1.00  0.00     0.027 A 
ATOM     10  C   UNL A   1      31.969  22.636  25.797  1.00  0.00     0.016 A 
ATOM     11  C   UNL A   1      33.285  22.343  23.817  1.00  0.00     0.016 A 
BRANCH   7  12
ATOM     12  N   UNL A   1      30.388  24.508  22.969  1.00  0.00    -0.359 N 
ATOM     13  H   UNL A   1      29.934  24.140  22.177  1.00  0.00     0.166 HD
BRANCH  12  14
ATOM     14  C   UNL A   1      30.161  25.869  23.233  1.00  0.00     0.016 C 
ATOM     15  C   UNL A   1      29.051  26.225  24.193  1.00  0.00     0.064 C 
ATOM     16  C   UNL A   1      30.935  26.801  22.627  1.00  0.00     0.074 C 
BRANCH  16  17
ATOM     17  C   UNL A   1      31.068  28.288  22.800  1.00  0.00     0.196 C 
ATOM     18  O   UNL A   1      30.867  29.020  21.833  1.00  0.00    -0.289 OA
BRANCH  17  19
ATOM     19  C   UNL A   1      31.618  28.833  24.056  1.00  0.00     0.130 A 
ATOM     20  C   UNL A   1      31.045  29.899  24.650  1.00  0.00     0.206 A 
ATOM     21  C   UNL A   1      32.881  28.297  24.610  1.00  0.00     0.204 A 
ATOM     22  N   UNL A   1      31.639  30.607  25.691  1.00  0.00    -0.315 N 
ATOM     23  C   UNL A   1      33.455  28.976  25.794  1.00  0.00     0.047 A 
ATOM     24  O   UNL A   1      33.464  27.353  24.085  1.00  0.00    -0.288 OA
ATOM     25  C   UNL A   1      31.156  31.931  26.103  1.00  0.00     0.153 C 
ATOM     26  C   UNL A   1      32.829  30.133  26.295  1.00  0.00     0.055 A 
ATOM     27  C   UNL A   1      34.640  28.475  26.355  1.00  0.00     0.014 A 
ATOM     28  C   UNL A   1      33.443  30.762  27.393  1.00  0.00     0.027 A 
ATOM     29  C   UNL A   1      35.224  29.123  27.439  1.00  0.00     0.001 A 
ATOM     30  C   UNL A   1      34.625  30.266  27.956  1.00  0.00     0.002 A 
BRANCH  20  31
ATOM     31  O   UNL A   1      29.825  30.396  24.224  1.00  0.00    -0.494 OA
ATOM     32  H   UNL A   1      29.219  30.746  24.846  1.00  0.00     0.295 HD
ENDBRANCH  20  31
ENDBRANCH  17  19
ENDBRANCH  16  17
ENDBRANCH  12  14
ENDBRANCH   7  12
ENDBRANCH   3   6
ENDBRANCH   1   2
BRANCH   1  33
ATOM     33  C   UNL A   1      37.435  23.620  25.761  1.00  0.00     0.023 C 
BRANCH  33  34
ATOM     34  C   UNL A   1      38.146  22.284  25.579  1.00  0.00     0.023 C 
BRANCH  34  35
ATOM     35  C   UNL A   1      39.294  21.993  26.536  1.00  0.00     0.116 C 
BRANCH  35  36
ATOM     36  N   UNL A   1      40.601  21.940  25.897  1.00  0.00    -0.352 N 
ATOM     37  C   UNL A   1      41.588  22.903  25.828  1.00  0.00     0.251 C 
ATOM     38  H   UNL A   1      40.813  21.090  25.448  1.00  0.00     0.163 HD
ATOM     39  O   UNL A   1      42.612  22.691  25.193  1.00  0.00    -0.269 OA
BRANCH  37  40
ATOM     40  C   UNL A   1      41.359  24.216  26.472  1.00  0.00     0.039 A 
ATOM     41  C   UNL A   1      41.111  25.350  25.699  1.00  0.00     0.014 A 
ATOM     42  C   UNL A   1      41.516  24.326  27.855  1.00  0.00     0.014 A 
ATOM     43  C   UNL A   1      41.268  26.608  26.270  1.00  0.00     0.010 A 
ATOM     44  C   UNL A   1      41.574  25.592  28.443  1.00  0.00     0.010 A 
ATOM     45  C   UNL A   1      41.539  26.744  27.642  1.00  0.00    -0.014 A 
BRANCH  45  46
ATOM     46  C   UNL A   1      41.854  28.088  28.200  1.00  0.00     0.031 A 
ATOM     47  C   UNL A   1      40.757  28.974  28.741  1.00  0.00     0.074 A 
ATOM     48  C   UNL A   1      43.136  28.493  28.278  1.00  0.00     0.049 A 
ATOM     49  N   UNL A   1      40.850  30.170  29.264  1.00  0.00    -0.248 NA
ATOM     50  C   UNL A   1      39.377  28.459  28.688  1.00  0.00     0.031 C 
ATOM     51  C   UNL A   1      44.290  27.738  27.787  1.00  0.00     0.029 A 
ATOM     52  N   UNL A   1      43.686  29.630  28.812  1.00  0.00    -0.354 N 
ATOM     53  C   UNL A   1      39.550  30.569  29.547  1.00  0.00     0.074 A 
ATOM     54  C   UNL A   1      38.678  29.489  29.145  1.00  0.00     0.031 C 
ATOM     55  C   UNL A   1      45.412  28.409  28.081  1.00  0.00     0.029 A 
ATOM     56  C   UNL A   1      45.058  29.667  28.733  1.00  0.00     0.049 A 
ATOM     57  H   UNL A   1      43.150  30.351  29.215  1.00  0.00     0.167 HD
ATOM     58  C   UNL A   1      39.119  31.723  30.111  1.00  0.00     0.034 A 
ATOM     59  C   UNL A   1      45.938  30.608  29.126  1.00  0.00     0.034 A 
ATOM     60  C   UNL A   1      39.984  32.764  30.594  1.00  0.00     0.049 A 
ATOM     61  C   UNL A   1      45.435  31.862  29.778  1.00  0.00     0.074 A 
ATOM     62  C   UNL A   1      39.633  33.939  31.236  1.00  0.00     0.029 A 
ATOM     63  N   UNL A   1      41.365  32.752  30.504  1.00  0.00    -0.354 N 
ATOM     64  N   UNL A   1      44.206  32.187  30.094  1.00  0.00    -0.248 NA
ATOM     65  C   UNL A   1      46.438  32.877  30.134  1.00  0.00     0.031 C 
ATOM     66  C   UNL A   1      40.806  34.638  31.537  1.00  0.00     0.029 A 
ATOM     67  C   UNL A   1      41.883  33.899  31.078  1.00  0.00     0.049 A 
ATOM     68  H   UNL A   1      41.900  32.034  30.092  1.00  0.00     0.167 HD
ATOM     69  C   UNL A   1      44.285  33.442  30.684  1.00  0.00     0.074 A 
ATOM     70  C   UNL A   1      45.687  33.807  30.711  1.00  0.00     0.031 C 
ATOM     71  C   UNL A   1      43.281  34.230  31.137  1.00  0.00     0.034 A 
BRANCH  58  72
ATOM     72  C   UNL A   1      37.640  31.913  30.302  1.00  0.00     0.023 A 
ATOM     73  C   UNL A   1      37.013  31.337  31.423  1.00  0.00     0.012 A 
ATOM     74  C   UNL A   1      36.902  32.755  29.446  1.00  0.00     0.148 A 
ATOM     75  C   UNL A   1      35.668  31.594  31.690  1.00  0.00     0.002 A 
ATOM     76  C   UNL A   1      35.570  33.025  29.732  1.00  0.00     0.091 A 
ATOM     77  F   UNL A   1      37.522  33.281  28.380  1.00  0.00    -0.205 F 
ATOM     78  C   UNL A   1      34.951  32.444  30.852  1.00  0.00     0.022 A 
BRANCH  76  79
ATOM     79  S   UNL A   1      34.567  34.146  28.748  1.00  0.00     0.127 S 
ATOM     80  O   UNL A   1      35.037  35.449  29.219  1.00  0.00    -0.237 OA
ATOM     81  O   UNL A   1      34.975  33.805  27.386  1.00  0.00    -0.237 OA
ATOM     82  O   UNL A   1      33.182  33.837  29.070  1.00  0.00    -0.744 OA
ENDBRANCH  76  79
ENDBRANCH  58  72
BRANCH  59  83
ATOM     83  C   UNL A   1      47.393  30.362  28.940  1.00  0.00     0.023 A 
ATOM     84  C   UNL A   1      48.031  30.846  27.784  1.00  0.00     0.012 A 
ATOM     85  C   UNL A   1      48.156  29.730  29.941  1.00  0.00     0.148 A 
ATOM     86  C   UNL A   1      49.409  30.704  27.626  1.00  0.00     0.002 A 
ATOM     87  C   UNL A   1      49.535  29.635  29.799  1.00  0.00     0.091 A 
ATOM     88  F   UNL A   1      47.520  29.264  31.024  1.00  0.00    -0.205 F 
ATOM     89  C   UNL A   1      50.162  30.113  28.637  1.00  0.00     0.022 A 
BRANCH  87  90
ATOM     90  S   UNL A   1      50.594  29.008  31.106  1.00  0.00     0.127 S 
ATOM     91  O   UNL A   1      50.189  27.606  31.171  1.00  0.00    -0.237 OA
ATOM     92  O   UNL A   1      51.928  29.239  30.550  1.00  0.00    -0.237 OA
ATOM     93  O   UNL A   1      50.287  29.811  32.280  1.00  0.00    -0.744 OA
ENDBRANCH  87  90
ENDBRANCH  59  83
BRANCH  71  94
ATOM     94  C   UNL A   1      43.643  35.578  31.691  1.00  0.00     0.023 A 
ATOM     95  C   UNL A   1      43.813  36.656  30.801  1.00  0.00     0.012 A 
ATOM     96  C   UNL A   1      43.697  35.804  33.080  1.00  0.00     0.148 A 
ATOM     97  C   UNL A   1      44.039  37.943  31.286  1.00  0.00     0.002 A 
ATOM     98  C   UNL A   1      43.894  37.094  33.556  1.00  0.00     0.091 A 
ATOM     99  F   UNL A   1      43.542  34.757  33.903  1.00  0.00    -0.205 F 
ATOM    100  C   UNL A   1      44.069  38.164  32.662  1.00  0.00     0.022 A 
BRANCH  98 101
ATOM    101  S   UNL A   1      43.877  37.491  35.308  1.00  0.00     0.127 S 
ATOM    102  O   UNL A   1      42.543  37.039  35.702  1.00  0.00    -0.237 OA
ATOM    103  O   UNL A   1      44.976  36.675  35.824  1.00  0.00    -0.237 OA
ATOM    104  O   UNL A   1      44.097  38.929  35.397  1.00  0.00    -0.744 OA
ENDBRANCH  98 101
ENDBRANCH  71  94
ENDBRANCH  45  46
ENDBRANCH  37  40
ENDBRANCH  35  36
ENDBRANCH  34  35
ENDBRANCH  33  34
ENDBRANCH   1  33
TORSDOF 19
ENDMDL
MODEL 2
REMARK VINA RESULT:     -10.8      4.885      7.589
REMARK SMILES C/C(=C\C(=O)c1c(O)n(C)c2ccccc2c1=O)Nc1ccc(C(=O)NCCCCNC(=O)c2ccc(-c3c4nc(c(-c5cccc(S(=O)(=O)[O-])c5F)c5ccc([nH]5)c(-c5cccc(S(=O)(=O)[O-])c5F)c5nc(c(-c6cccc(S(=O)(=O)[O-])c6F)c6ccc3[nH]6)C=C5)C=C4)cc2)cc1
REMARK SMILES IDX 27 1 26 2 24 3 25 4 23 6 20 7 21 8 98 9 22 10 97 11 19 12
REMARK SMILES IDX 2 14 1 15 3 16 4 17 5 18 6 19 7 20 17 21 9 22 16 23 18 24
REMARK SMILES IDX 10 25 11 26 15 27 12 28 14 29 13 30 8 31 28 33 29 34 30 35
REMARK SMILES IDX 31 36 32 37 33 39 34 40 35 41 96 42 36 43 95 44 37 45 38 46
REMARK SMILES IDX 39 47 89 48 40 49 94 50 88 51 90 52 41 53 93 54 87 55 86 56
REMARK SMILES IDX 42 58 74 59 54 60 73 61 55 62 58 63 72 64 91 65 56 66 57 67
REMARK SMILES IDX 71 69 92 70 59 71 43 72 44 73 52 74 45 75 47 76 53 77 46 78
REMARK SMILES IDX 48 79 49 80 50 81 51 82 75 83 76 84 84 85 77 86 79 87 85 88
REMARK SMILES IDX 78 89 80 90 81 91 82 92 83 93 60 94 61 95 69 96 62 97 64 98
REMARK SMILES IDX 70 99 63 100 65 101 66 102 67 103 68 104
REMARK H PARENT 26 5 19 13 8 32 31 38 90 57 58 68
REMARK Flexibility Score: inf
ROOT
ATOM      1  C   UNL A   1      43.097  22.678  24.981  1.00  0.00     0.116 C 
ENDROOT
BRANCH   1   2
ATOM      2  N   UNL A   1      42.263  21.755  25.726  1.00  0.00    -0.352 N 
ATOM      3  C   UNL A   1      41.212  21.973  26.581  1.00  0.00     0.251 C 
ATOM      4  O   UNL A   1      40.606  20.996  27.018  1.00  0.00    -0.269 OA
ATOM      5  H   UNL A   1      42.490  20.805  25.594  1.00  0.00     0.163 HD
BRANCH   3   6
ATOM      6  C   UNL A   1      40.843  23.328  27.072  1.00  0.00     0.039 A 
ATOM      7  C   UNL A   1      39.828  25.709  28.231  1.00  0.00     0.038 A 
ATOM      8  C   UNL A   1      39.054  24.942  27.362  1.00  0.00     0.027 A 
ATOM      9  C   UNL A   1      41.173  25.339  28.387  1.00  0.00     0.027 A 
ATOM     10  C   UNL A   1      39.542  23.757  26.804  1.00  0.00     0.016 A 
ATOM     11  C   UNL A   1      41.687  24.180  27.785  1.00  0.00     0.016 A 
BRANCH   7  12
ATOM     12  N   UNL A   1      39.312  26.742  29.049  1.00  0.00    -0.359 N 
ATOM     13  H   UNL A   1      38.820  26.451  29.851  1.00  0.00     0.166 HD
BRANCH  12  14
ATOM     14  C   UNL A   1      39.413  28.130  28.858  1.00  0.00     0.016 C 
ATOM     15  C   UNL A   1      39.766  28.627  27.476  1.00  0.00     0.064 C 
ATOM     16  C   UNL A   1      39.190  28.963  29.903  1.00  0.00     0.074 C 
BRANCH  16  17
ATOM     17  C   UNL A   1      39.059  30.456  30.010  1.00  0.00     0.196 C 
ATOM     18  O   UNL A   1      40.056  31.155  29.841  1.00  0.00    -0.289 OA
BRANCH  17  19
ATOM     19  C   UNL A   1      37.799  31.048  30.500  1.00  0.00     0.130 A 
ATOM     20  C   UNL A   1      36.765  31.254  29.660  1.00  0.00     0.206 A 
ATOM     21  C   UNL A   1      37.701  31.542  31.892  1.00  0.00     0.204 A 
ATOM     22  N   UNL A   1      35.648  32.016  29.992  1.00  0.00    -0.315 N 
ATOM     23  C   UNL A   1      36.462  32.251  32.283  1.00  0.00     0.047 A 
ATOM     24  O   UNL A   1      38.629  31.416  32.686  1.00  0.00    -0.288 OA
ATOM     25  C   UNL A   1      34.700  32.484  28.974  1.00  0.00     0.153 C 
ATOM     26  C   UNL A   1      35.471  32.491  31.314  1.00  0.00     0.055 A 
ATOM     27  C   UNL A   1      36.332  32.710  33.603  1.00  0.00     0.014 A 
ATOM     28  C   UNL A   1      34.334  33.208  31.731  1.00  0.00     0.027 A 
ATOM     29  C   UNL A   1      35.197  33.419  33.984  1.00  0.00     0.001 A 
ATOM     30  C   UNL A   1      34.199  33.668  33.047  1.00  0.00     0.002 A 
BRANCH  20  31
ATOM     31  O   UNL A   1      36.768  30.747  28.372  1.00  0.00    -0.494 OA
ATOM     32  H   UNL A   1      36.082  30.174  28.092  1.00  0.00     0.295 HD
ENDBRANCH  20  31
ENDBRANCH  17  19
ENDBRANCH  16  17
ENDBRANCH  12  14
ENDBRANCH   7  12
ENDBRANCH   3   6
ENDBRANCH   1   2
BRANCH   1  33
ATOM     33  C   UNL A   1      44.582  22.325  24.949  1.00  0.00     0.023 C 
BRANCH  33  34
ATOM     34  C   UNL A   1      45.330  22.360  26.277  1.00  0.00     0.023 C 
BRANCH  34  35
ATOM     35  C   UNL A   1      46.172  23.601  26.545  1.00  0.00     0.116 C 
BRANCH  35  36
ATOM     36  N   UNL A   1      46.757  24.191  25.350  1.00  0.00    -0.352 N 
ATOM     37  C   UNL A   1      46.835  25.516  24.970  1.00  0.00     0.251 C 
ATOM     38  H   UNL A   1      47.157  23.550  24.718  1.00  0.00     0.163 HD
ATOM     39  O   UNL A   1      47.324  25.819  23.890  1.00  0.00    -0.269 OA
BRANCH  37  40
ATOM     40  C   UNL A   1      46.260  26.554  25.855  1.00  0.00     0.039 A 
ATOM     41  C   UNL A   1      47.090  27.356  26.639  1.00  0.00     0.014 A 
ATOM     42  C   UNL A   1      44.872  26.636  25.985  1.00  0.00     0.014 A 
ATOM     43  C   UNL A   1      46.545  28.048  27.715  1.00  0.00     0.010 A 
ATOM     44  C   UNL A   1      44.321  27.414  27.007  1.00  0.00     0.010 A 
ATOM     45  C   UNL A   1      45.157  28.055  27.935  1.00  0.00    -0.014 A 
BRANCH  45  46
ATOM     46  C   UNL A   1      44.613  28.672  29.175  1.00  0.00     0.031 A 
ATOM     47  C   UNL A   1      44.119  30.099  29.172  1.00  0.00     0.074 A 
ATOM     48  C   UNL A   1      44.504  27.933  30.295  1.00  0.00     0.049 A 
ATOM     49  N   UNL A   1      43.612  30.795  30.159  1.00  0.00    -0.248 NA
ATOM     50  C   UNL A   1      44.203  30.847  27.905  1.00  0.00     0.031 C 
ATOM     51  C   UNL A   1      44.950  26.545  30.435  1.00  0.00     0.029 A 
ATOM     52  N   UNL A   1      43.973  28.236  31.523  1.00  0.00    -0.354 N 
ATOM     53  C   UNL A   1      43.373  32.066  29.650  1.00  0.00     0.074 A 
ATOM     54  C   UNL A   1      43.783  32.052  28.264  1.00  0.00     0.031 C 
ATOM     55  C   UNL A   1      44.633  26.103  31.662  1.00  0.00     0.029 A 
ATOM     56  C   UNL A   1      44.013  27.190  32.414  1.00  0.00     0.049 A 
ATOM     57  H   UNL A   1      43.598  29.119  31.745  1.00  0.00     0.167 HD
ATOM     58  C   UNL A   1      42.841  33.144  30.274  1.00  0.00     0.034 A 
ATOM     59  C   UNL A   1      43.610  27.110  33.697  1.00  0.00     0.034 A 
ATOM     60  C   UNL A   1      42.350  33.141  31.625  1.00  0.00     0.049 A 
ATOM     61  C   UNL A   1      42.993  28.310  34.353  1.00  0.00     0.074 A 
ATOM     62  C   UNL A   1      41.738  34.173  32.315  1.00  0.00     0.029 A 
ATOM     63  N   UNL A   1      42.400  32.057  32.484  1.00  0.00    -0.354 N 
ATOM     64  N   UNL A   1      42.719  29.480  33.831  1.00  0.00    -0.248 NA
ATOM     65  C   UNL A   1      42.625  28.179  35.770  1.00  0.00     0.031 C 
ATOM     66  C   UNL A   1      41.414  33.710  33.594  1.00  0.00     0.029 A 
ATOM     67  C   UNL A   1      41.830  32.393  33.699  1.00  0.00     0.049 A 
ATOM     68  H   UNL A   1      42.784  31.177  32.263  1.00  0.00     0.167 HD
ATOM     69  C   UNL A   1      42.147  30.227  34.854  1.00  0.00     0.074 A 
ATOM     70  C   UNL A   1      42.085  29.367  36.019  1.00  0.00     0.031 C 
ATOM     71  C   UNL A   1      41.736  31.517  34.834  1.00  0.00     0.034 A 
BRANCH  58  72
ATOM     72  C   UNL A   1      42.696  34.419  29.492  1.00  0.00     0.023 A 
ATOM     73  C   UNL A   1      41.444  34.745  28.935  1.00  0.00     0.012 A 
ATOM     74  C   UNL A   1      43.756  35.344  29.413  1.00  0.00     0.148 A 
ATOM     75  C   UNL A   1      41.249  35.974  28.306  1.00  0.00     0.002 A 
ATOM     76  C   UNL A   1      43.546  36.577  28.807  1.00  0.00     0.091 A 
ATOM     77  F   UNL A   1      44.939  35.004  29.943  1.00  0.00    -0.205 F 
ATOM     78  C   UNL A   1      42.295  36.892  28.251  1.00  0.00     0.022 A 
BRANCH  76  79
ATOM     79  S   UNL A   1      44.809  37.854  28.726  1.00  0.00     0.127 S 
ATOM     80  O   UNL A   1      45.840  37.195  27.924  1.00  0.00    -0.237 OA
ATOM     81  O   UNL A   1      44.104  38.938  28.043  1.00  0.00    -0.237 OA
ATOM     82  O   UNL A   1      45.186  38.137  30.102  1.00  0.00    -0.744 OA
ENDBRANCH  76  79
ENDBRANCH  58  72
BRANCH  59  83
ATOM     83  C   UNL A   1      43.750  25.819  34.420  1.00  0.00     0.023 A 
ATOM     84  C   UNL A   1      42.640  24.959  34.516  1.00  0.00     0.012 A 
ATOM     85  C   UNL A   1      44.994  25.405  34.935  1.00  0.00     0.148 A 
ATOM     86  C   UNL A   1      42.768  23.705  35.113  1.00  0.00     0.002 A 
ATOM     87  C   UNL A   1      45.125  24.137  35.485  1.00  0.00     0.091 A 
ATOM     88  F   UNL A   1      46.029  26.252  34.845  1.00  0.00    -0.205 F 
ATOM     89  C   UNL A   1      44.010  23.289  35.584  1.00  0.00     0.022 A 
BRANCH  87  90
ATOM     90  S   UNL A   1      46.712  23.471  35.996  1.00  0.00     0.127 S 
ATOM     91  O   UNL A   1      46.360  22.098  36.349  1.00  0.00    -0.237 OA
ATOM     92  O   UNL A   1      47.505  23.611  34.774  1.00  0.00    -0.237 OA
ATOM     93  O   UNL A   1      47.155  24.314  37.098  1.00  0.00    -0.744 OA
ENDBRANCH  87  90
ENDBRANCH  59  83
BRANCH  71  94
ATOM     94  C   UNL A   1      41.193  32.100  36.107  1.00  0.00     0.023 A 
ATOM     95  C   UNL A   1      42.020  32.943  36.875  1.00  0.00     0.012 A 
ATOM     96  C   UNL A   1      39.848  31.914  36.478  1.00  0.00     0.148 A 
ATOM     97  C   UNL A   1      41.515  33.590  38.001  1.00  0.00     0.002 A 
ATOM     98  C   UNL A   1      39.345  32.585  37.586  1.00  0.00     0.091 A 
ATOM     99  F   UNL A   1      39.089  31.097  35.734  1.00  0.00    -0.205 F 
ATOM    100  C   UNL A   1      40.177  33.420  38.350  1.00  0.00     0.022 A 
BRANCH  98 101
ATOM    101  S   UNL A   1      37.619  32.487  38.073  1.00  0.00     0.127 S 
ATOM    102  O   UNL A   1      36.955  33.153  36.953  1.00  0.00    -0.237 OA
ATOM    103  O   UNL A   1      37.395  31.043  38.144  1.00  0.00    -0.237 OA
ATOM    104  O   UNL A   1      37.522  33.178  39.353  1.00  0.00    -0.744 OA
ENDBRANCH  98 101
ENDBRANCH  71  94
ENDBRANCH  45  46
ENDBRANCH  37  40
ENDBRANCH  35  36
ENDBRANCH  34  35
ENDBRANCH  33  34
ENDBRANCH   1  33
TORSDOF 19
ENDMDL
MODEL 3
REMARK VINA RESULT:     -10.7      4.533     11.479
REMARK SMILES C/C(=C\C(=O)c1c(O)n(C)c2ccccc2c1=O)Nc1ccc(C(=O)NCCCCNC(=O)c2ccc(-c3c4nc(c(-c5cccc(S(=O)(=O)[O-])c5F)c5ccc([nH]5)c(-c5cccc(S(=O)(=O)[O-])c5F)c5nc(c(-c6cccc(S(=O)(=O)[O-])c6F)c6ccc3[nH]6)C=C5)C=C4)cc2)cc1
REMARK SMILES IDX 27 1 26 2 24 3 25 4 23 6 20 7 21 8 98 9 22 10 97 11 19 12
REMARK SMILES IDX 2 14 1 15 3 16 4 17 5 18 6 19 7 20 17 21 9 22 16 23 18 24
REMARK SMILES IDX 10 25 11 26 15 27 12 28 14 29 13 30 8 31 28 33 29 34 30 35
REMARK SMILES IDX 31 36 32 37 33 39 34 40 35 41 96 42 36 43 95 44 37 45 38 46
REMARK SMILES IDX 39 47 89 48 40 49 94 50 88 51 90 52 41 53 93 54 87 55 86 56
REMARK SMILES IDX 42 58 74 59 54 60 73 61 55 62 58 63 72 64 91 65 56 66 57 67
REMARK SMILES IDX 71 69 92 70 59 71 43 72 44 73 52 74 45 75 47 76 53 77 46 78
REMARK SMILES IDX 48 79 49 80 50 81 51 82 75 83 76 84 84 85 77 86 79 87 85 88
REMARK SMILES IDX 78 89 80 90 81 91 82 92 83 93 60 94 61 95 69 96 62 97 64 98
REMARK SMILES IDX 70 99 63 100 65 101 66 102 67 103 68 104
REMARK H PARENT 26 5 19 13 8 32 31 38 90 57 58 68
REMARK Flexibility Score: inf
ROOT
ATOM      1  C   UNL A   1      38.446  34.455  30.462  1.00  0.00     0.116 C 
ENDROOT
BRANCH   1   2
ATOM      2  N   UNL A   1      37.454  34.932  31.405  1.00  0.00    -0.352 N 
ATOM      3  C   UNL A   1      37.179  34.556  32.696  1.00  0.00     0.251 C 
ATOM      4  O   UNL A   1      36.330  35.194  33.318  1.00  0.00    -0.269 OA
ATOM      5  H   UNL A   1      36.876  35.651  31.059  1.00  0.00     0.163 HD
BRANCH   3   6
ATOM      6  C   UNL A   1      37.791  33.360  33.334  1.00  0.00     0.039 A 
ATOM      7  C   UNL A   1      39.035  30.944  34.144  1.00  0.00     0.038 A 
ATOM      8  C   UNL A   1      37.845  30.935  33.417  1.00  0.00     0.027 A 
ATOM      9  C   UNL A   1      39.505  32.190  34.587  1.00  0.00     0.027 A 
ATOM     10  C   UNL A   1      37.239  32.122  32.998  1.00  0.00     0.016 A 
ATOM     11  C   UNL A   1      38.870  33.385  34.216  1.00  0.00     0.016 A 
BRANCH   7  12
ATOM     12  N   UNL A   1      39.848  29.803  34.347  1.00  0.00    -0.359 N 
ATOM     13  H   UNL A   1      39.562  28.983  33.882  1.00  0.00     0.166 HD
BRANCH  12  14
ATOM     14  C   UNL A   1      41.010  29.695  35.129  1.00  0.00     0.016 C 
ATOM     15  C   UNL A   1      40.928  30.124  36.574  1.00  0.00     0.064 C 
ATOM     16  C   UNL A   1      42.146  29.215  34.568  1.00  0.00     0.074 C 
BRANCH  16  17
ATOM     17  C   UNL A   1      43.481  28.828  35.137  1.00  0.00     0.196 C 
ATOM     18  O   UNL A   1      44.327  29.702  35.320  1.00  0.00    -0.289 OA
BRANCH  17  19
ATOM     19  C   UNL A   1      43.829  27.401  35.286  1.00  0.00     0.130 A 
ATOM     20  C   UNL A   1      44.297  26.928  36.458  1.00  0.00     0.206 A 
ATOM     21  C   UNL A   1      43.789  26.499  34.113  1.00  0.00     0.204 A 
ATOM     22  N   UNL A   1      44.864  25.664  36.602  1.00  0.00    -0.315 N 
ATOM     23  C   UNL A   1      44.281  25.115  34.295  1.00  0.00     0.047 A 
ATOM     24  O   UNL A   1      43.408  26.890  33.014  1.00  0.00    -0.288 OA
ATOM     25  C   UNL A   1      45.643  25.296  37.790  1.00  0.00     0.153 C 
ATOM     26  C   UNL A   1      44.829  24.736  35.534  1.00  0.00     0.055 A 
ATOM     27  C   UNL A   1      44.232  24.230  33.206  1.00  0.00     0.014 A 
ATOM     28  C   UNL A   1      45.321  23.422  35.635  1.00  0.00     0.027 A 
ATOM     29  C   UNL A   1      44.731  22.939  33.337  1.00  0.00     0.001 A 
ATOM     30  C   UNL A   1      45.276  22.535  34.552  1.00  0.00     0.002 A 
BRANCH  20  31
ATOM     31  O   UNL A   1      44.287  27.701  37.606  1.00  0.00    -0.494 OA
ATOM     32  H   UNL A   1      43.516  27.741  38.137  1.00  0.00     0.295 HD
ENDBRANCH  20  31
ENDBRANCH  17  19
ENDBRANCH  16  17
ENDBRANCH  12  14
ENDBRANCH   7  12
ENDBRANCH   3   6
ENDBRANCH   1   2
BRANCH   1  33
ATOM     33  C   UNL A   1      37.893  33.627  29.305  1.00  0.00     0.023 C 
BRANCH  33  34
ATOM     34  C   UNL A   1      36.398  33.737  29.029  1.00  0.00     0.023 C 
BRANCH  34  35
ATOM     35  C   UNL A   1      35.500  32.755  29.770  1.00  0.00     0.116 C 
BRANCH  35  36
ATOM     36  N   UNL A   1      34.556  32.051  28.913  1.00  0.00    -0.352 N 
ATOM     37  C   UNL A   1      34.683  30.833  28.277  1.00  0.00     0.251 C 
ATOM     38  H   UNL A   1      33.698  32.513  28.767  1.00  0.00     0.163 HD
ATOM     39  O   UNL A   1      33.791  30.424  27.547  1.00  0.00    -0.269 OA
BRANCH  37  40
ATOM     40  C   UNL A   1      35.939  30.066  28.436  1.00  0.00     0.039 A 
ATOM     41  C   UNL A   1      36.217  29.403  29.631  1.00  0.00     0.014 A 
ATOM     42  C   UNL A   1      36.894  30.115  27.418  1.00  0.00     0.014 A 
ATOM     43  C   UNL A   1      37.523  29.012  29.903  1.00  0.00     0.010 A 
ATOM     44  C   UNL A   1      38.182  29.630  27.659  1.00  0.00     0.010 A 
ATOM     45  C   UNL A   1      38.531  29.155  28.933  1.00  0.00    -0.014 A 
BRANCH  45  46
ATOM     46  C   UNL A   1      39.946  28.874  29.297  1.00  0.00     0.031 A 
ATOM     47  C   UNL A   1      40.737  29.856  30.129  1.00  0.00     0.074 A 
ATOM     48  C   UNL A   1      40.510  27.707  28.931  1.00  0.00     0.049 A 
ATOM     49  N   UNL A   1      41.977  29.773  30.540  1.00  0.00    -0.248 NA
ATOM     50  C   UNL A   1      40.056  31.092  30.556  1.00  0.00     0.031 C 
ATOM     51  C   UNL A   1      39.859  26.675  28.121  1.00  0.00     0.029 A 
ATOM     52  N   UNL A   1      41.748  27.184  29.205  1.00  0.00    -0.354 N 
ATOM     53  C   UNL A   1      42.239  30.957  31.217  1.00  0.00     0.074 A 
ATOM     54  C   UNL A   1      41.030  31.748  31.171  1.00  0.00     0.031 C 
ATOM     55  C   UNL A   1      40.685  25.626  28.001  1.00  0.00     0.029 A 
ATOM     56  C   UNL A   1      41.943  25.929  28.677  1.00  0.00     0.049 A 
ATOM     57  H   UNL A   1      42.431  27.660  29.729  1.00  0.00     0.167 HD
ATOM     58  C   UNL A   1      43.377  31.346  31.840  1.00  0.00     0.034 A 
ATOM     59  C   UNL A   1      43.015  25.115  28.718  1.00  0.00     0.034 A 
ATOM     60  C   UNL A   1      44.554  30.530  31.966  1.00  0.00     0.049 A 
ATOM     61  C   UNL A   1      44.252  25.557  29.443  1.00  0.00     0.074 A 
ATOM     62  C   UNL A   1      45.729  30.822  32.635  1.00  0.00     0.029 A 
ATOM     63  N   UNL A   1      44.701  29.264  31.428  1.00  0.00    -0.354 N 
ATOM     64  N   UNL A   1      44.451  26.654  30.131  1.00  0.00    -0.248 NA
ATOM     65  C   UNL A   1      45.408  24.649  29.405  1.00  0.00     0.031 C 
ATOM     66  C   UNL A   1      46.589  29.728  32.504  1.00  0.00     0.029 A 
ATOM     67  C   UNL A   1      45.949  28.760  31.749  1.00  0.00     0.049 A 
ATOM     68  H   UNL A   1      44.020  28.792  30.895  1.00  0.00     0.167 HD
ATOM     69  C   UNL A   1      45.754  26.571  30.608  1.00  0.00     0.074 A 
ATOM     70  C   UNL A   1      46.287  25.302  30.156  1.00  0.00     0.031 C 
ATOM     71  C   UNL A   1      46.451  27.479  31.331  1.00  0.00     0.034 A 
BRANCH  58  72
ATOM     72  C   UNL A   1      43.403  32.697  32.498  1.00  0.00     0.023 A 
ATOM     73  C   UNL A   1      43.014  32.812  33.847  1.00  0.00     0.012 A 
ATOM     74  C   UNL A   1      43.922  33.821  31.824  1.00  0.00     0.148 A 
ATOM     75  C   UNL A   1      43.139  34.029  34.517  1.00  0.00     0.002 A 
ATOM     76  C   UNL A   1      44.066  35.023  32.506  1.00  0.00     0.091 A 
ATOM     77  F   UNL A   1      44.274  33.685  30.538  1.00  0.00    -0.205 F 
ATOM     78  C   UNL A   1      43.673  35.129  33.851  1.00  0.00     0.022 A 
BRANCH  76  79
ATOM     79  S   UNL A   1      44.790  36.489  31.760  1.00  0.00     0.127 S 
ATOM     80  O   UNL A   1      46.050  35.960  31.238  1.00  0.00    -0.237 OA
ATOM     81  O   UNL A   1      43.801  36.832  30.739  1.00  0.00    -0.237 OA
ATOM     82  O   UNL A   1      44.928  37.462  32.833  1.00  0.00    -0.744 OA
ENDBRANCH  76  79
ENDBRANCH  58  72
BRANCH  59  83
ATOM     83  C   UNL A   1      42.932  23.776  28.075  1.00  0.00     0.023 A 
ATOM     84  C   UNL A   1      42.017  22.829  28.571  1.00  0.00     0.012 A 
ATOM     85  C   UNL A   1      43.690  23.473  26.927  1.00  0.00     0.148 A 
ATOM     86  C   UNL A   1      41.859  21.599  27.933  1.00  0.00     0.002 A 
ATOM     87  C   UNL A   1      43.492  22.267  26.269  1.00  0.00     0.091 A 
ATOM     88  F   UNL A   1      44.566  24.387  26.487  1.00  0.00    -0.205 F 
ATOM     89  C   UNL A   1      42.583  21.324  26.777  1.00  0.00     0.022 A 
BRANCH  87  90
ATOM     90  S   UNL A   1      44.286  21.884  24.705  1.00  0.00     0.127 S 
ATOM     91  O   UNL A   1      45.677  22.231  24.983  1.00  0.00    -0.237 OA
ATOM     92  O   UNL A   1      44.021  20.451  24.575  1.00  0.00    -0.237 OA
ATOM     93  O   UNL A   1      43.614  22.709  23.711  1.00  0.00    -0.744 OA
ENDBRANCH  87  90
ENDBRANCH  59  83
BRANCH  71  94
ATOM     94  C   UNL A   1      47.877  27.156  31.676  1.00  0.00     0.023 A 
ATOM     95  C   UNL A   1      48.137  26.336  32.790  1.00  0.00     0.012 A 
ATOM     96  C   UNL A   1      48.937  27.560  30.842  1.00  0.00     0.148 A 
ATOM     97  C   UNL A   1      49.439  25.925  33.074  1.00  0.00     0.002 A 
ATOM     98  C   UNL A   1      50.227  27.123  31.115  1.00  0.00     0.091 A 
ATOM     99  F   UNL A   1      48.659  28.350  29.795  1.00  0.00    -0.205 F 
ATOM    100  C   UNL A   1      50.480  26.308  32.232  1.00  0.00     0.022 A 
BRANCH  98 101
ATOM    101  S   UNL A   1      51.623  27.504  30.051  1.00  0.00     0.127 S 
ATOM    102  O   UNL A   1      51.574  28.965  30.007  1.00  0.00    -0.237 OA
ATOM    103  O   UNL A   1      52.749  26.953  30.804  1.00  0.00    -0.237 OA
ATOM    104  O   UNL A   1      51.357  26.835  28.783  1.00  0.00    -0.744 OA
ENDBRANCH  98 101
ENDBRANCH  71  94
ENDBRANCH  45  46
ENDBRANCH  37  40
ENDBRANCH  35  36
ENDBRANCH  34  35
ENDBRANCH  33  34
ENDBRANCH   1  33
TORSDOF 19
ENDMDL
