MODEL 1
REMARK VINA RESULT:     -11.1      0.000      0.000
REMARK SMILES CC(=O)N[C@@H](Cc1c(OCC(C)C)ccc2ccccc12)C(=O)NCCCCNC(=O)c1ccc(-c2c3nc(c(-c4cccc(S(=O)(=O)[O-])c4F)c4ccc([nH]4)c(-c4cccc(S(=O)(=O)[O-])c4F)c4nc(c(-c5cccc(S(=O)(=O)[O-])c5F)c5ccc2[nH]5)C=C4)C=C3)cc1
REMARK SMILES IDX 25 1 24 2 22 3 23 4 5 6 4 7 1 8 2 9 3 10 6 12 7 13 8 14
REMARK SMILES IDX 21 15 14 16 16 17 20 18 15 19 17 20 19 21 18 22 9 23 10 24
REMARK SMILES IDX 11 25 12 26 13 27 26 28 27 29 28 30 29 31 30 32 31 34 32 35
REMARK SMILES IDX 33 36 94 37 34 38 93 39 35 40 36 41 37 42 87 43 38 44 92 45
REMARK SMILES IDX 86 46 88 47 39 48 91 49 85 50 84 51 40 53 72 54 52 55 71 56
REMARK SMILES IDX 53 57 56 58 70 59 89 60 54 61 55 62 69 64 90 65 57 66 41 67
REMARK SMILES IDX 42 68 50 69 43 70 45 71 51 72 44 73 46 74 47 75 48 76 49 77
REMARK SMILES IDX 73 78 74 79 82 80 75 81 77 82 83 83 76 84 78 85 79 86 80 87
REMARK SMILES IDX 81 88 58 89 59 90 67 91 60 92 62 93 68 94 61 95 63 96 64 97
REMARK SMILES IDX 65 98 66 99
REMARK H PARENT 24 5 4 11 29 33 88 52 56 63
REMARK Flexibility Score: inf
ROOT
ATOM      1  C   UNL A   1      32.271  28.729  25.704  1.00  0.00     0.116 C 
ENDROOT
BRANCH   1   2
ATOM      2  N   UNL A   1      33.367  28.995  24.787  1.00  0.00    -0.354 N 
ATOM      3  C   UNL A   1      33.919  28.225  23.799  1.00  0.00     0.242 C 
ATOM      4  O   UNL A   1      34.620  28.819  22.968  1.00  0.00    -0.273 OA
ATOM      5  H   UNL A   1      33.783  29.880  24.895  1.00  0.00     0.163 HD
BRANCH   3   6
ATOM      6  C   UNL A   1      33.687  26.695  23.626  1.00  0.00     0.175 C 
BRANCH   6   7
ATOM      7  N   UNL A   1      33.816  26.252  22.238  1.00  0.00    -0.344 N 
ATOM      8  C   UNL A   1      31.499  25.394  22.059  1.00  0.00     0.114 C 
ATOM      9  C   UNL A   1      32.816  25.779  21.433  1.00  0.00     0.217 C 
ATOM     10  O   UNL A   1      33.021  25.638  20.229  1.00  0.00    -0.275 OA
ATOM     11  H   UNL A   1      34.716  26.300  21.842  1.00  0.00     0.164 HD
ENDBRANCH   6   7
BRANCH   6  12
ATOM     12  C   UNL A   1      34.350  25.751  24.663  1.00  0.00     0.075 C 
BRANCH  12  13
ATOM     13  C   UNL A   1      33.855  24.315  24.716  1.00  0.00     0.005 A 
ATOM     14  C   UNL A   1      34.655  23.322  24.114  1.00  0.00     0.123 A 
ATOM     15  C   UNL A   1      32.615  23.937  25.326  1.00  0.00    -0.011 A 
ATOM     16  C   UNL A   1      34.120  22.062  23.871  1.00  0.00     0.047 A 
ATOM     17  C   UNL A   1      32.137  22.614  25.129  1.00  0.00    -0.018 A 
ATOM     18  C   UNL A   1      31.840  24.765  26.175  1.00  0.00     0.009 A 
ATOM     19  C   UNL A   1      32.858  21.722  24.340  1.00  0.00     0.012 A 
ATOM     20  C   UNL A   1      30.959  22.169  25.749  1.00  0.00     0.009 A 
ATOM     21  C   UNL A   1      30.694  24.294  26.829  1.00  0.00     0.001 A 
ATOM     22  C   UNL A   1      30.252  22.997  26.614  1.00  0.00     0.001 A 
BRANCH  14  23
ATOM     23  O   UNL A   1      35.975  23.635  23.897  1.00  0.00    -0.493 OA
BRANCH  23  24
ATOM     24  C   UNL A   1      36.956  22.627  24.126  1.00  0.00     0.232 C 
BRANCH  24  25
ATOM     25  C   UNL A   1      37.452  22.521  25.579  1.00  0.00     0.020 C 
ATOM     26  C   UNL A   1      38.715  21.687  25.776  1.00  0.00     0.011 C 
ATOM     27  C   UNL A   1      37.667  23.934  26.134  1.00  0.00     0.011 C 
ENDBRANCH  24  25
ENDBRANCH  23  24
ENDBRANCH  14  23
ENDBRANCH  12  13
ENDBRANCH   6  12
ENDBRANCH   3   6
ENDBRANCH   1   2
BRANCH   1  28
ATOM     28  C   UNL A   1      32.237  29.606  26.955  1.00  0.00     0.023 C 
BRANCH  28  29
ATOM     29  C   UNL A   1      32.098  31.125  26.765  1.00  0.00     0.023 C 
BRANCH  29  30
ATOM     30  C   UNL A   1      33.171  32.055  27.343  1.00  0.00     0.116 C 
BRANCH  30  31
ATOM     31  N   UNL A   1      32.739  33.395  27.694  1.00  0.00    -0.352 N 
ATOM     32  C   UNL A   1      33.329  34.277  28.576  1.00  0.00     0.251 C 
ATOM     33  H   UNL A   1      31.922  33.715  27.247  1.00  0.00     0.163 HD
ATOM     34  O   UNL A   1      32.863  35.406  28.717  1.00  0.00    -0.269 OA
BRANCH  32  35
ATOM     35  C   UNL A   1      34.502  33.861  29.384  1.00  0.00     0.039 A 
ATOM     36  C   UNL A   1      34.310  32.980  30.450  1.00  0.00     0.014 A 
ATOM     37  C   UNL A   1      35.787  34.326  29.097  1.00  0.00     0.014 A 
ATOM     38  C   UNL A   1      35.413  32.501  31.171  1.00  0.00     0.010 A 
ATOM     39  C   UNL A   1      36.892  33.820  29.791  1.00  0.00     0.010 A 
ATOM     40  C   UNL A   1      36.721  32.884  30.821  1.00  0.00    -0.014 A 
BRANCH  40  41
ATOM     41  C   UNL A   1      37.903  32.228  31.451  1.00  0.00     0.031 A 
ATOM     42  C   UNL A   1      38.509  32.744  32.729  1.00  0.00     0.074 A 
ATOM     43  C   UNL A   1      38.493  31.196  30.812  1.00  0.00     0.049 A 
ATOM     44  N   UNL A   1      39.538  32.284  33.396  1.00  0.00    -0.248 NA
ATOM     45  C   UNL A   1      37.896  33.940  33.326  1.00  0.00     0.031 C 
ATOM     46  C   UNL A   1      38.067  30.651  29.521  1.00  0.00     0.029 A 
ATOM     47  N   UNL A   1      39.590  30.437  31.144  1.00  0.00    -0.354 N 
ATOM     48  C   UNL A   1      39.710  33.138  34.480  1.00  0.00     0.074 A 
ATOM     49  C   UNL A   1      38.694  34.165  34.363  1.00  0.00     0.031 C 
ATOM     50  C   UNL A   1      38.889  29.648  29.173  1.00  0.00     0.029 A 
ATOM     51  C   UNL A   1      39.914  29.490  30.201  1.00  0.00     0.049 A 
ATOM     52  H   UNL A   1      40.098  30.561  31.979  1.00  0.00     0.167 HD
ATOM     53  C   UNL A   1      40.610  33.063  35.492  1.00  0.00     0.034 A 
ATOM     54  C   UNL A   1      40.920  28.593  30.160  1.00  0.00     0.034 A 
ATOM     55  C   UNL A   1      41.604  32.029  35.624  1.00  0.00     0.049 A 
ATOM     56  C   UNL A   1      41.883  28.510  31.312  1.00  0.00     0.074 A 
ATOM     57  C   UNL A   1      42.500  31.824  36.660  1.00  0.00     0.029 A 
ATOM     58  N   UNL A   1      41.848  31.035  34.689  1.00  0.00    -0.354 N 
ATOM     59  N   UNL A   1      41.913  29.216  32.415  1.00  0.00    -0.248 NA
ATOM     60  C   UNL A   1      42.929  27.478  31.233  1.00  0.00     0.031 C 
ATOM     61  C   UNL A   1      43.300  30.721  36.342  1.00  0.00     0.029 A 
ATOM     62  C   UNL A   1      42.885  30.221  35.118  1.00  0.00     0.049 A 
ATOM     63  H   UNL A   1      41.357  30.923  33.844  1.00  0.00     0.167 HD
ATOM     64  C   UNL A   1      42.951  28.692  33.176  1.00  0.00     0.074 A 
ATOM     65  C   UNL A   1      43.513  27.594  32.418  1.00  0.00     0.031 C 
ATOM     66  C   UNL A   1      43.406  29.096  34.388  1.00  0.00     0.034 A 
BRANCH  53  67
ATOM     67  C   UNL A   1      40.528  34.099  36.586  1.00  0.00     0.023 A 
ATOM     68  C   UNL A   1      40.972  35.412  36.327  1.00  0.00     0.012 A 
ATOM     69  C   UNL A   1      39.936  33.804  37.831  1.00  0.00     0.148 A 
ATOM     70  C   UNL A   1      40.860  36.406  37.299  1.00  0.00     0.002 A 
ATOM     71  C   UNL A   1      39.789  34.811  38.778  1.00  0.00     0.091 A 
ATOM     72  F   UNL A   1      39.530  32.547  38.065  1.00  0.00    -0.205 F 
ATOM     73  C   UNL A   1      40.260  36.108  38.519  1.00  0.00     0.022 A 
BRANCH  71  74
ATOM     74  S   UNL A   1      38.959  34.551  40.351  1.00  0.00     0.127 S 
ATOM     75  O   UNL A   1      37.689  33.969  39.921  1.00  0.00    -0.237 OA
ATOM     76  O   UNL A   1      39.859  33.617  41.026  1.00  0.00    -0.237 OA
ATOM     77  O   UNL A   1      38.864  35.863  40.977  1.00  0.00    -0.744 OA
ENDBRANCH  71  74
ENDBRANCH  53  67
BRANCH  54  78
ATOM     78  C   UNL A   1      41.026  27.647  29.013  1.00  0.00     0.023 A 
ATOM     79  C   UNL A   1      40.231  26.482  29.000  1.00  0.00     0.012 A 
ATOM     80  C   UNL A   1      41.889  27.900  27.929  1.00  0.00     0.148 A 
ATOM     81  C   UNL A   1      40.320  25.572  27.946  1.00  0.00     0.002 A 
ATOM     82  C   UNL A   1      41.930  27.018  26.856  1.00  0.00     0.091 A 
ATOM     83  F   UNL A   1      42.646  29.005  27.966  1.00  0.00    -0.205 F 
ATOM     84  C   UNL A   1      41.160  25.844  26.871  1.00  0.00     0.022 A 
BRANCH  82  85
ATOM     85  S   UNL A   1      42.880  27.358  25.370  1.00  0.00     0.127 S 
ATOM     86  O   UNL A   1      42.126  28.459  24.778  1.00  0.00    -0.237 OA
ATOM     87  O   UNL A   1      44.184  27.727  25.922  1.00  0.00    -0.237 OA
ATOM     88  O   UNL A   1      42.883  26.111  24.615  1.00  0.00    -0.744 OA
ENDBRANCH  82  85
ENDBRANCH  54  78
BRANCH  66  89
ATOM     89  C   UNL A   1      44.550  28.326  35.000  1.00  0.00     0.023 A 
ATOM     90  C   UNL A   1      45.876  28.754  34.791  1.00  0.00     0.012 A 
ATOM     91  C   UNL A   1      44.305  27.218  35.836  1.00  0.00     0.148 A 
ATOM     92  C   UNL A   1      46.942  28.073  35.378  1.00  0.00     0.002 A 
ATOM     93  C   UNL A   1      45.371  26.574  36.456  1.00  0.00     0.091 A 
ATOM     94  F   UNL A   1      43.040  26.812  36.006  1.00  0.00    -0.205 F 
ATOM     95  C   UNL A   1      46.689  26.992  36.219  1.00  0.00     0.022 A 
BRANCH  93  96
ATOM     96  S   UNL A   1      45.134  25.232  37.628  1.00  0.00     0.127 S 
ATOM     97  O   UNL A   1      44.173  25.818  38.561  1.00  0.00    -0.237 OA
ATOM     98  O   UNL A   1      44.590  24.172  36.780  1.00  0.00    -0.237 OA
ATOM     99  O   UNL A   1      46.450  24.947  38.183  1.00  0.00    -0.744 OA
ENDBRANCH  93  96
ENDBRANCH  66  89
ENDBRANCH  40  41
ENDBRANCH  32  35
ENDBRANCH  30  31
ENDBRANCH  29  30
ENDBRANCH  28  29
ENDBRANCH   1  28
TORSDOF 20
ENDMDL
MODEL 2
REMARK VINA RESULT:     -11.0      2.314      3.627
REMARK SMILES CC(=O)N[C@@H](Cc1c(OCC(C)C)ccc2ccccc12)C(=O)NCCCCNC(=O)c1ccc(-c2c3nc(c(-c4cccc(S(=O)(=O)[O-])c4F)c4ccc([nH]4)c(-c4cccc(S(=O)(=O)[O-])c4F)c4nc(c(-c5cccc(S(=O)(=O)[O-])c5F)c5ccc2[nH]5)C=C4)C=C3)cc1
REMARK SMILES IDX 25 1 24 2 22 3 23 4 5 6 4 7 1 8 2 9 3 10 6 12 7 13 8 14
REMARK SMILES IDX 21 15 14 16 16 17 20 18 15 19 17 20 19 21 18 22 9 23 10 24
REMARK SMILES IDX 11 25 12 26 13 27 26 28 27 29 28 30 29 31 30 32 31 34 32 35
REMARK SMILES IDX 33 36 94 37 34 38 93 39 35 40 36 41 37 42 87 43 38 44 92 45
REMARK SMILES IDX 86 46 88 47 39 48 91 49 85 50 84 51 40 53 72 54 52 55 71 56
REMARK SMILES IDX 53 57 56 58 70 59 89 60 54 61 55 62 69 64 90 65 57 66 41 67
REMARK SMILES IDX 42 68 50 69 43 70 45 71 51 72 44 73 46 74 47 75 48 76 49 77
REMARK SMILES IDX 73 78 74 79 82 80 75 81 77 82 83 83 76 84 78 85 79 86 80 87
REMARK SMILES IDX 81 88 58 89 59 90 67 91 60 92 62 93 68 94 61 95 63 96 64 97
REMARK SMILES IDX 65 98 66 99
REMARK H PARENT 24 5 4 11 29 33 88 52 56 63
REMARK Flexibility Score: inf
ROOT
ATOM      1  C   UNL A   1      33.522  27.348  23.339  1.00  0.00     0.116 C 
ENDROOT
BRANCH   1   2
ATOM      2  N   UNL A   1      33.687  26.562  22.128  1.00  0.00    -0.354 N 
ATOM      3  C   UNL A   1      33.181  25.340  21.774  1.00  0.00     0.242 C 
ATOM      4  O   UNL A   1      33.220  25.059  20.568  1.00  0.00    -0.273 OA
ATOM      5  H   UNL A   1      34.260  26.979  21.446  1.00  0.00     0.163 HD
BRANCH   3   6
ATOM      6  C   UNL A   1      32.527  24.326  22.758  1.00  0.00     0.175 C 
BRANCH   6   7
ATOM      7  N   UNL A   1      31.093  24.551  22.939  1.00  0.00    -0.344 N 
ATOM      8  C   UNL A   1      31.286  25.361  25.272  1.00  0.00     0.114 C 
ATOM      9  C   UNL A   1      30.487  25.148  24.011  1.00  0.00     0.217 C 
ATOM     10  O   UNL A   1      29.300  25.458  23.942  1.00  0.00    -0.275 OA
ATOM     11  H   UNL A   1      30.503  24.241  22.215  1.00  0.00     0.164 HD
ENDBRANCH   6   7
BRANCH   6  12
ATOM     12  C   UNL A   1      32.928  22.834  22.615  1.00  0.00     0.075 C 
BRANCH  12  13
ATOM     13  C   UNL A   1      33.576  22.168  23.817  1.00  0.00     0.005 A 
ATOM     14  C   UNL A   1      32.878  21.112  24.438  1.00  0.00     0.123 A 
ATOM     15  C   UNL A   1      34.842  22.577  24.351  1.00  0.00    -0.011 A 
ATOM     16  C   UNL A   1      33.272  20.674  25.699  1.00  0.00     0.047 A 
ATOM     17  C   UNL A   1      35.256  22.046  25.601  1.00  0.00    -0.018 A 
ATOM     18  C   UNL A   1      35.761  23.435  23.697  1.00  0.00     0.009 A 
ATOM     19  C   UNL A   1      34.429  21.164  26.292  1.00  0.00     0.012 A 
ATOM     20  C   UNL A   1      36.510  22.365  26.145  1.00  0.00     0.009 A 
ATOM     21  C   UNL A   1      37.030  23.705  24.226  1.00  0.00     0.001 A 
ATOM     22  C   UNL A   1      37.404  23.172  25.451  1.00  0.00     0.001 A 
BRANCH  14  23
ATOM     23  O   UNL A   1      31.897  20.497  23.701  1.00  0.00    -0.493 OA
BRANCH  23  24
ATOM     24  C   UNL A   1      32.196  19.248  23.083  1.00  0.00     0.232 C 
BRANCH  24  25
ATOM     25  C   UNL A   1      33.009  18.271  23.950  1.00  0.00     0.020 C 
ATOM     26  C   UNL A   1      32.192  17.450  24.945  1.00  0.00     0.011 C 
ATOM     27  C   UNL A   1      33.806  17.339  23.032  1.00  0.00     0.011 C 
ENDBRANCH  24  25
ENDBRANCH  23  24
ENDBRANCH  14  23
ENDBRANCH  12  13
ENDBRANCH   6  12
ENDBRANCH   3   6
ENDBRANCH   1   2
BRANCH   1  28
ATOM     28  C   UNL A   1      32.714  28.635  23.179  1.00  0.00     0.023 C 
BRANCH  28  29
ATOM     29  C   UNL A   1      31.953  29.163  24.406  1.00  0.00     0.023 C 
BRANCH  29  30
ATOM     30  C   UNL A   1      32.737  29.590  25.651  1.00  0.00     0.116 C 
BRANCH  30  31
ATOM     31  N   UNL A   1      32.353  30.853  26.253  1.00  0.00    -0.352 N 
ATOM     32  C   UNL A   1      33.076  31.634  27.130  1.00  0.00     0.251 C 
ATOM     33  H   UNL A   1      31.464  31.195  26.003  1.00  0.00     0.163 HD
ATOM     34  O   UNL A   1      32.625  32.715  27.504  1.00  0.00    -0.269 OA
BRANCH  32  35
ATOM     35  C   UNL A   1      34.382  31.165  27.655  1.00  0.00     0.039 A 
ATOM     36  C   UNL A   1      35.378  32.105  27.929  1.00  0.00     0.014 A 
ATOM     37  C   UNL A   1      34.632  29.810  27.884  1.00  0.00     0.014 A 
ATOM     38  C   UNL A   1      36.586  31.697  28.511  1.00  0.00     0.010 A 
ATOM     39  C   UNL A   1      35.822  29.405  28.499  1.00  0.00     0.010 A 
ATOM     40  C   UNL A   1      36.804  30.347  28.841  1.00  0.00    -0.014 A 
BRANCH  40  41
ATOM     41  C   UNL A   1      37.998  29.938  29.636  1.00  0.00     0.031 A 
ATOM     42  C   UNL A   1      38.246  30.468  31.024  1.00  0.00     0.074 A 
ATOM     43  C   UNL A   1      38.921  29.138  29.063  1.00  0.00     0.049 A 
ATOM     44  N   UNL A   1      39.238  30.208  31.839  1.00  0.00    -0.248 NA
ATOM     45  C   UNL A   1      37.268  31.424  31.561  1.00  0.00     0.031 C 
ATOM     46  C   UNL A   1      38.854  28.624  27.692  1.00  0.00     0.029 A 
ATOM     47  N   UNL A   1      40.106  28.636  29.545  1.00  0.00    -0.354 N 
ATOM     48  C   UNL A   1      39.019  30.978  32.975  1.00  0.00     0.074 A 
ATOM     49  C   UNL A   1      37.810  31.739  32.731  1.00  0.00     0.031 C 
ATOM     50  C   UNL A   1      39.945  27.881  27.446  1.00  0.00     0.029 A 
ATOM     51  C   UNL A   1      40.801  27.881  28.629  1.00  0.00     0.049 A 
ATOM     52  H   UNL A   1      40.428  28.802  30.461  1.00  0.00     0.167 HD
ATOM     53  C   UNL A   1      39.738  31.030  34.124  1.00  0.00     0.034 A 
ATOM     54  C   UNL A   1      41.993  27.256  28.722  1.00  0.00     0.034 A 
ATOM     55  C   UNL A   1      40.925  30.255  34.379  1.00  0.00     0.049 A 
ATOM     56  C   UNL A   1      42.752  27.303  30.019  1.00  0.00     0.074 A 
ATOM     57  C   UNL A   1      41.668  30.177  35.545  1.00  0.00     0.029 A 
ATOM     58  N   UNL A   1      41.554  29.435  33.455  1.00  0.00    -0.354 N 
ATOM     59  N   UNL A   1      42.429  27.895  31.143  1.00  0.00    -0.248 NA
ATOM     60  C   UNL A   1      44.021  26.562  30.075  1.00  0.00     0.031 C 
ATOM     61  C   UNL A   1      42.758  29.330  35.319  1.00  0.00     0.029 A 
ATOM     62  C   UNL A   1      42.680  28.857  34.020  1.00  0.00     0.049 A 
ATOM     63  H   UNL A   1      41.246  29.285  32.532  1.00  0.00     0.167 HD
ATOM     64  C   UNL A   1      43.432  27.567  32.048  1.00  0.00     0.074 A 
ATOM     65  C   UNL A   1      44.363  26.707  31.349  1.00  0.00     0.031 C 
ATOM     66  C   UNL A   1      43.574  27.958  33.339  1.00  0.00     0.034 A 
BRANCH  53  67
ATOM     67  C   UNL A   1      39.227  31.914  35.235  1.00  0.00     0.023 A 
ATOM     68  C   UNL A   1      38.290  31.397  36.154  1.00  0.00     0.012 A 
ATOM     69  C   UNL A   1      39.732  33.216  35.425  1.00  0.00     0.148 A 
ATOM     70  C   UNL A   1      37.839  32.170  37.223  1.00  0.00     0.002 A 
ATOM     71  C   UNL A   1      39.310  33.965  36.518  1.00  0.00     0.091 A 
ATOM     72  F   UNL A   1      40.613  33.697  34.536  1.00  0.00    -0.205 F 
ATOM     73  C   UNL A   1      38.357  33.449  37.410  1.00  0.00     0.022 A 
BRANCH  71  74
ATOM     74  S   UNL A   1      39.973  35.593  36.896  1.00  0.00     0.127 S 
ATOM     75  O   UNL A   1      39.237  35.936  38.111  1.00  0.00    -0.237 OA
ATOM     76  O   UNL A   1      41.392  35.308  37.103  1.00  0.00    -0.237 OA
ATOM     77  O   UNL A   1      39.683  36.424  35.735  1.00  0.00    -0.744 OA
ENDBRANCH  71  74
ENDBRANCH  53  67
BRANCH  54  78
ATOM     78  C   UNL A   1      42.511  26.469  27.567  1.00  0.00     0.023 A 
ATOM     79  C   UNL A   1      43.407  27.075  26.663  1.00  0.00     0.012 A 
ATOM     80  C   UNL A   1      42.141  25.125  27.369  1.00  0.00     0.148 A 
ATOM     81  C   UNL A   1      43.898  26.367  25.565  1.00  0.00     0.002 A 
ATOM     82  C   UNL A   1      42.678  24.409  26.306  1.00  0.00     0.091 A 
ATOM     83  F   UNL A   1      41.278  24.571  28.232  1.00  0.00    -0.205 F 
ATOM     84  C   UNL A   1      43.542  25.033  25.393  1.00  0.00     0.022 A 
BRANCH  82  85
ATOM     85  S   UNL A   1      42.382  22.651  26.086  1.00  0.00     0.127 S 
ATOM     86  O   UNL A   1      43.087  22.382  24.837  1.00  0.00    -0.237 OA
ATOM     87  O   UNL A   1      43.008  22.086  27.284  1.00  0.00    -0.237 OA
ATOM     88  O   UNL A   1      40.934  22.501  26.044  1.00  0.00    -0.744 OA
ENDBRANCH  82  85
ENDBRANCH  54  78
BRANCH  66  89
ATOM     89  C   UNL A   1      44.763  27.431  34.104  1.00  0.00     0.023 A 
ATOM     90  C   UNL A   1      46.012  28.072  33.990  1.00  0.00     0.012 A 
ATOM     91  C   UNL A   1      44.624  26.342  34.988  1.00  0.00     0.148 A 
ATOM     92  C   UNL A   1      47.112  27.618  34.717  1.00  0.00     0.002 A 
ATOM     93  C   UNL A   1      45.713  25.926  35.746  1.00  0.00     0.091 A 
ATOM     94  F   UNL A   1      43.434  25.731  35.068  1.00  0.00    -0.205 F 
ATOM     95  C   UNL A   1      46.960  26.554  35.602  1.00  0.00     0.022 A 
BRANCH  93  96
ATOM     96  S   UNL A   1      45.587  24.626  36.980  1.00  0.00     0.127 S 
ATOM     97  O   UNL A   1      44.231  24.827  37.487  1.00  0.00    -0.237 OA
ATOM     98  O   UNL A   1      45.763  23.416  36.175  1.00  0.00    -0.237 OA
ATOM     99  O   UNL A   1      46.657  24.875  37.937  1.00  0.00    -0.744 OA
ENDBRANCH  93  96
ENDBRANCH  66  89
ENDBRANCH  40  41
ENDBRANCH  32  35
ENDBRANCH  30  31
ENDBRANCH  29  30
ENDBRANCH  28  29
ENDBRANCH   1  28
TORSDOF 20
ENDMDL
MODEL 3
REMARK VINA RESULT:     -11.0      1.211      7.946
REMARK SMILES CC(=O)N[C@@H](Cc1c(OCC(C)C)ccc2ccccc12)C(=O)NCCCCNC(=O)c1ccc(-c2c3nc(c(-c4cccc(S(=O)(=O)[O-])c4F)c4ccc([nH]4)c(-c4cccc(S(=O)(=O)[O-])c4F)c4nc(c(-c5cccc(S(=O)(=O)[O-])c5F)c5ccc2[nH]5)C=C4)C=C3)cc1
REMARK SMILES IDX 25 1 24 2 22 3 23 4 5 6 4 7 1 8 2 9 3 10 6 12 7 13 8 14
REMARK SMILES IDX 21 15 14 16 16 17 20 18 15 19 17 20 19 21 18 22 9 23 10 24
REMARK SMILES IDX 11 25 12 26 13 27 26 28 27 29 28 30 29 31 30 32 31 34 32 35
REMARK SMILES IDX 33 36 94 37 34 38 93 39 35 40 36 41 37 42 87 43 38 44 92 45
REMARK SMILES IDX 86 46 88 47 39 48 91 49 85 50 84 51 40 53 72 54 52 55 71 56
REMARK SMILES IDX 53 57 56 58 70 59 89 60 54 61 55 62 69 64 90 65 57 66 41 67
REMARK SMILES IDX 42 68 50 69 43 70 45 71 51 72 44 73 46 74 47 75 48 76 49 77
REMARK SMILES IDX 73 78 74 79 82 80 75 81 77 82 83 83 76 84 78 85 79 86 80 87
REMARK SMILES IDX 81 88 58 89 59 90 67 91 60 92 62 93 68 94 61 95 63 96 64 97
REMARK SMILES IDX 65 98 66 99
REMARK H PARENT 24 5 4 11 29 33 88 52 56 63
REMARK Flexibility Score: inf
ROOT
ATOM      1  C   UNL A   1      33.234  28.992  26.335  1.00  0.00     0.116 C 
ENDROOT
BRANCH   1   2
ATOM      2  N   UNL A   1      33.631  29.336  24.981  1.00  0.00    -0.354 N 
ATOM      3  C   UNL A   1      33.571  28.618  23.817  1.00  0.00     0.242 C 
ATOM      4  O   UNL A   1      33.676  29.267  22.767  1.00  0.00    -0.273 OA
ATOM      5  H   UNL A   1      34.008  30.240  24.884  1.00  0.00     0.163 HD
BRANCH   3   6
ATOM      6  C   UNL A   1      33.333  27.082  23.728  1.00  0.00     0.175 C 
BRANCH   6   7
ATOM      7  N   UNL A   1      33.756  26.513  22.448  1.00  0.00    -0.344 N 
ATOM      8  C   UNL A   1      31.616  25.350  22.001  1.00  0.00     0.114 C 
ATOM      9  C   UNL A   1      32.974  25.832  21.556  1.00  0.00     0.217 C 
ATOM     10  O   UNL A   1      33.405  25.590  20.431  1.00  0.00    -0.275 OA
ATOM     11  H   UNL A   1      34.702  26.633  22.204  1.00  0.00     0.164 HD
ENDBRANCH   6   7
BRANCH   6  12
ATOM     12  C   UNL A   1      33.715  26.228  24.965  1.00  0.00     0.075 C 
BRANCH  12  13
ATOM     13  C   UNL A   1      32.864  25.002  25.255  1.00  0.00     0.005 A 
ATOM     14  C   UNL A   1      31.506  25.206  25.574  1.00  0.00     0.123 A 
ATOM     15  C   UNL A   1      33.384  23.667  25.239  1.00  0.00    -0.011 A 
ATOM     16  C   UNL A   1      30.767  24.169  26.133  1.00  0.00     0.047 A 
ATOM     17  C   UNL A   1      32.571  22.615  25.738  1.00  0.00    -0.018 A 
ATOM     18  C   UNL A   1      34.640  23.290  24.700  1.00  0.00     0.009 A 
ATOM     19  C   UNL A   1      31.306  22.894  26.249  1.00  0.00     0.012 A 
ATOM     20  C   UNL A   1      33.004  21.281  25.694  1.00  0.00     0.009 A 
ATOM     21  C   UNL A   1      35.038  21.949  24.615  1.00  0.00     0.001 A 
ATOM     22  C   UNL A   1      34.222  20.945  25.114  1.00  0.00     0.001 A 
BRANCH  14  23
ATOM     23  O   UNL A   1      30.955  26.410  25.208  1.00  0.00    -0.493 OA
BRANCH  23  24
ATOM     24  C   UNL A   1      29.600  26.429  24.767  1.00  0.00     0.232 C 
BRANCH  24  25
ATOM     25  C   UNL A   1      29.302  27.417  23.625  1.00  0.00     0.020 C 
ATOM     26  C   UNL A   1      27.828  27.768  23.438  1.00  0.00     0.011 C 
ATOM     27  C   UNL A   1      30.120  28.694  23.848  1.00  0.00     0.011 C 
ENDBRANCH  24  25
ENDBRANCH  23  24
ENDBRANCH  14  23
ENDBRANCH  12  13
ENDBRANCH   6  12
ENDBRANCH   3   6
ENDBRANCH   1   2
BRANCH   1  28
ATOM     28  C   UNL A   1      32.037  29.768  26.884  1.00  0.00     0.023 C 
BRANCH  28  29
ATOM     29  C   UNL A   1      31.959  31.275  26.586  1.00  0.00     0.023 C 
BRANCH  29  30
ATOM     30  C   UNL A   1      32.989  32.219  27.215  1.00  0.00     0.116 C 
BRANCH  30  31
ATOM     31  N   UNL A   1      32.519  33.548  27.560  1.00  0.00    -0.352 N 
ATOM     32  C   UNL A   1      33.080  34.449  28.440  1.00  0.00     0.251 C 
ATOM     33  H   UNL A   1      31.695  33.842  27.108  1.00  0.00     0.163 HD
ATOM     34  O   UNL A   1      32.583  35.566  28.575  1.00  0.00    -0.269 OA
BRANCH  32  35
ATOM     35  C   UNL A   1      34.262  34.070  29.253  1.00  0.00     0.039 A 
ATOM     36  C   UNL A   1      34.060  33.456  30.492  1.00  0.00     0.014 A 
ATOM     37  C   UNL A   1      35.563  34.308  28.806  1.00  0.00     0.014 A 
ATOM     38  C   UNL A   1      35.159  33.006  31.238  1.00  0.00     0.010 A 
ATOM     39  C   UNL A   1      36.659  33.827  29.531  1.00  0.00     0.010 A 
ATOM     40  C   UNL A   1      36.469  33.149  30.745  1.00  0.00    -0.014 A 
BRANCH  40  41
ATOM     41  C   UNL A   1      37.620  32.499  31.435  1.00  0.00     0.031 A 
ATOM     42  C   UNL A   1      38.369  31.348  30.817  1.00  0.00     0.074 A 
ATOM     43  C   UNL A   1      37.943  32.901  32.683  1.00  0.00     0.049 A 
ATOM     44  N   UNL A   1      39.389  30.679  31.295  1.00  0.00    -0.248 NA
ATOM     45  C   UNL A   1      37.906  30.876  29.505  1.00  0.00     0.031 C 
ATOM     46  C   UNL A   1      37.244  33.942  33.439  1.00  0.00     0.029 A 
ATOM     47  N   UNL A   1      38.921  32.467  33.546  1.00  0.00    -0.354 N 
ATOM     48  C   UNL A   1      39.680  29.695  30.356  1.00  0.00     0.074 A 
ATOM     49  C   UNL A   1      38.708  29.839  29.291  1.00  0.00     0.031 C 
ATOM     50  C   UNL A   1      37.814  34.068  34.648  1.00  0.00     0.029 A 
ATOM     51  C   UNL A   1      38.905  33.105  34.765  1.00  0.00     0.049 A 
ATOM     52  H   UNL A   1      39.572  31.766  33.313  1.00  0.00     0.167 HD
ATOM     53  C   UNL A   1      40.678  28.776  30.364  1.00  0.00     0.034 A 
ATOM     54  C   UNL A   1      39.677  32.938  35.858  1.00  0.00     0.034 A 
ATOM     55  C   UNL A   1      41.661  28.649  31.408  1.00  0.00     0.049 A 
ATOM     56  C   UNL A   1      40.797  31.935  35.826  1.00  0.00     0.074 A 
ATOM     57  C   UNL A   1      42.759  27.806  31.458  1.00  0.00     0.029 A 
ATOM     58  N   UNL A   1      41.663  29.370  32.592  1.00  0.00    -0.354 N 
ATOM     59  N   UNL A   1      41.164  31.140  34.851  1.00  0.00    -0.248 NA
ATOM     60  C   UNL A   1      41.635  31.833  37.030  1.00  0.00     0.031 C 
ATOM     61  C   UNL A   1      43.410  28.000  32.681  1.00  0.00     0.029 A 
ATOM     62  C   UNL A   1      42.734  28.985  33.383  1.00  0.00     0.049 A 
ATOM     63  H   UNL A   1      41.001  30.056  32.836  1.00  0.00     0.167 HD
ATOM     64  C   UNL A   1      42.295  30.474  35.308  1.00  0.00     0.074 A 
ATOM     65  C   UNL A   1      42.567  30.973  36.640  1.00  0.00     0.031 C 
ATOM     66  C   UNL A   1      43.033  29.523  34.685  1.00  0.00     0.034 A 
BRANCH  53  67
ATOM     67  C   UNL A   1      40.803  27.863  29.169  1.00  0.00     0.023 A 
ATOM     68  C   UNL A   1      40.004  26.703  29.100  1.00  0.00     0.012 A 
ATOM     69  C   UNL A   1      41.638  28.191  28.081  1.00  0.00     0.148 A 
ATOM     70  C   UNL A   1      40.057  25.867  27.985  1.00  0.00     0.002 A 
ATOM     71  C   UNL A   1      41.652  27.375  26.955  1.00  0.00     0.091 A 
ATOM     72  F   UNL A   1      42.400  29.291  28.168  1.00  0.00    -0.205 F 
ATOM     73  C   UNL A   1      40.872  26.209  26.910  1.00  0.00     0.022 A 
BRANCH  71  74
ATOM     74  S   UNL A   1      42.607  27.767  25.484  1.00  0.00     0.127 S 
ATOM     75  O   UNL A   1      42.408  26.565  24.674  1.00  0.00    -0.237 OA
ATOM     76  O   UNL A   1      41.926  28.959  24.981  1.00  0.00    -0.237 OA
ATOM     77  O   UNL A   1      43.972  27.993  25.939  1.00  0.00    -0.744 OA
ENDBRANCH  71  74
ENDBRANCH  53  67
BRANCH  54  78
ATOM     78  C   UNL A   1      39.460  33.795  37.059  1.00  0.00     0.023 A 
ATOM     79  C   UNL A   1      39.895  35.136  37.039  1.00  0.00     0.012 A 
ATOM     80  C   UNL A   1      38.812  33.301  38.207  1.00  0.00     0.148 A 
ATOM     81  C   UNL A   1      39.718  35.957  38.153  1.00  0.00     0.002 A 
ATOM     82  C   UNL A   1      38.588  34.141  39.291  1.00  0.00     0.091 A 
ATOM     83  F   UNL A   1      38.418  32.019  38.211  1.00  0.00    -0.205 F 
ATOM     84  C   UNL A   1      39.057  35.464  39.274  1.00  0.00     0.022 A 
BRANCH  82  85
ATOM     85  S   UNL A   1      37.626  33.629  40.719  1.00  0.00     0.127 S 
ATOM     86  O   UNL A   1      36.421  33.094  40.092  1.00  0.00    -0.237 OA
ATOM     87  O   UNL A   1      38.501  32.629  41.332  1.00  0.00    -0.237 OA
ATOM     88  O   UNL A   1      37.444  34.833  41.519  1.00  0.00    -0.744 OA
ENDBRANCH  82  85
ENDBRANCH  54  78
BRANCH  66  89
ATOM     89  C   UNL A   1      44.235  28.976  35.414  1.00  0.00     0.023 A 
ATOM     90  C   UNL A   1      45.498  29.575  35.235  1.00  0.00     0.012 A 
ATOM     91  C   UNL A   1      44.100  27.911  36.328  1.00  0.00     0.148 A 
ATOM     92  C   UNL A   1      46.612  29.103  35.928  1.00  0.00     0.002 A 
ATOM     93  C   UNL A   1      45.206  27.478  37.051  1.00  0.00     0.091 A 
ATOM     94  F   UNL A   1      42.896  27.340  36.470  1.00  0.00    -0.205 F 
ATOM     95  C   UNL A   1      46.464  28.064  36.843  1.00  0.00     0.022 A 
BRANCH  93  96
ATOM     96  S   UNL A   1      45.090  26.210  38.319  1.00  0.00     0.127 S 
ATOM     97  O   UNL A   1      46.354  26.387  39.032  1.00  0.00    -0.237 OA
ATOM     98  O   UNL A   1      43.905  26.627  39.068  1.00  0.00    -0.237 OA
ATOM     99  O   UNL A   1      44.944  24.946  37.610  1.00  0.00    -0.744 OA
ENDBRANCH  93  96
ENDBRANCH  66  89
ENDBRANCH  40  41
ENDBRANCH  32  35
ENDBRANCH  30  31
ENDBRANCH  29  30
ENDBRANCH  28  29
ENDBRANCH   1  28
TORSDOF 20
ENDMDL
