MODEL 1
REMARK VINA RESULT:     -12.6      0.000      0.000
REMARK SMILES O=C(NCCCCNC(=O)c1ccc(Nc2c([N+](=O)[O-])c(=O)oc3ccccc23)cc1O)c1ccc(-c2c3nc(c(-c4cccc(S(=O)(=O)[O-])c4F)c4ccc([nH]4)c(-c4cccc(S(=O)(=O)[O-])c4F)c4nc(c(-c5cccc(S(=O)(=O)[O-])c5F)c5ccc2[nH]5)C=C4)C=C3)cc1
REMARK SMILES IDX 5 1 4 2 3 3 1 4 2 5 33 7 34 8 95 9 35 10 94 11 36 12 37 13
REMARK SMILES IDX 38 14 88 15 39 16 93 17 87 18 89 19 40 20 92 21 86 22 85 23
REMARK SMILES IDX 41 25 73 26 53 27 72 28 54 29 57 30 71 31 90 32 55 33 56 34
REMARK SMILES IDX 70 36 91 37 58 38 42 39 43 40 51 41 44 42 46 43 52 44 45 45
REMARK SMILES IDX 47 46 48 47 49 48 50 49 74 50 75 51 83 52 76 53 78 54 84 55
REMARK SMILES IDX 77 56 79 57 80 58 81 59 82 60 59 61 60 62 68 63 61 64 63 65
REMARK SMILES IDX 69 66 62 67 64 68 65 69 66 70 67 71 6 72 7 73 8 74 9 75
REMARK SMILES IDX 10 77 11 78 12 79 31 80 13 81 30 82 14 83 32 84 15 86 16 88
REMARK SMILES IDX 17 89 29 90 21 91 24 92 28 93 22 94 23 95 25 96 27 97 26 98
REMARK SMILES IDX 18 99 19 100 20 101
REMARK H PARENT 3 6 89 24 57 35 8 76 32 85 15 87
REMARK Flexibility Score: inf
ROOT
ATOM      1  C   UNL A   1      33.644  28.430  25.452  1.00  0.00     0.023 C 
ENDROOT
BRANCH   1   2
ATOM      2  C   UNL A   1      33.873  28.735  26.927  1.00  0.00     0.116 C 
BRANCH   2   3
ATOM      3  N   UNL A   1      33.682  30.139  27.249  1.00  0.00    -0.352 N 
ATOM      4  O   UNL A   1      34.083  32.090  28.301  1.00  0.00    -0.269 OA
ATOM      5  C   UNL A   1      34.477  30.966  28.009  1.00  0.00     0.251 C 
ATOM      6  H   UNL A   1      32.874  30.556  26.872  1.00  0.00     0.163 HD
BRANCH   5   7
ATOM      7  C   UNL A   1      35.789  30.479  28.490  1.00  0.00     0.039 A 
ATOM      8  C   UNL A   1      35.871  29.647  29.611  1.00  0.00     0.014 A 
ATOM      9  C   UNL A   1      36.951  30.857  27.811  1.00  0.00     0.014 A 
ATOM     10  C   UNL A   1      37.115  29.299  30.126  1.00  0.00     0.010 A 
ATOM     11  C   UNL A   1      38.198  30.438  28.285  1.00  0.00     0.010 A 
ATOM     12  C   UNL A   1      38.292  29.673  29.457  1.00  0.00    -0.014 A 
BRANCH  12  13
ATOM     13  C   UNL A   1      39.595  29.146  29.934  1.00  0.00     0.031 A 
ATOM     14  C   UNL A   1      40.330  29.774  31.086  1.00  0.00     0.074 A 
ATOM     15  C   UNL A   1      40.123  28.087  29.288  1.00  0.00     0.049 A 
ATOM     16  N   UNL A   1      41.465  29.411  31.625  1.00  0.00    -0.248 NA
ATOM     17  C   UNL A   1      39.725  30.961  31.709  1.00  0.00     0.031 C 
ATOM     18  C   UNL A   1      39.526  27.436  28.118  1.00  0.00     0.029 A 
ATOM     19  N   UNL A   1      41.276  27.379  29.507  1.00  0.00    -0.354 N 
ATOM     20  C   UNL A   1      41.734  30.342  32.622  1.00  0.00     0.074 A 
ATOM     21  C   UNL A   1      40.639  31.288  32.616  1.00  0.00     0.031 C 
ATOM     22  C   UNL A   1      40.309  26.419  27.731  1.00  0.00     0.029 A 
ATOM     23  C   UNL A   1      41.484  26.374  28.592  1.00  0.00     0.049 A 
ATOM     24  H   UNL A   1      41.894  27.571  30.249  1.00  0.00     0.167 HD
ATOM     25  C   UNL A   1      42.790  30.390  33.468  1.00  0.00     0.034 A 
ATOM     26  C   UNL A   1      42.516  25.523  28.444  1.00  0.00     0.034 A 
ATOM     27  C   UNL A   1      43.851  29.415  33.496  1.00  0.00     0.049 A 
ATOM     28  C   UNL A   1      43.654  25.586  29.420  1.00  0.00     0.074 A 
ATOM     29  C   UNL A   1      44.904  29.320  34.389  1.00  0.00     0.029 A 
ATOM     30  N   UNL A   1      44.002  28.380  32.587  1.00  0.00    -0.354 N 
ATOM     31  N   UNL A   1      43.800  26.365  30.463  1.00  0.00    -0.248 NA
ATOM     32  C   UNL A   1      44.758  24.638  29.215  1.00  0.00     0.031 C 
ATOM     33  C   UNL A   1      45.708  28.240  34.004  1.00  0.00     0.029 A 
ATOM     34  C   UNL A   1      45.146  27.655  32.881  1.00  0.00     0.049 A 
ATOM     35  H   UNL A   1      43.388  28.187  31.842  1.00  0.00     0.167 HD
ATOM     36  C   UNL A   1      45.004  25.997  31.047  1.00  0.00     0.074 A 
ATOM     37  C   UNL A   1      45.528  24.896  30.263  1.00  0.00     0.031 C 
ATOM     38  C   UNL A   1      45.634  26.538  32.117  1.00  0.00     0.034 A 
BRANCH  25  39
ATOM     39  C   UNL A   1      42.848  31.503  34.479  1.00  0.00     0.023 A 
ATOM     40  C   UNL A   1      43.579  32.671  34.184  1.00  0.00     0.012 A 
ATOM     41  C   UNL A   1      42.080  31.447  35.660  1.00  0.00     0.148 A 
ATOM     42  C   UNL A   1      43.554  33.762  35.052  1.00  0.00     0.002 A 
ATOM     43  C   UNL A   1      42.033  32.552  36.504  1.00  0.00     0.091 A 
ATOM     44  F   UNL A   1      41.404  30.321  35.929  1.00  0.00    -0.205 F 
ATOM     45  C   UNL A   1      42.773  33.707  36.204  1.00  0.00     0.022 A 
BRANCH  43  46
ATOM     46  S   UNL A   1      41.001  32.610  37.974  1.00  0.00     0.127 S 
ATOM     47  O   UNL A   1      41.805  31.847  38.928  1.00  0.00    -0.237 OA
ATOM     48  O   UNL A   1      40.936  34.047  38.246  1.00  0.00    -0.237 OA
ATOM     49  O   UNL A   1      39.733  32.001  37.602  1.00  0.00    -0.744 OA
ENDBRANCH  43  46
ENDBRANCH  25  39
BRANCH  26  50
ATOM     50  C   UNL A   1      42.495  24.521  27.342  1.00  0.00     0.023 A 
ATOM     51  C   UNL A   1      43.312  24.712  26.212  1.00  0.00     0.012 A 
ATOM     52  C   UNL A   1      41.702  23.360  27.427  1.00  0.00     0.148 A 
ATOM     53  C   UNL A   1      43.321  23.778  25.177  1.00  0.00     0.002 A 
ATOM     54  C   UNL A   1      41.763  22.403  26.422  1.00  0.00     0.091 A 
ATOM     55  F   UNL A   1      40.911  23.203  28.499  1.00  0.00    -0.205 F 
ATOM     56  C   UNL A   1      42.558  22.616  25.287  1.00  0.00     0.022 A 
BRANCH  54  57
ATOM     57  S   UNL A   1      40.926  20.822  26.582  1.00  0.00     0.127 S 
ATOM     58  O   UNL A   1      41.746  19.960  25.736  1.00  0.00    -0.237 OA
ATOM     59  O   UNL A   1      41.029  20.555  28.018  1.00  0.00    -0.237 OA
ATOM     60  O   UNL A   1      39.565  21.069  26.123  1.00  0.00    -0.744 OA
ENDBRANCH  54  57
ENDBRANCH  26  50
BRANCH  38  61
ATOM     61  C   UNL A   1      46.965  25.950  32.501  1.00  0.00     0.023 A 
ATOM     62  C   UNL A   1      48.139  26.463  31.916  1.00  0.00     0.012 A 
ATOM     63  C   UNL A   1      47.060  24.938  33.475  1.00  0.00     0.148 A 
ATOM     64  C   UNL A   1      49.388  25.956  32.271  1.00  0.00     0.002 A 
ATOM     65  C   UNL A   1      48.311  24.467  33.856  1.00  0.00     0.091 A 
ATOM     66  F   UNL A   1      45.929  24.449  34.004  1.00  0.00    -0.205 F 
ATOM     67  C   UNL A   1      49.475  24.966  33.247  1.00  0.00     0.022 A 
BRANCH  65  68
ATOM     68  S   UNL A   1      48.522  23.256  35.165  1.00  0.00     0.127 S 
ATOM     69  O   UNL A   1      47.772  23.867  36.262  1.00  0.00    -0.237 OA
ATOM     70  O   UNL A   1      47.898  22.062  34.592  1.00  0.00    -0.237 OA
ATOM     71  O   UNL A   1      49.959  23.141  35.375  1.00  0.00    -0.744 OA
ENDBRANCH  65  68
ENDBRANCH  38  61
ENDBRANCH  12  13
ENDBRANCH   5   7
ENDBRANCH   2   3
ENDBRANCH   1   2
BRANCH   1  72
ATOM     72  C   UNL A   1      32.929  29.524  24.664  1.00  0.00     0.023 C 
BRANCH  72  73
ATOM     73  C   UNL A   1      31.411  29.557  24.816  1.00  0.00     0.116 C 
BRANCH  73  74
ATOM     74  N   UNL A   1      30.712  29.712  23.553  1.00  0.00    -0.352 N 
ATOM     75  C   UNL A   1      30.325  28.743  22.662  1.00  0.00     0.255 C 
ATOM     76  H   UNL A   1      30.484  30.637  23.302  1.00  0.00     0.163 HD
ATOM     77  O   UNL A   1      29.756  29.046  21.617  1.00  0.00    -0.269 OA
BRANCH  75  78
ATOM     78  C   UNL A   1      30.681  27.333  22.907  1.00  0.00     0.081 A 
ATOM     79  C   UNL A   1      31.937  26.916  22.464  1.00  0.00     0.020 A 
ATOM     80  C   UNL A   1      29.838  26.428  23.554  1.00  0.00     0.130 A 
ATOM     81  C   UNL A   1      32.372  25.616  22.726  1.00  0.00     0.027 A 
ATOM     82  C   UNL A   1      30.287  25.134  23.837  1.00  0.00     0.073 A 
ATOM     83  C   UNL A   1      31.565  24.714  23.434  1.00  0.00     0.042 A 
BRANCH  80  84
ATOM     84  O   UNL A   1      28.579  26.805  23.929  1.00  0.00    -0.507 OA
ATOM     85  H   UNL A   1      27.832  26.449  23.489  1.00  0.00     0.293 HD
ENDBRANCH  80  84
BRANCH  83  86
ATOM     86  N   UNL A   1      32.003  23.428  23.806  1.00  0.00    -0.349 N 
ATOM     87  H   UNL A   1      31.725  22.685  23.224  1.00  0.00     0.167 HD
BRANCH  86  88
ATOM     88  C   UNL A   1      32.785  23.095  24.900  1.00  0.00     0.137 A 
ATOM     89  C   UNL A   1      32.393  22.907  26.175  1.00  0.00     0.377 A 
ATOM     90  C   UNL A   1      34.235  22.930  24.644  1.00  0.00     0.048 A 
ATOM     91  C   UNL A   1      33.253  22.586  27.310  1.00  0.00     0.417 A 
ATOM     92  C   UNL A   1      35.098  22.715  25.721  1.00  0.00     0.141 A 
ATOM     93  C   UNL A   1      34.810  23.019  23.366  1.00  0.00     0.014 A 
ATOM     94  O   UNL A   1      32.844  22.326  28.436  1.00  0.00    -0.238 OA
ATOM     95  O   UNL A   1      34.615  22.584  27.036  1.00  0.00    -0.418 OA
ATOM     96  C   UNL A   1      36.479  22.606  25.561  1.00  0.00     0.048 A 
ATOM     97  C   UNL A   1      36.193  22.895  23.188  1.00  0.00     0.001 A 
ATOM     98  C   UNL A   1      37.028  22.695  24.286  1.00  0.00     0.004 A 
BRANCH  89  99
ATOM     99  N   UNL A   1      30.991  22.950  26.465  1.00  0.00     0.073 N 
ATOM    100  O   UNL A   1      30.581  23.906  27.137  1.00  0.00    -0.258 OA
ATOM    101  O   UNL A   1      30.296  22.028  26.016  1.00  0.00    -0.258 OA
ENDBRANCH  89  99
ENDBRANCH  86  88
ENDBRANCH  83  86
ENDBRANCH  75  78
ENDBRANCH  73  74
ENDBRANCH  72  73
ENDBRANCH   1  72
TORSDOF 18
ENDMDL
MODEL 2
REMARK VINA RESULT:     -12.6      5.249      8.685
REMARK SMILES O=C(NCCCCNC(=O)c1ccc(Nc2c([N+](=O)[O-])c(=O)oc3ccccc23)cc1O)c1ccc(-c2c3nc(c(-c4cccc(S(=O)(=O)[O-])c4F)c4ccc([nH]4)c(-c4cccc(S(=O)(=O)[O-])c4F)c4nc(c(-c5cccc(S(=O)(=O)[O-])c5F)c5ccc2[nH]5)C=C4)C=C3)cc1
REMARK SMILES IDX 5 1 4 2 3 3 1 4 2 5 33 7 34 8 95 9 35 10 94 11 36 12 37 13
REMARK SMILES IDX 38 14 88 15 39 16 93 17 87 18 89 19 40 20 92 21 86 22 85 23
REMARK SMILES IDX 41 25 73 26 53 27 72 28 54 29 57 30 71 31 90 32 55 33 56 34
REMARK SMILES IDX 70 36 91 37 58 38 42 39 43 40 51 41 44 42 46 43 52 44 45 45
REMARK SMILES IDX 47 46 48 47 49 48 50 49 74 50 75 51 83 52 76 53 78 54 84 55
REMARK SMILES IDX 77 56 79 57 80 58 81 59 82 60 59 61 60 62 68 63 61 64 63 65
REMARK SMILES IDX 69 66 62 67 64 68 65 69 66 70 67 71 6 72 7 73 8 74 9 75
REMARK SMILES IDX 10 77 11 78 12 79 31 80 13 81 30 82 14 83 32 84 15 86 16 88
REMARK SMILES IDX 17 89 29 90 21 91 24 92 28 93 22 94 23 95 25 96 27 97 26 98
REMARK SMILES IDX 18 99 19 100 20 101
REMARK H PARENT 3 6 89 24 57 35 8 76 32 85 15 87
REMARK Flexibility Score: inf
ROOT
ATOM      1  C   UNL A   1      37.852  19.570  25.001  1.00  0.00     0.023 C 
ENDROOT
BRANCH   1   2
ATOM      2  C   UNL A   1      38.942  20.087  25.930  1.00  0.00     0.116 C 
BRANCH   2   3
ATOM      3  N   UNL A   1      40.094  19.203  25.995  1.00  0.00    -0.352 N 
ATOM      4  O   UNL A   1      42.279  18.657  26.040  1.00  0.00    -0.269 OA
ATOM      5  C   UNL A   1      41.421  19.526  26.157  1.00  0.00     0.251 C 
ATOM      6  H   UNL A   1      39.898  18.242  25.913  1.00  0.00     0.163 HD
BRANCH   5   7
ATOM      7  C   UNL A   1      41.804  20.927  26.445  1.00  0.00     0.039 A 
ATOM      8  C   UNL A   1      42.042  21.343  27.758  1.00  0.00     0.014 A 
ATOM      9  C   UNL A   1      41.928  21.833  25.388  1.00  0.00     0.014 A 
ATOM     10  C   UNL A   1      42.278  22.688  28.026  1.00  0.00     0.010 A 
ATOM     11  C   UNL A   1      42.247  23.169  25.653  1.00  0.00     0.010 A 
ATOM     12  C   UNL A   1      42.404  23.611  26.975  1.00  0.00    -0.014 A 
BRANCH  12  13
ATOM     13  C   UNL A   1      42.823  25.002  27.280  1.00  0.00     0.031 A 
ATOM     14  C   UNL A   1      41.904  25.975  27.965  1.00  0.00     0.074 A 
ATOM     15  C   UNL A   1      44.060  25.386  26.904  1.00  0.00     0.049 A 
ATOM     16  N   UNL A   1      42.139  27.214  28.313  1.00  0.00    -0.248 NA
ATOM     17  C   UNL A   1      40.549  25.508  28.297  1.00  0.00     0.031 C 
ATOM     18  C   UNL A   1      45.015  24.543  26.178  1.00  0.00     0.029 A 
ATOM     19  N   UNL A   1      44.724  26.574  27.065  1.00  0.00    -0.354 N 
ATOM     20  C   UNL A   1      40.956  27.690  28.866  1.00  0.00     0.074 A 
ATOM     21  C   UNL A   1      40.001  26.603  28.811  1.00  0.00     0.031 C 
ATOM     22  C   UNL A   1      46.143  25.235  25.967  1.00  0.00     0.029 A 
ATOM     23  C   UNL A   1      45.977  26.582  26.500  1.00  0.00     0.049 A 
ATOM     24  H   UNL A   1      44.341  27.347  27.540  1.00  0.00     0.167 HD
ATOM     25  C   UNL A   1      40.700  28.916  29.382  1.00  0.00     0.034 A 
ATOM     26  C   UNL A   1      46.887  27.569  26.397  1.00  0.00     0.034 A 
ATOM     27  C   UNL A   1      41.673  29.975  29.476  1.00  0.00     0.049 A 
ATOM     28  C   UNL A   1      46.580  28.904  27.009  1.00  0.00     0.074 A 
ATOM     29  C   UNL A   1      41.537  31.212  30.081  1.00  0.00     0.029 A 
ATOM     30  N   UNL A   1      42.949  29.930  28.938  1.00  0.00    -0.354 N 
ATOM     31  N   UNL A   1      45.519  29.276  27.682  1.00  0.00    -0.248 NA
ATOM     32  C   UNL A   1      47.603  29.950  26.869  1.00  0.00     0.031 C 
ATOM     33  C   UNL A   1      42.726  31.926  29.887  1.00  0.00     0.029 A 
ATOM     34  C   UNL A   1      43.605  31.127  29.175  1.00  0.00     0.049 A 
ATOM     35  H   UNL A   1      43.334  29.162  28.459  1.00  0.00     0.167 HD
ATOM     36  C   UNL A   1      45.749  30.592  28.057  1.00  0.00     0.074 A 
ATOM     37  C   UNL A   1      47.069  30.941  27.569  1.00  0.00     0.031 C 
ATOM     38  C   UNL A   1      44.932  31.446  28.719  1.00  0.00     0.034 A 
BRANCH  25  39
ATOM     39  C   UNL A   1      39.329  29.187  29.940  1.00  0.00     0.023 A 
ATOM     40  C   UNL A   1      38.999  28.721  31.228  1.00  0.00     0.012 A 
ATOM     41  C   UNL A   1      38.415  30.006  29.246  1.00  0.00     0.148 A 
ATOM     42  C   UNL A   1      37.779  29.058  31.814  1.00  0.00     0.002 A 
ATOM     43  C   UNL A   1      37.215  30.365  29.850  1.00  0.00     0.091 A 
ATOM     44  F   UNL A   1      38.743  30.426  28.015  1.00  0.00    -0.205 F 
ATOM     45  C   UNL A   1      36.894  29.888  31.131  1.00  0.00     0.022 A 
BRANCH  43  46
ATOM     46  S   UNL A   1      36.039  31.489  29.085  1.00  0.00     0.127 S 
ATOM     47  O   UNL A   1      35.450  30.638  28.051  1.00  0.00    -0.237 OA
ATOM     48  O   UNL A   1      35.142  31.799  30.200  1.00  0.00    -0.237 OA
ATOM     49  O   UNL A   1      36.817  32.616  28.595  1.00  0.00    -0.744 OA
ENDBRANCH  43  46
ENDBRANCH  25  39
BRANCH  26  50
ATOM     50  C   UNL A   1      48.184  27.310  25.712  1.00  0.00     0.023 A 
ATOM     51  C   UNL A   1      49.281  26.838  26.455  1.00  0.00     0.012 A 
ATOM     52  C   UNL A   1      48.321  27.488  24.321  1.00  0.00     0.148 A 
ATOM     53  C   UNL A   1      50.499  26.571  25.830  1.00  0.00     0.002 A 
ATOM     54  C   UNL A   1      49.518  27.162  23.696  1.00  0.00     0.091 A 
ATOM     55  F   UNL A   1      47.274  27.961  23.630  1.00  0.00    -0.205 F 
ATOM     56  C   UNL A   1      50.615  26.719  24.449  1.00  0.00     0.022 A 
BRANCH  54  57
ATOM     57  S   UNL A   1      49.676  27.183  21.907  1.00  0.00     0.127 S 
ATOM     58  O   UNL A   1      48.653  26.223  21.501  1.00  0.00    -0.237 OA
ATOM     59  O   UNL A   1      49.376  28.578  21.581  1.00  0.00    -0.237 OA
ATOM     60  O   UNL A   1      51.059  26.800  21.647  1.00  0.00    -0.744 OA
ENDBRANCH  54  57
ENDBRANCH  26  50
BRANCH  38  61
ATOM     61  C   UNL A   1      45.440  32.843  28.952  1.00  0.00     0.023 A 
ATOM     62  C   UNL A   1      46.160  33.127  30.129  1.00  0.00     0.012 A 
ATOM     63  C   UNL A   1      45.256  33.855  27.990  1.00  0.00     0.148 A 
ATOM     64  C   UNL A   1      46.664  34.405  30.360  1.00  0.00     0.002 A 
ATOM     65  C   UNL A   1      45.798  35.116  28.207  1.00  0.00     0.091 A 
ATOM     66  F   UNL A   1      44.549  33.570  26.886  1.00  0.00    -0.205 F 
ATOM     67  C   UNL A   1      46.492  35.397  29.396  1.00  0.00     0.022 A 
BRANCH  65  68
ATOM     68  S   UNL A   1      45.700  36.426  26.983  1.00  0.00     0.127 S 
ATOM     69  O   UNL A   1      44.255  36.628  26.876  1.00  0.00    -0.237 OA
ATOM     70  O   UNL A   1      46.421  37.520  27.635  1.00  0.00    -0.237 OA
ATOM     71  O   UNL A   1      46.351  35.905  25.788  1.00  0.00    -0.744 OA
ENDBRANCH  65  68
ENDBRANCH  38  61
ENDBRANCH  12  13
ENDBRANCH   5   7
ENDBRANCH   2   3
ENDBRANCH   1   2
BRANCH   1  72
ATOM     72  C   UNL A   1      36.958  20.643  24.385  1.00  0.00     0.023 C 
BRANCH  72  73
ATOM     73  C   UNL A   1      35.753  21.055  25.225  1.00  0.00     0.116 C 
BRANCH  73  74
ATOM     74  N   UNL A   1      34.770  19.998  25.375  1.00  0.00    -0.352 N 
ATOM     75  C   UNL A   1      33.409  20.063  25.212  1.00  0.00     0.255 C 
ATOM     76  H   UNL A   1      35.127  19.115  25.627  1.00  0.00     0.163 HD
ATOM     77  O   UNL A   1      32.708  19.072  25.402  1.00  0.00    -0.269 OA
BRANCH  75  78
ATOM     78  C   UNL A   1      32.764  21.354  24.906  1.00  0.00     0.081 A 
ATOM     79  C   UNL A   1      32.742  22.303  25.929  1.00  0.00     0.020 A 
ATOM     80  C   UNL A   1      32.199  21.656  23.666  1.00  0.00     0.130 A 
ATOM     81  C   UNL A   1      32.215  23.573  25.689  1.00  0.00     0.027 A 
ATOM     82  C   UNL A   1      31.695  22.937  23.422  1.00  0.00     0.073 A 
ATOM     83  C   UNL A   1      31.705  23.916  24.429  1.00  0.00     0.042 A 
BRANCH  80  84
ATOM     84  O   UNL A   1      32.152  20.710  22.681  1.00  0.00    -0.507 OA
ATOM     85  H   UNL A   1      31.408  20.662  22.112  1.00  0.00     0.293 HD
ENDBRANCH  80  84
BRANCH  83  86
ATOM     86  N   UNL A   1      31.256  25.214  24.115  1.00  0.00    -0.349 N 
ATOM     87  H   UNL A   1      30.284  25.329  24.012  1.00  0.00     0.167 HD
BRANCH  86  88
ATOM     88  C   UNL A   1      32.033  26.347  23.937  1.00  0.00     0.137 A 
ATOM     89  C   UNL A   1      32.770  26.689  22.863  1.00  0.00     0.377 A 
ATOM     90  C   UNL A   1      32.065  27.304  25.067  1.00  0.00     0.048 A 
ATOM     91  C   UNL A   1      33.602  27.880  22.723  1.00  0.00     0.417 A 
ATOM     92  C   UNL A   1      32.922  28.405  25.005  1.00  0.00     0.141 A 
ATOM     93  C   UNL A   1      31.303  27.147  26.237  1.00  0.00     0.014 A 
ATOM     94  O   UNL A   1      34.181  28.202  21.692  1.00  0.00    -0.238 OA
ATOM     95  O   UNL A   1      33.704  28.665  23.865  1.00  0.00    -0.418 OA
ATOM     96  C   UNL A   1      33.046  29.316  26.054  1.00  0.00     0.048 A 
ATOM     97  C   UNL A   1      31.404  28.062  27.291  1.00  0.00     0.001 A 
ATOM     98  C   UNL A   1      32.280  29.142  27.203  1.00  0.00     0.004 A 
BRANCH  89  99
ATOM     99  N   UNL A   1      32.697  25.857  21.700  1.00  0.00     0.073 N 
ATOM    100  O   UNL A   1      33.653  25.099  21.483  1.00  0.00    -0.258 OA
ATOM    101  O   UNL A   1      31.678  25.955  21.001  1.00  0.00    -0.258 OA
ENDBRANCH  89  99
ENDBRANCH  86  88
ENDBRANCH  83  86
ENDBRANCH  75  78
ENDBRANCH  73  74
ENDBRANCH  72  73
ENDBRANCH   1  72
TORSDOF 18
ENDMDL
MODEL 3
REMARK VINA RESULT:     -12.5      2.208      7.695
REMARK SMILES O=C(NCCCCNC(=O)c1ccc(Nc2c([N+](=O)[O-])c(=O)oc3ccccc23)cc1O)c1ccc(-c2c3nc(c(-c4cccc(S(=O)(=O)[O-])c4F)c4ccc([nH]4)c(-c4cccc(S(=O)(=O)[O-])c4F)c4nc(c(-c5cccc(S(=O)(=O)[O-])c5F)c5ccc2[nH]5)C=C4)C=C3)cc1
REMARK SMILES IDX 5 1 4 2 3 3 1 4 2 5 33 7 34 8 95 9 35 10 94 11 36 12 37 13
REMARK SMILES IDX 38 14 88 15 39 16 93 17 87 18 89 19 40 20 92 21 86 22 85 23
REMARK SMILES IDX 41 25 73 26 53 27 72 28 54 29 57 30 71 31 90 32 55 33 56 34
REMARK SMILES IDX 70 36 91 37 58 38 42 39 43 40 51 41 44 42 46 43 52 44 45 45
REMARK SMILES IDX 47 46 48 47 49 48 50 49 74 50 75 51 83 52 76 53 78 54 84 55
REMARK SMILES IDX 77 56 79 57 80 58 81 59 82 60 59 61 60 62 68 63 61 64 63 65
REMARK SMILES IDX 69 66 62 67 64 68 65 69 66 70 67 71 6 72 7 73 8 74 9 75
REMARK SMILES IDX 10 77 11 78 12 79 31 80 13 81 30 82 14 83 32 84 15 86 16 88
REMARK SMILES IDX 17 89 29 90 21 91 24 92 28 93 22 94 23 95 25 96 27 97 26 98
REMARK SMILES IDX 18 99 19 100 20 101
REMARK H PARENT 3 6 89 24 57 35 8 76 32 85 15 87
REMARK Flexibility Score: inf
ROOT
ATOM      1  C   UNL A   1      31.397  31.667  26.105  1.00  0.00     0.023 C 
ENDROOT
BRANCH   1   2
ATOM      2  C   UNL A   1      32.594  32.088  26.946  1.00  0.00     0.116 C 
BRANCH   2   3
ATOM      3  N   UNL A   1      32.573  33.500  27.291  1.00  0.00    -0.352 N 
ATOM      4  O   UNL A   1      33.123  35.351  28.450  1.00  0.00    -0.269 OA
ATOM      5  C   UNL A   1      33.380  34.185  28.169  1.00  0.00     0.251 C 
ATOM      6  H   UNL A   1      31.888  34.039  26.834  1.00  0.00     0.163 HD
BRANCH   5   7
ATOM      7  C   UNL A   1      34.536  33.499  28.789  1.00  0.00     0.039 A 
ATOM      8  C   UNL A   1      35.840  33.936  28.538  1.00  0.00     0.014 A 
ATOM      9  C   UNL A   1      34.312  32.409  29.635  1.00  0.00     0.014 A 
ATOM     10  C   UNL A   1      36.920  33.208  29.026  1.00  0.00     0.010 A 
ATOM     11  C   UNL A   1      35.399  31.727  30.191  1.00  0.00     0.010 A 
ATOM     12  C   UNL A   1      36.712  32.109  29.875  1.00  0.00    -0.014 A 
BRANCH  12  13
ATOM     13  C   UNL A   1      37.882  31.456  30.515  1.00  0.00     0.031 A 
ATOM     14  C   UNL A   1      38.690  30.406  29.805  1.00  0.00     0.074 A 
ATOM     15  C   UNL A   1      38.196  31.818  31.775  1.00  0.00     0.049 A 
ATOM     16  N   UNL A   1      39.748  29.764  30.231  1.00  0.00    -0.248 NA
ATOM     17  C   UNL A   1      38.258  30.016  28.454  1.00  0.00     0.031 C 
ATOM     18  C   UNL A   1      37.443  32.784  32.581  1.00  0.00     0.029 A 
ATOM     19  N   UNL A   1      39.212  31.418  32.602  1.00  0.00    -0.354 N 
ATOM     20  C   UNL A   1      40.087  28.869  29.223  1.00  0.00     0.074 A 
ATOM     21  C   UNL A   1      39.122  29.051  28.159  1.00  0.00     0.031 C 
ATOM     22  C   UNL A   1      38.030  32.910  33.780  1.00  0.00     0.029 A 
ATOM     23  C   UNL A   1      39.169  32.003  33.846  1.00  0.00     0.049 A 
ATOM     24  H   UNL A   1      39.907  30.775  32.332  1.00  0.00     0.167 HD
ATOM     25  C   UNL A   1      41.116  27.989  29.188  1.00  0.00     0.034 A 
ATOM     26  C   UNL A   1      39.943  31.815  34.931  1.00  0.00     0.034 A 
ATOM     27  C   UNL A   1      42.099  27.849  30.232  1.00  0.00     0.049 A 
ATOM     28  C   UNL A   1      41.093  30.854  34.844  1.00  0.00     0.074 A 
ATOM     29  C   UNL A   1      43.238  27.063  30.238  1.00  0.00     0.029 A 
ATOM     30  N   UNL A   1      42.052  28.495  31.457  1.00  0.00    -0.354 N 
ATOM     31  N   UNL A   1      41.498  30.148  33.817  1.00  0.00    -0.248 NA
ATOM     32  C   UNL A   1      41.907  30.682  36.055  1.00  0.00     0.031 C 
ATOM     33  C   UNL A   1      43.868  27.215  31.479  1.00  0.00     0.029 A 
ATOM     34  C   UNL A   1      43.129  28.107  32.238  1.00  0.00     0.049 A 
ATOM     35  H   UNL A   1      41.358  29.135  31.733  1.00  0.00     0.167 HD
ATOM     36  C   UNL A   1      42.619  29.456  34.252  1.00  0.00     0.074 A 
ATOM     37  C   UNL A   1      42.854  29.860  35.624  1.00  0.00     0.031 C 
ATOM     38  C   UNL A   1      43.371  28.547  33.587  1.00  0.00     0.034 A 
BRANCH  25  39
ATOM     39  C   UNL A   1      41.281  27.127  27.965  1.00  0.00     0.023 A 
ATOM     40  C   UNL A   1      41.866  27.674  26.805  1.00  0.00     0.012 A 
ATOM     41  C   UNL A   1      40.976  25.751  28.003  1.00  0.00     0.148 A 
ATOM     42  C   UNL A   1      42.137  26.868  25.700  1.00  0.00     0.002 A 
ATOM     43  C   UNL A   1      41.280  24.948  26.910  1.00  0.00     0.091 A 
ATOM     44  F   UNL A   1      40.406  25.255  29.111  1.00  0.00    -0.205 F 
ATOM     45  C   UNL A   1      41.855  25.505  25.756  1.00  0.00     0.022 A 
BRANCH  43  46
ATOM     46  S   UNL A   1      41.025  23.168  26.908  1.00  0.00     0.127 S 
ATOM     47  O   UNL A   1      39.573  23.080  26.756  1.00  0.00    -0.237 OA
ATOM     48  O   UNL A   1      41.786  22.750  25.731  1.00  0.00    -0.237 OA
ATOM     49  O   UNL A   1      41.548  22.685  28.177  1.00  0.00    -0.744 OA
ENDBRANCH  43  46
ENDBRANCH  25  39
BRANCH  26  50
ATOM     50  C   UNL A   1      39.666  32.581  36.178  1.00  0.00     0.023 A 
ATOM     51  C   UNL A   1      40.329  33.801  36.406  1.00  0.00     0.012 A 
ATOM     52  C   UNL A   1      38.718  32.129  37.116  1.00  0.00     0.148 A 
ATOM     53  C   UNL A   1      40.071  34.544  37.558  1.00  0.00     0.002 A 
ATOM     54  C   UNL A   1      38.420  32.904  38.230  1.00  0.00     0.091 A 
ATOM     55  F   UNL A   1      38.111  30.953  36.897  1.00  0.00    -0.205 F 
ATOM     56  C   UNL A   1      39.107  34.104  38.463  1.00  0.00     0.022 A 
BRANCH  54  57
ATOM     57  S   UNL A   1      37.081  32.467  39.345  1.00  0.00     0.127 S 
ATOM     58  O   UNL A   1      35.906  32.694  38.509  1.00  0.00    -0.237 OA
ATOM     59  O   UNL A   1      37.364  31.061  39.640  1.00  0.00    -0.237 OA
ATOM     60  O   UNL A   1      37.241  33.354  40.490  1.00  0.00    -0.744 OA
ENDBRANCH  54  57
ENDBRANCH  26  50
BRANCH  38  61
ATOM     61  C   UNL A   1      44.517  27.922  34.335  1.00  0.00     0.023 A 
ATOM     62  C   UNL A   1      45.773  28.562  34.333  1.00  0.00     0.012 A 
ATOM     63  C   UNL A   1      44.342  26.741  35.082  1.00  0.00     0.148 A 
ATOM     64  C   UNL A   1      46.845  28.019  35.038  1.00  0.00     0.002 A 
ATOM     65  C   UNL A   1      45.405  26.229  35.818  1.00  0.00     0.091 A 
ATOM     66  F   UNL A   1      43.145  26.136  35.054  1.00  0.00    -0.205 F 
ATOM     67  C   UNL A   1      46.659  26.860  35.788  1.00  0.00     0.022 A 
BRANCH  65  68
ATOM     68  S   UNL A   1      45.232  24.791  36.880  1.00  0.00     0.127 S 
ATOM     69  O   UNL A   1      44.074  25.159  37.695  1.00  0.00    -0.237 OA
ATOM     70  O   UNL A   1      44.982  23.718  35.915  1.00  0.00    -0.237 OA
ATOM     71  O   UNL A   1      46.493  24.672  37.598  1.00  0.00    -0.744 OA
ENDBRANCH  65  68
ENDBRANCH  38  61
ENDBRANCH  12  13
ENDBRANCH   5   7
ENDBRANCH   2   3
ENDBRANCH   1   2
BRANCH   1  72
ATOM     72  C   UNL A   1      31.235  30.162  25.909  1.00  0.00     0.023 C 
BRANCH  72  73
ATOM     73  C   UNL A   1      31.822  29.601  24.618  1.00  0.00     0.116 C 
BRANCH  73  74
ATOM     74  N   UNL A   1      30.940  29.754  23.473  1.00  0.00    -0.352 N 
ATOM     75  C   UNL A   1      30.383  28.779  22.685  1.00  0.00     0.255 C 
ATOM     76  H   UNL A   1      30.711  30.680  23.232  1.00  0.00     0.163 HD
ATOM     77  O   UNL A   1      29.670  29.079  21.730  1.00  0.00    -0.269 OA
BRANCH  75  78
ATOM     78  C   UNL A   1      30.719  27.362  22.916  1.00  0.00     0.081 A 
ATOM     79  C   UNL A   1      31.985  26.941  22.504  1.00  0.00     0.020 A 
ATOM     80  C   UNL A   1      29.848  26.454  23.521  1.00  0.00     0.130 A 
ATOM     81  C   UNL A   1      32.399  25.633  22.757  1.00  0.00     0.027 A 
ATOM     82  C   UNL A   1      30.278  25.152  23.795  1.00  0.00     0.073 A 
ATOM     83  C   UNL A   1      31.564  24.727  23.425  1.00  0.00     0.042 A 
BRANCH  80  84
ATOM     84  O   UNL A   1      28.582  26.837  23.865  1.00  0.00    -0.507 OA
ATOM     85  H   UNL A   1      28.018  26.239  24.316  1.00  0.00     0.293 HD
ENDBRANCH  80  84
BRANCH  83  86
ATOM     86  N   UNL A   1      31.979  23.430  23.788  1.00  0.00    -0.349 N 
ATOM     87  H   UNL A   1      31.672  22.694  23.212  1.00  0.00     0.167 HD
BRANCH  86  88
ATOM     88  C   UNL A   1      32.774  23.079  24.866  1.00  0.00     0.137 A 
ATOM     89  C   UNL A   1      32.396  22.856  26.140  1.00  0.00     0.377 A 
ATOM     90  C   UNL A   1      34.223  22.934  24.593  1.00  0.00     0.048 A 
ATOM     91  C   UNL A   1      33.270  22.516  27.259  1.00  0.00     0.417 A 
ATOM     92  C   UNL A   1      35.098  22.701  25.656  1.00  0.00     0.141 A 
ATOM     93  C   UNL A   1      34.785  23.059  23.311  1.00  0.00     0.014 A 
ATOM     94  O   UNL A   1      32.874  22.226  28.382  1.00  0.00    -0.238 OA
ATOM     95  O   UNL A   1      34.629  22.534  26.971  1.00  0.00    -0.418 OA
ATOM     96  C   UNL A   1      36.479  22.610  25.480  1.00  0.00     0.048 A 
ATOM     97  C   UNL A   1      36.167  22.952  23.118  1.00  0.00     0.001 A 
ATOM     98  C   UNL A   1      37.014  22.734  24.202  1.00  0.00     0.004 A 
BRANCH  89  99
ATOM     99  N   UNL A   1      30.997  22.879  26.444  1.00  0.00     0.073 N 
ATOM    100  O   UNL A   1      30.305  21.954  25.995  1.00  0.00    -0.258 OA
ATOM    101  O   UNL A   1      30.588  23.820  27.138  1.00  0.00    -0.258 OA
ENDBRANCH  89  99
ENDBRANCH  86  88
ENDBRANCH  83  86
ENDBRANCH  75  78
ENDBRANCH  73  74
ENDBRANCH  72  73
ENDBRANCH   1  72
TORSDOF 18
ENDMDL
