MODEL 1
REMARK VINA RESULT:     -10.4      0.000      0.000
REMARK SMILES O=C(Cn1nc(-c2ccc(Br)cc2)ccc1=O)N[C@H](C(=O)NCCCCNC(=O)c1ccc(-c2c3nc(c(-c4cccc(S(=O)(=O)[O-])c4F)c4ccc([nH]4)c(-c4cccc(S(=O)(=O)[O-])c4F)c4nc(c(-c5cccc(S(=O)(=O)[O-])c5F)c5ccc2[nH]5)C=C4)C=C3)cc1)c1ccccc1
REMARK SMILES IDX 24 1 23 2 22 3 20 4 21 5 19 7 18 8 1 9 2 10 3 12 4 13 5 14
REMARK SMILES IDX 16 15 6 16 15 17 17 18 14 19 7 20 8 21 13 22 9 23 12 24
REMARK SMILES IDX 10 25 11 26 93 27 94 28 98 29 95 30 97 31 96 32 25 33 26 34
REMARK SMILES IDX 27 35 28 36 29 38 30 39 31 40 92 41 32 42 91 43 33 44 34 45
REMARK SMILES IDX 35 46 85 47 36 48 90 49 84 50 86 51 37 52 89 53 83 54 82 55
REMARK SMILES IDX 38 57 70 58 50 59 69 60 51 61 54 62 68 63 87 64 52 65 53 66
REMARK SMILES IDX 67 68 88 69 55 70 39 71 40 72 48 73 41 74 43 75 49 76 42 77
REMARK SMILES IDX 44 78 45 79 46 80 47 81 71 82 72 83 80 84 73 85 75 86 81 87
REMARK SMILES IDX 74 88 76 89 77 90 78 91 79 92 56 93 57 94 65 95 58 96 60 97
REMARK SMILES IDX 66 98 59 99 61 100 62 101 63 102 64 103
REMARK H PARENT 22 6 18 11 27 37 86 56 54 67
REMARK Flexibility Score: inf
ROOT
ATOM      1  C   UNL A   1      46.316  41.652  25.010  1.00  0.00     0.023 C 
ENDROOT
BRANCH   1   2
ATOM      2  C   UNL A   1      46.698  42.939  24.283  1.00  0.00     0.116 C 
BRANCH   2   3
ATOM      3  N   UNL A   1      45.808  44.036  24.594  1.00  0.00    -0.354 N 
ATOM      4  C   UNL A   1      45.170  44.897  23.737  1.00  0.00     0.247 C 
ATOM      5  O   UNL A   1      44.557  45.835  24.256  1.00  0.00    -0.272 OA
ATOM      6  H   UNL A   1      45.638  44.187  25.552  1.00  0.00     0.163 HD
BRANCH   4   7
ATOM      7  C   UNL A   1      45.429  44.792  22.201  1.00  0.00     0.202 C 
BRANCH   7   8
ATOM      8  N   UNL A   1      44.334  44.307  21.368  1.00  0.00    -0.339 N 
ATOM      9  O   UNL A   1      44.860  42.080  21.486  1.00  0.00    -0.273 OA
ATOM     10  C   UNL A   1      44.079  42.968  21.156  1.00  0.00     0.242 C 
ATOM     11  H   UNL A   1      43.748  44.968  20.934  1.00  0.00     0.164 HD
BRANCH  10  12
ATOM     12  C   UNL A   1      42.886  42.699  20.235  1.00  0.00     0.248 C 
BRANCH  12  13
ATOM     13  N   UNL A   1      42.580  43.729  19.246  1.00  0.00    -0.220 N 
ATOM     14  N   UNL A   1      43.627  44.425  18.696  1.00  0.00    -0.169 NA
ATOM     15  C   UNL A   1      41.245  44.057  19.040  1.00  0.00     0.267 A 
ATOM     16  C   UNL A   1      43.351  45.486  18.011  1.00  0.00     0.091 A 
ATOM     17  C   UNL A   1      40.989  45.270  18.231  1.00  0.00     0.075 A 
ATOM     18  O   UNL A   1      40.291  43.433  19.495  1.00  0.00    -0.268 OA
ATOM     19  C   UNL A   1      41.996  45.995  17.740  1.00  0.00     0.036 A 
BRANCH  16  20
ATOM     20  C   UNL A   1      44.462  46.272  17.453  1.00  0.00     0.002 A 
ATOM     21  C   UNL A   1      45.747  45.727  17.453  1.00  0.00     0.011 A 
ATOM     22  C   UNL A   1      44.231  47.579  17.019  1.00  0.00     0.011 A 
ATOM     23  C   UNL A   1      46.817  46.500  17.001  1.00  0.00     0.016 A 
ATOM     24  C   UNL A   1      45.307  48.353  16.579  1.00  0.00     0.016 A 
ATOM     25  C   UNL A   1      46.593  47.810  16.576  1.00  0.00     0.018 A 
ATOM     26  Br  UNL A   1      48.055  48.872  16.020  1.00  0.00    -0.051 Br
ENDBRANCH  16  20
ENDBRANCH  12  13
ENDBRANCH  10  12
ENDBRANCH   7   8
BRANCH   7  27
ATOM     27  C   UNL A   1      46.108  45.999  21.572  1.00  0.00    -0.016 A 
ATOM     28  C   UNL A   1      45.327  46.997  20.960  1.00  0.00     0.006 A 
ATOM     29  C   UNL A   1      47.500  46.157  21.590  1.00  0.00     0.006 A 
ATOM     30  C   UNL A   1      45.927  48.102  20.355  1.00  0.00     0.000 A 
ATOM     31  C   UNL A   1      48.098  47.265  20.983  1.00  0.00     0.000 A 
ATOM     32  C   UNL A   1      47.312  48.236  20.365  1.00  0.00     0.000 A 
ENDBRANCH   7  27
ENDBRANCH   4   7
ENDBRANCH   2   3
ENDBRANCH   1   2
BRANCH   1  33
ATOM     33  C   UNL A   1      44.817  41.365  25.085  1.00  0.00     0.023 C 
BRANCH  33  34
ATOM     34  C   UNL A   1      44.182  41.566  26.456  1.00  0.00     0.116 C 
BRANCH  34  35
ATOM     35  N   UNL A   1      42.728  41.631  26.401  1.00  0.00    -0.352 N 
ATOM     36  C   UNL A   1      41.797  40.656  26.679  1.00  0.00     0.251 C 
ATOM     37  H   UNL A   1      42.356  42.500  26.126  1.00  0.00     0.163 HD
ATOM     38  O   UNL A   1      40.611  40.856  26.425  1.00  0.00    -0.269 OA
BRANCH  36  39
ATOM     39  C   UNL A   1      42.233  39.357  27.242  1.00  0.00     0.039 A 
ATOM     40  C   UNL A   1      42.268  38.213  26.444  1.00  0.00     0.014 A 
ATOM     41  C   UNL A   1      42.580  39.276  28.594  1.00  0.00     0.014 A 
ATOM     42  C   UNL A   1      42.456  36.969  27.034  1.00  0.00     0.010 A 
ATOM     43  C   UNL A   1      42.866  38.031  29.166  1.00  0.00     0.010 A 
ATOM     44  C   UNL A   1      42.748  36.859  28.404  1.00  0.00    -0.014 A 
BRANCH  44  45
ATOM     45  C   UNL A   1      42.928  35.506  28.998  1.00  0.00     0.031 A 
ATOM     46  C   UNL A   1      41.745  34.670  29.414  1.00  0.00     0.074 A 
ATOM     47  C   UNL A   1      44.173  35.001  29.106  1.00  0.00     0.049 A 
ATOM     48  N   UNL A   1      41.730  33.441  29.864  1.00  0.00    -0.248 NA
ATOM     49  C   UNL A   1      40.410  35.283  29.319  1.00  0.00     0.031 C 
ATOM     50  C   UNL A   1      45.404  35.722  28.771  1.00  0.00     0.029 A 
ATOM     51  N   UNL A   1      44.612  33.762  29.499  1.00  0.00    -0.354 N 
ATOM     52  C   UNL A   1      40.400  33.149  30.142  1.00  0.00     0.074 A 
ATOM     53  C   UNL A   1      39.633  34.330  29.818  1.00  0.00     0.031 C 
ATOM     54  C   UNL A   1      46.450  34.896  28.913  1.00  0.00     0.029 A 
ATOM     55  C   UNL A   1      45.974  33.603  29.394  1.00  0.00     0.049 A 
ATOM     56  H   UNL A   1      44.010  33.054  29.823  1.00  0.00     0.167 HD
ATOM     57  C   UNL A   1      39.865  31.994  30.602  1.00  0.00     0.034 A 
ATOM     58  C   UNL A   1      46.759  32.538  29.647  1.00  0.00     0.034 A 
ATOM     59  C   UNL A   1      40.616  30.795  30.861  1.00  0.00     0.049 A 
ATOM     60  C   UNL A   1      46.135  31.259  30.119  1.00  0.00     0.074 A 
ATOM     61  C   UNL A   1      40.142  29.560  31.267  1.00  0.00     0.029 A 
ATOM     62  N   UNL A   1      41.990  30.677  30.732  1.00  0.00    -0.354 N 
ATOM     63  N   UNL A   1      44.866  30.979  30.286  1.00  0.00    -0.248 NA
ATOM     64  C   UNL A   1      47.043  30.145  30.428  1.00  0.00     0.031 C 
ATOM     65  C   UNL A   1      41.232  28.694  31.388  1.00  0.00     0.029 A 
ATOM     66  C   UNL A   1      42.382  29.391  31.054  1.00  0.00     0.049 A 
ATOM     67  H   UNL A   1      42.596  31.400  30.452  1.00  0.00     0.167 HD
ATOM     68  C   UNL A   1      44.820  29.657  30.710  1.00  0.00     0.074 A 
ATOM     69  C   UNL A   1      46.188  29.183  30.755  1.00  0.00     0.031 C 
ATOM     70  C   UNL A   1      43.741  28.915  31.051  1.00  0.00     0.034 A 
BRANCH  57  71
ATOM     71  C   UNL A   1      38.374  31.930  30.801  1.00  0.00     0.023 A 
ATOM     72  C   UNL A   1      37.848  32.109  32.095  1.00  0.00     0.012 A 
ATOM     73  C   UNL A   1      37.500  31.814  29.703  1.00  0.00     0.148 A 
ATOM     74  C   UNL A   1      36.470  32.167  32.296  1.00  0.00     0.002 A 
ATOM     75  C   UNL A   1      36.127  31.899  29.908  1.00  0.00     0.091 A 
ATOM     76  F   UNL A   1      38.027  31.635  28.484  1.00  0.00    -0.205 F 
ATOM     77  C   UNL A   1      35.611  32.072  31.203  1.00  0.00     0.022 A 
BRANCH  75  78
ATOM     78  S   UNL A   1      34.935  31.846  28.564  1.00  0.00     0.127 S 
ATOM     79  O   UNL A   1      33.727  32.339  29.226  1.00  0.00    -0.237 OA
ATOM     80  O   UNL A   1      35.522  32.773  27.597  1.00  0.00    -0.237 OA
ATOM     81  O   UNL A   1      34.880  30.459  28.127  1.00  0.00    -0.744 OA
ENDBRANCH  75  78
ENDBRANCH  57  71
BRANCH  58  82
ATOM     82  C   UNL A   1      48.220  32.640  29.388  1.00  0.00     0.023 A 
ATOM     83  C   UNL A   1      49.089  32.938  30.455  1.00  0.00     0.012 A 
ATOM     84  C   UNL A   1      48.756  32.346  28.119  1.00  0.00     0.148 A 
ATOM     85  C   UNL A   1      50.469  32.942  30.262  1.00  0.00     0.002 A 
ATOM     86  C   UNL A   1      50.134  32.309  27.946  1.00  0.00     0.091 A 
ATOM     87  F   UNL A   1      47.905  32.071  27.121  1.00  0.00    -0.205 F 
ATOM     88  C   UNL A   1      50.992  32.616  29.013  1.00  0.00     0.022 A 
BRANCH  86  89
ATOM     89  S   UNL A   1      50.900  31.782  26.408  1.00  0.00     0.127 S 
ATOM     90  O   UNL A   1      52.317  31.790  26.765  1.00  0.00    -0.237 OA
ATOM     91  O   UNL A   1      50.319  30.452  26.225  1.00  0.00    -0.237 OA
ATOM     92  O   UNL A   1      50.499  32.762  25.409  1.00  0.00    -0.744 OA
ENDBRANCH  86  89
ENDBRANCH  58  82
BRANCH  70  93
ATOM     93  C   UNL A   1      43.967  27.504  31.514  1.00  0.00     0.023 A 
ATOM     94  C   UNL A   1      44.102  26.483  30.554  1.00  0.00     0.012 A 
ATOM     95  C   UNL A   1      44.188  27.217  32.875  1.00  0.00     0.148 A 
ATOM     96  C   UNL A   1      44.455  25.193  30.942  1.00  0.00     0.002 A 
ATOM     97  C   UNL A   1      44.570  25.935  33.251  1.00  0.00     0.091 A 
ATOM     98  F   UNL A   1      44.048  28.209  33.766  1.00  0.00    -0.205 F 
ATOM     99  C   UNL A   1      44.701  24.921  32.286  1.00  0.00     0.022 A 
BRANCH  97 100
ATOM    100  S   UNL A   1      44.981  25.501  34.945  1.00  0.00     0.127 S 
ATOM    101  O   UNL A   1      43.706  25.721  35.627  1.00  0.00    -0.237 OA
ATOM    102  O   UNL A   1      45.370  24.097  34.817  1.00  0.00    -0.237 OA
ATOM    103  O   UNL A   1      46.057  26.398  35.344  1.00  0.00    -0.744 OA
ENDBRANCH  97 100
ENDBRANCH  70  93
ENDBRANCH  44  45
ENDBRANCH  36  39
ENDBRANCH  34  35
ENDBRANCH  33  34
ENDBRANCH   1  33
TORSDOF 19
ENDMDL
MODEL 2
REMARK VINA RESULT:     -10.3      8.190     13.573
REMARK SMILES O=C(Cn1nc(-c2ccc(Br)cc2)ccc1=O)N[C@H](C(=O)NCCCCNC(=O)c1ccc(-c2c3nc(c(-c4cccc(S(=O)(=O)[O-])c4F)c4ccc([nH]4)c(-c4cccc(S(=O)(=O)[O-])c4F)c4nc(c(-c5cccc(S(=O)(=O)[O-])c5F)c5ccc2[nH]5)C=C4)C=C3)cc1)c1ccccc1
REMARK SMILES IDX 24 1 23 2 22 3 20 4 21 5 19 7 18 8 1 9 2 10 3 12 4 13 5 14
REMARK SMILES IDX 16 15 6 16 15 17 17 18 14 19 7 20 8 21 13 22 9 23 12 24
REMARK SMILES IDX 10 25 11 26 93 27 94 28 98 29 95 30 97 31 96 32 25 33 26 34
REMARK SMILES IDX 27 35 28 36 29 38 30 39 31 40 92 41 32 42 91 43 33 44 34 45
REMARK SMILES IDX 35 46 85 47 36 48 90 49 84 50 86 51 37 52 89 53 83 54 82 55
REMARK SMILES IDX 38 57 70 58 50 59 69 60 51 61 54 62 68 63 87 64 52 65 53 66
REMARK SMILES IDX 67 68 88 69 55 70 39 71 40 72 48 73 41 74 43 75 49 76 42 77
REMARK SMILES IDX 44 78 45 79 46 80 47 81 71 82 72 83 80 84 73 85 75 86 81 87
REMARK SMILES IDX 74 88 76 89 77 90 78 91 79 92 56 93 57 94 65 95 58 96 60 97
REMARK SMILES IDX 66 98 59 99 61 100 62 101 63 102 64 103
REMARK H PARENT 22 6 18 11 27 37 86 56 54 67
REMARK Flexibility Score: inf
ROOT
ATOM      1  C   UNL A   1      39.534  27.333  28.528  1.00  0.00     0.023 C 
ENDROOT
BRANCH   1   2
ATOM      2  C   UNL A   1      38.352  28.292  28.401  1.00  0.00     0.116 C 
BRANCH   2   3
ATOM      3  N   UNL A   1      37.784  28.645  29.684  1.00  0.00    -0.354 N 
ATOM      4  C   UNL A   1      36.644  29.358  29.954  1.00  0.00     0.247 C 
ATOM      5  O   UNL A   1      36.436  29.634  31.140  1.00  0.00    -0.272 OA
ATOM      6  H   UNL A   1      38.284  28.330  30.472  1.00  0.00     0.163 HD
BRANCH   4   7
ATOM      7  C   UNL A   1      35.816  29.967  28.778  1.00  0.00     0.202 C 
BRANCH   7   8
ATOM      8  N   UNL A   1      34.493  29.406  28.529  1.00  0.00    -0.339 N 
ATOM      9  O   UNL A   1      34.775  29.007  26.291  1.00  0.00    -0.273 OA
ATOM     10  C   UNL A   1      34.110  28.876  27.315  1.00  0.00     0.242 C 
ATOM     11  H   UNL A   1      33.839  29.406  29.266  1.00  0.00     0.164 HD
BRANCH  10  12
ATOM     12  C   UNL A   1      32.669  28.359  27.286  1.00  0.00     0.248 C 
BRANCH  12  13
ATOM     13  N   UNL A   1      32.146  27.957  25.984  1.00  0.00    -0.220 N 
ATOM     14  N   UNL A   1      31.454  28.890  25.251  1.00  0.00    -0.169 NA
ATOM     15  C   UNL A   1      32.237  26.616  25.632  1.00  0.00     0.267 A 
ATOM     16  C   UNL A   1      30.793  28.475  24.221  1.00  0.00     0.091 A 
ATOM     17  C   UNL A   1      31.474  26.203  24.433  1.00  0.00     0.075 A 
ATOM     18  O   UNL A   1      32.874  25.769  26.253  1.00  0.00    -0.268 OA
ATOM     19  C   UNL A   1      30.746  27.083  23.743  1.00  0.00     0.036 A 
BRANCH  16  20
ATOM     20  C   UNL A   1      30.007  29.451  23.451  1.00  0.00     0.002 A 
ATOM     21  C   UNL A   1      29.674  29.161  22.126  1.00  0.00     0.011 A 
ATOM     22  C   UNL A   1      29.690  30.686  24.022  1.00  0.00     0.011 A 
ATOM     23  C   UNL A   1      29.000  30.118  21.366  1.00  0.00     0.016 A 
ATOM     24  C   UNL A   1      29.027  31.644  23.253  1.00  0.00     0.016 A 
ATOM     25  C   UNL A   1      28.690  31.356  21.930  1.00  0.00     0.018 A 
ATOM     26  Br  UNL A   1      27.830  32.670  20.877  1.00  0.00    -0.051 Br
ENDBRANCH  16  20
ENDBRANCH  12  13
ENDBRANCH  10  12
ENDBRANCH   7   8
BRANCH   7  27
ATOM     27  C   UNL A   1      35.792  31.486  28.717  1.00  0.00    -0.016 A 
ATOM     28  C   UNL A   1      34.572  32.155  28.508  1.00  0.00     0.006 A 
ATOM     29  C   UNL A   1      36.955  32.252  28.874  1.00  0.00     0.006 A 
ATOM     30  C   UNL A   1      34.526  33.547  28.424  1.00  0.00     0.000 A 
ATOM     31  C   UNL A   1      36.906  33.646  28.789  1.00  0.00     0.000 A 
ATOM     32  C   UNL A   1      35.693  34.293  28.564  1.00  0.00     0.000 A 
ENDBRANCH   7  27
ENDBRANCH   4   7
ENDBRANCH   2   3
ENDBRANCH   1   2
BRANCH   1  33
ATOM     33  C   UNL A   1      39.502  26.131  27.586  1.00  0.00     0.023 C 
BRANCH  33  34
ATOM     34  C   UNL A   1      40.625  25.120  27.780  1.00  0.00     0.116 C 
BRANCH  34  35
ATOM     35  N   UNL A   1      41.355  24.844  26.550  1.00  0.00    -0.352 N 
ATOM     36  C   UNL A   1      42.193  25.664  25.827  1.00  0.00     0.251 C 
ATOM     37  H   UNL A   1      41.233  23.940  26.182  1.00  0.00     0.163 HD
ATOM     38  O   UNL A   1      42.598  25.300  24.725  1.00  0.00    -0.269 OA
BRANCH  36  39
ATOM     39  C   UNL A   1      42.567  26.994  26.360  1.00  0.00     0.039 A 
ATOM     40  C   UNL A   1      43.448  27.106  27.435  1.00  0.00     0.014 A 
ATOM     41  C   UNL A   1      42.001  28.142  25.799  1.00  0.00     0.014 A 
ATOM     42  C   UNL A   1      43.610  28.333  28.067  1.00  0.00     0.010 A 
ATOM     43  C   UNL A   1      42.244  29.393  26.379  1.00  0.00     0.010 A 
ATOM     44  C   UNL A   1      43.003  29.492  27.554  1.00  0.00    -0.014 A 
BRANCH  44  45
ATOM     45  C   UNL A   1      43.190  30.784  28.270  1.00  0.00     0.031 A 
ATOM     46  C   UNL A   1      42.304  31.173  29.425  1.00  0.00     0.074 A 
ATOM     47  C   UNL A   1      44.213  31.586  27.912  1.00  0.00     0.049 A 
ATOM     48  N   UNL A   1      42.393  32.220  30.207  1.00  0.00    -0.248 NA
ATOM     49  C   UNL A   1      41.174  30.287  29.748  1.00  0.00     0.031 C 
ATOM     50  C   UNL A   1      45.121  31.338  26.790  1.00  0.00     0.029 A 
ATOM     51  N   UNL A   1      44.680  32.751  28.465  1.00  0.00    -0.354 N 
ATOM     52  C   UNL A   1      41.316  32.140  31.082  1.00  0.00     0.074 A 
ATOM     53  C   UNL A   1      40.580  30.946  30.735  1.00  0.00     0.031 C 
ATOM     54  C   UNL A   1      46.070  32.285  26.774  1.00  0.00     0.029 A 
ATOM     55  C   UNL A   1      45.812  33.234  27.853  1.00  0.00     0.049 A 
ATOM     56  H   UNL A   1      44.246  33.198  29.228  1.00  0.00     0.167 HD
ATOM     57  C   UNL A   1      40.986  32.972  32.097  1.00  0.00     0.034 A 
ATOM     58  C   UNL A   1      46.570  34.314  28.127  1.00  0.00     0.034 A 
ATOM     59  C   UNL A   1      41.754  34.122  32.489  1.00  0.00     0.049 A 
ATOM     60  C   UNL A   1      46.202  35.197  29.282  1.00  0.00     0.074 A 
ATOM     61  C   UNL A   1      41.526  34.983  33.549  1.00  0.00     0.029 A 
ATOM     62  N   UNL A   1      42.898  34.568  31.848  1.00  0.00    -0.354 N 
ATOM     63  N   UNL A   1      45.233  35.049  30.152  1.00  0.00    -0.248 NA
ATOM     64  C   UNL A   1      47.035  36.388  29.505  1.00  0.00     0.031 C 
ATOM     65  C   UNL A   1      42.531  35.953  33.546  1.00  0.00     0.029 A 
ATOM     66  C   UNL A   1      43.385  35.693  32.487  1.00  0.00     0.049 A 
ATOM     67  H   UNL A   1      43.304  34.146  31.056  1.00  0.00     0.167 HD
ATOM     68  C   UNL A   1      45.342  36.120  31.029  1.00  0.00     0.074 A 
ATOM     69  C   UNL A   1      46.485  36.900  30.600  1.00  0.00     0.031 C 
ATOM     70  C   UNL A   1      44.550  36.435  32.080  1.00  0.00     0.034 A 
BRANCH  57  71
ATOM     71  C   UNL A   1      39.767  32.644  32.917  1.00  0.00     0.023 A 
ATOM     72  C   UNL A   1      39.903  31.805  34.040  1.00  0.00     0.012 A 
ATOM     73  C   UNL A   1      38.527  33.255  32.651  1.00  0.00     0.148 A 
ATOM     74  C   UNL A   1      38.819  31.572  34.884  1.00  0.00     0.002 A 
ATOM     75  C   UNL A   1      37.457  33.039  33.512  1.00  0.00     0.091 A 
ATOM     76  F   UNL A   1      38.422  34.042  31.570  1.00  0.00    -0.205 F 
ATOM     77  C   UNL A   1      37.601  32.195  34.627  1.00  0.00     0.022 A 
BRANCH  75  78
ATOM     78  S   UNL A   1      35.861  33.837  33.305  1.00  0.00     0.127 S 
ATOM     79  O   UNL A   1      35.131  33.341  34.471  1.00  0.00    -0.237 OA
ATOM     80  O   UNL A   1      36.217  35.255  33.366  1.00  0.00    -0.237 OA
ATOM     81  O   UNL A   1      35.348  33.389  32.018  1.00  0.00    -0.744 OA
ENDBRANCH  75  78
ENDBRANCH  57  71
BRANCH  58  82
ATOM     82  C   UNL A   1      47.791  34.565  27.316  1.00  0.00     0.023 A 
ATOM     83  C   UNL A   1      47.684  35.305  26.124  1.00  0.00     0.012 A 
ATOM     84  C   UNL A   1      49.062  34.160  27.769  1.00  0.00     0.148 A 
ATOM     85  C   UNL A   1      48.824  35.640  25.395  1.00  0.00     0.002 A 
ATOM     86  C   UNL A   1      50.197  34.535  27.061  1.00  0.00     0.091 A 
ATOM     87  F   UNL A   1      49.132  33.451  28.904  1.00  0.00    -0.205 F 
ATOM     88  C   UNL A   1      50.080  35.267  25.869  1.00  0.00     0.022 A 
BRANCH  86  89
ATOM     89  S   UNL A   1      51.859  34.205  27.655  1.00  0.00     0.127 S 
ATOM     90  O   UNL A   1      51.852  34.885  28.948  1.00  0.00    -0.237 OA
ATOM     91  O   UNL A   1      51.866  32.743  27.728  1.00  0.00    -0.237 OA
ATOM     92  O   UNL A   1      52.757  34.765  26.656  1.00  0.00    -0.744 OA
ENDBRANCH  86  89
ENDBRANCH  58  82
BRANCH  70  93
ATOM     93  C   UNL A   1      44.867  37.680  32.859  1.00  0.00     0.023 A 
ATOM     94  C   UNL A   1      45.762  37.600  33.942  1.00  0.00     0.012 A 
ATOM     95  C   UNL A   1      44.397  38.938  32.432  1.00  0.00     0.148 A 
ATOM     96  C   UNL A   1      46.188  38.756  34.592  1.00  0.00     0.002 A 
ATOM     97  C   UNL A   1      44.850  40.089  33.066  1.00  0.00     0.091 A 
ATOM     98  F   UNL A   1      43.542  38.983  31.400  1.00  0.00    -0.205 F 
ATOM     99  C   UNL A   1      45.743  40.000  34.148  1.00  0.00     0.022 A 
BRANCH  97 100
ATOM    100  S   UNL A   1      44.395  41.739  32.523  1.00  0.00     0.127 S 
ATOM    101  O   UNL A   1      44.881  41.745  31.144  1.00  0.00    -0.237 OA
ATOM    102  O   UNL A   1      42.938  41.717  32.657  1.00  0.00    -0.237 OA
ATOM    103  O   UNL A   1      45.075  42.664  33.420  1.00  0.00    -0.744 OA
ENDBRANCH  97 100
ENDBRANCH  70  93
ENDBRANCH  44  45
ENDBRANCH  36  39
ENDBRANCH  34  35
ENDBRANCH  33  34
ENDBRANCH   1  33
TORSDOF 19
ENDMDL
MODEL 3
REMARK VINA RESULT:     -10.2      8.559     13.451
REMARK SMILES O=C(Cn1nc(-c2ccc(Br)cc2)ccc1=O)N[C@H](C(=O)NCCCCNC(=O)c1ccc(-c2c3nc(c(-c4cccc(S(=O)(=O)[O-])c4F)c4ccc([nH]4)c(-c4cccc(S(=O)(=O)[O-])c4F)c4nc(c(-c5cccc(S(=O)(=O)[O-])c5F)c5ccc2[nH]5)C=C4)C=C3)cc1)c1ccccc1
REMARK SMILES IDX 24 1 23 2 22 3 20 4 21 5 19 7 18 8 1 9 2 10 3 12 4 13 5 14
REMARK SMILES IDX 16 15 6 16 15 17 17 18 14 19 7 20 8 21 13 22 9 23 12 24
REMARK SMILES IDX 10 25 11 26 93 27 94 28 98 29 95 30 97 31 96 32 25 33 26 34
REMARK SMILES IDX 27 35 28 36 29 38 30 39 31 40 92 41 32 42 91 43 33 44 34 45
REMARK SMILES IDX 35 46 85 47 36 48 90 49 84 50 86 51 37 52 89 53 83 54 82 55
REMARK SMILES IDX 38 57 70 58 50 59 69 60 51 61 54 62 68 63 87 64 52 65 53 66
REMARK SMILES IDX 67 68 88 69 55 70 39 71 40 72 48 73 41 74 43 75 49 76 42 77
REMARK SMILES IDX 44 78 45 79 46 80 47 81 71 82 72 83 80 84 73 85 75 86 81 87
REMARK SMILES IDX 74 88 76 89 77 90 78 91 79 92 56 93 57 94 65 95 58 96 60 97
REMARK SMILES IDX 66 98 59 99 61 100 62 101 63 102 64 103
REMARK H PARENT 22 6 18 11 27 37 86 56 54 67
REMARK Flexibility Score: inf
ROOT
ATOM      1  C   UNL A   1      38.756  34.107  38.987  1.00  0.00     0.023 C 
ENDROOT
BRANCH   1   2
ATOM      2  C   UNL A   1      38.152  34.201  37.587  1.00  0.00     0.116 C 
BRANCH   2   3
ATOM      3  N   UNL A   1      39.042  34.841  36.642  1.00  0.00    -0.354 N 
ATOM      4  C   UNL A   1      39.027  34.782  35.271  1.00  0.00     0.247 C 
ATOM      5  O   UNL A   1      39.974  35.319  34.689  1.00  0.00    -0.272 OA
ATOM      6  H   UNL A   1      39.756  35.392  37.036  1.00  0.00     0.163 HD
BRANCH   4   7
ATOM      7  C   UNL A   1      37.983  33.876  34.547  1.00  0.00     0.202 C 
BRANCH   7   8
ATOM      8  N   UNL A   1      36.985  34.537  33.714  1.00  0.00    -0.339 N 
ATOM      9  O   UNL A   1      35.144  33.886  34.912  1.00  0.00    -0.273 OA
ATOM     10  C   UNL A   1      35.641  34.571  34.022  1.00  0.00     0.242 C 
ATOM     11  H   UNL A   1      37.286  34.982  32.888  1.00  0.00     0.164 HD
BRANCH  10  12
ATOM     12  C   UNL A   1      34.783  35.311  32.993  1.00  0.00     0.248 C 
BRANCH  12  13
ATOM     13  N   UNL A   1      34.521  34.611  31.738  1.00  0.00    -0.220 N 
ATOM     14  N   UNL A   1      35.256  33.484  31.464  1.00  0.00    -0.169 NA
ATOM     15  C   UNL A   1      33.665  35.213  30.824  1.00  0.00     0.267 A 
ATOM     16  C   UNL A   1      35.199  33.006  30.264  1.00  0.00     0.091 A 
ATOM     17  C   UNL A   1      33.627  34.610  29.472  1.00  0.00     0.075 A 
ATOM     18  O   UNL A   1      32.976  36.202  31.054  1.00  0.00    -0.268 OA
ATOM     19  C   UNL A   1      34.380  33.552  29.169  1.00  0.00     0.036 A 
BRANCH  16  20
ATOM     20  C   UNL A   1      36.015  31.827  29.938  1.00  0.00     0.002 A 
ATOM     21  C   UNL A   1      35.921  30.691  30.745  1.00  0.00     0.011 A 
ATOM     22  C   UNL A   1      36.934  31.894  28.888  1.00  0.00     0.011 A 
ATOM     23  C   UNL A   1      36.752  29.600  30.488  1.00  0.00     0.016 A 
ATOM     24  C   UNL A   1      37.773  30.804  28.644  1.00  0.00     0.016 A 
ATOM     25  C   UNL A   1      37.679  29.666  29.447  1.00  0.00     0.018 A 
ATOM     26  Br  UNL A   1      38.844  28.209  29.142  1.00  0.00    -0.051 Br
ENDBRANCH  16  20
ENDBRANCH  12  13
ENDBRANCH  10  12
ENDBRANCH   7   8
BRANCH   7  27
ATOM     27  C   UNL A   1      38.555  32.648  33.854  1.00  0.00    -0.016 A 
ATOM     28  C   UNL A   1      38.716  31.452  34.577  1.00  0.00     0.006 A 
ATOM     29  C   UNL A   1      38.920  32.666  32.502  1.00  0.00     0.006 A 
ATOM     30  C   UNL A   1      39.260  30.319  33.971  1.00  0.00     0.000 A 
ATOM     31  C   UNL A   1      39.465  31.529  31.897  1.00  0.00     0.000 A 
ATOM     32  C   UNL A   1      39.635  30.357  32.631  1.00  0.00     0.000 A 
ENDBRANCH   7  27
ENDBRANCH   4   7
ENDBRANCH   2   3
ENDBRANCH   1   2
BRANCH   1  33
ATOM     33  C   UNL A   1      39.425  35.383  39.495  1.00  0.00     0.023 C 
BRANCH  33  34
ATOM     34  C   UNL A   1      40.948  35.386  39.444  1.00  0.00     0.116 C 
BRANCH  34  35
ATOM     35  N   UNL A   1      41.546  34.420  40.355  1.00  0.00    -0.352 N 
ATOM     36  C   UNL A   1      42.110  33.194  40.084  1.00  0.00     0.251 C 
ATOM     37  H   UNL A   1      41.548  34.683  41.304  1.00  0.00     0.163 HD
ATOM     38  O   UNL A   1      42.426  32.451  41.011  1.00  0.00    -0.269 OA
BRANCH  36  39
ATOM     39  C   UNL A   1      42.294  32.760  38.680  1.00  0.00     0.039 A 
ATOM     40  C   UNL A   1      41.206  32.329  37.921  1.00  0.00     0.014 A 
ATOM     41  C   UNL A   1      43.579  32.751  38.127  1.00  0.00     0.014 A 
ATOM     42  C   UNL A   1      41.424  31.714  36.694  1.00  0.00     0.010 A 
ATOM     43  C   UNL A   1      43.782  32.219  36.848  1.00  0.00     0.010 A 
ATOM     44  C   UNL A   1      42.715  31.642  36.144  1.00  0.00    -0.014 A 
BRANCH  44  45
ATOM     45  C   UNL A   1      42.906  30.961  34.834  1.00  0.00     0.031 A 
ATOM     46  C   UNL A   1      42.888  31.735  33.541  1.00  0.00     0.074 A 
ATOM     47  C   UNL A   1      43.162  29.638  34.817  1.00  0.00     0.049 A 
ATOM     48  N   UNL A   1      43.127  31.304  32.328  1.00  0.00    -0.248 NA
ATOM     49  C   UNL A   1      42.560  33.168  33.607  1.00  0.00     0.031 C 
ATOM     50  C   UNL A   1      43.172  28.770  35.998  1.00  0.00     0.029 A 
ATOM     51  N   UNL A   1      43.487  28.796  33.784  1.00  0.00    -0.354 N 
ATOM     52  C   UNL A   1      42.940  32.396  31.488  1.00  0.00     0.074 A 
ATOM     53  C   UNL A   1      42.561  33.511  32.325  1.00  0.00     0.031 C 
ATOM     54  C   UNL A   1      43.547  27.535  35.633  1.00  0.00     0.029 A 
ATOM     55  C   UNL A   1      43.757  27.510  34.189  1.00  0.00     0.049 A 
ATOM     56  H   UNL A   1      43.525  29.085  32.844  1.00  0.00     0.167 HD
ATOM     57  C   UNL A   1      43.093  32.468  30.145  1.00  0.00     0.034 A 
ATOM     58  C   UNL A   1      44.139  26.427  33.485  1.00  0.00     0.034 A 
ATOM     59  C   UNL A   1      43.536  31.378  29.317  1.00  0.00     0.049 A 
ATOM     60  C   UNL A   1      44.340  26.545  32.003  1.00  0.00     0.074 A 
ATOM     61  C   UNL A   1      43.782  31.384  27.955  1.00  0.00     0.029 A 
ATOM     62  N   UNL A   1      43.807  30.098  29.770  1.00  0.00    -0.354 N 
ATOM     63  N   UNL A   1      44.246  27.610  31.245  1.00  0.00    -0.248 NA
ATOM     64  C   UNL A   1      44.708  25.320  31.278  1.00  0.00     0.031 C 
ATOM     65  C   UNL A   1      44.198  30.103  27.582  1.00  0.00     0.029 A 
ATOM     66  C   UNL A   1      44.214  29.304  28.713  1.00  0.00     0.049 A 
ATOM     67  H   UNL A   1      43.724  29.798  30.704  1.00  0.00     0.167 HD
ATOM     68  C   UNL A   1      44.552  27.189  29.958  1.00  0.00     0.074 A 
ATOM     69  C   UNL A   1      44.854  25.774  30.039  1.00  0.00     0.031 C 
ATOM     70  C   UNL A   1      44.558  27.909  28.812  1.00  0.00     0.034 A 
BRANCH  57  71
ATOM     71  C   UNL A   1      42.847  33.790  29.471  1.00  0.00     0.023 A 
ATOM     72  C   UNL A   1      41.521  34.206  29.243  1.00  0.00     0.012 A 
ATOM     73  C   UNL A   1      43.911  34.664  29.174  1.00  0.00     0.148 A 
ATOM     74  C   UNL A   1      41.255  35.472  28.723  1.00  0.00     0.002 A 
ATOM     75  C   UNL A   1      43.638  35.935  28.680  1.00  0.00     0.091 A 
ATOM     76  F   UNL A   1      45.164  34.240  29.391  1.00  0.00    -0.205 F 
ATOM     77  C   UNL A   1      42.311  36.338  28.452  1.00  0.00     0.022 A 
BRANCH  75  78
ATOM     78  S   UNL A   1      44.920  37.149  28.350  1.00  0.00     0.127 S 
ATOM     79  O   UNL A   1      45.706  36.473  27.319  1.00  0.00    -0.237 OA
ATOM     80  O   UNL A   1      44.143  38.293  27.872  1.00  0.00    -0.237 OA
ATOM     81  O   UNL A   1      45.610  37.363  29.614  1.00  0.00    -0.744 OA
ENDBRANCH  75  78
ENDBRANCH  57  71
BRANCH  58  82
ATOM     82  C   UNL A   1      44.417  25.156  34.207  1.00  0.00     0.023 A 
ATOM     83  C   UNL A   1      43.397  24.193  34.320  1.00  0.00     0.012 A 
ATOM     84  C   UNL A   1      45.706  24.861  34.691  1.00  0.00     0.148 A 
ATOM     85  C   UNL A   1      43.656  22.954  34.904  1.00  0.00     0.002 A 
ATOM     86  C   UNL A   1      45.968  23.608  35.232  1.00  0.00     0.091 A 
ATOM     87  F   UNL A   1      46.656  25.800  34.574  1.00  0.00    -0.205 F 
ATOM     88  C   UNL A   1      44.943  22.657  35.348  1.00  0.00     0.022 A 
BRANCH  86  89
ATOM     89  S   UNL A   1      47.619  23.093  35.718  1.00  0.00     0.127 S 
ATOM     90  O   UNL A   1      48.007  24.164  36.633  1.00  0.00    -0.237 OA
ATOM     91  O   UNL A   1      47.353  21.803  36.357  1.00  0.00    -0.237 OA
ATOM     92  O   UNL A   1      48.389  23.011  34.485  1.00  0.00    -0.744 OA
ENDBRANCH  86  89
ENDBRANCH  58  82
BRANCH  70  93
ATOM     93  C   UNL A   1      44.896  27.201  27.531  1.00  0.00     0.023 A 
ATOM     94  C   UNL A   1      43.855  26.652  26.759  1.00  0.00     0.012 A 
ATOM     95  C   UNL A   1      46.211  27.208  27.027  1.00  0.00     0.148 A 
ATOM     96  C   UNL A   1      44.117  26.118  25.499  1.00  0.00     0.002 A 
ATOM     97  C   UNL A   1      46.460  26.700  25.758  1.00  0.00     0.091 A 
ATOM     98  F   UNL A   1      47.182  27.734  27.787  1.00  0.00    -0.205 F 
ATOM     99  C   UNL A   1      45.415  26.152  24.993  1.00  0.00     0.022 A 
BRANCH  97 100
ATOM    100  S   UNL A   1      48.081  26.766  24.987  1.00  0.00     0.127 S 
ATOM    101  O   UNL A   1      48.425  28.179  25.134  1.00  0.00    -0.237 OA
ATOM    102  O   UNL A   1      48.860  25.857  25.829  1.00  0.00    -0.237 OA
ATOM    103  O   UNL A   1      47.897  26.316  23.614  1.00  0.00    -0.744 OA
ENDBRANCH  97 100
ENDBRANCH  70  93
ENDBRANCH  44  45
ENDBRANCH  36  39
ENDBRANCH  34  35
ENDBRANCH  33  34
ENDBRANCH   1  33
TORSDOF 19
ENDMDL
