MODEL 1
REMARK VINA RESULT:     -11.6      0.000      0.000
REMARK SMILES CCc1ncc(S(=O)(=O)NCc2ccc(C(=O)NCCCCNC(=O)c3ccc(-c4c5nc(c(-c6cccc(S(=O)(=O)[O-])c6F)c6ccc([nH]6)c(-c6cccc(S(=O)(=O)[O-])c6F)c6nc(c(-c7cccc(S(=O)(=O)[O-])c7F)c7ccc4[nH]7)C=C6)C=C5)cc3)o2)[nH]1
REMARK SMILES IDX 19 1 18 2 16 3 17 4 15 6 12 7 13 8 89 9 14 10 11 11 10 12
REMARK SMILES IDX 7 14 8 15 9 16 6 17 3 18 4 19 90 20 5 21 2 23 1 24 20 25
REMARK SMILES IDX 21 26 22 27 23 28 24 29 25 31 26 32 27 33 88 34 28 35 87 36
REMARK SMILES IDX 29 37 30 38 31 39 81 40 32 41 86 42 80 43 82 44 33 45 85 46
REMARK SMILES IDX 79 47 78 48 34 50 66 51 46 52 65 53 47 54 50 55 64 56 83 57
REMARK SMILES IDX 48 58 49 59 63 61 84 62 51 63 35 64 36 65 44 66 37 67 39 68
REMARK SMILES IDX 45 69 38 70 40 71 41 72 42 73 43 74 67 75 68 76 76 77 69 78
REMARK SMILES IDX 71 79 77 80 70 81 72 82 73 83 74 84 75 85 52 86 53 87 61 88
REMARK SMILES IDX 54 89 56 90 62 91 55 92 57 93 58 94 59 95 60 96
REMARK H PARENT 18 5 10 13 90 22 23 30 82 49 50 60
REMARK Flexibility Score: inf
ROOT
ATOM      1  C   UNL A   1      34.918  23.683  23.625  1.00  0.00     0.116 C 
ENDROOT
BRANCH   1   2
ATOM      2  N   UNL A   1      33.987  22.770  23.003  1.00  0.00    -0.349 N 
ATOM      3  C   UNL A   1      32.674  22.483  23.299  1.00  0.00     0.286 C 
ATOM      4  O   UNL A   1      32.084  21.771  22.482  1.00  0.00    -0.266 OA
ATOM      5  H   UNL A   1      34.353  22.267  22.240  1.00  0.00     0.163 HD
BRANCH   3   6
ATOM      6  C   UNL A   1      32.032  23.007  24.491  1.00  0.00     0.191 A 
ATOM      7  C   UNL A   1      30.937  24.601  25.569  1.00  0.00     0.119 A 
ATOM      8  C   UNL A   1      30.987  23.530  26.428  1.00  0.00     0.048 A 
ATOM      9  O   UNL A   1      31.625  24.319  24.431  1.00  0.00    -0.455 OA
ATOM     10  C   UNL A   1      31.651  22.496  25.723  1.00  0.00     0.056 A 
BRANCH   7  11
ATOM     11  C   UNL A   1      30.273  25.918  25.633  1.00  0.00     0.174 C 
BRANCH  11  12
ATOM     12  N   UNL A   1      31.146  26.964  26.189  1.00  0.00    -0.202 NA
ATOM     13  H   UNL A   1      30.578  27.498  26.848  1.00  0.00     0.141 HD
BRANCH  12  14
ATOM     14  S   UNL A   1      31.888  28.082  25.181  1.00  0.00     0.258 S 
ATOM     15  O   UNL A   1      32.981  27.469  24.468  1.00  0.00    -0.205 OA
ATOM     16  O   UNL A   1      32.096  29.283  25.962  1.00  0.00    -0.205 OA
BRANCH  14  17
ATOM     17  C   UNL A   1      30.820  28.601  23.903  1.00  0.00     0.167 A 
ATOM     18  C   UNL A   1      29.522  30.045  22.808  1.00  0.00     0.106 A 
ATOM     19  N   UNL A   1      29.476  28.933  22.103  1.00  0.00    -0.240 NA
ATOM     20  N   UNL A   1      30.339  29.889  23.897  1.00  0.00    -0.332 N 
ATOM     21  C   UNL A   1      30.254  28.032  22.786  1.00  0.00     0.153 A 
ATOM     22  H   UNL A   1      30.547  30.584  24.564  1.00  0.00     0.169 HD
BRANCH  18  23
ATOM     23  C   UNL A   1      28.814  31.330  22.538  1.00  0.00     0.072 C 
ATOM     24  C   UNL A   1      27.620  31.535  23.455  1.00  0.00     0.012 C 
ENDBRANCH  18  23
ENDBRANCH  14  17
ENDBRANCH  12  14
ENDBRANCH  11  12
ENDBRANCH   7  11
ENDBRANCH   3   6
ENDBRANCH   1   2
BRANCH   1  25
ATOM     25  C   UNL A   1      36.353  23.167  23.538  1.00  0.00     0.023 C 
BRANCH  25  26
ATOM     26  C   UNL A   1      36.590  21.858  24.299  1.00  0.00     0.023 C 
BRANCH  26  27
ATOM     27  C   UNL A   1      37.314  22.006  25.635  1.00  0.00     0.116 C 
BRANCH  27  28
ATOM     28  N   UNL A   1      38.416  21.068  25.802  1.00  0.00    -0.352 N 
ATOM     29  C   UNL A   1      39.684  21.319  26.269  1.00  0.00     0.251 C 
ATOM     30  H   UNL A   1      38.228  20.135  25.548  1.00  0.00     0.163 HD
ATOM     31  O   UNL A   1      40.540  20.441  26.243  1.00  0.00    -0.269 OA
BRANCH  29  32
ATOM     32  C   UNL A   1      40.010  22.671  26.765  1.00  0.00     0.039 A 
ATOM     33  C   UNL A   1      40.864  22.803  27.861  1.00  0.00     0.014 A 
ATOM     34  C   UNL A   1      39.519  23.802  26.107  1.00  0.00     0.014 A 
ATOM     35  C   UNL A   1      41.283  24.074  28.255  1.00  0.00     0.010 A 
ATOM     36  C   UNL A   1      40.000  25.060  26.452  1.00  0.00     0.010 A 
ATOM     37  C   UNL A   1      40.888  25.211  27.530  1.00  0.00    -0.014 A 
BRANCH  37  38
ATOM     38  C   UNL A   1      41.411  26.559  27.866  1.00  0.00     0.031 A 
ATOM     39  C   UNL A   1      42.846  26.909  27.581  1.00  0.00     0.074 A 
ATOM     40  C   UNL A   1      40.616  27.439  28.508  1.00  0.00     0.049 A 
ATOM     41  N   UNL A   1      43.493  28.014  27.847  1.00  0.00    -0.248 NA
ATOM     42  C   UNL A   1      43.671  25.873  26.936  1.00  0.00     0.031 C 
ATOM     43  C   UNL A   1      39.231  27.188  28.915  1.00  0.00     0.029 A 
ATOM     44  N   UNL A   1      40.866  28.713  28.954  1.00  0.00    -0.354 N 
ATOM     45  C   UNL A   1      44.802  27.796  27.436  1.00  0.00     0.074 A 
ATOM     46  C   UNL A   1      44.868  26.441  26.936  1.00  0.00     0.031 C 
ATOM     47  C   UNL A   1      38.754  28.274  29.545  1.00  0.00     0.029 A 
ATOM     48  C   UNL A   1      39.805  29.283  29.617  1.00  0.00     0.049 A 
ATOM     49  H   UNL A   1      41.724  29.175  28.814  1.00  0.00     0.167 HD
ATOM     50  C   UNL A   1      45.848  28.655  27.444  1.00  0.00     0.034 A 
ATOM     51  C   UNL A   1      39.693  30.481  30.226  1.00  0.00     0.034 A 
ATOM     52  C   UNL A   1      45.770  30.013  27.912  1.00  0.00     0.049 A 
ATOM     53  C   UNL A   1      40.861  31.428  30.195  1.00  0.00     0.074 A 
ATOM     54  C   UNL A   1      46.749  30.990  27.884  1.00  0.00     0.029 A 
ATOM     55  N   UNL A   1      44.654  30.584  28.504  1.00  0.00    -0.354 N 
ATOM     56  N   UNL A   1      42.044  31.261  29.656  1.00  0.00    -0.248 NA
ATOM     57  C   UNL A   1      40.669  32.742  30.825  1.00  0.00     0.031 C 
ATOM     58  C   UNL A   1      46.236  32.141  28.489  1.00  0.00     0.029 A 
ATOM     59  C   UNL A   1      44.924  31.895  28.857  1.00  0.00     0.049 A 
ATOM     60  H   UNL A   1      43.796  30.124  28.651  1.00  0.00     0.167 HD
ATOM     61  C   UNL A   1      42.723  32.459  29.846  1.00  0.00     0.074 A 
ATOM     62  C   UNL A   1      41.811  33.351  30.532  1.00  0.00     0.031 C 
ATOM     63  C   UNL A   1      43.990  32.788  29.495  1.00  0.00     0.034 A 
BRANCH  50  64
ATOM     64  C   UNL A   1      47.161  28.167  26.889  1.00  0.00     0.023 A 
ATOM     65  C   UNL A   1      48.205  27.821  27.770  1.00  0.00     0.012 A 
ATOM     66  C   UNL A   1      47.342  27.993  25.503  1.00  0.00     0.148 A 
ATOM     67  C   UNL A   1      49.421  27.345  27.281  1.00  0.00     0.002 A 
ATOM     68  C   UNL A   1      48.539  27.472  25.025  1.00  0.00     0.091 A 
ATOM     69  F   UNL A   1      46.346  28.346  24.679  1.00  0.00    -0.205 F 
ATOM     70  C   UNL A   1      49.584  27.161  25.912  1.00  0.00     0.022 A 
BRANCH  68  71
ATOM     71  S   UNL A   1      48.819  27.119  23.288  1.00  0.00     0.127 S 
ATOM     72  O   UNL A   1      48.048  25.889  23.108  1.00  0.00    -0.237 OA
ATOM     73  O   UNL A   1      48.246  28.298  22.639  1.00  0.00    -0.237 OA
ATOM     74  O   UNL A   1      50.260  26.979  23.132  1.00  0.00    -0.744 OA
ENDBRANCH  68  71
ENDBRANCH  50  64
BRANCH  51  75
ATOM     75  C   UNL A   1      38.407  30.875  30.870  1.00  0.00     0.023 A 
ATOM     76  C   UNL A   1      38.204  30.610  32.238  1.00  0.00     0.012 A 
ATOM     77  C   UNL A   1      37.393  31.524  30.139  1.00  0.00     0.148 A 
ATOM     78  C   UNL A   1      37.000  30.947  32.857  1.00  0.00     0.002 A 
ATOM     79  C   UNL A   1      36.220  31.910  30.776  1.00  0.00     0.091 A 
ATOM     80  F   UNL A   1      37.601  31.759  28.835  1.00  0.00    -0.205 F 
ATOM     81  C   UNL A   1      36.012  31.605  32.130  1.00  0.00     0.022 A 
BRANCH  79  82
ATOM     82  S   UNL A   1      34.951  32.879  29.953  1.00  0.00     0.127 S 
ATOM     83  O   UNL A   1      34.046  33.186  31.057  1.00  0.00    -0.237 OA
ATOM     84  O   UNL A   1      35.721  34.018  29.451  1.00  0.00    -0.237 OA
ATOM     85  O   UNL A   1      34.410  32.015  28.913  1.00  0.00    -0.744 OA
ENDBRANCH  79  82
ENDBRANCH  51  75
BRANCH  63  86
ATOM     86  C   UNL A   1      44.461  34.187  29.800  1.00  0.00     0.023 A 
ATOM     87  C   UNL A   1      45.085  34.469  31.030  1.00  0.00     0.012 A 
ATOM     88  C   UNL A   1      44.348  35.205  28.831  1.00  0.00     0.148 A 
ATOM     89  C   UNL A   1      45.556  35.753  31.307  1.00  0.00     0.002 A 
ATOM     90  C   UNL A   1      44.869  36.466  29.093  1.00  0.00     0.091 A 
ATOM     91  F   UNL A   1      43.736  34.920  27.673  1.00  0.00    -0.205 F 
ATOM     92  C   UNL A   1      45.460  36.746  30.336  1.00  0.00     0.022 A 
BRANCH  90  93
ATOM     93  S   UNL A   1      44.879  37.777  27.866  1.00  0.00     0.127 S 
ATOM     94  O   UNL A   1      45.528  38.864  28.597  1.00  0.00    -0.237 OA
ATOM     95  O   UNL A   1      45.688  37.192  26.796  1.00  0.00    -0.237 OA
ATOM     96  O   UNL A   1      43.485  38.009  27.512  1.00  0.00    -0.744 OA
ENDBRANCH  90  93
ENDBRANCH  63  86
ENDBRANCH  37  38
ENDBRANCH  29  32
ENDBRANCH  27  28
ENDBRANCH  26  27
ENDBRANCH  25  26
ENDBRANCH   1  25
TORSDOF 19
ENDMDL
MODEL 2
REMARK VINA RESULT:     -11.4      1.479      7.685
REMARK SMILES CCc1ncc(S(=O)(=O)NCc2ccc(C(=O)NCCCCNC(=O)c3ccc(-c4c5nc(c(-c6cccc(S(=O)(=O)[O-])c6F)c6ccc([nH]6)c(-c6cccc(S(=O)(=O)[O-])c6F)c6nc(c(-c7cccc(S(=O)(=O)[O-])c7F)c7ccc4[nH]7)C=C6)C=C5)cc3)o2)[nH]1
REMARK SMILES IDX 19 1 18 2 16 3 17 4 15 6 12 7 13 8 89 9 14 10 11 11 10 12
REMARK SMILES IDX 7 14 8 15 9 16 6 17 3 18 4 19 90 20 5 21 2 23 1 24 20 25
REMARK SMILES IDX 21 26 22 27 23 28 24 29 25 31 26 32 27 33 88 34 28 35 87 36
REMARK SMILES IDX 29 37 30 38 31 39 81 40 32 41 86 42 80 43 82 44 33 45 85 46
REMARK SMILES IDX 79 47 78 48 34 50 66 51 46 52 65 53 47 54 50 55 64 56 83 57
REMARK SMILES IDX 48 58 49 59 63 61 84 62 51 63 35 64 36 65 44 66 37 67 39 68
REMARK SMILES IDX 45 69 38 70 40 71 41 72 42 73 43 74 67 75 68 76 76 77 69 78
REMARK SMILES IDX 71 79 77 80 70 81 72 82 73 83 74 84 75 85 52 86 53 87 61 88
REMARK SMILES IDX 54 89 56 90 62 91 55 92 57 93 58 94 59 95 60 96
REMARK H PARENT 18 5 10 13 90 22 23 30 82 49 50 60
REMARK Flexibility Score: inf
ROOT
ATOM      1  C   UNL A   1      34.833  23.671  23.873  1.00  0.00     0.116 C 
ENDROOT
BRANCH   1   2
ATOM      2  N   UNL A   1      33.967  22.757  23.165  1.00  0.00    -0.349 N 
ATOM      3  C   UNL A   1      32.651  22.419  23.376  1.00  0.00     0.286 C 
ATOM      4  O   UNL A   1      32.128  21.724  22.500  1.00  0.00    -0.266 OA
ATOM      5  H   UNL A   1      34.390  22.297  22.404  1.00  0.00     0.163 HD
BRANCH   3   6
ATOM      6  C   UNL A   1      31.928  22.872  24.551  1.00  0.00     0.191 A 
ATOM      7  C   UNL A   1      30.708  24.377  25.622  1.00  0.00     0.119 A 
ATOM      8  C   UNL A   1      30.769  23.282  26.449  1.00  0.00     0.048 A 
ATOM      9  O   UNL A   1      31.462  24.165  24.511  1.00  0.00    -0.455 OA
ATOM     10  C   UNL A   1      31.514  22.305  25.746  1.00  0.00     0.056 A 
BRANCH   7  11
ATOM     11  C   UNL A   1      29.978  25.659  25.694  1.00  0.00     0.174 C 
BRANCH  11  12
ATOM     12  N   UNL A   1      30.881  26.820  25.753  1.00  0.00    -0.202 NA
ATOM     13  H   UNL A   1      30.603  27.365  26.569  1.00  0.00     0.141 HD
BRANCH  12  14
ATOM     14  S   UNL A   1      30.973  27.896  24.467  1.00  0.00     0.258 S 
ATOM     15  O   UNL A   1      31.525  29.154  24.902  1.00  0.00    -0.205 OA
ATOM     16  O   UNL A   1      29.699  27.845  23.782  1.00  0.00    -0.205 OA
BRANCH  14  17
ATOM     17  C   UNL A   1      32.112  27.356  23.260  1.00  0.00     0.167 A 
ATOM     18  C   UNL A   1      32.839  26.067  21.592  1.00  0.00     0.106 A 
ATOM     19  N   UNL A   1      33.809  26.932  21.813  1.00  0.00    -0.240 NA
ATOM     20  N   UNL A   1      31.787  26.303  22.438  1.00  0.00    -0.332 N 
ATOM     21  C   UNL A   1      33.377  27.712  22.856  1.00  0.00     0.153 A 
ATOM     22  H   UNL A   1      30.939  25.802  22.453  1.00  0.00     0.169 HD
BRANCH  18  23
ATOM     23  C   UNL A   1      32.809  24.959  20.594  1.00  0.00     0.072 C 
ATOM     24  C   UNL A   1      32.426  25.444  19.206  1.00  0.00     0.012 C 
ENDBRANCH  18  23
ENDBRANCH  14  17
ENDBRANCH  12  14
ENDBRANCH  11  12
ENDBRANCH   7  11
ENDBRANCH   3   6
ENDBRANCH   1   2
BRANCH   1  25
ATOM     25  C   UNL A   1      36.306  23.337  23.648  1.00  0.00     0.023 C 
BRANCH  25  26
ATOM     26  C   UNL A   1      36.669  21.882  23.965  1.00  0.00     0.023 C 
BRANCH  26  27
ATOM     27  C   UNL A   1      37.031  21.607  25.423  1.00  0.00     0.116 C 
BRANCH  27  28
ATOM     28  N   UNL A   1      38.007  20.536  25.583  1.00  0.00    -0.352 N 
ATOM     29  C   UNL A   1      39.289  20.621  26.072  1.00  0.00     0.251 C 
ATOM     30  H   UNL A   1      37.710  19.640  25.307  1.00  0.00     0.163 HD
ATOM     31  O   UNL A   1      40.032  19.645  26.038  1.00  0.00    -0.269 OA
BRANCH  29  32
ATOM     32  C   UNL A   1      39.771  21.913  26.601  1.00  0.00     0.039 A 
ATOM     33  C   UNL A   1      40.792  21.916  27.552  1.00  0.00     0.014 A 
ATOM     34  C   UNL A   1      39.254  23.114  26.109  1.00  0.00     0.014 A 
ATOM     35  C   UNL A   1      41.345  23.130  27.960  1.00  0.00     0.010 A 
ATOM     36  C   UNL A   1      39.860  24.316  26.458  1.00  0.00     0.010 A 
ATOM     37  C   UNL A   1      40.912  24.338  27.387  1.00  0.00    -0.014 A 
BRANCH  37  38
ATOM     38  C   UNL A   1      41.563  25.628  27.728  1.00  0.00     0.031 A 
ATOM     39  C   UNL A   1      40.801  26.689  28.474  1.00  0.00     0.074 A 
ATOM     40  C   UNL A   1      42.813  25.879  27.288  1.00  0.00     0.049 A 
ATOM     41  N   UNL A   1      41.183  27.892  28.816  1.00  0.00    -0.248 NA
ATOM     42  C   UNL A   1      39.418  26.368  28.866  1.00  0.00     0.031 C 
ATOM     43  C   UNL A   1      43.625  24.964  26.483  1.00  0.00     0.029 A 
ATOM     44  N   UNL A   1      43.609  26.987  27.433  1.00  0.00    -0.354 N 
ATOM     45  C   UNL A   1      40.085  28.481  29.429  1.00  0.00     0.074 A 
ATOM     46  C   UNL A   1      39.007  27.517  29.380  1.00  0.00     0.031 C 
ATOM     47  C   UNL A   1      44.805  25.545  26.211  1.00  0.00     0.029 A 
ATOM     48  C   UNL A   1      44.821  26.884  26.791  1.00  0.00     0.049 A 
ATOM     49  H   UNL A   1      43.338  27.782  27.948  1.00  0.00     0.167 HD
ATOM     50  C   UNL A   1      39.988  29.701  30.009  1.00  0.00     0.034 A 
ATOM     51  C   UNL A   1      45.828  27.772  26.672  1.00  0.00     0.034 A 
ATOM     52  C   UNL A   1      41.072  30.642  30.084  1.00  0.00     0.049 A 
ATOM     53  C   UNL A   1      45.707  29.109  27.350  1.00  0.00     0.074 A 
ATOM     54  C   UNL A   1      41.102  31.869  30.723  1.00  0.00     0.029 A 
ATOM     55  N   UNL A   1      42.314  30.471  29.491  1.00  0.00    -0.354 N 
ATOM     56  N   UNL A   1      44.716  29.585  28.064  1.00  0.00    -0.248 NA
ATOM     57  C   UNL A   1      46.855  30.019  27.236  1.00  0.00     0.031 C 
ATOM     58  C   UNL A   1      42.350  32.454  30.489  1.00  0.00     0.029 A 
ATOM     59  C   UNL A   1      43.113  31.574  29.739  1.00  0.00     0.049 A 
ATOM     60  H   UNL A   1      42.586  29.681  28.971  1.00  0.00     0.167 HD
ATOM     61  C   UNL A   1      45.136  30.831  28.518  1.00  0.00     0.074 A 
ATOM     62  C   UNL A   1      46.480  31.026  28.013  1.00  0.00     0.031 C 
ATOM     63  C   UNL A   1      44.467  31.735  29.273  1.00  0.00     0.034 A 
BRANCH  50  64
ATOM     64  C   UNL A   1      38.676  30.071  30.649  1.00  0.00     0.023 A 
ATOM     65  C   UNL A   1      38.406  29.667  31.972  1.00  0.00     0.012 A 
ATOM     66  C   UNL A   1      37.736  30.869  29.966  1.00  0.00     0.148 A 
ATOM     67  C   UNL A   1      37.208  30.017  32.593  1.00  0.00     0.002 A 
ATOM     68  C   UNL A   1      36.566  31.256  30.609  1.00  0.00     0.091 A 
ATOM     69  F   UNL A   1      38.001  31.228  28.702  1.00  0.00    -0.205 F 
ATOM     70  C   UNL A   1      36.294  30.819  31.917  1.00  0.00     0.022 A 
BRANCH  68  71
ATOM     71  S   UNL A   1      35.363  32.355  29.856  1.00  0.00     0.127 S 
ATOM     72  O   UNL A   1      34.859  31.533  28.757  1.00  0.00    -0.237 OA
ATOM     73  O   UNL A   1      34.411  32.562  30.948  1.00  0.00    -0.237 OA
ATOM     74  O   UNL A   1      36.099  33.546  29.457  1.00  0.00    -0.744 OA
ENDBRANCH  68  71
ENDBRANCH  50  64
BRANCH  51  75
ATOM     75  C   UNL A   1      47.064  27.404  25.924  1.00  0.00     0.023 A 
ATOM     76  C   UNL A   1      48.095  26.706  26.583  1.00  0.00     0.012 A 
ATOM     77  C   UNL A   1      47.217  27.727  24.562  1.00  0.00     0.148 A 
ATOM     78  C   UNL A   1      49.271  26.372  25.911  1.00  0.00     0.002 A 
ATOM     79  C   UNL A   1      48.366  27.340  23.883  1.00  0.00     0.091 A 
ATOM     80  F   UNL A   1      46.229  28.401  23.954  1.00  0.00    -0.205 F 
ATOM     81  C   UNL A   1      49.404  26.680  24.559  1.00  0.00     0.022 A 
BRANCH  79  82
ATOM     82  S   UNL A   1      48.565  27.576  22.113  1.00  0.00     0.127 S 
ATOM     83  O   UNL A   1      48.760  26.204  21.649  1.00  0.00    -0.237 OA
ATOM     84  O   UNL A   1      47.281  28.175  21.744  1.00  0.00    -0.237 OA
ATOM     85  O   UNL A   1      49.708  28.465  21.961  1.00  0.00    -0.744 OA
ENDBRANCH  79  82
ENDBRANCH  51  75
BRANCH  63  86
ATOM     86  C   UNL A   1      45.186  33.005  29.647  1.00  0.00     0.023 A 
ATOM     87  C   UNL A   1      46.013  33.040  30.786  1.00  0.00     0.012 A 
ATOM     88  C   UNL A   1      45.097  34.144  28.821  1.00  0.00     0.148 A 
ATOM     89  C   UNL A   1      46.711  34.201  31.120  1.00  0.00     0.002 A 
ATOM     90  C   UNL A   1      45.838  35.278  29.129  1.00  0.00     0.091 A 
ATOM     91  F   UNL A   1      44.292  34.097  27.750  1.00  0.00    -0.205 F 
ATOM     92  C   UNL A   1      46.634  35.313  30.286  1.00  0.00     0.022 A 
BRANCH  90  93
ATOM     93  S   UNL A   1      45.879  36.722  28.062  1.00  0.00     0.127 S 
ATOM     94  O   UNL A   1      44.485  37.162  28.102  1.00  0.00    -0.237 OA
ATOM     95  O   UNL A   1      46.817  37.599  28.764  1.00  0.00    -0.237 OA
ATOM     96  O   UNL A   1      46.347  36.252  26.765  1.00  0.00    -0.744 OA
ENDBRANCH  90  93
ENDBRANCH  63  86
ENDBRANCH  37  38
ENDBRANCH  29  32
ENDBRANCH  27  28
ENDBRANCH  26  27
ENDBRANCH  25  26
ENDBRANCH   1  25
TORSDOF 19
ENDMDL
MODEL 3
REMARK VINA RESULT:     -11.3      5.621      8.972
REMARK SMILES CCc1ncc(S(=O)(=O)NCc2ccc(C(=O)NCCCCNC(=O)c3ccc(-c4c5nc(c(-c6cccc(S(=O)(=O)[O-])c6F)c6ccc([nH]6)c(-c6cccc(S(=O)(=O)[O-])c6F)c6nc(c(-c7cccc(S(=O)(=O)[O-])c7F)c7ccc4[nH]7)C=C6)C=C5)cc3)o2)[nH]1
REMARK SMILES IDX 19 1 18 2 16 3 17 4 15 6 12 7 13 8 89 9 14 10 11 11 10 12
REMARK SMILES IDX 7 14 8 15 9 16 6 17 3 18 4 19 90 20 5 21 2 23 1 24 20 25
REMARK SMILES IDX 21 26 22 27 23 28 24 29 25 31 26 32 27 33 88 34 28 35 87 36
REMARK SMILES IDX 29 37 30 38 31 39 81 40 32 41 86 42 80 43 82 44 33 45 85 46
REMARK SMILES IDX 79 47 78 48 34 50 66 51 46 52 65 53 47 54 50 55 64 56 83 57
REMARK SMILES IDX 48 58 49 59 63 61 84 62 51 63 35 64 36 65 44 66 37 67 39 68
REMARK SMILES IDX 45 69 38 70 40 71 41 72 42 73 43 74 67 75 68 76 76 77 69 78
REMARK SMILES IDX 71 79 77 80 70 81 72 82 73 83 74 84 75 85 52 86 53 87 61 88
REMARK SMILES IDX 54 89 56 90 62 91 55 92 57 93 58 94 59 95 60 96
REMARK H PARENT 18 5 10 13 90 22 23 30 82 49 50 60
REMARK Flexibility Score: inf
ROOT
ATOM      1  C   UNL A   1      31.696  29.785  25.585  1.00  0.00     0.116 C 
ENDROOT
BRANCH   1   2
ATOM      2  N   UNL A   1      32.835  29.717  24.699  1.00  0.00    -0.349 N 
ATOM      3  C   UNL A   1      33.074  28.928  23.599  1.00  0.00     0.286 C 
ATOM      4  O   UNL A   1      34.079  29.212  22.942  1.00  0.00    -0.266 OA
ATOM      5  H   UNL A   1      33.564  30.341  24.921  1.00  0.00     0.163 HD
BRANCH   3   6
ATOM      6  C   UNL A   1      32.182  27.841  23.235  1.00  0.00     0.191 A 
ATOM      7  C   UNL A   1      31.464  25.759  23.456  1.00  0.00     0.119 A 
ATOM      8  C   UNL A   1      30.596  26.366  22.581  1.00  0.00     0.048 A 
ATOM      9  O   UNL A   1      32.460  26.617  23.797  1.00  0.00    -0.455 OA
ATOM     10  C   UNL A   1      31.032  27.709  22.472  1.00  0.00     0.056 A 
BRANCH   7  11
ATOM     11  C   UNL A   1      31.488  24.427  24.094  1.00  0.00     0.174 C 
BRANCH  11  12
ATOM     12  N   UNL A   1      31.304  23.334  23.127  1.00  0.00    -0.202 NA
ATOM     13  H   UNL A   1      30.710  22.639  23.580  1.00  0.00     0.141 HD
BRANCH  12  14
ATOM     14  S   UNL A   1      32.629  22.505  22.514  1.00  0.00     0.258 S 
ATOM     15  O   UNL A   1      33.394  23.355  21.637  1.00  0.00    -0.205 OA
ATOM     16  O   UNL A   1      32.149  21.217  22.061  1.00  0.00    -0.205 OA
BRANCH  14  17
ATOM     17  C   UNL A   1      33.770  22.101  23.770  1.00  0.00     0.167 A 
ATOM     18  C   UNL A   1      35.769  22.062  24.757  1.00  0.00     0.106 A 
ATOM     19  N   UNL A   1      34.964  21.414  25.575  1.00  0.00    -0.240 NA
ATOM     20  N   UNL A   1      35.079  22.507  23.660  1.00  0.00    -0.332 N 
ATOM     21  C   UNL A   1      33.737  21.414  24.961  1.00  0.00     0.153 A 
ATOM     22  H   UNL A   1      35.458  23.031  22.917  1.00  0.00     0.169 HD
BRANCH  18  23
ATOM     23  C   UNL A   1      37.231  22.313  24.918  1.00  0.00     0.072 C 
ATOM     24  C   UNL A   1      37.515  23.612  25.653  1.00  0.00     0.012 C 
ENDBRANCH  18  23
ENDBRANCH  14  17
ENDBRANCH  12  14
ENDBRANCH  11  12
ENDBRANCH   7  11
ENDBRANCH   3   6
ENDBRANCH   1   2
BRANCH   1  25
ATOM     25  C   UNL A   1      32.037  30.513  26.883  1.00  0.00     0.023 C 
BRANCH  25  26
ATOM     26  C   UNL A   1      31.611  31.986  26.900  1.00  0.00     0.023 C 
BRANCH  26  27
ATOM     27  C   UNL A   1      32.760  32.992  26.896  1.00  0.00     0.116 C 
BRANCH  27  28
ATOM     28  N   UNL A   1      32.481  34.190  27.677  1.00  0.00    -0.352 N 
ATOM     29  C   UNL A   1      33.111  34.628  28.817  1.00  0.00     0.251 C 
ATOM     30  H   UNL A   1      31.749  34.758  27.345  1.00  0.00     0.163 HD
ATOM     31  O   UNL A   1      32.683  35.603  29.427  1.00  0.00    -0.269 OA
BRANCH  29  32
ATOM     32  C   UNL A   1      34.285  33.885  29.318  1.00  0.00     0.039 A 
ATOM     33  C   UNL A   1      35.563  34.355  29.013  1.00  0.00     0.014 A 
ATOM     34  C   UNL A   1      34.116  32.765  30.135  1.00  0.00     0.014 A 
ATOM     35  C   UNL A   1      36.675  33.739  29.589  1.00  0.00     0.010 A 
ATOM     36  C   UNL A   1      35.219  32.204  30.769  1.00  0.00     0.010 A 
ATOM     37  C   UNL A   1      36.511  32.684  30.503  1.00  0.00    -0.014 A 
BRANCH  37  38
ATOM     38  C   UNL A   1      37.674  32.089  31.209  1.00  0.00     0.031 A 
ATOM     39  C   UNL A   1      38.441  30.955  30.585  1.00  0.00     0.074 A 
ATOM     40  C   UNL A   1      37.986  32.513  32.450  1.00  0.00     0.049 A 
ATOM     41  N   UNL A   1      39.449  30.278  31.070  1.00  0.00    -0.248 NA
ATOM     42  C   UNL A   1      38.001  30.503  29.254  1.00  0.00     0.031 C 
ATOM     43  C   UNL A   1      37.266  33.548  33.197  1.00  0.00     0.029 A 
ATOM     44  N   UNL A   1      38.972  32.108  33.314  1.00  0.00    -0.354 N 
ATOM     45  C   UNL A   1      39.743  29.303  30.124  1.00  0.00     0.074 A 
ATOM     46  C   UNL A   1      38.782  29.452  29.053  1.00  0.00     0.031 C 
ATOM     47  C   UNL A   1      37.838  33.700  34.402  1.00  0.00     0.029 A 
ATOM     48  C   UNL A   1      38.940  32.753  34.529  1.00  0.00     0.049 A 
ATOM     49  H   UNL A   1      39.639  31.420  33.087  1.00  0.00     0.167 HD
ATOM     50  C   UNL A   1      40.739  28.387  30.130  1.00  0.00     0.034 A 
ATOM     51  C   UNL A   1      39.707  32.592  35.627  1.00  0.00     0.034 A 
ATOM     52  C   UNL A   1      41.712  28.265  31.181  1.00  0.00     0.049 A 
ATOM     53  C   UNL A   1      40.826  31.587  35.595  1.00  0.00     0.074 A 
ATOM     54  C   UNL A   1      42.812  27.427  31.243  1.00  0.00     0.029 A 
ATOM     55  N   UNL A   1      41.698  28.991  32.363  1.00  0.00    -0.354 N 
ATOM     56  N   UNL A   1      41.187  30.785  34.624  1.00  0.00    -0.248 NA
ATOM     57  C   UNL A   1      41.665  31.490  36.798  1.00  0.00     0.031 C 
ATOM     58  C   UNL A   1      43.443  27.623  32.475  1.00  0.00     0.029 A 
ATOM     59  C   UNL A   1      42.761  28.612  33.164  1.00  0.00     0.049 A 
ATOM     60  H   UNL A   1      41.030  29.675  32.596  1.00  0.00     0.167 HD
ATOM     61  C   UNL A   1      42.317  30.116  35.082  1.00  0.00     0.074 A 
ATOM     62  C   UNL A   1      42.592  30.624  36.410  1.00  0.00     0.031 C 
ATOM     63  C   UNL A   1      43.053  29.161  34.464  1.00  0.00     0.034 A 
BRANCH  50  64
ATOM     64  C   UNL A   1      40.857  27.471  28.940  1.00  0.00     0.023 A 
ATOM     65  C   UNL A   1      39.981  26.374  28.815  1.00  0.00     0.012 A 
ATOM     66  C   UNL A   1      41.791  27.728  27.917  1.00  0.00     0.148 A 
ATOM     67  C   UNL A   1      40.055  25.525  27.711  1.00  0.00     0.002 A 
ATOM     68  C   UNL A   1      41.827  26.906  26.796  1.00  0.00     0.091 A 
ATOM     69  F   UNL A   1      42.629  28.763  28.062  1.00  0.00    -0.205 F 
ATOM     70  C   UNL A   1      40.970  25.797  26.698  1.00  0.00     0.022 A 
BRANCH  68  71
ATOM     71  S   UNL A   1      42.910  27.218  25.398  1.00  0.00     0.127 S 
ATOM     72  O   UNL A   1      42.220  28.322  24.731  1.00  0.00    -0.237 OA
ATOM     73  O   UNL A   1      44.161  27.592  26.058  1.00  0.00    -0.237 OA
ATOM     74  O   UNL A   1      42.966  25.972  24.647  1.00  0.00    -0.744 OA
ENDBRANCH  68  71
ENDBRANCH  50  64
BRANCH  51  75
ATOM     75  C   UNL A   1      39.476  33.441  36.830  1.00  0.00     0.023 A 
ATOM     76  C   UNL A   1      39.974  34.758  36.858  1.00  0.00     0.012 A 
ATOM     77  C   UNL A   1      38.753  32.958  37.937  1.00  0.00     0.148 A 
ATOM     78  C   UNL A   1      39.792  35.564  37.982  1.00  0.00     0.002 A 
ATOM     79  C   UNL A   1      38.524  33.786  39.030  1.00  0.00     0.091 A 
ATOM     80  F   UNL A   1      38.294  31.698  37.896  1.00  0.00    -0.205 F 
ATOM     81  C   UNL A   1      39.060  35.082  39.064  1.00  0.00     0.022 A 
BRANCH  79  82
ATOM     82  S   UNL A   1      37.480  33.297  40.407  1.00  0.00     0.127 S 
ATOM     83  O   UNL A   1      38.234  32.180  40.972  1.00  0.00    -0.237 OA
ATOM     84  O   UNL A   1      37.472  34.511  41.224  1.00  0.00    -0.237 OA
ATOM     85  O   UNL A   1      36.190  32.958  39.822  1.00  0.00    -0.744 OA
ENDBRANCH  79  82
ENDBRANCH  51  75
BRANCH  63  86
ATOM     86  C   UNL A   1      44.261  28.628  35.190  1.00  0.00     0.023 A 
ATOM     87  C   UNL A   1      45.533  29.181  34.948  1.00  0.00     0.012 A 
ATOM     88  C   UNL A   1      44.118  27.624  36.170  1.00  0.00     0.148 A 
ATOM     89  C   UNL A   1      46.651  28.718  35.642  1.00  0.00     0.002 A 
ATOM     90  C   UNL A   1      45.227  27.207  36.896  1.00  0.00     0.091 A 
ATOM     91  F   UNL A   1      42.902  27.098  36.374  1.00  0.00    -0.205 F 
ATOM     92  C   UNL A   1      46.496  27.742  36.623  1.00  0.00     0.022 A 
BRANCH  90  93
ATOM     93  S   UNL A   1      45.107  26.028  38.246  1.00  0.00     0.127 S 
ATOM     94  O   UNL A   1      44.822  24.785  37.530  1.00  0.00    -0.237 OA
ATOM     95  O   UNL A   1      46.443  26.100  38.838  1.00  0.00    -0.237 OA
ATOM     96  O   UNL A   1      44.037  26.510  39.108  1.00  0.00    -0.744 OA
ENDBRANCH  90  93
ENDBRANCH  63  86
ENDBRANCH  37  38
ENDBRANCH  29  32
ENDBRANCH  27  28
ENDBRANCH  26  27
ENDBRANCH  25  26
ENDBRANCH   1  25
TORSDOF 19
ENDMDL
