MODEL 1
REMARK VINA RESULT:     -12.6      0.000      0.000
REMARK SMILES CCc1cc(OC(F)(F)F)cc2c1O[C@H](C(F)(F)F)C(C(=O)NCCCCNC(=O)c1ccc(-c3c4nc(c(-c5cccc(S(=O)(=O)[O-])c5F)c5ccc([nH]5)c(-c5cccc(S(=O)(=O)[O-])c5F)c5nc(c(-c6cccc(S(=O)(=O)[O-])c6F)c6ccc3[nH]6)C=C5)C=C4)cc1)=C2
REMARK SMILES IDX 26 1 25 2 24 3 23 4 21 5 22 6 20 8 3 9 4 10 13 11 5 12 12 13
REMARK SMILES IDX 14 14 11 15 94 16 15 17 2 18 1 19 6 20 7 21 8 22 9 23 10 24
REMARK SMILES IDX 16 25 17 26 18 27 19 28 27 29 28 30 29 31 30 33 31 34 32 35
REMARK SMILES IDX 93 36 33 37 92 38 34 39 35 40 36 41 86 42 37 43 91 44 85 45
REMARK SMILES IDX 87 46 38 47 90 48 84 49 83 50 39 52 71 53 51 54 70 55 52 56
REMARK SMILES IDX 55 57 69 58 88 59 53 60 54 61 68 63 89 64 56 65 40 66 41 67
REMARK SMILES IDX 49 68 42 69 44 70 50 71 43 72 45 73 46 74 47 75 48 76 72 77
REMARK SMILES IDX 73 78 81 79 74 80 76 81 82 82 75 83 77 84 78 85 79 86 80 87
REMARK SMILES IDX 57 88 58 89 66 90 59 91 61 92 67 93 60 94 62 95 63 96 64 97
REMARK SMILES IDX 65 98
REMARK H PARENT 23 7 28 32 87 51 55 62
REMARK Flexibility Score: inf
ROOT
ATOM      1  C   UNL A   1      31.730  31.834  26.869  1.00  0.00     0.023 C 
ENDROOT
BRANCH   1   2
ATOM      2  C   UNL A   1      31.998  30.328  26.778  1.00  0.00     0.023 C 
BRANCH   2   3
ATOM      3  C   UNL A   1      33.319  29.968  26.094  1.00  0.00     0.116 C 
BRANCH   3   4
ATOM      4  N   UNL A   1      33.121  29.775  24.672  1.00  0.00    -0.352 N 
ATOM      5  C   UNL A   1      33.043  28.663  23.899  1.00  0.00     0.251 C 
ATOM      6  O   UNL A   1      32.854  28.819  22.694  1.00  0.00    -0.270 OA
ATOM      7  H   UNL A   1      33.023  30.615  24.168  1.00  0.00     0.163 HD
BRANCH   5   8
ATOM      8  C   UNL A   1      33.079  27.275  24.442  1.00  0.00     0.067 C 
ATOM      9  C   UNL A   1      32.672  23.628  26.518  1.00  0.00    -0.002 A 
ATOM     10  C   UNL A   1      33.780  22.749  26.535  1.00  0.00     0.054 A 
ATOM     11  C   UNL A   1      32.802  24.844  25.831  1.00  0.00     0.131 A 
ATOM     12  C   UNL A   1      34.986  23.078  25.913  1.00  0.00     0.130 A 
ATOM     13  C   UNL A   1      34.003  25.177  25.192  1.00  0.00     0.021 A 
ATOM     14  O   UNL A   1      31.764  25.730  25.864  1.00  0.00    -0.475 OA
ATOM     15  C   UNL A   1      35.087  24.294  25.237  1.00  0.00     0.058 A 
ATOM     16  C   UNL A   1      34.153  26.483  24.556  1.00  0.00     0.025 C 
ATOM     17  C   UNL A   1      31.709  26.737  24.819  1.00  0.00     0.314 C 
BRANCH   9  18
ATOM     18  C   UNL A   1      31.415  23.134  27.210  1.00  0.00     0.036 C 
ATOM     19  C   UNL A   1      30.277  22.554  26.381  1.00  0.00     0.009 C 
ENDBRANCH   9  18
BRANCH  12  20
ATOM     20  O   UNL A   1      36.126  22.327  25.893  1.00  0.00    -0.406 OA
BRANCH  20  21
ATOM     21  C   UNL A   1      36.306  21.421  24.818  1.00  0.00     0.573 C 
ATOM     22  F   UNL A   1      35.200  21.347  24.047  1.00  0.00    -0.132 F 
ATOM     23  F   UNL A   1      37.363  21.776  24.056  1.00  0.00    -0.132 F 
ATOM     24  F   UNL A   1      36.547  20.191  25.323  1.00  0.00    -0.132 F 
ENDBRANCH  20  21
ENDBRANCH  12  20
BRANCH  17  25
ATOM     25  C   UNL A   1      30.919  26.203  23.605  1.00  0.00     0.429 C 
ATOM     26  F   UNL A   1      30.215  27.177  22.978  1.00  0.00    -0.167 F 
ATOM     27  F   UNL A   1      31.757  25.672  22.674  1.00  0.00    -0.167 F 
ATOM     28  F   UNL A   1      30.052  25.220  23.929  1.00  0.00    -0.167 F 
ENDBRANCH  17  25
ENDBRANCH   5   8
ENDBRANCH   3   4
ENDBRANCH   2   3
ENDBRANCH   1   2
BRANCH   1  29
ATOM     29  C   UNL A   1      32.879  32.653  27.448  1.00  0.00     0.116 C 
BRANCH  29  30
ATOM     30  N   UNL A   1      32.518  34.036  27.723  1.00  0.00    -0.352 N 
ATOM     31  C   UNL A   1      33.079  34.896  28.640  1.00  0.00     0.251 C 
ATOM     32  H   UNL A   1      31.779  34.402  27.186  1.00  0.00     0.163 HD
ATOM     33  O   UNL A   1      32.599  36.002  28.825  1.00  0.00    -0.269 OA
BRANCH  31  34
ATOM     34  C   UNL A   1      34.243  34.437  29.428  1.00  0.00     0.039 A 
ATOM     35  C   UNL A   1      34.018  33.836  30.668  1.00  0.00     0.014 A 
ATOM     36  C   UNL A   1      35.539  34.560  28.921  1.00  0.00     0.014 A 
ATOM     37  C   UNL A   1      35.094  33.295  31.375  1.00  0.00     0.010 A 
ATOM     38  C   UNL A   1      36.599  33.964  29.595  1.00  0.00     0.010 A 
ATOM     39  C   UNL A   1      36.387  33.326  30.827  1.00  0.00    -0.014 A 
BRANCH  39  40
ATOM     40  C   UNL A   1      37.530  32.680  31.517  1.00  0.00     0.031 A 
ATOM     41  C   UNL A   1      38.239  31.518  30.877  1.00  0.00     0.074 A 
ATOM     42  C   UNL A   1      37.862  33.076  32.761  1.00  0.00     0.049 A 
ATOM     43  N   UNL A   1      39.215  30.789  31.351  1.00  0.00    -0.248 NA
ATOM     44  C   UNL A   1      37.771  31.103  29.544  1.00  0.00     0.031 C 
ATOM     45  C   UNL A   1      37.189  34.132  33.522  1.00  0.00     0.029 A 
ATOM     46  N   UNL A   1      38.831  32.617  33.618  1.00  0.00    -0.354 N 
ATOM     47  C   UNL A   1      39.453  29.809  30.396  1.00  0.00     0.074 A 
ATOM     48  C   UNL A   1      38.498  30.016  29.329  1.00  0.00     0.031 C 
ATOM     49  C   UNL A   1      37.764  34.239  34.730  1.00  0.00     0.029 A 
ATOM     50  C   UNL A   1      38.833  33.250  34.839  1.00  0.00     0.049 A 
ATOM     51  H   UNL A   1      39.465  31.901  33.381  1.00  0.00     0.167 HD
ATOM     52  C   UNL A   1      40.401  28.843  30.391  1.00  0.00     0.034 A 
ATOM     53  C   UNL A   1      39.608  33.055  35.924  1.00  0.00     0.034 A 
ATOM     54  C   UNL A   1      41.385  28.677  31.425  1.00  0.00     0.049 A 
ATOM     55  C   UNL A   1      40.698  32.019  35.865  1.00  0.00     0.074 A 
ATOM     56  C   UNL A   1      42.450  27.795  31.467  1.00  0.00     0.029 A 
ATOM     57  N   UNL A   1      41.425  29.409  32.602  1.00  0.00    -0.354 N 
ATOM     58  N   UNL A   1      41.018  31.216  34.879  1.00  0.00    -0.248 NA
ATOM     59  C   UNL A   1      41.558  31.890  37.050  1.00  0.00     0.031 C 
ATOM     60  C   UNL A   1      43.130  27.988  32.675  1.00  0.00     0.029 A 
ATOM     61  C   UNL A   1      42.495  28.999  33.379  1.00  0.00     0.049 A 
ATOM     62  H   UNL A   1      40.787  30.117  32.849  1.00  0.00     0.167 HD
ATOM     63  C   UNL A   1      42.136  30.510  35.311  1.00  0.00     0.074 A 
ATOM     64  C   UNL A   1      42.450  30.997  36.639  1.00  0.00     0.031 C 
ATOM     65  C   UNL A   1      42.829  29.535  34.672  1.00  0.00     0.034 A 
BRANCH  52  66
ATOM     66  C   UNL A   1      40.466  27.935  29.192  1.00  0.00     0.023 A 
ATOM     67  C   UNL A   1      39.570  26.849  29.099  1.00  0.00     0.012 A 
ATOM     68  C   UNL A   1      41.368  28.178  28.138  1.00  0.00     0.148 A 
ATOM     69  C   UNL A   1      39.593  26.001  27.994  1.00  0.00     0.002 A 
ATOM     70  C   UNL A   1      41.357  27.353  27.019  1.00  0.00     0.091 A 
ATOM     71  F   UNL A   1      42.229  29.199  28.255  1.00  0.00    -0.205 F 
ATOM     72  C   UNL A   1      40.478  26.258  26.951  1.00  0.00     0.022 A 
BRANCH  70  73
ATOM     73  S   UNL A   1      42.408  27.644  25.592  1.00  0.00     0.127 S 
ATOM     74  O   UNL A   1      43.735  27.669  26.204  1.00  0.00    -0.237 OA
ATOM     75  O   UNL A   1      42.140  26.468  24.764  1.00  0.00    -0.237 OA
ATOM     76  O   UNL A   1      41.957  28.904  25.018  1.00  0.00    -0.744 OA
ENDBRANCH  70  73
ENDBRANCH  52  66
BRANCH  53  77
ATOM     77  C   UNL A   1      39.436  33.920  37.124  1.00  0.00     0.023 A 
ATOM     78  C   UNL A   1      39.848  35.266  37.064  1.00  0.00     0.012 A 
ATOM     79  C   UNL A   1      38.836  33.438  38.303  1.00  0.00     0.148 A 
ATOM     80  C   UNL A   1      39.694  36.108  38.167  1.00  0.00     0.002 A 
ATOM     81  C   UNL A   1      38.638  34.295  39.379  1.00  0.00     0.091 A 
ATOM     82  F   UNL A   1      38.463  32.151  38.345  1.00  0.00    -0.205 F 
ATOM     83  C   UNL A   1      39.080  35.625  39.319  1.00  0.00     0.022 A 
BRANCH  81  84
ATOM     84  S   UNL A   1      37.736  33.793  40.850  1.00  0.00     0.127 S 
ATOM     85  O   UNL A   1      38.693  32.900  41.497  1.00  0.00    -0.237 OA
ATOM     86  O   UNL A   1      37.527  35.071  41.532  1.00  0.00    -0.237 OA
ATOM     87  O   UNL A   1      36.512  33.172  40.361  1.00  0.00    -0.744 OA
ENDBRANCH  81  84
ENDBRANCH  53  77
BRANCH  65  88
ATOM     88  C   UNL A   1      44.016  28.943  35.385  1.00  0.00     0.023 A 
ATOM     89  C   UNL A   1      45.290  29.520  35.212  1.00  0.00     0.012 A 
ATOM     90  C   UNL A   1      43.856  27.874  36.287  1.00  0.00     0.148 A 
ATOM     91  C   UNL A   1      46.393  29.023  35.906  1.00  0.00     0.002 A 
ATOM     92  C   UNL A   1      44.951  27.413  37.009  1.00  0.00     0.091 A 
ATOM     93  F   UNL A   1      42.640  27.325  36.422  1.00  0.00    -0.205 F 
ATOM     94  C   UNL A   1      46.221  27.979  36.812  1.00  0.00     0.022 A 
BRANCH  92  95
ATOM     95  S   UNL A   1      44.800  26.136  38.264  1.00  0.00     0.127 S 
ATOM     96  O   UNL A   1      44.293  25.009  37.484  1.00  0.00    -0.237 OA
ATOM     97  O   UNL A   1      46.182  25.986  38.726  1.00  0.00    -0.237 OA
ATOM     98  O   UNL A   1      43.888  26.670  39.266  1.00  0.00    -0.744 OA
ENDBRANCH  92  95
ENDBRANCH  65  88
ENDBRANCH  39  40
ENDBRANCH  31  34
ENDBRANCH  29  30
ENDBRANCH   1  29
TORSDOF 18
ENDMDL
MODEL 2
REMARK VINA RESULT:     -12.5      2.808      8.088
REMARK SMILES CCc1cc(OC(F)(F)F)cc2c1O[C@H](C(F)(F)F)C(C(=O)NCCCCNC(=O)c1ccc(-c3c4nc(c(-c5cccc(S(=O)(=O)[O-])c5F)c5ccc([nH]5)c(-c5cccc(S(=O)(=O)[O-])c5F)c5nc(c(-c6cccc(S(=O)(=O)[O-])c6F)c6ccc3[nH]6)C=C5)C=C4)cc1)=C2
REMARK SMILES IDX 26 1 25 2 24 3 23 4 21 5 22 6 20 8 3 9 4 10 13 11 5 12 12 13
REMARK SMILES IDX 14 14 11 15 94 16 15 17 2 18 1 19 6 20 7 21 8 22 9 23 10 24
REMARK SMILES IDX 16 25 17 26 18 27 19 28 27 29 28 30 29 31 30 33 31 34 32 35
REMARK SMILES IDX 93 36 33 37 92 38 34 39 35 40 36 41 86 42 37 43 91 44 85 45
REMARK SMILES IDX 87 46 38 47 90 48 84 49 83 50 39 52 71 53 51 54 70 55 52 56
REMARK SMILES IDX 55 57 69 58 88 59 53 60 54 61 68 63 89 64 56 65 40 66 41 67
REMARK SMILES IDX 49 68 42 69 44 70 50 71 43 72 45 73 46 74 47 75 48 76 72 77
REMARK SMILES IDX 73 78 81 79 74 80 76 81 82 82 75 83 77 84 78 85 79 86 80 87
REMARK SMILES IDX 57 88 58 89 66 90 59 91 61 92 67 93 60 94 62 95 63 96 64 97
REMARK SMILES IDX 65 98
REMARK H PARENT 23 7 28 32 87 51 55 62
REMARK Flexibility Score: inf
ROOT
ATOM      1  C   UNL A   1      31.595  28.666  25.394  1.00  0.00     0.023 C 
ENDROOT
BRANCH   1   2
ATOM      2  C   UNL A   1      31.283  27.537  26.381  1.00  0.00     0.023 C 
BRANCH   2   3
ATOM      3  C   UNL A   1      30.699  26.280  25.730  1.00  0.00     0.116 C 
BRANCH   3   4
ATOM      4  N   UNL A   1      30.912  26.302  24.297  1.00  0.00    -0.352 N 
ATOM      5  C   UNL A   1      31.633  25.510  23.466  1.00  0.00     0.251 C 
ATOM      6  O   UNL A   1      31.612  25.776  22.264  1.00  0.00    -0.270 OA
ATOM      7  H   UNL A   1      30.439  27.033  23.838  1.00  0.00     0.163 HD
BRANCH   5   8
ATOM      8  C   UNL A   1      32.365  24.291  23.913  1.00  0.00     0.067 C 
ATOM      9  C   UNL A   1      34.962  21.047  24.626  1.00  0.00    -0.002 A 
ATOM     10  C   UNL A   1      34.395  19.832  25.078  1.00  0.00     0.054 A 
ATOM     11  C   UNL A   1      34.103  22.129  24.385  1.00  0.00     0.131 A 
ATOM     12  C   UNL A   1      33.019  19.689  25.260  1.00  0.00     0.130 A 
ATOM     13  C   UNL A   1      32.722  21.999  24.577  1.00  0.00     0.021 A 
ATOM     14  O   UNL A   1      34.629  23.285  23.884  1.00  0.00    -0.475 OA
ATOM     15  C   UNL A   1      32.188  20.781  25.012  1.00  0.00     0.058 A 
ATOM     16  C   UNL A   1      31.831  23.105  24.238  1.00  0.00     0.025 C 
ATOM     17  C   UNL A   1      33.861  24.505  24.066  1.00  0.00     0.314 C 
BRANCH   9  18
ATOM     18  C   UNL A   1      36.474  21.073  24.498  1.00  0.00     0.036 C 
ATOM     19  C   UNL A   1      37.299  21.901  25.474  1.00  0.00     0.009 C 
ENDBRANCH   9  18
BRANCH  12  20
ATOM     20  O   UNL A   1      32.361  18.561  25.657  1.00  0.00    -0.406 OA
BRANCH  20  21
ATOM     21  C   UNL A   1      32.682  17.342  25.011  1.00  0.00     0.573 C 
ATOM     22  F   UNL A   1      32.630  17.470  23.667  1.00  0.00    -0.132 F 
ATOM     23  F   UNL A   1      33.907  16.906  25.374  1.00  0.00    -0.132 F 
ATOM     24  F   UNL A   1      31.779  16.405  25.376  1.00  0.00    -0.132 F 
ENDBRANCH  20  21
ENDBRANCH  12  20
BRANCH  17  25
ATOM     25  C   UNL A   1      34.238  25.177  25.403  1.00  0.00     0.429 C 
ATOM     26  F   UNL A   1      35.513  24.906  25.776  1.00  0.00    -0.167 F 
ATOM     27  F   UNL A   1      34.144  26.531  25.312  1.00  0.00    -0.167 F 
ATOM     28  F   UNL A   1      33.431  24.815  26.423  1.00  0.00    -0.167 F 
ENDBRANCH  17  25
ENDBRANCH   5   8
ENDBRANCH   3   4
ENDBRANCH   2   3
ENDBRANCH   1   2
BRANCH   1  29
ATOM     29  C   UNL A   1      32.804  29.520  25.763  1.00  0.00     0.116 C 
BRANCH  29  30
ATOM     30  N   UNL A   1      32.447  30.852  26.228  1.00  0.00    -0.352 N 
ATOM     31  C   UNL A   1      33.107  31.641  27.143  1.00  0.00     0.251 C 
ATOM     32  H   UNL A   1      31.628  31.237  25.839  1.00  0.00     0.163 HD
ATOM     33  O   UNL A   1      32.627  32.701  27.507  1.00  0.00    -0.269 OA
BRANCH  31  34
ATOM     34  C   UNL A   1      34.385  31.156  27.710  1.00  0.00     0.039 A 
ATOM     35  C   UNL A   1      35.387  32.086  27.992  1.00  0.00     0.014 A 
ATOM     36  C   UNL A   1      34.566  29.803  28.003  1.00  0.00     0.014 A 
ATOM     37  C   UNL A   1      36.555  31.665  28.631  1.00  0.00     0.010 A 
ATOM     38  C   UNL A   1      35.701  29.397  28.697  1.00  0.00     0.010 A 
ATOM     39  C   UNL A   1      36.705  30.323  29.018  1.00  0.00    -0.014 A 
BRANCH  39  40
ATOM     40  C   UNL A   1      37.896  29.869  29.777  1.00  0.00     0.031 A 
ATOM     41  C   UNL A   1      38.163  30.409  31.155  1.00  0.00     0.074 A 
ATOM     42  C   UNL A   1      38.786  29.051  29.184  1.00  0.00     0.049 A 
ATOM     43  N   UNL A   1      39.179  30.180  31.945  1.00  0.00    -0.248 NA
ATOM     44  C   UNL A   1      37.175  31.352  31.705  1.00  0.00     0.031 C 
ATOM     45  C   UNL A   1      38.682  28.533  27.817  1.00  0.00     0.029 A 
ATOM     46  N   UNL A   1      39.972  28.533  29.644  1.00  0.00    -0.354 N 
ATOM     47  C   UNL A   1      38.974  30.975  33.065  1.00  0.00     0.074 A 
ATOM     48  C   UNL A   1      37.754  31.718  32.840  1.00  0.00     0.031 C 
ATOM     49  C   UNL A   1      39.756  27.774  27.551  1.00  0.00     0.029 A 
ATOM     50  C   UNL A   1      40.635  27.764  28.718  1.00  0.00     0.049 A 
ATOM     51  H   UNL A   1      40.314  28.698  30.553  1.00  0.00     0.167 HD
ATOM     52  C   UNL A   1      39.717  31.055  34.194  1.00  0.00     0.034 A 
ATOM     53  C   UNL A   1      41.817  27.123  28.798  1.00  0.00     0.034 A 
ATOM     54  C   UNL A   1      40.897  30.272  34.438  1.00  0.00     0.049 A 
ATOM     55  C   UNL A   1      42.589  27.177  30.089  1.00  0.00     0.074 A 
ATOM     56  C   UNL A   1      41.664  30.204  35.587  1.00  0.00     0.029 A 
ATOM     57  N   UNL A   1      41.483  29.418  33.516  1.00  0.00    -0.354 N 
ATOM     58  N   UNL A   1      42.288  27.800  31.203  1.00  0.00    -0.248 NA
ATOM     59  C   UNL A   1      43.841  26.409  30.148  1.00  0.00     0.031 C 
ATOM     60  C   UNL A   1      42.720  29.316  35.356  1.00  0.00     0.029 A 
ATOM     61  C   UNL A   1      42.603  28.821  34.067  1.00  0.00     0.049 A 
ATOM     62  H   UNL A   1      41.151  29.260  32.602  1.00  0.00     0.167 HD
ATOM     63  C   UNL A   1      43.294  27.472  32.106  1.00  0.00     0.074 A 
ATOM     64  C   UNL A   1      44.200  26.577  31.415  1.00  0.00     0.031 C 
ATOM     65  C   UNL A   1      43.461  27.887  33.386  1.00  0.00     0.034 A 
BRANCH  52  66
ATOM     66  C   UNL A   1      39.232  31.973  35.284  1.00  0.00     0.023 A 
ATOM     67  C   UNL A   1      38.273  31.503  36.206  1.00  0.00     0.012 A 
ATOM     68  C   UNL A   1      39.755  33.273  35.433  1.00  0.00     0.148 A 
ATOM     69  C   UNL A   1      37.817  32.322  37.237  1.00  0.00     0.002 A 
ATOM     70  C   UNL A   1      39.326  34.069  36.489  1.00  0.00     0.091 A 
ATOM     71  F   UNL A   1      40.647  33.710  34.534  1.00  0.00    -0.205 F 
ATOM     72  C   UNL A   1      38.350  33.599  37.384  1.00  0.00     0.022 A 
BRANCH  70  73
ATOM     73  S   UNL A   1      40.005  35.701  36.806  1.00  0.00     0.127 S 
ATOM     74  O   UNL A   1      41.430  35.405  36.950  1.00  0.00    -0.237 OA
ATOM     75  O   UNL A   1      39.653  36.427  35.585  1.00  0.00    -0.237 OA
ATOM     76  O   UNL A   1      39.339  36.182  38.009  1.00  0.00    -0.744 OA
ENDBRANCH  70  73
ENDBRANCH  52  66
BRANCH  53  77
ATOM     77  C   UNL A   1      42.298  26.305  27.650  1.00  0.00     0.023 A 
ATOM     78  C   UNL A   1      43.185  26.884  26.720  1.00  0.00     0.012 A 
ATOM     79  C   UNL A   1      41.919  24.959  27.492  1.00  0.00     0.148 A 
ATOM     80  C   UNL A   1      43.663  26.144  25.637  1.00  0.00     0.002 A 
ATOM     81  C   UNL A   1      42.440  24.213  26.440  1.00  0.00     0.091 A 
ATOM     82  F   UNL A   1      41.065  24.430  28.379  1.00  0.00    -0.205 F 
ATOM     83  C   UNL A   1      43.299  24.807  25.504  1.00  0.00     0.022 A 
BRANCH  81  84
ATOM     84  S   UNL A   1      42.130  22.452  26.270  1.00  0.00     0.127 S 
ATOM     85  O   UNL A   1      40.677  22.416  26.135  1.00  0.00    -0.237 OA
ATOM     86  O   UNL A   1      42.871  22.126  25.051  1.00  0.00    -0.237 OA
ATOM     87  O   UNL A   1      42.674  21.843  27.478  1.00  0.00    -0.744 OA
ENDBRANCH  81  84
ENDBRANCH  53  77
BRANCH  65  88
ATOM     88  C   UNL A   1      44.653  27.361  34.140  1.00  0.00     0.023 A 
ATOM     89  C   UNL A   1      45.888  28.031  34.043  1.00  0.00     0.012 A 
ATOM     90  C   UNL A   1      44.529  26.258  35.007  1.00  0.00     0.148 A 
ATOM     91  C   UNL A   1      46.991  27.595  34.777  1.00  0.00     0.002 A 
ATOM     92  C   UNL A   1      45.619  25.856  35.770  1.00  0.00     0.091 A 
ATOM     93  F   UNL A   1      43.351  25.621  35.070  1.00  0.00    -0.205 F 
ATOM     94  C   UNL A   1      46.853  26.517  35.648  1.00  0.00     0.022 A 
BRANCH  92  95
ATOM     95  S   UNL A   1      45.504  24.538  36.985  1.00  0.00     0.127 S 
ATOM     96  O   UNL A   1      46.737  24.725  37.747  1.00  0.00    -0.237 OA
ATOM     97  O   UNL A   1      44.280  24.885  37.709  1.00  0.00    -0.237 OA
ATOM     98  O   UNL A   1      45.418  23.301  36.221  1.00  0.00    -0.744 OA
ENDBRANCH  92  95
ENDBRANCH  65  88
ENDBRANCH  39  40
ENDBRANCH  31  34
ENDBRANCH  29  30
ENDBRANCH   1  29
TORSDOF 18
ENDMDL
MODEL 3
REMARK VINA RESULT:     -12.4      3.424      8.554
REMARK SMILES CCc1cc(OC(F)(F)F)cc2c1O[C@H](C(F)(F)F)C(C(=O)NCCCCNC(=O)c1ccc(-c3c4nc(c(-c5cccc(S(=O)(=O)[O-])c5F)c5ccc([nH]5)c(-c5cccc(S(=O)(=O)[O-])c5F)c5nc(c(-c6cccc(S(=O)(=O)[O-])c6F)c6ccc3[nH]6)C=C5)C=C4)cc1)=C2
REMARK SMILES IDX 26 1 25 2 24 3 23 4 21 5 22 6 20 8 3 9 4 10 13 11 5 12 12 13
REMARK SMILES IDX 14 14 11 15 94 16 15 17 2 18 1 19 6 20 7 21 8 22 9 23 10 24
REMARK SMILES IDX 16 25 17 26 18 27 19 28 27 29 28 30 29 31 30 33 31 34 32 35
REMARK SMILES IDX 93 36 33 37 92 38 34 39 35 40 36 41 86 42 37 43 91 44 85 45
REMARK SMILES IDX 87 46 38 47 90 48 84 49 83 50 39 52 71 53 51 54 70 55 52 56
REMARK SMILES IDX 55 57 69 58 88 59 53 60 54 61 68 63 89 64 56 65 40 66 41 67
REMARK SMILES IDX 49 68 42 69 44 70 50 71 43 72 45 73 46 74 47 75 48 76 72 77
REMARK SMILES IDX 73 78 81 79 74 80 76 81 82 82 75 83 77 84 78 85 79 86 80 87
REMARK SMILES IDX 57 88 58 89 66 90 59 91 61 92 67 93 60 94 62 95 63 96 64 97
REMARK SMILES IDX 65 98
REMARK H PARENT 23 7 28 32 87 51 55 62
REMARK Flexibility Score: inf
ROOT
ATOM      1  C   UNL A   1      33.628  27.591  26.404  1.00  0.00     0.023 C 
ENDROOT
BRANCH   1   2
ATOM      2  C   UNL A   1      32.132  27.917  26.436  1.00  0.00     0.023 C 
BRANCH   2   3
ATOM      3  C   UNL A   1      31.294  27.112  25.439  1.00  0.00     0.116 C 
BRANCH   3   4
ATOM      4  N   UNL A   1      30.351  26.261  26.135  1.00  0.00    -0.352 N 
ATOM      5  C   UNL A   1      30.327  24.927  26.381  1.00  0.00     0.251 C 
ATOM      6  O   UNL A   1      29.377  24.483  27.025  1.00  0.00    -0.270 OA
ATOM      7  H   UNL A   1      29.576  26.746  26.502  1.00  0.00     0.163 HD
BRANCH   5   8
ATOM      8  C   UNL A   1      31.427  23.997  26.001  1.00  0.00     0.067 C 
ATOM      9  C   UNL A   1      33.981  20.806  24.965  1.00  0.00    -0.002 A 
ATOM     10  C   UNL A   1      35.342  20.899  25.340  1.00  0.00     0.054 A 
ATOM     11  C   UNL A   1      33.127  21.863  25.308  1.00  0.00     0.131 A 
ATOM     12  C   UNL A   1      35.831  21.992  26.057  1.00  0.00     0.130 A 
ATOM     13  C   UNL A   1      33.611  22.971  26.015  1.00  0.00     0.021 A 
ATOM     14  O   UNL A   1      31.798  21.756  25.011  1.00  0.00    -0.475 OA
ATOM     15  C   UNL A   1      34.959  23.029  26.385  1.00  0.00     0.058 A 
ATOM     16  C   UNL A   1      32.692  24.022  26.443  1.00  0.00     0.025 C 
ATOM     17  C   UNL A   1      31.025  22.983  24.943  1.00  0.00     0.314 C 
BRANCH   9  18
ATOM     18  C   UNL A   1      33.589  19.577  24.166  1.00  0.00     0.036 C 
ATOM     19  C   UNL A   1      34.279  18.248  24.441  1.00  0.00     0.009 C 
ENDBRANCH   9  18
BRANCH  12  20
ATOM     20  O   UNL A   1      37.110  22.172  26.499  1.00  0.00    -0.406 OA
BRANCH  20  21
ATOM     21  C   UNL A   1      38.089  22.576  25.557  1.00  0.00     0.573 C 
ATOM     22  F   UNL A   1      39.049  23.327  26.138  1.00  0.00    -0.132 F 
ATOM     23  F   UNL A   1      38.655  21.508  24.956  1.00  0.00    -0.132 F 
ATOM     24  F   UNL A   1      37.491  23.325  24.604  1.00  0.00    -0.132 F 
ENDBRANCH  20  21
ENDBRANCH  12  20
BRANCH  17  25
ATOM     25  C   UNL A   1      31.068  23.561  23.512  1.00  0.00     0.429 C 
ATOM     26  F   UNL A   1      31.960  24.574  23.390  1.00  0.00    -0.167 F 
ATOM     27  F   UNL A   1      31.440  22.610  22.613  1.00  0.00    -0.167 F 
ATOM     28  F   UNL A   1      29.870  24.022  23.091  1.00  0.00    -0.167 F 
ENDBRANCH  17  25
ENDBRANCH   5   8
ENDBRANCH   3   4
ENDBRANCH   2   3
ENDBRANCH   1   2
BRANCH   1  29
ATOM     29  C   UNL A   1      34.537  28.790  26.159  1.00  0.00     0.116 C 
BRANCH  29  30
ATOM     30  N   UNL A   1      34.007  30.034  26.698  1.00  0.00    -0.352 N 
ATOM     31  C   UNL A   1      34.532  30.822  27.697  1.00  0.00     0.251 C 
ATOM     32  H   UNL A   1      33.165  30.351  26.297  1.00  0.00     0.163 HD
ATOM     33  O   UNL A   1      33.915  31.789  28.110  1.00  0.00    -0.269 OA
BRANCH  31  34
ATOM     34  C   UNL A   1      35.833  30.446  28.291  1.00  0.00     0.039 A 
ATOM     35  C   UNL A   1      35.841  29.675  29.455  1.00  0.00     0.014 A 
ATOM     36  C   UNL A   1      37.031  30.816  27.674  1.00  0.00     0.014 A 
ATOM     37  C   UNL A   1      37.056  29.215  29.966  1.00  0.00     0.010 A 
ATOM     38  C   UNL A   1      38.234  30.304  28.147  1.00  0.00     0.010 A 
ATOM     39  C   UNL A   1      38.258  29.499  29.297  1.00  0.00    -0.014 A 
BRANCH  39  40
ATOM     40  C   UNL A   1      39.551  28.948  29.771  1.00  0.00     0.031 A 
ATOM     41  C   UNL A   1      40.301  29.633  30.879  1.00  0.00     0.074 A 
ATOM     42  C   UNL A   1      40.095  27.892  29.135  1.00  0.00     0.049 A 
ATOM     43  N   UNL A   1      41.470  29.338  31.387  1.00  0.00    -0.248 NA
ATOM     44  C   UNL A   1      39.671  30.821  31.478  1.00  0.00     0.031 C 
ATOM     45  C   UNL A   1      39.504  27.200  27.986  1.00  0.00     0.029 A 
ATOM     46  N   UNL A   1      41.281  27.235  29.343  1.00  0.00    -0.354 N 
ATOM     47  C   UNL A   1      41.731  30.320  32.332  1.00  0.00     0.074 A 
ATOM     48  C   UNL A   1      40.615  31.240  32.308  1.00  0.00     0.031 C 
ATOM     49  C   UNL A   1      40.329  26.216  27.594  1.00  0.00     0.029 A 
ATOM     50  C   UNL A   1      41.514  26.219  28.447  1.00  0.00     0.049 A 
ATOM     51  H   UNL A   1      41.906  27.469  30.068  1.00  0.00     0.167 HD
ATOM     52  C   UNL A   1      42.790  30.431  33.170  1.00  0.00     0.034 A 
ATOM     53  C   UNL A   1      42.564  25.383  28.325  1.00  0.00     0.034 A 
ATOM     54  C   UNL A   1      43.868  29.482  33.231  1.00  0.00     0.049 A 
ATOM     55  C   UNL A   1      43.696  25.487  29.312  1.00  0.00     0.074 A 
ATOM     56  C   UNL A   1      44.935  29.448  34.110  1.00  0.00     0.029 A 
ATOM     57  N   UNL A   1      44.018  28.400  32.377  1.00  0.00    -0.354 N 
ATOM     58  N   UNL A   1      43.842  26.320  30.314  1.00  0.00    -0.248 NA
ATOM     59  C   UNL A   1      44.788  24.511  29.177  1.00  0.00     0.031 C 
ATOM     60  C   UNL A   1      45.736  28.349  33.782  1.00  0.00     0.029 A 
ATOM     61  C   UNL A   1      45.161  27.692  32.706  1.00  0.00     0.049 A 
ATOM     62  H   UNL A   1      43.402  28.169  31.644  1.00  0.00     0.167 HD
ATOM     63  C   UNL A   1      45.022  25.949  30.949  1.00  0.00     0.074 A 
ATOM     64  C   UNL A   1      45.540  24.802  30.232  1.00  0.00     0.031 C 
ATOM     65  C   UNL A   1      45.630  26.517  32.020  1.00  0.00     0.034 A 
BRANCH  52  66
ATOM     66  C   UNL A   1      42.795  31.581  34.140  1.00  0.00     0.023 A 
ATOM     67  C   UNL A   1      43.384  32.804  33.756  1.00  0.00     0.012 A 
ATOM     68  C   UNL A   1      42.178  31.477  35.402  1.00  0.00     0.148 A 
ATOM     69  C   UNL A   1      43.389  33.894  34.624  1.00  0.00     0.002 A 
ATOM     70  C   UNL A   1      42.151  32.581  36.246  1.00  0.00     0.091 A 
ATOM     71  F   UNL A   1      41.646  30.300  35.759  1.00  0.00    -0.205 F 
ATOM     72  C   UNL A   1      42.764  33.786  35.864  1.00  0.00     0.022 A 
BRANCH  70  73
ATOM     73  S   UNL A   1      41.308  32.564  37.832  1.00  0.00     0.127 S 
ATOM     74  O   UNL A   1      42.103  31.589  38.578  1.00  0.00    -0.237 OA
ATOM     75  O   UNL A   1      41.462  33.948  38.281  1.00  0.00    -0.237 OA
ATOM     76  O   UNL A   1      39.935  32.169  37.549  1.00  0.00    -0.744 OA
ENDBRANCH  70  73
ENDBRANCH  52  66
BRANCH  53  77
ATOM     77  C   UNL A   1      42.551  24.321  27.281  1.00  0.00     0.023 A 
ATOM     78  C   UNL A   1      43.140  24.583  26.028  1.00  0.00     0.012 A 
ATOM     79  C   UNL A   1      41.999  23.050  27.528  1.00  0.00     0.148 A 
ATOM     80  C   UNL A   1      43.154  23.609  25.030  1.00  0.00     0.002 A 
ATOM     81  C   UNL A   1      42.062  22.067  26.546  1.00  0.00     0.091 A 
ATOM     82  F   UNL A   1      41.431  22.824  28.720  1.00  0.00    -0.205 F 
ATOM     83  C   UNL A   1      42.625  22.348  25.293  1.00  0.00     0.022 A 
BRANCH  81  84
ATOM     84  S   UNL A   1      41.526  20.378  26.847  1.00  0.00     0.127 S 
ATOM     85  O   UNL A   1      41.586  19.803  25.506  1.00  0.00    -0.237 OA
ATOM     86  O   UNL A   1      42.549  19.892  27.773  1.00  0.00    -0.237 OA
ATOM     87  O   UNL A   1      40.197  20.492  27.434  1.00  0.00    -0.744 OA
ENDBRANCH  81  84
ENDBRANCH  53  77
BRANCH  65  88
ATOM     88  C   UNL A   1      46.913  25.895  32.504  1.00  0.00     0.023 A 
ATOM     89  C   UNL A   1      48.145  26.374  32.018  1.00  0.00     0.012 A 
ATOM     90  C   UNL A   1      46.901  24.898  33.499  1.00  0.00     0.148 A 
ATOM     91  C   UNL A   1      49.347  25.852  32.495  1.00  0.00     0.002 A 
ATOM     92  C   UNL A   1      48.102  24.414  34.003  1.00  0.00     0.091 A 
ATOM     93  F   UNL A   1      45.717  24.441  33.933  1.00  0.00    -0.205 F 
ATOM     94  C   UNL A   1      49.325  24.882  33.495  1.00  0.00     0.022 A 
BRANCH  92  95
ATOM     95  S   UNL A   1      48.166  23.233  35.355  1.00  0.00     0.127 S 
ATOM     96  O   UNL A   1      47.870  21.977  34.669  1.00  0.00    -0.237 OA
ATOM     97  O   UNL A   1      49.548  23.363  35.820  1.00  0.00    -0.237 OA
ATOM     98  O   UNL A   1      47.166  23.675  36.317  1.00  0.00    -0.744 OA
ENDBRANCH  92  95
ENDBRANCH  65  88
ENDBRANCH  39  40
ENDBRANCH  31  34
ENDBRANCH  29  30
ENDBRANCH   1  29
TORSDOF 18
ENDMDL
