MODEL 1
REMARK VINA RESULT:     -11.7      0.000      0.000
REMARK SMILES CN(CCc1cccs1)C(=O)N[C@@H]1COC[C@H]1C(=O)NCCCCNC(=O)c1ccc(-c2c3nc(c(-c4cccc(S(=O)(=O)[O-])c4F)c4ccc([nH]4)c(-c4cccc(S(=O)(=O)[O-])c4F)c4nc(c(-c5cccc(S(=O)(=O)[O-])c5F)c5ccc2[nH]5)C=C4)C=C3)cc1
REMARK SMILES IDX 21 1 20 2 18 3 19 4 17 6 13 7 14 8 15 9 16 10 12 11 10 12
REMARK SMILES IDX 11 13 2 15 1 16 3 17 4 18 5 19 6 20 9 21 7 22 8 23 22 24
REMARK SMILES IDX 23 25 24 26 25 27 26 28 27 30 28 31 29 32 90 33 30 34 89 35
REMARK SMILES IDX 31 36 32 37 33 38 83 39 34 40 88 41 82 42 84 43 35 44 87 45
REMARK SMILES IDX 81 46 80 47 36 49 68 50 48 51 67 52 49 53 52 54 66 55 85 56
REMARK SMILES IDX 50 57 51 58 65 60 86 61 53 62 37 63 38 64 46 65 39 66 41 67
REMARK SMILES IDX 47 68 40 69 42 70 43 71 44 72 45 73 69 74 70 75 78 76 71 77
REMARK SMILES IDX 73 78 79 79 72 80 74 81 75 82 76 83 77 84 54 85 55 86 63 87
REMARK SMILES IDX 56 88 58 89 64 90 57 91 59 92 60 93 61 94 62 95
REMARK H PARENT 20 5 12 14 25 29 84 48 52 59
REMARK Flexibility Score: inf
ROOT
ATOM      1  C   UNL A   1      35.143  23.304  23.608  1.00  0.00     0.116 C 
ENDROOT
BRANCH   1   2
ATOM      2  N   UNL A   1      34.218  22.260  23.991  1.00  0.00    -0.356 N 
ATOM      3  C   UNL A   1      33.025  22.344  24.633  1.00  0.00     0.227 C 
ATOM      4  O   UNL A   1      32.333  21.326  24.708  1.00  0.00    -0.275 OA
ATOM      5  H   UNL A   1      34.496  21.347  23.748  1.00  0.00     0.163 HD
BRANCH   3   6
ATOM      6  C   UNL A   1      32.549  23.635  25.264  1.00  0.00     0.129 C 
ATOM      7  C   UNL A   1      31.141  24.001  24.841  1.00  0.00     0.124 C 
ATOM      8  C   UNL A   1      30.402  24.180  26.170  1.00  0.00     0.186 C 
ATOM      9  O   UNL A   1      31.306  24.001  27.267  1.00  0.00    -0.378 OA
ATOM     10  C   UNL A   1      32.599  23.657  26.772  1.00  0.00     0.176 C 
BRANCH   7  11
ATOM     11  N   UNL A   1      31.074  25.209  24.017  1.00  0.00    -0.332 N 
ATOM     12  C   UNL A   1      32.170  25.936  23.676  1.00  0.00     0.317 C 
ATOM     13  O   UNL A   1      32.790  25.594  22.670  1.00  0.00    -0.249 OA
ATOM     14  H   UNL A   1      30.193  25.510  23.696  1.00  0.00     0.165 HD
BRANCH  12  15
ATOM     15  N   UNL A   1      32.441  27.076  24.398  1.00  0.00    -0.328 N 
ATOM     16  C   UNL A   1      33.284  26.925  25.575  1.00  0.00     0.148 C 
BRANCH  15  17
ATOM     17  C   UNL A   1      31.819  28.395  24.236  1.00  0.00     0.126 C 
BRANCH  17  18
ATOM     18  C   UNL A   1      31.031  28.758  22.960  1.00  0.00     0.068 C 
BRANCH  18  19
ATOM     19  C   UNL A   1      29.573  29.115  23.049  1.00  0.00     0.006 A 
ATOM     20  C   UNL A   1      28.470  28.280  23.091  1.00  0.00     0.015 A 
ATOM     21  S   UNL A   1      29.102  30.759  23.228  1.00  0.00    -0.149 S 
ATOM     22  C   UNL A   1      27.239  28.999  23.128  1.00  0.00     0.012 A 
ATOM     23  C   UNL A   1      27.441  30.359  23.172  1.00  0.00     0.065 A 
ENDBRANCH  18  19
ENDBRANCH  17  18
ENDBRANCH  15  17
ENDBRANCH  12  15
ENDBRANCH   7  11
ENDBRANCH   3   6
ENDBRANCH   1   2
BRANCH   1  24
ATOM     24  C   UNL A   1      36.586  22.827  23.502  1.00  0.00     0.023 C 
BRANCH  24  25
ATOM     25  C   UNL A   1      36.893  21.543  24.262  1.00  0.00     0.023 C 
BRANCH  25  26
ATOM     26  C   UNL A   1      37.665  21.736  25.559  1.00  0.00     0.116 C 
BRANCH  26  27
ATOM     27  N   UNL A   1      38.804  20.835  25.710  1.00  0.00    -0.352 N 
ATOM     28  C   UNL A   1      39.983  21.077  26.367  1.00  0.00     0.251 C 
ATOM     29  H   UNL A   1      38.715  19.949  25.290  1.00  0.00     0.163 HD
ATOM     30  O   UNL A   1      40.862  20.224  26.434  1.00  0.00    -0.269 OA
BRANCH  28  31
ATOM     31  C   UNL A   1      40.185  22.421  26.926  1.00  0.00     0.039 A 
ATOM     32  C   UNL A   1      41.104  22.569  27.964  1.00  0.00     0.014 A 
ATOM     33  C   UNL A   1      39.607  23.530  26.300  1.00  0.00     0.014 A 
ATOM     34  C   UNL A   1      41.508  23.848  28.332  1.00  0.00     0.010 A 
ATOM     35  C   UNL A   1      40.072  24.798  26.617  1.00  0.00     0.010 A 
ATOM     36  C   UNL A   1      41.029  24.967  27.631  1.00  0.00    -0.014 A 
BRANCH  36  37
ATOM     37  C   UNL A   1      41.534  26.324  27.937  1.00  0.00     0.031 A 
ATOM     38  C   UNL A   1      42.942  26.694  27.571  1.00  0.00     0.074 A 
ATOM     39  C   UNL A   1      40.752  27.184  28.620  1.00  0.00     0.049 A 
ATOM     40  N   UNL A   1      43.576  27.816  27.780  1.00  0.00    -0.248 NA
ATOM     41  C   UNL A   1      43.756  25.657  26.914  1.00  0.00     0.031 C 
ATOM     42  C   UNL A   1      39.404  26.893  29.117  1.00  0.00     0.029 A 
ATOM     43  N   UNL A   1      40.987  28.470  29.035  1.00  0.00    -0.354 N 
ATOM     44  C   UNL A   1      44.868  27.610  27.318  1.00  0.00     0.074 A 
ATOM     45  C   UNL A   1      44.942  26.244  26.851  1.00  0.00     0.031 C 
ATOM     46  C   UNL A   1      38.932  27.970  29.767  1.00  0.00     0.029 A 
ATOM     47  C   UNL A   1      39.945  29.019  29.748  1.00  0.00     0.049 A 
ATOM     48  H   UNL A   1      41.821  28.954  28.842  1.00  0.00     0.167 HD
ATOM     49  C   UNL A   1      45.892  28.491  27.254  1.00  0.00     0.034 A 
ATOM     50  C   UNL A   1      39.826  30.234  30.319  1.00  0.00     0.034 A 
ATOM     51  C   UNL A   1      45.789  29.864  27.661  1.00  0.00     0.049 A 
ATOM     52  C   UNL A   1      40.953  31.220  30.163  1.00  0.00     0.074 A 
ATOM     53  C   UNL A   1      46.726  30.873  27.529  1.00  0.00     0.029 A 
ATOM     54  N   UNL A   1      44.681  30.421  28.281  1.00  0.00    -0.354 N 
ATOM     55  N   UNL A   1      42.102  31.067  29.549  1.00  0.00    -0.248 NA
ATOM     56  C   UNL A   1      40.754  32.556  30.741  1.00  0.00     0.031 C 
ATOM     57  C   UNL A   1      46.189  32.038  28.085  1.00  0.00     0.029 A 
ATOM     58  C   UNL A   1      44.912  31.758  28.548  1.00  0.00     0.049 A 
ATOM     59  H   UNL A   1      43.853  29.937  28.500  1.00  0.00     0.167 HD
ATOM     60  C   UNL A   1      42.750  32.292  29.642  1.00  0.00     0.074 A 
ATOM     61  C   UNL A   1      41.854  33.185  30.348  1.00  0.00     0.031 C 
ATOM     62  C   UNL A   1      43.984  32.643  29.204  1.00  0.00     0.034 A 
BRANCH  49  63
ATOM     63  C   UNL A   1      47.190  28.014  26.663  1.00  0.00     0.023 A 
ATOM     64  C   UNL A   1      48.239  27.622  27.520  1.00  0.00     0.012 A 
ATOM     65  C   UNL A   1      47.355  27.900  25.270  1.00  0.00     0.148 A 
ATOM     66  C   UNL A   1      49.443  27.151  27.000  1.00  0.00     0.002 A 
ATOM     67  C   UNL A   1      48.543  27.390  24.759  1.00  0.00     0.091 A 
ATOM     68  F   UNL A   1      46.356  28.302  24.472  1.00  0.00    -0.205 F 
ATOM     69  C   UNL A   1      49.590  27.024  25.622  1.00  0.00     0.022 A 
BRANCH  67  70
ATOM     70  S   UNL A   1      48.807  27.118  23.003  1.00  0.00     0.127 S 
ATOM     71  O   UNL A   1      48.224  25.790  22.819  1.00  0.00    -0.237 OA
ATOM     72  O   UNL A   1      48.037  28.210  22.406  1.00  0.00    -0.237 OA
ATOM     73  O   UNL A   1      50.245  27.204  22.796  1.00  0.00    -0.744 OA
ENDBRANCH  67  70
ENDBRANCH  49  63
BRANCH  50  74
ATOM     74  C   UNL A   1      38.567  30.610  31.021  1.00  0.00     0.023 A 
ATOM     75  C   UNL A   1      38.429  30.328  32.393  1.00  0.00     0.012 A 
ATOM     76  C   UNL A   1      37.517  31.266  30.349  1.00  0.00     0.148 A 
ATOM     77  C   UNL A   1      37.260  30.662  33.077  1.00  0.00     0.002 A 
ATOM     78  C   UNL A   1      36.376  31.645  31.047  1.00  0.00     0.091 A 
ATOM     79  F   UNL A   1      37.657  31.512  29.038  1.00  0.00    -0.205 F 
ATOM     80  C   UNL A   1      36.237  31.330  32.408  1.00  0.00     0.022 A 
BRANCH  78  81
ATOM     81  S   UNL A   1      35.076  32.626  30.290  1.00  0.00     0.127 S 
ATOM     82  O   UNL A   1      34.151  32.810  31.404  1.00  0.00    -0.237 OA
ATOM     83  O   UNL A   1      35.798  33.832  29.882  1.00  0.00    -0.237 OA
ATOM     84  O   UNL A   1      34.586  31.822  29.178  1.00  0.00    -0.744 OA
ENDBRANCH  78  81
ENDBRANCH  50  74
BRANCH  62  85
ATOM     85  C   UNL A   1      44.437  34.055  29.456  1.00  0.00     0.023 A 
ATOM     86  C   UNL A   1      45.159  34.353  30.628  1.00  0.00     0.012 A 
ATOM     87  C   UNL A   1      44.225  35.063  28.495  1.00  0.00     0.148 A 
ATOM     88  C   UNL A   1      45.640  35.642  30.854  1.00  0.00     0.002 A 
ATOM     89  C   UNL A   1      44.747  36.333  28.706  1.00  0.00     0.091 A 
ATOM     90  F   UNL A   1      43.518  34.762  27.396  1.00  0.00    -0.205 F 
ATOM     91  C   UNL A   1      45.445  36.627  29.889  1.00  0.00     0.022 A 
BRANCH  89  92
ATOM     92  S   UNL A   1      44.629  37.634  27.473  1.00  0.00     0.127 S 
ATOM     93  O   UNL A   1      45.749  37.311  26.591  1.00  0.00    -0.237 OA
ATOM     94  O   UNL A   1      43.306  37.395  26.893  1.00  0.00    -0.237 OA
ATOM     95  O   UNL A   1      44.747  38.889  28.203  1.00  0.00    -0.744 OA
ENDBRANCH  89  92
ENDBRANCH  62  85
ENDBRANCH  36  37
ENDBRANCH  28  31
ENDBRANCH  26  27
ENDBRANCH  25  26
ENDBRANCH  24  25
ENDBRANCH   1  24
TORSDOF 19
ENDMDL
MODEL 2
REMARK VINA RESULT:     -11.6      2.101      7.985
REMARK SMILES CN(CCc1cccs1)C(=O)N[C@@H]1COC[C@H]1C(=O)NCCCCNC(=O)c1ccc(-c2c3nc(c(-c4cccc(S(=O)(=O)[O-])c4F)c4ccc([nH]4)c(-c4cccc(S(=O)(=O)[O-])c4F)c4nc(c(-c5cccc(S(=O)(=O)[O-])c5F)c5ccc2[nH]5)C=C4)C=C3)cc1
REMARK SMILES IDX 21 1 20 2 18 3 19 4 17 6 13 7 14 8 15 9 16 10 12 11 10 12
REMARK SMILES IDX 11 13 2 15 1 16 3 17 4 18 5 19 6 20 9 21 7 22 8 23 22 24
REMARK SMILES IDX 23 25 24 26 25 27 26 28 27 30 28 31 29 32 90 33 30 34 89 35
REMARK SMILES IDX 31 36 32 37 33 38 83 39 34 40 88 41 82 42 84 43 35 44 87 45
REMARK SMILES IDX 81 46 80 47 36 49 68 50 48 51 67 52 49 53 52 54 66 55 85 56
REMARK SMILES IDX 50 57 51 58 65 60 86 61 53 62 37 63 38 64 46 65 39 66 41 67
REMARK SMILES IDX 47 68 40 69 42 70 43 71 44 72 45 73 69 74 70 75 78 76 71 77
REMARK SMILES IDX 73 78 79 79 72 80 74 81 75 82 76 83 77 84 54 85 55 86 63 87
REMARK SMILES IDX 56 88 58 89 64 90 57 91 59 92 60 93 61 94 62 95
REMARK H PARENT 20 5 12 14 25 29 84 48 52 59
REMARK Flexibility Score: inf
ROOT
ATOM      1  C   UNL A   1      35.679  21.098  24.976  1.00  0.00     0.116 C 
ENDROOT
BRANCH   1   2
ATOM      2  N   UNL A   1      34.556  20.228  25.250  1.00  0.00    -0.356 N 
ATOM      3  C   UNL A   1      33.243  20.527  25.425  1.00  0.00     0.227 C 
ATOM      4  O   UNL A   1      32.439  19.594  25.489  1.00  0.00    -0.275 OA
ATOM      5  H   UNL A   1      34.777  19.271  25.320  1.00  0.00     0.163 HD
BRANCH   3   6
ATOM      6  C   UNL A   1      32.763  21.956  25.563  1.00  0.00     0.129 C 
ATOM      7  C   UNL A   1      31.381  22.161  24.976  1.00  0.00     0.124 C 
ATOM      8  C   UNL A   1      30.588  22.777  26.132  1.00  0.00     0.186 C 
ATOM      9  O   UNL A   1      31.440  22.977  27.266  1.00  0.00    -0.378 OA
ATOM     10  C   UNL A   1      32.748  22.484  26.977  1.00  0.00     0.176 C 
BRANCH   7  11
ATOM     11  N   UNL A   1      31.371  23.022  23.792  1.00  0.00    -0.332 N 
ATOM     12  C   UNL A   1      32.175  24.109  23.658  1.00  0.00     0.317 C 
ATOM     13  O   UNL A   1      33.304  23.930  23.203  1.00  0.00    -0.249 OA
ATOM     14  H   UNL A   1      30.751  22.803  23.058  1.00  0.00     0.165 HD
BRANCH  12  15
ATOM     15  N   UNL A   1      31.635  25.348  23.919  1.00  0.00    -0.328 N 
ATOM     16  C   UNL A   1      32.063  26.008  25.144  1.00  0.00     0.148 C 
BRANCH  15  17
ATOM     17  C   UNL A   1      30.529  25.999  23.208  1.00  0.00     0.126 C 
BRANCH  17  18
ATOM     18  C   UNL A   1      29.679  27.096  23.883  1.00  0.00     0.068 C 
BRANCH  18  19
ATOM     19  C   UNL A   1      29.266  28.315  23.107  1.00  0.00     0.006 A 
ATOM     20  C   UNL A   1      28.003  28.852  22.930  1.00  0.00     0.015 A 
ATOM     21  S   UNL A   1      30.462  29.314  22.378  1.00  0.00    -0.149 S 
ATOM     22  C   UNL A   1      28.007  29.999  22.081  1.00  0.00     0.012 A 
ATOM     23  C   UNL A   1      29.281  30.337  21.684  1.00  0.00     0.065 A 
ENDBRANCH  18  19
ENDBRANCH  17  18
ENDBRANCH  15  17
ENDBRANCH  12  15
ENDBRANCH   7  11
ENDBRANCH   3   6
ENDBRANCH   1   2
BRANCH   1  24
ATOM     24  C   UNL A   1      37.028  20.401  25.087  1.00  0.00     0.023 C 
BRANCH  24  25
ATOM     25  C   UNL A   1      38.233  21.332  25.068  1.00  0.00     0.023 C 
BRANCH  25  26
ATOM     26  C   UNL A   1      39.254  21.080  26.167  1.00  0.00     0.116 C 
BRANCH  26  27
ATOM     27  N   UNL A   1      40.015  19.845  25.997  1.00  0.00    -0.352 N 
ATOM     28  C   UNL A   1      41.369  19.670  26.121  1.00  0.00     0.251 C 
ATOM     29  H   UNL A   1      39.492  19.042  25.767  1.00  0.00     0.163 HD
ATOM     30  O   UNL A   1      41.886  18.568  25.965  1.00  0.00    -0.269 OA
BRANCH  28  31
ATOM     31  C   UNL A   1      42.187  20.864  26.374  1.00  0.00     0.039 A 
ATOM     32  C   UNL A   1      42.541  21.659  25.283  1.00  0.00     0.014 A 
ATOM     33  C   UNL A   1      42.433  21.276  27.686  1.00  0.00     0.014 A 
ATOM     34  C   UNL A   1      43.082  22.919  25.513  1.00  0.00     0.010 A 
ATOM     35  C   UNL A   1      42.898  22.564  27.911  1.00  0.00     0.010 A 
ATOM     36  C   UNL A   1      43.221  23.397  26.827  1.00  0.00    -0.014 A 
BRANCH  36  37
ATOM     37  C   UNL A   1      43.691  24.777  27.084  1.00  0.00     0.031 A 
ATOM     38  C   UNL A   1      42.730  25.803  27.611  1.00  0.00     0.074 A 
ATOM     39  C   UNL A   1      44.954  25.119  26.760  1.00  0.00     0.049 A 
ATOM     40  N   UNL A   1      42.940  27.066  27.871  1.00  0.00    -0.248 NA
ATOM     41  C   UNL A   1      41.344  25.363  27.843  1.00  0.00     0.031 C 
ATOM     42  C   UNL A   1      45.943  24.228  26.145  1.00  0.00     0.029 A 
ATOM     43  N   UNL A   1      45.615  26.314  26.880  1.00  0.00    -0.354 N 
ATOM     44  C   UNL A   1      41.710  27.578  28.260  1.00  0.00     0.074 A 
ATOM     45  C   UNL A   1      40.749  26.503  28.167  1.00  0.00     0.031 C 
ATOM     46  C   UNL A   1      47.083  24.908  25.945  1.00  0.00     0.029 A 
ATOM     47  C   UNL A   1      46.905  26.282  26.400  1.00  0.00     0.049 A 
ATOM     48  H   UNL A   1      45.207  27.119  27.272  1.00  0.00     0.167 HD
ATOM     49  C   UNL A   1      41.415  28.826  28.691  1.00  0.00     0.034 A 
ATOM     50  C   UNL A   1      47.835  27.256  26.338  1.00  0.00     0.034 A 
ATOM     51  C   UNL A   1      42.390  29.869  28.842  1.00  0.00     0.049 A 
ATOM     52  C   UNL A   1      47.501  28.612  26.899  1.00  0.00     0.074 A 
ATOM     53  C   UNL A   1      42.223  31.130  29.383  1.00  0.00     0.029 A 
ATOM     54  N   UNL A   1      43.716  29.771  28.449  1.00  0.00    -0.354 N 
ATOM     55  N   UNL A   1      46.382  29.025  27.443  1.00  0.00    -0.248 NA
ATOM     56  C   UNL A   1      48.566  29.624  26.873  1.00  0.00     0.031 C 
ATOM     57  C   UNL A   1      43.447  31.803  29.302  1.00  0.00     0.029 A 
ATOM     58  C   UNL A   1      44.378  30.953  28.725  1.00  0.00     0.049 A 
ATOM     59  H   UNL A   1      44.125  28.978  28.033  1.00  0.00     0.167 HD
ATOM     60  C   UNL A   1      46.615  30.332  27.851  1.00  0.00     0.074 A 
ATOM     61  C   UNL A   1      47.992  30.633  27.514  1.00  0.00     0.031 C 
ATOM     62  C   UNL A   1      45.764  31.213  28.431  1.00  0.00     0.034 A 
BRANCH  49  63
ATOM     63  C   UNL A   1      39.994  29.108  29.096  1.00  0.00     0.023 A 
ATOM     64  C   UNL A   1      39.020  29.321  28.099  1.00  0.00     0.012 A 
ATOM     65  C   UNL A   1      39.611  29.108  30.450  1.00  0.00     0.148 A 
ATOM     66  C   UNL A   1      37.691  29.559  28.444  1.00  0.00     0.002 A 
ATOM     67  C   UNL A   1      38.276  29.303  30.785  1.00  0.00     0.091 A 
ATOM     68  F   UNL A   1      40.556  28.930  31.383  1.00  0.00    -0.205 F 
ATOM     69  C   UNL A   1      37.317  29.538  29.784  1.00  0.00     0.022 A 
BRANCH  67  70
ATOM     70  S   UNL A   1      37.679  29.225  32.477  1.00  0.00     0.127 S 
ATOM     71  O   UNL A   1      38.589  30.148  33.154  1.00  0.00    -0.237 OA
ATOM     72  O   UNL A   1      36.306  29.712  32.340  1.00  0.00    -0.237 OA
ATOM     73  O   UNL A   1      37.792  27.830  32.878  1.00  0.00    -0.744 OA
ENDBRANCH  67  70
ENDBRANCH  49  63
BRANCH  50  74
ATOM     74  C   UNL A   1      49.191  26.960  25.793  1.00  0.00     0.023 A 
ATOM     75  C   UNL A   1      50.124  26.274  26.594  1.00  0.00     0.012 A 
ATOM     76  C   UNL A   1      49.554  27.327  24.483  1.00  0.00     0.148 A 
ATOM     77  C   UNL A   1      51.402  25.987  26.115  1.00  0.00     0.002 A 
ATOM     78  C   UNL A   1      50.811  26.993  23.992  1.00  0.00     0.091 A 
ATOM     79  F   UNL A   1      48.660  27.995  23.739  1.00  0.00    -0.205 F 
ATOM     80  C   UNL A   1      51.743  26.337  24.810  1.00  0.00     0.022 A 
BRANCH  78  81
ATOM     81  S   UNL A   1      51.276  27.287  22.282  1.00  0.00     0.127 S 
ATOM     82  O   UNL A   1      50.144  26.713  21.560  1.00  0.00    -0.237 OA
ATOM     83  O   UNL A   1      51.363  28.747  22.233  1.00  0.00    -0.237 OA
ATOM     84  O   UNL A   1      52.554  26.609  22.109  1.00  0.00    -0.744 OA
ENDBRANCH  78  81
ENDBRANCH  50  74
BRANCH  62  85
ATOM     85  C   UNL A   1      46.295  32.582  28.757  1.00  0.00     0.023 A 
ATOM     86  C   UNL A   1      47.013  32.781  29.952  1.00  0.00     0.012 A 
ATOM     87  C   UNL A   1      46.158  33.645  27.843  1.00  0.00     0.148 A 
ATOM     88  C   UNL A   1      47.565  34.027  30.246  1.00  0.00     0.002 A 
ATOM     89  C   UNL A   1      46.751  34.871  28.122  1.00  0.00     0.091 A 
ATOM     90  F   UNL A   1      45.454  33.439  26.721  1.00  0.00    -0.205 F 
ATOM     91  C   UNL A   1      47.445  35.066  29.327  1.00  0.00     0.022 A 
BRANCH  89  92
ATOM     92  S   UNL A   1      46.729  36.233  26.951  1.00  0.00     0.127 S 
ATOM     93  O   UNL A   1      47.567  37.221  27.629  1.00  0.00    -0.237 OA
ATOM     94  O   UNL A   1      47.334  35.633  25.762  1.00  0.00    -0.237 OA
ATOM     95  O   UNL A   1      45.328  36.601  26.793  1.00  0.00    -0.744 OA
ENDBRANCH  89  92
ENDBRANCH  62  85
ENDBRANCH  36  37
ENDBRANCH  28  31
ENDBRANCH  26  27
ENDBRANCH  25  26
ENDBRANCH  24  25
ENDBRANCH   1  24
TORSDOF 19
ENDMDL
MODEL 3
REMARK VINA RESULT:     -11.5      5.705      9.132
REMARK SMILES CN(CCc1cccs1)C(=O)N[C@@H]1COC[C@H]1C(=O)NCCCCNC(=O)c1ccc(-c2c3nc(c(-c4cccc(S(=O)(=O)[O-])c4F)c4ccc([nH]4)c(-c4cccc(S(=O)(=O)[O-])c4F)c4nc(c(-c5cccc(S(=O)(=O)[O-])c5F)c5ccc2[nH]5)C=C4)C=C3)cc1
REMARK SMILES IDX 21 1 20 2 18 3 19 4 17 6 13 7 14 8 15 9 16 10 12 11 10 12
REMARK SMILES IDX 11 13 2 15 1 16 3 17 4 18 5 19 6 20 9 21 7 22 8 23 22 24
REMARK SMILES IDX 23 25 24 26 25 27 26 28 27 30 28 31 29 32 90 33 30 34 89 35
REMARK SMILES IDX 31 36 32 37 33 38 83 39 34 40 88 41 82 42 84 43 35 44 87 45
REMARK SMILES IDX 81 46 80 47 36 49 68 50 48 51 67 52 49 53 52 54 66 55 85 56
REMARK SMILES IDX 50 57 51 58 65 60 86 61 53 62 37 63 38 64 46 65 39 66 41 67
REMARK SMILES IDX 47 68 40 69 42 70 43 71 44 72 45 73 69 74 70 75 78 76 71 77
REMARK SMILES IDX 73 78 79 79 72 80 74 81 75 82 76 83 77 84 54 85 55 86 63 87
REMARK SMILES IDX 56 88 58 89 64 90 57 91 59 92 60 93 61 94 62 95
REMARK H PARENT 20 5 12 14 25 29 84 48 52 59
REMARK Flexibility Score: inf
ROOT
ATOM      1  C   UNL A   1      31.963  28.819  26.279  1.00  0.00     0.116 C 
ENDROOT
BRANCH   1   2
ATOM      2  N   UNL A   1      31.500  29.301  24.996  1.00  0.00    -0.356 N 
ATOM      3  C   UNL A   1      31.464  28.677  23.791  1.00  0.00     0.227 C 
ATOM      4  O   UNL A   1      30.874  29.239  22.865  1.00  0.00    -0.275 OA
ATOM      5  H   UNL A   1      31.159  30.225  24.997  1.00  0.00     0.163 HD
BRANCH   3   6
ATOM      6  C   UNL A   1      32.141  27.342  23.564  1.00  0.00     0.129 C 
ATOM      7  C   UNL A   1      31.379  26.465  22.592  1.00  0.00     0.124 C 
ATOM      8  C   UNL A   1      32.425  26.112  21.531  1.00  0.00     0.186 C 
ATOM      9  O   UNL A   1      33.696  26.672  21.884  1.00  0.00    -0.378 OA
ATOM     10  C   UNL A   1      33.569  27.431  23.085  1.00  0.00     0.176 C 
BRANCH   7  11
ATOM     11  N   UNL A   1      30.807  25.268  23.209  1.00  0.00    -0.332 N 
ATOM     12  C   UNL A   1      30.820  25.046  24.549  1.00  0.00     0.317 C 
ATOM     13  O   UNL A   1      29.899  25.517  25.215  1.00  0.00    -0.249 OA
ATOM     14  H   UNL A   1      30.392  24.591  22.625  1.00  0.00     0.165 HD
BRANCH  12  15
ATOM     15  N   UNL A   1      31.787  24.207  25.056  1.00  0.00    -0.328 N 
ATOM     16  C   UNL A   1      32.038  24.280  26.488  1.00  0.00     0.148 C 
BRANCH  15  17
ATOM     17  C   UNL A   1      32.734  23.386  24.293  1.00  0.00     0.126 C 
BRANCH  17  18
ATOM     18  C   UNL A   1      33.349  22.105  24.896  1.00  0.00     0.068 C 
BRANCH  18  19
ATOM     19  C   UNL A   1      34.831  21.867  24.810  1.00  0.00     0.006 A 
ATOM     20  C   UNL A   1      35.535  20.683  24.949  1.00  0.00     0.015 A 
ATOM     21  S   UNL A   1      35.885  23.158  24.384  1.00  0.00    -0.149 S 
ATOM     22  C   UNL A   1      36.946  20.869  24.846  1.00  0.00     0.012 A 
ATOM     23  C   UNL A   1      37.272  22.178  24.573  1.00  0.00     0.065 A 
ENDBRANCH  18  19
ENDBRANCH  17  18
ENDBRANCH  15  17
ENDBRANCH  12  15
ENDBRANCH   7  11
ENDBRANCH   3   6
ENDBRANCH   1   2
BRANCH   1  24
ATOM     24  C   UNL A   1      32.836  29.819  27.025  1.00  0.00     0.023 C 
BRANCH  24  25
ATOM     25  C   UNL A   1      32.332  31.256  26.993  1.00  0.00     0.023 C 
BRANCH  25  26
ATOM     26  C   UNL A   1      33.321  32.293  27.504  1.00  0.00     0.116 C 
BRANCH  26  27
ATOM     27  N   UNL A   1      32.745  33.622  27.688  1.00  0.00    -0.352 N 
ATOM     28  C   UNL A   1      33.191  34.622  28.515  1.00  0.00     0.251 C 
ATOM     29  H   UNL A   1      31.942  33.824  27.156  1.00  0.00     0.163 HD
ATOM     30  O   UNL A   1      32.620  35.706  28.567  1.00  0.00    -0.269 OA
BRANCH  28  31
ATOM     31  C   UNL A   1      34.332  34.320  29.390  1.00  0.00     0.039 A 
ATOM     32  C   UNL A   1      34.073  33.716  30.620  1.00  0.00     0.014 A 
ATOM     33  C   UNL A   1      35.636  34.468  28.910  1.00  0.00     0.014 A 
ATOM     34  C   UNL A   1      35.132  33.184  31.348  1.00  0.00     0.010 A 
ATOM     35  C   UNL A   1      36.679  33.867  29.601  1.00  0.00     0.010 A 
ATOM     36  C   UNL A   1      36.435  33.216  30.821  1.00  0.00    -0.014 A 
BRANCH  36  37
ATOM     37  C   UNL A   1      37.554  32.557  31.532  1.00  0.00     0.031 A 
ATOM     38  C   UNL A   1      38.276  31.413  30.881  1.00  0.00     0.074 A 
ATOM     39  C   UNL A   1      37.854  32.934  32.790  1.00  0.00     0.049 A 
ATOM     40  N   UNL A   1      39.257  30.690  31.350  1.00  0.00    -0.248 NA
ATOM     41  C   UNL A   1      37.814  31.005  29.543  1.00  0.00     0.031 C 
ATOM     42  C   UNL A   1      37.150  33.965  33.558  1.00  0.00     0.029 A 
ATOM     43  N   UNL A   1      38.816  32.478  33.655  1.00  0.00    -0.354 N 
ATOM     44  C   UNL A   1      39.504  29.722  30.386  1.00  0.00     0.074 A 
ATOM     45  C   UNL A   1      38.548  29.924  29.322  1.00  0.00     0.031 C 
ATOM     46  C   UNL A   1      37.705  34.063  34.777  1.00  0.00     0.029 A 
ATOM     47  C   UNL A   1      38.791  33.095  34.885  1.00  0.00     0.049 A 
ATOM     48  H   UNL A   1      39.463  31.776  33.419  1.00  0.00     0.167 HD
ATOM     49  C   UNL A   1      40.467  28.772  30.372  1.00  0.00     0.034 A 
ATOM     50  C   UNL A   1      39.561  32.899  35.974  1.00  0.00     0.034 A 
ATOM     51  C   UNL A   1      41.453  28.621  31.405  1.00  0.00     0.049 A 
ATOM     52  C   UNL A   1      40.674  31.889  35.899  1.00  0.00     0.074 A 
ATOM     53  C   UNL A   1      42.545  27.772  31.434  1.00  0.00     0.029 A 
ATOM     54  N   UNL A   1      41.467  29.337  32.592  1.00  0.00    -0.354 N 
ATOM     55  N   UNL A   1      41.015  31.112  34.900  1.00  0.00    -0.248 NA
ATOM     56  C   UNL A   1      41.532  31.755  37.084  1.00  0.00     0.031 C 
ATOM     57  C   UNL A   1      43.210  27.964  32.649  1.00  0.00     0.029 A 
ATOM     58  C   UNL A   1      42.542  28.943  33.368  1.00  0.00     0.049 A 
ATOM     59  H   UNL A   1      40.809  30.023  32.846  1.00  0.00     0.167 HD
ATOM     60  C   UNL A   1      42.142  30.418  35.323  1.00  0.00     0.074 A 
ATOM     61  C   UNL A   1      42.442  30.888  36.660  1.00  0.00     0.031 C 
ATOM     62  C   UNL A   1      42.853  29.464  34.674  1.00  0.00     0.034 A 
BRANCH  49  63
ATOM     63  C   UNL A   1      40.541  27.868  29.173  1.00  0.00     0.023 A 
ATOM     64  C   UNL A   1      39.659  26.772  29.077  1.00  0.00     0.012 A 
ATOM     65  C   UNL A   1      41.437  28.130  28.120  1.00  0.00     0.148 A 
ATOM     66  C   UNL A   1      39.686  25.933  27.965  1.00  0.00     0.002 A 
ATOM     67  C   UNL A   1      41.429  27.314  26.994  1.00  0.00     0.091 A 
ATOM     68  F   UNL A   1      42.284  29.161  28.242  1.00  0.00    -0.205 F 
ATOM     69  C   UNL A   1      40.562  26.210  26.920  1.00  0.00     0.022 A 
BRANCH  67  70
ATOM     70  S   UNL A   1      42.468  27.628  25.562  1.00  0.00     0.127 S 
ATOM     71  O   UNL A   1      42.186  26.457  24.732  1.00  0.00    -0.237 OA
ATOM     72  O   UNL A   1      41.916  28.884  25.054  1.00  0.00    -0.237 OA
ATOM     73  O   UNL A   1      43.830  27.721  26.067  1.00  0.00    -0.744 OA
ENDBRANCH  67  70
ENDBRANCH  49  63
BRANCH  50  74
ATOM     74  C   UNL A   1      39.353  33.728  37.195  1.00  0.00     0.023 A 
ATOM     75  C   UNL A   1      39.837  35.050  37.224  1.00  0.00     0.012 A 
ATOM     76  C   UNL A   1      38.659  33.228  38.314  1.00  0.00     0.148 A 
ATOM     77  C   UNL A   1      39.662  35.849  38.355  1.00  0.00     0.002 A 
ATOM     78  C   UNL A   1      38.442  34.046  39.418  1.00  0.00     0.091 A 
ATOM     79  F   UNL A   1      38.220  31.962  38.277  1.00  0.00    -0.205 F 
ATOM     80  C   UNL A   1      38.956  35.351  39.447  1.00  0.00     0.022 A 
BRANCH  78  81
ATOM     81  S   UNL A   1      37.428  33.526  40.806  1.00  0.00     0.127 S 
ATOM     82  O   UNL A   1      38.232  32.451  41.379  1.00  0.00    -0.237 OA
ATOM     83  O   UNL A   1      37.362  34.745  41.613  1.00  0.00    -0.237 OA
ATOM     84  O   UNL A   1      36.152  33.130  40.223  1.00  0.00    -0.744 OA
ENDBRANCH  78  81
ENDBRANCH  50  74
BRANCH  62  85
ATOM     85  C   UNL A   1      44.036  28.871  35.390  1.00  0.00     0.023 A 
ATOM     86  C   UNL A   1      45.309  29.453  35.227  1.00  0.00     0.012 A 
ATOM     87  C   UNL A   1      43.873  27.798  36.287  1.00  0.00     0.148 A 
ATOM     88  C   UNL A   1      46.408  28.958  35.926  1.00  0.00     0.002 A 
ATOM     89  C   UNL A   1      44.965  27.340  37.016  1.00  0.00     0.091 A 
ATOM     90  F   UNL A   1      42.658  27.246  36.413  1.00  0.00    -0.205 F 
ATOM     91  C   UNL A   1      46.234  27.911  36.828  1.00  0.00     0.022 A 
BRANCH  89  92
ATOM     92  S   UNL A   1      44.811  26.063  38.270  1.00  0.00     0.127 S 
ATOM     93  O   UNL A   1      46.209  25.825  38.625  1.00  0.00    -0.237 OA
ATOM     94  O   UNL A   1      44.024  26.734  39.304  1.00  0.00    -0.237 OA
ATOM     95  O   UNL A   1      44.130  24.949  37.624  1.00  0.00    -0.744 OA
ENDBRANCH  89  92
ENDBRANCH  62  85
ENDBRANCH  36  37
ENDBRANCH  28  31
ENDBRANCH  26  27
ENDBRANCH  25  26
ENDBRANCH  24  25
ENDBRANCH   1  24
TORSDOF 19
ENDMDL
