MODEL 1
REMARK VINA RESULT:     -12.3      0.000      0.000
REMARK SMILES Cn1cc(NC(=O)N2Cc3nc[nH]c3C[C@@H]2C(=O)NCCCCNC(=O)c2ccc(-c3c4nc(c(-c5cccc(S(=O)(=O)[O-])c5F)c5ccc([nH]5)c(-c5cccc(S(=O)(=O)[O-])c5F)c5nc(c(-c6cccc(S(=O)(=O)[O-])c6F)c6ccc3[nH]6)C=C5)C=C4)cc2)cn1
REMARK SMILES IDX 22 1 21 2 20 3 19 4 17 5 18 6 16 8 8 9 9 10 10 11 15 12
REMARK SMILES IDX 11 13 14 14 12 15 13 16 6 18 5 19 7 21 4 22 1 23 2 24 3 25
REMARK SMILES IDX 91 26 90 27 23 28 24 29 25 30 26 32 27 33 28 34 89 35 29 36
REMARK SMILES IDX 88 37 30 38 31 39 32 40 82 41 33 42 87 43 81 44 83 45 34 46
REMARK SMILES IDX 86 47 80 48 79 49 35 51 67 52 47 53 66 54 48 55 51 56 65 57
REMARK SMILES IDX 84 58 49 59 50 60 64 62 85 63 52 64 36 65 37 66 45 67 38 68
REMARK SMILES IDX 40 69 46 70 39 71 41 72 42 73 43 74 44 75 68 76 69 77 77 78
REMARK SMILES IDX 70 79 72 80 78 81 71 82 73 83 74 84 75 85 76 86 53 87 54 88
REMARK SMILES IDX 62 89 55 90 57 91 63 92 56 93 58 94 59 95 60 96 61 97
REMARK H PARENT 19 7 13 17 5 20 24 31 83 50 51 61
REMARK Flexibility Score: inf
ROOT
ATOM      1  C   UNL A   1      33.767  31.087  27.618  1.00  0.00     0.023 C 
ENDROOT
BRANCH   1   2
ATOM      2  C   UNL A   1      34.621  29.868  27.240  1.00  0.00     0.023 C 
BRANCH   2   3
ATOM      3  C   UNL A   1      33.900  28.523  27.303  1.00  0.00     0.116 C 
BRANCH   3   4
ATOM      4  N   UNL A   1      34.051  27.725  26.102  1.00  0.00    -0.354 N 
ATOM      5  C   UNL A   1      33.453  27.640  24.882  1.00  0.00     0.243 C 
ATOM      6  O   UNL A   1      34.010  26.818  24.143  1.00  0.00    -0.273 OA
ATOM      7  H   UNL A   1      34.780  27.071  26.194  1.00  0.00     0.163 HD
BRANCH   5   8
ATOM      8  C   UNL A   1      32.094  28.317  24.460  1.00  0.00     0.182 C 
ATOM      9  N   UNL A   1      30.862  27.443  24.722  1.00  0.00    -0.306 N 
ATOM     10  C   UNL A   1      29.641  27.483  23.890  1.00  0.00     0.180 C 
ATOM     11  C   UNL A   1      29.670  28.584  22.902  1.00  0.00     0.081 A 
ATOM     12  C   UNL A   1      32.152  28.853  23.012  1.00  0.00     0.091 C 
ATOM     13  N   UNL A   1      28.597  29.103  22.226  1.00  0.00    -0.240 NA
ATOM     14  C   UNL A   1      30.820  29.205  22.510  1.00  0.00     0.042 A 
ATOM     15  C   UNL A   1      29.112  29.991  21.400  1.00  0.00     0.197 A 
ATOM     16  N   UNL A   1      30.471  30.089  21.539  1.00  0.00    -0.348 N 
ATOM     17  H   UNL A   1      31.075  30.682  21.036  1.00  0.00     0.167 HD
BRANCH   9  18
ATOM     18  C   UNL A   1      30.684  26.651  25.837  1.00  0.00     0.322 C 
ATOM     19  N   UNL A   1      30.502  25.316  25.690  1.00  0.00    -0.305 N 
ATOM     20  H   UNL A   1      29.839  24.892  26.282  1.00  0.00     0.171 HD
ATOM     21  O   UNL A   1      30.775  27.115  26.975  1.00  0.00    -0.248 OA
BRANCH  19  22
ATOM     22  C   UNL A   1      31.149  24.488  24.800  1.00  0.00     0.081 A 
ATOM     23  C   UNL A   1      33.885  22.455  23.678  1.00  0.00     0.173 C 
ATOM     24  N   UNL A   1      32.691  23.227  23.907  1.00  0.00    -0.274 N 
ATOM     25  C   UNL A   1      32.425  24.014  24.987  1.00  0.00     0.134 A 
ATOM     26  N   UNL A   1      31.698  23.190  23.000  1.00  0.00    -0.180 NA
ATOM     27  C   UNL A   1      30.771  23.991  23.534  1.00  0.00     0.161 A 
ENDBRANCH  19  22
ENDBRANCH   9  18
ENDBRANCH   5   8
ENDBRANCH   3   4
ENDBRANCH   2   3
ENDBRANCH   1   2
BRANCH   1  28
ATOM     28  C   UNL A   1      34.549  32.343  28.006  1.00  0.00     0.116 C 
BRANCH  28  29
ATOM     29  N   UNL A   1      34.482  32.640  29.437  1.00  0.00    -0.352 N 
ATOM     30  C   UNL A   1      35.221  32.069  30.461  1.00  0.00     0.251 C 
ATOM     31  H   UNL A   1      33.833  33.329  29.706  1.00  0.00     0.163 HD
ATOM     32  O   UNL A   1      34.833  32.116  31.615  1.00  0.00    -0.269 OA
BRANCH  30  33
ATOM     33  C   UNL A   1      36.502  31.421  30.126  1.00  0.00     0.039 A 
ATOM     34  C   UNL A   1      37.631  32.170  29.786  1.00  0.00     0.014 A 
ATOM     35  C   UNL A   1      36.559  30.032  30.193  1.00  0.00     0.014 A 
ATOM     36  C   UNL A   1      38.842  31.508  29.604  1.00  0.00     0.010 A 
ATOM     37  C   UNL A   1      37.773  29.392  30.136  1.00  0.00     0.010 A 
ATOM     38  C   UNL A   1      38.911  30.120  29.805  1.00  0.00    -0.014 A 
BRANCH  38  39
ATOM     39  C   UNL A   1      40.199  29.434  29.822  1.00  0.00     0.031 A 
ATOM     40  C   UNL A   1      40.750  29.210  31.189  1.00  0.00     0.074 A 
ATOM     41  C   UNL A   1      40.717  28.833  28.729  1.00  0.00     0.049 A 
ATOM     42  N   UNL A   1      41.810  29.734  31.712  1.00  0.00    -0.248 NA
ATOM     43  C   UNL A   1      39.939  28.438  32.146  1.00  0.00     0.031 C 
ATOM     44  C   UNL A   1      40.090  28.689  27.408  1.00  0.00     0.029 A 
ATOM     45  N   UNL A   1      41.846  28.081  28.607  1.00  0.00    -0.354 N 
ATOM     46  C   UNL A   1      41.932  29.153  32.975  1.00  0.00     0.074 A 
ATOM     47  C   UNL A   1      40.653  28.565  33.266  1.00  0.00     0.031 C 
ATOM     48  C   UNL A   1      40.704  27.700  26.724  1.00  0.00     0.029 A 
ATOM     49  C   UNL A   1      41.863  27.265  27.478  1.00  0.00     0.049 A 
ATOM     50  H   UNL A   1      42.584  28.111  29.257  1.00  0.00     0.167 HD
ATOM     51  C   UNL A   1      43.155  28.961  33.548  1.00  0.00     0.034 A 
ATOM     52  C   UNL A   1      42.736  26.266  27.201  1.00  0.00     0.034 A 
ATOM     53  C   UNL A   1      44.167  29.720  32.854  1.00  0.00     0.049 A 
ATOM     54  C   UNL A   1      43.926  26.474  28.051  1.00  0.00     0.074 A 
ATOM     55  C   UNL A   1      44.383  31.055  32.576  1.00  0.00     0.029 A 
ATOM     56  N   UNL A   1      44.965  29.014  31.986  1.00  0.00    -0.354 N 
ATOM     57  N   UNL A   1      44.737  27.485  27.914  1.00  0.00    -0.248 NA
ATOM     58  C   UNL A   1      43.980  25.794  29.334  1.00  0.00     0.031 C 
ATOM     59  C   UNL A   1      44.941  31.070  31.265  1.00  0.00     0.029 A 
ATOM     60  C   UNL A   1      45.106  29.749  30.843  1.00  0.00     0.049 A 
ATOM     61  H   UNL A   1      45.365  28.132  32.159  1.00  0.00     0.167 HD
ATOM     62  C   UNL A   1      45.037  27.856  29.217  1.00  0.00     0.074 A 
ATOM     63  C   UNL A   1      44.657  26.707  30.036  1.00  0.00     0.031 C 
ATOM     64  C   UNL A   1      45.278  29.164  29.531  1.00  0.00     0.034 A 
BRANCH  51  65
ATOM     65  C   UNL A   1      43.546  27.799  34.447  1.00  0.00     0.023 A 
ATOM     66  C   UNL A   1      44.184  28.128  35.668  1.00  0.00     0.012 A 
ATOM     67  C   UNL A   1      43.597  26.443  34.056  1.00  0.00     0.148 A 
ATOM     68  C   UNL A   1      44.910  27.184  36.404  1.00  0.00     0.002 A 
ATOM     69  C   UNL A   1      44.257  25.492  34.829  1.00  0.00     0.091 A 
ATOM     70  F   UNL A   1      43.119  26.062  32.871  1.00  0.00    -0.205 F 
ATOM     71  C   UNL A   1      44.948  25.863  35.983  1.00  0.00     0.022 A 
BRANCH  69  72
ATOM     72  S   UNL A   1      44.296  23.755  34.360  1.00  0.00     0.127 S 
ATOM     73  O   UNL A   1      45.179  23.198  35.381  1.00  0.00    -0.237 OA
ATOM     74  O   UNL A   1      42.887  23.382  34.486  1.00  0.00    -0.237 OA
ATOM     75  O   UNL A   1      44.800  23.727  32.993  1.00  0.00    -0.744 OA
ENDBRANCH  69  72
ENDBRANCH  51  65
BRANCH  52  76
ATOM     76  C   UNL A   1      42.542  25.024  26.422  1.00  0.00     0.023 A 
ATOM     77  C   UNL A   1      43.455  24.673  25.408  1.00  0.00     0.012 A 
ATOM     78  C   UNL A   1      41.615  24.051  26.854  1.00  0.00     0.148 A 
ATOM     79  C   UNL A   1      43.461  23.385  24.858  1.00  0.00     0.002 A 
ATOM     80  C   UNL A   1      41.622  22.773  26.300  1.00  0.00     0.091 A 
ATOM     81  F   UNL A   1      40.792  24.354  27.865  1.00  0.00    -0.205 F 
ATOM     82  C   UNL A   1      42.551  22.433  25.309  1.00  0.00     0.022 A 
BRANCH  80  83
ATOM     83  S   UNL A   1      40.497  21.484  26.849  1.00  0.00     0.127 S 
ATOM     84  O   UNL A   1      40.994  20.325  26.107  1.00  0.00    -0.237 OA
ATOM     85  O   UNL A   1      40.759  21.453  28.285  1.00  0.00    -0.237 OA
ATOM     86  O   UNL A   1      39.168  21.934  26.457  1.00  0.00    -0.744 OA
ENDBRANCH  80  83
ENDBRANCH  52  76
BRANCH  64  87
ATOM     87  C   UNL A   1      45.506  30.133  28.399  1.00  0.00     0.023 A 
ATOM     88  C   UNL A   1      44.451  30.808  27.748  1.00  0.00     0.012 A 
ATOM     89  C   UNL A   1      46.829  30.503  28.111  1.00  0.00     0.148 A 
ATOM     90  C   UNL A   1      44.716  31.817  26.817  1.00  0.00     0.002 A 
ATOM     91  C   UNL A   1      47.087  31.540  27.226  1.00  0.00     0.091 A 
ATOM     92  F   UNL A   1      47.820  29.850  28.739  1.00  0.00    -0.205 F 
ATOM     93  C   UNL A   1      46.033  32.194  26.568  1.00  0.00     0.022 A 
BRANCH  91  94
ATOM     94  S   UNL A   1      48.752  32.156  26.973  1.00  0.00     0.127 S 
ATOM     95  O   UNL A   1      49.127  32.583  28.318  1.00  0.00    -0.237 OA
ATOM     96  O   UNL A   1      49.457  30.967  26.488  1.00  0.00    -0.237 OA
ATOM     97  O   UNL A   1      48.638  33.220  25.983  1.00  0.00    -0.744 OA
ENDBRANCH  91  94
ENDBRANCH  64  87
ENDBRANCH  38  39
ENDBRANCH  30  33
ENDBRANCH  28  29
ENDBRANCH   1  28
TORSDOF 16
ENDMDL
MODEL 2
REMARK VINA RESULT:     -12.2      3.361      7.334
REMARK SMILES Cn1cc(NC(=O)N2Cc3nc[nH]c3C[C@@H]2C(=O)NCCCCNC(=O)c2ccc(-c3c4nc(c(-c5cccc(S(=O)(=O)[O-])c5F)c5ccc([nH]5)c(-c5cccc(S(=O)(=O)[O-])c5F)c5nc(c(-c6cccc(S(=O)(=O)[O-])c6F)c6ccc3[nH]6)C=C5)C=C4)cc2)cn1
REMARK SMILES IDX 22 1 21 2 20 3 19 4 17 5 18 6 16 8 8 9 9 10 10 11 15 12
REMARK SMILES IDX 11 13 14 14 12 15 13 16 6 18 5 19 7 21 4 22 1 23 2 24 3 25
REMARK SMILES IDX 91 26 90 27 23 28 24 29 25 30 26 32 27 33 28 34 89 35 29 36
REMARK SMILES IDX 88 37 30 38 31 39 32 40 82 41 33 42 87 43 81 44 83 45 34 46
REMARK SMILES IDX 86 47 80 48 79 49 35 51 67 52 47 53 66 54 48 55 51 56 65 57
REMARK SMILES IDX 84 58 49 59 50 60 64 62 85 63 52 64 36 65 37 66 45 67 38 68
REMARK SMILES IDX 40 69 46 70 39 71 41 72 42 73 43 74 44 75 68 76 69 77 77 78
REMARK SMILES IDX 70 79 72 80 78 81 71 82 73 83 74 84 75 85 76 86 53 87 54 88
REMARK SMILES IDX 62 89 55 90 57 91 63 92 56 93 58 94 59 95 60 96 61 97
REMARK H PARENT 19 7 13 17 5 20 24 31 83 50 51 61
REMARK Flexibility Score: inf
ROOT
ATOM      1  C   UNL A   1      33.409  31.018  26.540  1.00  0.00     0.023 C 
ENDROOT
BRANCH   1   2
ATOM      2  C   UNL A   1      34.322  29.973  27.196  1.00  0.00     0.023 C 
BRANCH   2   3
ATOM      3  C   UNL A   1      33.751  28.558  27.261  1.00  0.00     0.116 C 
BRANCH   3   4
ATOM      4  N   UNL A   1      33.952  27.794  26.045  1.00  0.00    -0.354 N 
ATOM      5  C   UNL A   1      33.367  27.700  24.819  1.00  0.00     0.243 C 
ATOM      6  O   UNL A   1      33.972  26.924  24.068  1.00  0.00    -0.273 OA
ATOM      7  H   UNL A   1      34.716  27.178  26.128  1.00  0.00     0.163 HD
BRANCH   5   8
ATOM      8  C   UNL A   1      31.976  28.310  24.402  1.00  0.00     0.182 C 
ATOM      9  N   UNL A   1      30.808  27.323  24.522  1.00  0.00    -0.306 N 
ATOM     10  C   UNL A   1      29.621  27.353  23.642  1.00  0.00     0.180 C 
ATOM     11  C   UNL A   1      29.599  28.544  22.766  1.00  0.00     0.081 A 
ATOM     12  C   UNL A   1      32.046  28.988  23.015  1.00  0.00     0.091 C 
ATOM     13  N   UNL A   1      28.515  29.044  22.093  1.00  0.00    -0.240 NA
ATOM     14  C   UNL A   1      30.710  29.286  22.488  1.00  0.00     0.042 A 
ATOM     15  C   UNL A   1      28.989  30.046  21.380  1.00  0.00     0.197 A 
ATOM     16  N   UNL A   1      30.329  30.232  21.590  1.00  0.00    -0.348 N 
ATOM     17  H   UNL A   1      30.903  30.916  21.174  1.00  0.00     0.167 HD
BRANCH   9  18
ATOM     18  C   UNL A   1      30.651  26.415  25.547  1.00  0.00     0.322 C 
ATOM     19  N   UNL A   1      30.763  25.088  25.291  1.00  0.00    -0.305 N 
ATOM     20  H   UNL A   1      30.128  24.494  25.754  1.00  0.00     0.171 HD
ATOM     21  O   UNL A   1      30.500  26.783  26.714  1.00  0.00    -0.248 OA
BRANCH  19  22
ATOM     22  C   UNL A   1      31.672  24.483  24.454  1.00  0.00     0.081 A 
ATOM     23  C   UNL A   1      34.707  22.719  23.710  1.00  0.00     0.173 C 
ATOM     24  N   UNL A   1      33.461  23.439  23.766  1.00  0.00    -0.274 N 
ATOM     25  C   UNL A   1      32.865  23.951  24.878  1.00  0.00     0.134 A 
ATOM     26  N   UNL A   1      32.765  23.641  22.631  1.00  0.00    -0.180 NA
ATOM     27  C   UNL A   1      31.688  24.311  23.053  1.00  0.00     0.161 A 
ENDBRANCH  19  22
ENDBRANCH   9  18
ENDBRANCH   5   8
ENDBRANCH   3   4
ENDBRANCH   2   3
ENDBRANCH   1   2
BRANCH   1  28
ATOM     28  C   UNL A   1      32.256  31.522  27.410  1.00  0.00     0.116 C 
BRANCH  28  29
ATOM     29  N   UNL A   1      32.097  32.975  27.365  1.00  0.00    -0.352 N 
ATOM     30  C   UNL A   1      32.816  33.933  28.062  1.00  0.00     0.251 C 
ATOM     31  H   UNL A   1      31.393  33.315  26.767  1.00  0.00     0.163 HD
ATOM     32  O   UNL A   1      32.366  35.053  28.233  1.00  0.00    -0.269 OA
BRANCH  30  33
ATOM     33  C   UNL A   1      34.151  33.574  28.575  1.00  0.00     0.039 A 
ATOM     34  C   UNL A   1      34.309  32.898  29.786  1.00  0.00     0.014 A 
ATOM     35  C   UNL A   1      35.253  33.905  27.793  1.00  0.00     0.014 A 
ATOM     36  C   UNL A   1      35.583  32.476  30.156  1.00  0.00     0.010 A 
ATOM     37  C   UNL A   1      36.488  33.385  28.091  1.00  0.00     0.010 A 
ATOM     38  C   UNL A   1      36.666  32.703  29.291  1.00  0.00    -0.014 A 
BRANCH  38  39
ATOM     39  C   UNL A   1      37.967  32.096  29.553  1.00  0.00     0.031 A 
ATOM     40  C   UNL A   1      38.093  30.693  29.068  1.00  0.00     0.074 A 
ATOM     41  C   UNL A   1      39.034  32.815  29.963  1.00  0.00     0.049 A 
ATOM     42  N   UNL A   1      38.230  29.618  29.773  1.00  0.00    -0.248 NA
ATOM     43  C   UNL A   1      37.880  30.434  27.633  1.00  0.00     0.031 C 
ATOM     44  C   UNL A   1      39.116  34.272  30.138  1.00  0.00     0.029 A 
ATOM     45  N   UNL A   1      40.323  32.419  30.158  1.00  0.00    -0.354 N 
ATOM     46  C   UNL A   1      38.377  28.580  28.852  1.00  0.00     0.074 A 
ATOM     47  C   UNL A   1      37.921  29.101  27.592  1.00  0.00     0.031 C 
ATOM     48  C   UNL A   1      40.411  34.653  30.148  1.00  0.00     0.029 A 
ATOM     49  C   UNL A   1      41.243  33.466  30.156  1.00  0.00     0.049 A 
ATOM     50  H   UNL A   1      40.582  31.479  30.289  1.00  0.00     0.167 HD
ATOM     51  C   UNL A   1      39.121  27.476  29.146  1.00  0.00     0.034 A 
ATOM     52  C   UNL A   1      42.594  33.369  30.112  1.00  0.00     0.034 A 
ATOM     53  C   UNL A   1      39.397  27.410  30.561  1.00  0.00     0.049 A 
ATOM     54  C   UNL A   1      42.951  31.996  30.525  1.00  0.00     0.074 A 
ATOM     55  C   UNL A   1      38.639  27.341  31.712  1.00  0.00     0.029 A 
ATOM     56  N   UNL A   1      40.653  27.806  30.952  1.00  0.00    -0.354 N 
ATOM     57  N   UNL A   1      42.762  31.538  31.730  1.00  0.00    -0.248 NA
ATOM     58  C   UNL A   1      43.121  30.992  29.489  1.00  0.00     0.031 C 
ATOM     59  C   UNL A   1      39.344  28.136  32.663  1.00  0.00     0.029 A 
ATOM     60  C   UNL A   1      40.527  28.583  32.069  1.00  0.00     0.049 A 
ATOM     61  H   UNL A   1      41.498  27.571  30.505  1.00  0.00     0.167 HD
ATOM     62  C   UNL A   1      42.315  30.239  31.531  1.00  0.00     0.074 A 
ATOM     63  C   UNL A   1      42.684  29.918  30.153  1.00  0.00     0.031 C 
ATOM     64  C   UNL A   1      41.427  29.667  32.397  1.00  0.00     0.034 A 
BRANCH  51  65
ATOM     65  C   UNL A   1      39.961  26.678  28.161  1.00  0.00     0.023 A 
ATOM     66  C   UNL A   1      39.941  25.269  28.305  1.00  0.00     0.012 A 
ATOM     67  C   UNL A   1      40.964  27.211  27.321  1.00  0.00     0.148 A 
ATOM     68  C   UNL A   1      40.918  24.450  27.727  1.00  0.00     0.002 A 
ATOM     69  C   UNL A   1      41.890  26.386  26.688  1.00  0.00     0.091 A 
ATOM     70  F   UNL A   1      41.126  28.530  27.213  1.00  0.00    -0.205 F 
ATOM     71  C   UNL A   1      41.896  25.010  26.918  1.00  0.00     0.022 A 
BRANCH  69  72
ATOM     72  S   UNL A   1      43.149  27.050  25.588  1.00  0.00     0.127 S 
ATOM     73  O   UNL A   1      44.011  27.762  26.527  1.00  0.00    -0.237 OA
ATOM     74  O   UNL A   1      43.722  25.829  25.021  1.00  0.00    -0.237 OA
ATOM     75  O   UNL A   1      42.434  27.876  24.623  1.00  0.00    -0.744 OA
ENDBRANCH  69  72
ENDBRANCH  51  65
BRANCH  52  76
ATOM     76  C   UNL A   1      43.594  34.295  29.538  1.00  0.00     0.023 A 
ATOM     77  C   UNL A   1      44.305  35.178  30.373  1.00  0.00     0.012 A 
ATOM     78  C   UNL A   1      44.043  34.124  28.210  1.00  0.00     0.148 A 
ATOM     79  C   UNL A   1      45.442  35.852  29.909  1.00  0.00     0.002 A 
ATOM     80  C   UNL A   1      45.170  34.799  27.752  1.00  0.00     0.091 A 
ATOM     81  F   UNL A   1      43.415  33.233  27.432  1.00  0.00    -0.205 F 
ATOM     82  C   UNL A   1      45.879  35.657  28.602  1.00  0.00     0.022 A 
BRANCH  80  83
ATOM     83  S   UNL A   1      45.811  34.578  26.088  1.00  0.00     0.127 S 
ATOM     84  O   UNL A   1      46.331  33.212  26.152  1.00  0.00    -0.237 OA
ATOM     85  O   UNL A   1      44.605  34.740  25.281  1.00  0.00    -0.237 OA
ATOM     86  O   UNL A   1      46.828  35.609  25.922  1.00  0.00    -0.744 OA
ENDBRANCH  80  83
ENDBRANCH  52  76
BRANCH  64  87
ATOM     87  C   UNL A   1      41.181  30.356  33.715  1.00  0.00     0.023 A 
ATOM     88  C   UNL A   1      42.071  30.258  34.806  1.00  0.00     0.012 A 
ATOM     89  C   UNL A   1      40.115  31.267  33.788  1.00  0.00     0.148 A 
ATOM     90  C   UNL A   1      41.888  31.040  35.950  1.00  0.00     0.002 A 
ATOM     91  C   UNL A   1      39.967  32.080  34.903  1.00  0.00     0.091 A 
ATOM     92  F   UNL A   1      39.278  31.347  32.741  1.00  0.00    -0.205 F 
ATOM     93  C   UNL A   1      40.845  31.963  35.992  1.00  0.00     0.022 A 
BRANCH  91  94
ATOM     94  S   UNL A   1      38.729  33.376  34.952  1.00  0.00     0.127 S 
ATOM     95  O   UNL A   1      38.735  33.857  33.573  1.00  0.00    -0.237 OA
ATOM     96  O   UNL A   1      37.522  32.643  35.341  1.00  0.00    -0.237 OA
ATOM     97  O   UNL A   1      39.189  34.330  35.954  1.00  0.00    -0.744 OA
ENDBRANCH  91  94
ENDBRANCH  64  87
ENDBRANCH  38  39
ENDBRANCH  30  33
ENDBRANCH  28  29
ENDBRANCH   1  28
TORSDOF 16
ENDMDL
MODEL 3
REMARK VINA RESULT:     -12.0      2.905      7.807
REMARK SMILES Cn1cc(NC(=O)N2Cc3nc[nH]c3C[C@@H]2C(=O)NCCCCNC(=O)c2ccc(-c3c4nc(c(-c5cccc(S(=O)(=O)[O-])c5F)c5ccc([nH]5)c(-c5cccc(S(=O)(=O)[O-])c5F)c5nc(c(-c6cccc(S(=O)(=O)[O-])c6F)c6ccc3[nH]6)C=C5)C=C4)cc2)cn1
REMARK SMILES IDX 22 1 21 2 20 3 19 4 17 5 18 6 16 8 8 9 9 10 10 11 15 12
REMARK SMILES IDX 11 13 14 14 12 15 13 16 6 18 5 19 7 21 4 22 1 23 2 24 3 25
REMARK SMILES IDX 91 26 90 27 23 28 24 29 25 30 26 32 27 33 28 34 89 35 29 36
REMARK SMILES IDX 88 37 30 38 31 39 32 40 82 41 33 42 87 43 81 44 83 45 34 46
REMARK SMILES IDX 86 47 80 48 79 49 35 51 67 52 47 53 66 54 48 55 51 56 65 57
REMARK SMILES IDX 84 58 49 59 50 60 64 62 85 63 52 64 36 65 37 66 45 67 38 68
REMARK SMILES IDX 40 69 46 70 39 71 41 72 42 73 43 74 44 75 68 76 69 77 77 78
REMARK SMILES IDX 70 79 72 80 78 81 71 82 73 83 74 84 75 85 76 86 53 87 54 88
REMARK SMILES IDX 62 89 55 90 57 91 63 92 56 93 58 94 59 95 60 96 61 97
REMARK H PARENT 19 7 13 17 5 20 24 31 83 50 51 61
REMARK Flexibility Score: inf
ROOT
ATOM      1  C   UNL A   1      37.604  20.233  24.630  1.00  0.00     0.023 C 
ENDROOT
BRANCH   1   2
ATOM      2  C   UNL A   1      36.133  20.403  25.035  1.00  0.00     0.023 C 
BRANCH   2   3
ATOM      3  C   UNL A   1      35.629  21.845  25.065  1.00  0.00     0.116 C 
BRANCH   3   4
ATOM      4  N   UNL A   1      35.188  22.333  23.773  1.00  0.00    -0.354 N 
ATOM      5  C   UNL A   1      34.157  23.079  23.290  1.00  0.00     0.243 C 
ATOM      6  O   UNL A   1      34.262  23.295  22.075  1.00  0.00    -0.273 OA
ATOM      7  H   UNL A   1      35.797  22.050  23.053  1.00  0.00     0.163 HD
BRANCH   5   8
ATOM      8  C   UNL A   1      32.849  23.480  24.072  1.00  0.00     0.182 C 
ATOM      9  N   UNL A   1      33.049  24.640  25.054  1.00  0.00    -0.306 N 
ATOM     10  C   UNL A   1      32.287  24.784  26.313  1.00  0.00     0.180 C 
ATOM     11  C   UNL A   1      31.193  23.795  26.424  1.00  0.00     0.081 A 
ATOM     12  C   UNL A   1      32.179  22.250  24.725  1.00  0.00     0.091 C 
ATOM     13  N   UNL A   1      30.117  23.858  27.271  1.00  0.00    -0.240 NA
ATOM     14  C   UNL A   1      31.150  22.643  25.693  1.00  0.00     0.042 A 
ATOM     15  C   UNL A   1      29.467  22.728  27.081  1.00  0.00     0.197 A 
ATOM     16  N   UNL A   1      30.062  21.952  26.122  1.00  0.00    -0.348 N 
ATOM     17  H   UNL A   1      29.761  21.069  25.807  1.00  0.00     0.167 HD
BRANCH   9  18
ATOM     18  C   UNL A   1      33.826  25.752  24.808  1.00  0.00     0.322 C 
ATOM     19  N   UNL A   1      33.476  26.609  23.817  1.00  0.00    -0.305 N 
ATOM     20  H   UNL A   1      34.210  26.977  23.273  1.00  0.00     0.171 HD
ATOM     21  O   UNL A   1      34.785  26.037  25.527  1.00  0.00    -0.248 OA
BRANCH  19  22
ATOM     22  C   UNL A   1      32.204  27.021  23.493  1.00  0.00     0.081 A 
ATOM     23  C   UNL A   1      29.763  29.398  22.367  1.00  0.00     0.173 C 
ATOM     24  N   UNL A   1      30.550  28.298  22.861  1.00  0.00    -0.274 N 
ATOM     25  C   UNL A   1      31.890  28.301  23.106  1.00  0.00     0.134 A 
ATOM     26  N   UNL A   1      29.952  27.117  23.107  1.00  0.00    -0.180 NA
ATOM     27  C   UNL A   1      30.962  26.349  23.527  1.00  0.00     0.161 A 
ENDBRANCH  19  22
ENDBRANCH   9  18
ENDBRANCH   5   8
ENDBRANCH   3   4
ENDBRANCH   2   3
ENDBRANCH   1   2
BRANCH   1  28
ATOM     28  C   UNL A   1      38.622  20.423  25.756  1.00  0.00     0.116 C 
BRANCH  28  29
ATOM     29  N   UNL A   1      39.652  19.385  25.778  1.00  0.00    -0.352 N 
ATOM     30  C   UNL A   1      41.020  19.545  25.931  1.00  0.00     0.251 C 
ATOM     31  H   UNL A   1      39.336  18.459  25.670  1.00  0.00     0.163 HD
ATOM     32  O   UNL A   1      41.797  18.679  25.567  1.00  0.00    -0.269 OA
BRANCH  30  33
ATOM     33  C   UNL A   1      41.516  20.779  26.566  1.00  0.00     0.039 A 
ATOM     34  C   UNL A   1      42.161  21.772  25.825  1.00  0.00     0.014 A 
ATOM     35  C   UNL A   1      41.291  20.939  27.930  1.00  0.00     0.014 A 
ATOM     36  C   UNL A   1      42.494  22.967  26.456  1.00  0.00     0.010 A 
ATOM     37  C   UNL A   1      41.504  22.159  28.523  1.00  0.00     0.010 A 
ATOM     38  C   UNL A   1      42.141  23.163  27.801  1.00  0.00    -0.014 A 
BRANCH  38  39
ATOM     39  C   UNL A   1      42.291  24.474  28.426  1.00  0.00     0.031 A 
ATOM     40  C   UNL A   1      41.132  25.386  28.213  1.00  0.00     0.074 A 
ATOM     41  C   UNL A   1      43.265  24.743  29.322  1.00  0.00     0.049 A 
ATOM     42  N   UNL A   1      41.103  26.487  27.536  1.00  0.00    -0.248 NA
ATOM     43  C   UNL A   1      39.805  24.940  28.671  1.00  0.00     0.031 C 
ATOM     44  C   UNL A   1      44.256  23.808  29.873  1.00  0.00     0.029 A 
ATOM     45  N   UNL A   1      43.480  25.870  30.056  1.00  0.00    -0.354 N 
ATOM     46  C   UNL A   1      39.815  26.997  27.703  1.00  0.00     0.074 A 
ATOM     47  C   UNL A   1      39.018  25.907  28.196  1.00  0.00     0.031 C 
ATOM     48  C   UNL A   1      44.771  24.316  31.012  1.00  0.00     0.029 A 
ATOM     49  C   UNL A   1      44.283  25.672  31.177  1.00  0.00     0.049 A 
ATOM     50  H   UNL A   1      43.102  26.747  29.816  1.00  0.00     0.167 HD
ATOM     51  C   UNL A   1      39.582  28.340  27.689  1.00  0.00     0.034 A 
ATOM     52  C   UNL A   1      44.496  26.538  32.197  1.00  0.00     0.034 A 
ATOM     53  C   UNL A   1      40.721  29.051  27.160  1.00  0.00     0.049 A 
ATOM     54  C   UNL A   1      44.114  27.883  31.719  1.00  0.00     0.074 A 
ATOM     55  C   UNL A   1      41.420  29.048  25.970  1.00  0.00     0.029 A 
ATOM     56  N   UNL A   1      41.537  29.658  28.083  1.00  0.00    -0.354 N 
ATOM     57  N   UNL A   1      44.760  28.521  30.784  1.00  0.00    -0.248 NA
ATOM     58  C   UNL A   1      42.760  28.343  31.975  1.00  0.00     0.031 C 
ATOM     59  C   UNL A   1      42.782  29.235  26.345  1.00  0.00     0.029 A 
ATOM     60  C   UNL A   1      42.835  29.417  27.729  1.00  0.00     0.049 A 
ATOM     61  H   UNL A   1      41.239  30.178  28.864  1.00  0.00     0.167 HD
ATOM     62  C   UNL A   1      43.759  29.115  30.028  1.00  0.00     0.074 A 
ATOM     63  C   UNL A   1      42.571  29.084  30.880  1.00  0.00     0.031 C 
ATOM     64  C   UNL A   1      43.916  29.295  28.683  1.00  0.00     0.034 A 
BRANCH  51  65
ATOM     65  C   UNL A   1      38.535  29.072  28.515  1.00  0.00     0.023 A 
ATOM     66  C   UNL A   1      37.774  30.060  27.844  1.00  0.00     0.012 A 
ATOM     67  C   UNL A   1      38.454  29.065  29.925  1.00  0.00     0.148 A 
ATOM     68  C   UNL A   1      37.053  31.040  28.537  1.00  0.00     0.002 A 
ATOM     69  C   UNL A   1      37.677  29.997  30.609  1.00  0.00     0.091 A 
ATOM     70  F   UNL A   1      39.219  28.243  30.643  1.00  0.00    -0.205 F 
ATOM     71  C   UNL A   1      37.006  31.009  29.923  1.00  0.00     0.022 A 
BRANCH  69  72
ATOM     72  S   UNL A   1      37.537  29.974  32.402  1.00  0.00     0.127 S 
ATOM     73  O   UNL A   1      38.873  30.401  32.805  1.00  0.00    -0.237 OA
ATOM     74  O   UNL A   1      36.476  30.956  32.630  1.00  0.00    -0.237 OA
ATOM     75  O   UNL A   1      37.168  28.608  32.752  1.00  0.00    -0.744 OA
ENDBRANCH  69  72
ENDBRANCH  51  65
BRANCH  52  76
ATOM     76  C   UNL A   1      44.797  26.273  33.621  1.00  0.00     0.023 A 
ATOM     77  C   UNL A   1      46.124  26.332  34.087  1.00  0.00     0.012 A 
ATOM     78  C   UNL A   1      43.755  26.228  34.572  1.00  0.00     0.148 A 
ATOM     79  C   UNL A   1      46.405  26.370  35.459  1.00  0.00     0.002 A 
ATOM     80  C   UNL A   1      44.039  26.261  35.934  1.00  0.00     0.091 A 
ATOM     81  F   UNL A   1      42.489  26.243  34.136  1.00  0.00    -0.205 F 
ATOM     82  C   UNL A   1      45.364  26.342  36.382  1.00  0.00     0.022 A 
BRANCH  80  83
ATOM     83  S   UNL A   1      42.748  26.256  37.184  1.00  0.00     0.127 S 
ATOM     84  O   UNL A   1      42.118  24.957  36.952  1.00  0.00    -0.237 OA
ATOM     85  O   UNL A   1      43.526  26.351  38.416  1.00  0.00    -0.237 OA
ATOM     86  O   UNL A   1      41.905  27.404  36.878  1.00  0.00    -0.744 OA
ENDBRANCH  80  83
ENDBRANCH  52  76
BRANCH  64  87
ATOM     87  C   UNL A   1      45.295  29.116  28.101  1.00  0.00     0.023 A 
ATOM     88  C   UNL A   1      46.288  30.115  28.167  1.00  0.00     0.012 A 
ATOM     89  C   UNL A   1      45.647  27.838  27.637  1.00  0.00     0.148 A 
ATOM     90  C   UNL A   1      47.599  29.849  27.761  1.00  0.00     0.002 A 
ATOM     91  C   UNL A   1      46.960  27.562  27.284  1.00  0.00     0.091 A 
ATOM     92  F   UNL A   1      44.689  26.899  27.580  1.00  0.00    -0.205 F 
ATOM     93  C   UNL A   1      47.939  28.567  27.335  1.00  0.00     0.022 A 
BRANCH  91  94
ATOM     94  S   UNL A   1      47.480  25.898  26.860  1.00  0.00     0.127 S 
ATOM     95  O   UNL A   1      48.899  26.087  26.570  1.00  0.00    -0.237 OA
ATOM     96  O   UNL A   1      47.199  25.158  28.092  1.00  0.00    -0.237 OA
ATOM     97  O   UNL A   1      46.654  25.498  25.728  1.00  0.00    -0.744 OA
ENDBRANCH  91  94
ENDBRANCH  64  87
ENDBRANCH  38  39
ENDBRANCH  30  33
ENDBRANCH  28  29
ENDBRANCH   1  28
TORSDOF 16
ENDMDL
