MODEL 1
REMARK VINA RESULT:     -10.2      0.000      0.000
REMARK SMILES CCCC[C@H](CC)Cn1ccc(C(=O)NCCCCNC(=O)c2ccc(-c3c4nc(c(-c5cccc(S(=O)(=O)[O-])c5F)c5ccc([nH]5)c(-c5cccc(S(=O)(=O)[O-])c5F)c5nc(c(-c6cccc(S(=O)(=O)[O-])c6F)c6ccc3[nH]6)C=C5)C=C4)cc2)c1
REMARK SMILES IDX 16 1 15 2 13 3 14 4 12 6 9 7 10 8 86 9 11 10 8 11 5 12 4 13
REMARK SMILES IDX 3 14 2 15 1 16 6 17 7 18 17 19 18 20 19 21 20 22 21 23 22 25
REMARK SMILES IDX 23 26 24 27 85 28 25 29 84 30 26 31 27 32 28 33 78 34 29 35
REMARK SMILES IDX 83 36 77 37 79 38 30 39 82 40 76 41 75 42 31 44 63 45 43 46
REMARK SMILES IDX 62 47 44 48 47 49 61 50 80 51 45 52 46 53 60 55 81 56 48 57
REMARK SMILES IDX 32 58 33 59 41 60 34 61 36 62 42 63 35 64 37 65 38 66 39 67
REMARK SMILES IDX 40 68 64 69 65 70 73 71 66 72 68 73 74 74 67 75 69 76 70 77
REMARK SMILES IDX 71 78 72 79 49 80 50 81 58 82 51 83 53 84 59 85 52 86 54 87
REMARK SMILES IDX 55 88 56 89 57 90
REMARK H PARENT 15 5 20 24 79 43 47 54
REMARK Flexibility Score: inf
ROOT
ATOM      1  C   UNL A   1      43.316  41.617  25.454  1.00  0.00     0.116 C 
ENDROOT
BRANCH   1   2
ATOM      2  N   UNL A   1      42.133  41.916  24.671  1.00  0.00    -0.352 N 
ATOM      3  C   UNL A   1      41.930  42.681  23.545  1.00  0.00     0.252 C 
ATOM      4  O   UNL A   1      40.800  42.739  23.092  1.00  0.00    -0.269 OA
ATOM      5  H   UNL A   1      41.314  41.490  25.013  1.00  0.00     0.163 HD
BRANCH   3   6
ATOM      6  C   UNL A   1      43.041  43.363  22.872  1.00  0.00     0.057 A 
ATOM      7  N   UNL A   1      44.527  44.145  21.384  1.00  0.00    -0.353 N 
ATOM      8  C   UNL A   1      44.651  44.934  22.490  1.00  0.00     0.086 A 
ATOM      9  C   UNL A   1      43.640  43.126  21.650  1.00  0.00     0.099 A 
ATOM     10  C   UNL A   1      43.761  44.468  23.433  1.00  0.00     0.033 A 
BRANCH   7  11
ATOM     11  C   UNL A   1      45.018  44.432  20.046  1.00  0.00     0.125 C 
BRANCH  11  12
ATOM     12  C   UNL A   1      44.711  45.806  19.428  1.00  0.00     0.008 C 
BRANCH  12  13
ATOM     13  C   UNL A   1      44.299  45.729  17.929  1.00  0.00     0.005 C 
BRANCH  13  14
ATOM     14  C   UNL A   1      42.852  45.337  17.574  1.00  0.00     0.000 C 
BRANCH  14  15
ATOM     15  C   UNL A   1      42.018  46.354  16.777  1.00  0.00    -0.003 C 
ATOM     16  C   UNL A   1      42.677  47.713  16.605  1.00  0.00     0.004 C 
ENDBRANCH  14  15
ENDBRANCH  13  14
ENDBRANCH  12  13
BRANCH  12  17
ATOM     17  C   UNL A   1      45.818  46.853  19.686  1.00  0.00     0.002 C 
ATOM     18  C   UNL A   1      45.405  48.068  20.502  1.00  0.00     0.004 C 
ENDBRANCH  12  17
ENDBRANCH  11  12
ENDBRANCH   7  11
ENDBRANCH   3   6
ENDBRANCH   1   2
BRANCH   1  19
ATOM     19  C   UNL A   1      43.194  40.244  26.119  1.00  0.00     0.023 C 
BRANCH  19  20
ATOM     20  C   UNL A   1      42.247  40.229  27.331  1.00  0.00     0.023 C 
BRANCH  20  21
ATOM     21  C   UNL A   1      42.685  39.280  28.453  1.00  0.00     0.116 C 
BRANCH  21  22
ATOM     22  N   UNL A   1      44.133  39.117  28.459  1.00  0.00    -0.352 N 
ATOM     23  C   UNL A   1      44.897  38.035  28.817  1.00  0.00     0.251 C 
ATOM     24  H   UNL A   1      44.642  39.905  28.161  1.00  0.00     0.163 HD
ATOM     25  O   UNL A   1      46.091  38.209  29.058  1.00  0.00    -0.269 OA
BRANCH  23  26
ATOM     26  C   UNL A   1      44.318  36.681  28.946  1.00  0.00     0.039 A 
ATOM     27  C   UNL A   1      44.227  36.130  30.232  1.00  0.00     0.014 A 
ATOM     28  C   UNL A   1      43.940  35.926  27.832  1.00  0.00     0.014 A 
ATOM     29  C   UNL A   1      43.682  34.859  30.409  1.00  0.00     0.010 A 
ATOM     30  C   UNL A   1      43.390  34.655  28.007  1.00  0.00     0.010 A 
ATOM     31  C   UNL A   1      43.230  34.134  29.298  1.00  0.00    -0.014 A 
BRANCH  31  32
ATOM     32  C   UNL A   1      42.393  32.925  29.530  1.00  0.00     0.031 A 
ATOM     33  C   UNL A   1      43.140  31.632  29.124  1.00  0.00     0.074 A 
ATOM     34  C   UNL A   1      41.130  33.112  30.022  1.00  0.00     0.049 A 
ATOM     35  N   UNL A   1      42.682  30.501  28.668  1.00  0.00    -0.248 NA
ATOM     36  C   UNL A   1      44.630  31.635  29.118  1.00  0.00     0.031 C 
ATOM     37  C   UNL A   1      40.568  34.427  30.400  1.00  0.00     0.029 A 
ATOM     38  N   UNL A   1      40.067  32.271  30.313  1.00  0.00    -0.354 N 
ATOM     39  C   UNL A   1      43.786  29.611  28.580  1.00  0.00     0.074 A 
ATOM     40  C   UNL A   1      44.962  30.411  28.703  1.00  0.00     0.031 C 
ATOM     41  C   UNL A   1      39.281  34.311  30.792  1.00  0.00     0.029 A 
ATOM     42  C   UNL A   1      38.876  32.916  30.742  1.00  0.00     0.049 A 
ATOM     43  H   UNL A   1      40.134  31.293  30.228  1.00  0.00     0.167 HD
ATOM     44  C   UNL A   1      43.659  28.250  28.593  1.00  0.00     0.034 A 
ATOM     45  C   UNL A   1      37.642  32.384  31.022  1.00  0.00     0.034 A 
ATOM     46  C   UNL A   1      42.282  27.912  28.730  1.00  0.00     0.049 A 
ATOM     47  C   UNL A   1      37.816  30.927  31.012  1.00  0.00     0.074 A 
ATOM     48  C   UNL A   1      41.215  27.934  27.878  1.00  0.00     0.029 A 
ATOM     49  N   UNL A   1      41.844  27.781  30.026  1.00  0.00    -0.354 N 
ATOM     50  N   UNL A   1      38.407  30.258  31.956  1.00  0.00    -0.248 NA
ATOM     51  C   UNL A   1      37.362  30.153  29.851  1.00  0.00     0.031 C 
ATOM     52  C   UNL A   1      40.124  28.217  28.724  1.00  0.00     0.029 A 
ATOM     53  C   UNL A   1      40.543  28.199  30.062  1.00  0.00     0.049 A 
ATOM     54  H   UNL A   1      42.371  27.446  30.789  1.00  0.00     0.167 HD
ATOM     55  C   UNL A   1      38.731  29.093  31.310  1.00  0.00     0.074 A 
ATOM     56  C   UNL A   1      37.786  28.949  30.228  1.00  0.00     0.031 C 
ATOM     57  C   UNL A   1      40.025  28.677  31.322  1.00  0.00     0.034 A 
BRANCH  44  58
ATOM     58  C   UNL A   1      44.625  27.093  28.774  1.00  0.00     0.023 A 
ATOM     59  C   UNL A   1      45.066  26.876  30.115  1.00  0.00     0.012 A 
ATOM     60  C   UNL A   1      45.339  26.438  27.758  1.00  0.00     0.148 A 
ATOM     61  C   UNL A   1      46.229  26.174  30.423  1.00  0.00     0.002 A 
ATOM     62  C   UNL A   1      46.475  25.682  28.079  1.00  0.00     0.091 A 
ATOM     63  F   UNL A   1      44.981  26.608  26.482  1.00  0.00    -0.205 F 
ATOM     64  C   UNL A   1      46.944  25.587  29.398  1.00  0.00     0.022 A 
BRANCH  62  65
ATOM     65  S   UNL A   1      47.424  24.786  26.842  1.00  0.00     0.127 S 
ATOM     66  O   UNL A   1      46.579  23.622  26.593  1.00  0.00    -0.237 OA
ATOM     67  O   UNL A   1      47.471  25.748  25.738  1.00  0.00    -0.237 OA
ATOM     68  O   UNL A   1      48.721  24.534  27.458  1.00  0.00    -0.744 OA
ENDBRANCH  62  65
ENDBRANCH  44  58
BRANCH  45  69
ATOM     69  C   UNL A   1      36.233  32.887  31.266  1.00  0.00     0.023 A 
ATOM     70  C   UNL A   1      35.626  32.957  32.528  1.00  0.00     0.012 A 
ATOM     71  C   UNL A   1      35.461  33.416  30.183  1.00  0.00     0.148 A 
ATOM     72  C   UNL A   1      34.385  33.605  32.711  1.00  0.00     0.002 A 
ATOM     73  C   UNL A   1      34.305  34.163  30.381  1.00  0.00     0.091 A 
ATOM     74  F   UNL A   1      35.822  33.169  28.921  1.00  0.00    -0.205 F 
ATOM     75  C   UNL A   1      33.750  34.250  31.652  1.00  0.00     0.022 A 
BRANCH  73  76
ATOM     76  S   UNL A   1      33.581  35.159  29.060  1.00  0.00     0.127 S 
ATOM     77  O   UNL A   1      34.759  35.579  28.303  1.00  0.00    -0.237 OA
ATOM     78  O   UNL A   1      32.736  34.176  28.385  1.00  0.00    -0.237 OA
ATOM     79  O   UNL A   1      32.850  36.240  29.711  1.00  0.00    -0.744 OA
ENDBRANCH  73  76
ENDBRANCH  45  69
BRANCH  57  80
ATOM     80  C   UNL A   1      40.824  29.141  32.544  1.00  0.00     0.023 A 
ATOM     81  C   UNL A   1      41.519  30.363  32.434  1.00  0.00     0.012 A 
ATOM     82  C   UNL A   1      41.035  28.387  33.724  1.00  0.00     0.148 A 
ATOM     83  C   UNL A   1      42.407  30.800  33.423  1.00  0.00     0.002 A 
ATOM     84  C   UNL A   1      41.931  28.816  34.710  1.00  0.00     0.091 A 
ATOM     85  F   UNL A   1      40.372  27.243  33.876  1.00  0.00    -0.205 F 
ATOM     86  C   UNL A   1      42.617  30.027  34.557  1.00  0.00     0.022 A 
BRANCH  84  87
ATOM     87  S   UNL A   1      42.325  27.871  36.198  1.00  0.00     0.127 S 
ATOM     88  O   UNL A   1      43.197  28.786  36.936  1.00  0.00    -0.237 OA
ATOM     89  O   UNL A   1      41.009  27.683  36.804  1.00  0.00    -0.237 OA
ATOM     90  O   UNL A   1      42.983  26.647  35.758  1.00  0.00    -0.744 OA
ENDBRANCH  84  87
ENDBRANCH  57  80
ENDBRANCH  31  32
ENDBRANCH  23  26
ENDBRANCH  21  22
ENDBRANCH  20  21
ENDBRANCH  19  20
ENDBRANCH   1  19
TORSDOF 20
ENDMDL
MODEL 2
REMARK VINA RESULT:      -9.5      2.897      3.999
REMARK SMILES CCCC[C@H](CC)Cn1ccc(C(=O)NCCCCNC(=O)c2ccc(-c3c4nc(c(-c5cccc(S(=O)(=O)[O-])c5F)c5ccc([nH]5)c(-c5cccc(S(=O)(=O)[O-])c5F)c5nc(c(-c6cccc(S(=O)(=O)[O-])c6F)c6ccc3[nH]6)C=C5)C=C4)cc2)c1
REMARK SMILES IDX 16 1 15 2 13 3 14 4 12 6 9 7 10 8 86 9 11 10 8 11 5 12 4 13
REMARK SMILES IDX 3 14 2 15 1 16 6 17 7 18 17 19 18 20 19 21 20 22 21 23 22 25
REMARK SMILES IDX 23 26 24 27 85 28 25 29 84 30 26 31 27 32 28 33 78 34 29 35
REMARK SMILES IDX 83 36 77 37 79 38 30 39 82 40 76 41 75 42 31 44 63 45 43 46
REMARK SMILES IDX 62 47 44 48 47 49 61 50 80 51 45 52 46 53 60 55 81 56 48 57
REMARK SMILES IDX 32 58 33 59 41 60 34 61 36 62 42 63 35 64 37 65 38 66 39 67
REMARK SMILES IDX 40 68 64 69 65 70 73 71 66 72 68 73 74 74 67 75 69 76 70 77
REMARK SMILES IDX 71 78 72 79 49 80 50 81 58 82 51 83 53 84 59 85 52 86 54 87
REMARK SMILES IDX 55 88 56 89 57 90
REMARK H PARENT 15 5 20 24 79 43 47 54
REMARK Flexibility Score: inf
ROOT
ATOM      1  C   UNL A   1      42.187  41.422  31.706  1.00  0.00     0.116 C 
ENDROOT
BRANCH   1   2
ATOM      2  N   UNL A   1      42.391  42.843  31.904  1.00  0.00    -0.352 N 
ATOM      3  C   UNL A   1      43.336  43.724  31.429  1.00  0.00     0.252 C 
ATOM      4  O   UNL A   1      43.245  44.892  31.764  1.00  0.00    -0.269 OA
ATOM      5  H   UNL A   1      41.723  43.260  32.495  1.00  0.00     0.163 HD
BRANCH   3   6
ATOM      6  C   UNL A   1      44.390  43.291  30.505  1.00  0.00     0.057 A 
ATOM      7  N   UNL A   1      45.584  42.678  28.707  1.00  0.00    -0.353 N 
ATOM      8  C   UNL A   1      46.494  42.967  29.682  1.00  0.00     0.086 A 
ATOM      9  C   UNL A   1      44.314  42.761  29.231  1.00  0.00     0.099 A 
ATOM     10  C   UNL A   1      45.790  43.331  30.809  1.00  0.00     0.033 A 
BRANCH   7  11
ATOM     11  C   UNL A   1      45.841  42.554  27.281  1.00  0.00     0.125 C 
BRANCH  11  12
ATOM     12  C   UNL A   1      44.696  42.845  26.299  1.00  0.00     0.008 C 
BRANCH  12  13
ATOM     13  C   UNL A   1      44.299  41.613  25.433  1.00  0.00     0.005 C 
BRANCH  13  14
ATOM     14  C   UNL A   1      43.832  40.327  26.139  1.00  0.00     0.000 C 
BRANCH  14  15
ATOM     15  C   UNL A   1      42.332  40.195  26.453  1.00  0.00    -0.003 C 
ATOM     16  C   UNL A   1      41.963  38.967  27.270  1.00  0.00     0.004 C 
ENDBRANCH  14  15
ENDBRANCH  13  14
ENDBRANCH  12  13
BRANCH  12  17
ATOM     17  C   UNL A   1      44.926  44.117  25.451  1.00  0.00     0.002 C 
ATOM     18  C   UNL A   1      45.684  45.243  26.135  1.00  0.00     0.004 C 
ENDBRANCH  12  17
ENDBRANCH  11  12
ENDBRANCH   7  11
ENDBRANCH   3   6
ENDBRANCH   1   2
BRANCH   1  19
ATOM     19  C   UNL A   1      42.960  40.612  32.750  1.00  0.00     0.023 C 
BRANCH  19  20
ATOM     20  C   UNL A   1      43.837  39.503  32.144  1.00  0.00     0.023 C 
BRANCH  20  21
ATOM     21  C   UNL A   1      43.569  39.238  30.658  1.00  0.00     0.116 C 
BRANCH  21  22
ATOM     22  N   UNL A   1      44.817  39.060  29.929  1.00  0.00    -0.352 N 
ATOM     23  C   UNL A   1      45.433  37.910  29.504  1.00  0.00     0.251 C 
ATOM     24  H   UNL A   1      45.292  39.893  29.706  1.00  0.00     0.163 HD
ATOM     25  O   UNL A   1      46.624  37.957  29.198  1.00  0.00    -0.269 OA
BRANCH  23  26
ATOM     26  C   UNL A   1      44.714  36.620  29.434  1.00  0.00     0.039 A 
ATOM     27  C   UNL A   1      44.752  35.790  30.563  1.00  0.00     0.014 A 
ATOM     28  C   UNL A   1      44.078  36.188  28.267  1.00  0.00     0.014 A 
ATOM     29  C   UNL A   1      44.083  34.567  30.550  1.00  0.00     0.010 A 
ATOM     30  C   UNL A   1      43.405  34.966  28.253  1.00  0.00     0.010 A 
ATOM     31  C   UNL A   1      43.379  34.169  29.406  1.00  0.00    -0.014 A 
BRANCH  31  32
ATOM     32  C   UNL A   1      42.441  33.018  29.512  1.00  0.00     0.031 A 
ATOM     33  C   UNL A   1      43.079  31.715  28.972  1.00  0.00     0.074 A 
ATOM     34  C   UNL A   1      41.195  33.259  30.023  1.00  0.00     0.049 A 
ATOM     35  N   UNL A   1      42.530  30.681  28.401  1.00  0.00    -0.248 NA
ATOM     36  C   UNL A   1      44.564  31.592  28.964  1.00  0.00     0.031 C 
ATOM     37  C   UNL A   1      40.743  34.570  30.537  1.00  0.00     0.029 A 
ATOM     38  N   UNL A   1      40.062  32.486  30.226  1.00  0.00    -0.354 N 
ATOM     39  C   UNL A   1      43.555  29.715  28.219  1.00  0.00     0.074 A 
ATOM     40  C   UNL A   1      44.794  30.394  28.423  1.00  0.00     0.031 C 
ATOM     41  C   UNL A   1      39.448  34.524  30.917  1.00  0.00     0.029 A 
ATOM     42  C   UNL A   1      38.927  33.181  30.722  1.00  0.00     0.049 A 
ATOM     43  H   UNL A   1      40.047  31.520  30.040  1.00  0.00     0.167 HD
ATOM     44  C   UNL A   1      43.313  28.375  28.090  1.00  0.00     0.034 A 
ATOM     45  C   UNL A   1      37.651  32.730  30.947  1.00  0.00     0.034 A 
ATOM     46  C   UNL A   1      41.912  28.143  28.194  1.00  0.00     0.049 A 
ATOM     47  C   UNL A   1      37.700  31.273  30.785  1.00  0.00     0.074 A 
ATOM     48  C   UNL A   1      40.856  28.344  27.350  1.00  0.00     0.029 A 
ATOM     49  N   UNL A   1      41.455  27.915  29.469  1.00  0.00    -0.354 N 
ATOM     50  N   UNL A   1      38.226  30.462  31.653  1.00  0.00    -0.248 NA
ATOM     51  C   UNL A   1      37.191  30.665  29.550  1.00  0.00     0.031 C 
ATOM     52  C   UNL A   1      39.787  28.629  28.223  1.00  0.00     0.029 A 
ATOM     53  C   UNL A   1      40.194  28.436  29.551  1.00  0.00     0.049 A 
ATOM     54  H   UNL A   1      41.946  27.459  30.192  1.00  0.00     0.167 HD
ATOM     55  C   UNL A   1      38.454  29.346  30.889  1.00  0.00     0.074 A 
ATOM     56  C   UNL A   1      37.508  29.397  29.798  1.00  0.00     0.031 C 
ATOM     57  C   UNL A   1      39.708  28.823  30.854  1.00  0.00     0.034 A 
BRANCH  44  58
ATOM     58  C   UNL A   1      44.176  27.128  28.148  1.00  0.00     0.023 A 
ATOM     59  C   UNL A   1      44.516  26.686  29.463  1.00  0.00     0.012 A 
ATOM     60  C   UNL A   1      44.900  26.566  27.083  1.00  0.00     0.148 A 
ATOM     61  C   UNL A   1      45.602  25.853  29.722  1.00  0.00     0.002 A 
ATOM     62  C   UNL A   1      45.954  25.680  27.346  1.00  0.00     0.091 A 
ATOM     63  F   UNL A   1      44.635  26.945  25.830  1.00  0.00    -0.205 F 
ATOM     64  C   UNL A   1      46.332  25.360  28.659  1.00  0.00     0.022 A 
BRANCH  62  65
ATOM     65  S   UNL A   1      46.907  24.893  26.041  1.00  0.00     0.127 S 
ATOM     66  O   UNL A   1      47.415  26.043  25.299  1.00  0.00    -0.237 OA
ATOM     67  O   UNL A   1      47.925  24.165  26.803  1.00  0.00    -0.237 OA
ATOM     68  O   UNL A   1      45.965  24.027  25.343  1.00  0.00    -0.744 OA
ENDBRANCH  62  65
ENDBRANCH  44  58
BRANCH  45  69
ATOM     69  C   UNL A   1      36.288  33.323  31.245  1.00  0.00     0.023 A 
ATOM     70  C   UNL A   1      35.793  33.561  32.535  1.00  0.00     0.012 A 
ATOM     71  C   UNL A   1      35.446  33.765  30.174  1.00  0.00     0.148 A 
ATOM     72  C   UNL A   1      34.598  34.283  32.742  1.00  0.00     0.002 A 
ATOM     73  C   UNL A   1      34.341  34.582  30.378  1.00  0.00     0.091 A 
ATOM     74  F   UNL A   1      35.690  33.362  28.924  1.00  0.00    -0.205 F 
ATOM     75  C   UNL A   1      33.899  34.836  31.671  1.00  0.00     0.022 A 
BRANCH  73  76
ATOM     76  S   UNL A   1      33.545  35.460  29.014  1.00  0.00     0.127 S 
ATOM     77  O   UNL A   1      32.980  36.631  29.683  1.00  0.00    -0.237 OA
ATOM     78  O   UNL A   1      34.686  35.740  28.145  1.00  0.00    -0.237 OA
ATOM     79  O   UNL A   1      32.564  34.542  28.448  1.00  0.00    -0.744 OA
ENDBRANCH  73  76
ENDBRANCH  45  69
BRANCH  57  80
ATOM     80  C   UNL A   1      40.535  29.088  32.117  1.00  0.00     0.023 A 
ATOM     81  C   UNL A   1      41.391  30.208  32.105  1.00  0.00     0.012 A 
ATOM     82  C   UNL A   1      40.616  28.231  33.242  1.00  0.00     0.148 A 
ATOM     83  C   UNL A   1      42.307  30.450  33.133  1.00  0.00     0.002 A 
ATOM     84  C   UNL A   1      41.539  28.465  34.268  1.00  0.00     0.091 A 
ATOM     85  F   UNL A   1      39.801  27.181  33.303  1.00  0.00    -0.205 F 
ATOM     86  C   UNL A   1      42.385  29.578  34.212  1.00  0.00     0.022 A 
BRANCH  84  87
ATOM     87  S   UNL A   1      41.768  27.373  35.689  1.00  0.00     0.127 S 
ATOM     88  O   UNL A   1      43.225  27.256  35.769  1.00  0.00    -0.237 OA
ATOM     89  O   UNL A   1      41.172  28.148  36.775  1.00  0.00    -0.237 OA
ATOM     90  O   UNL A   1      41.087  26.124  35.375  1.00  0.00    -0.744 OA
ENDBRANCH  84  87
ENDBRANCH  57  80
ENDBRANCH  31  32
ENDBRANCH  23  26
ENDBRANCH  21  22
ENDBRANCH  20  21
ENDBRANCH  19  20
ENDBRANCH   1  19
TORSDOF 20
ENDMDL
MODEL 3
REMARK VINA RESULT:      -9.5      7.634     12.756
REMARK SMILES CCCC[C@H](CC)Cn1ccc(C(=O)NCCCCNC(=O)c2ccc(-c3c4nc(c(-c5cccc(S(=O)(=O)[O-])c5F)c5ccc([nH]5)c(-c5cccc(S(=O)(=O)[O-])c5F)c5nc(c(-c6cccc(S(=O)(=O)[O-])c6F)c6ccc3[nH]6)C=C5)C=C4)cc2)c1
REMARK SMILES IDX 16 1 15 2 13 3 14 4 12 6 9 7 10 8 86 9 11 10 8 11 5 12 4 13
REMARK SMILES IDX 3 14 2 15 1 16 6 17 7 18 17 19 18 20 19 21 20 22 21 23 22 25
REMARK SMILES IDX 23 26 24 27 85 28 25 29 84 30 26 31 27 32 28 33 78 34 29 35
REMARK SMILES IDX 83 36 77 37 79 38 30 39 82 40 76 41 75 42 31 44 63 45 43 46
REMARK SMILES IDX 62 47 44 48 47 49 61 50 80 51 45 52 46 53 60 55 81 56 48 57
REMARK SMILES IDX 32 58 33 59 41 60 34 61 36 62 42 63 35 64 37 65 38 66 39 67
REMARK SMILES IDX 40 68 64 69 65 70 73 71 66 72 68 73 74 74 67 75 69 76 70 77
REMARK SMILES IDX 71 78 72 79 49 80 50 81 58 82 51 83 53 84 59 85 52 86 54 87
REMARK SMILES IDX 55 88 56 89 57 90
REMARK H PARENT 15 5 20 24 79 43 47 54
REMARK Flexibility Score: inf
ROOT
ATOM      1  C   UNL A   1      35.452  34.653  33.952  1.00  0.00     0.116 C 
ENDROOT
BRANCH   1   2
ATOM      2  N   UNL A   1      36.072  33.352  33.805  1.00  0.00    -0.352 N 
ATOM      3  C   UNL A   1      37.040  32.694  34.531  1.00  0.00     0.252 C 
ATOM      4  O   UNL A   1      37.362  31.576  34.168  1.00  0.00    -0.269 OA
ATOM      5  H   UNL A   1      35.737  32.838  33.036  1.00  0.00     0.163 HD
BRANCH   3   6
ATOM      6  C   UNL A   1      37.632  33.289  35.734  1.00  0.00     0.057 A 
ATOM      7  N   UNL A   1      38.127  33.900  37.835  1.00  0.00    -0.353 N 
ATOM      8  C   UNL A   1      39.214  34.233  37.080  1.00  0.00     0.086 A 
ATOM      9  C   UNL A   1      37.126  33.436  37.012  1.00  0.00     0.099 A 
ATOM     10  C   UNL A   1      38.934  33.885  35.777  1.00  0.00     0.033 A 
BRANCH   7  11
ATOM     11  C   UNL A   1      38.072  33.785  39.283  1.00  0.00     0.125 C 
BRANCH  11  12
ATOM     12  C   UNL A   1      38.522  32.468  39.935  1.00  0.00     0.008 C 
BRANCH  12  13
ATOM     13  C   UNL A   1      37.337  31.582  40.419  1.00  0.00     0.005 C 
BRANCH  13  14
ATOM     14  C   UNL A   1      36.468  32.078  41.591  1.00  0.00     0.000 C 
BRANCH  14  15
ATOM     15  C   UNL A   1      35.217  32.903  41.244  1.00  0.00    -0.003 C 
ATOM     16  C   UNL A   1      34.697  32.697  39.831  1.00  0.00     0.004 C 
ENDBRANCH  14  15
ENDBRANCH  13  14
ENDBRANCH  12  13
BRANCH  12  17
ATOM     17  C   UNL A   1      39.601  32.663  41.026  1.00  0.00     0.002 C 
ATOM     18  C   UNL A   1      40.504  33.875  40.857  1.00  0.00     0.004 C 
ENDBRANCH  12  17
ENDBRANCH  11  12
ENDBRANCH   7  11
ENDBRANCH   3   6
ENDBRANCH   1   2
BRANCH   1  19
ATOM     19  C   UNL A   1      35.228  35.306  32.585  1.00  0.00     0.023 C 
BRANCH  19  20
ATOM     20  C   UNL A   1      33.859  34.981  31.965  1.00  0.00     0.023 C 
BRANCH  20  21
ATOM     21  C   UNL A   1      33.686  35.498  30.531  1.00  0.00     0.116 C 
BRANCH  21  22
ATOM     22  N   UNL A   1      33.251  34.428  29.643  1.00  0.00    -0.352 N 
ATOM     23  C   UNL A   1      33.989  33.496  28.959  1.00  0.00     0.251 C 
ATOM     24  H   UNL A   1      32.278  34.364  29.514  1.00  0.00     0.163 HD
ATOM     25  O   UNL A   1      33.462  32.897  28.022  1.00  0.00    -0.269 OA
BRANCH  23  26
ATOM     26  C   UNL A   1      35.401  33.217  29.298  1.00  0.00     0.039 A 
ATOM     27  C   UNL A   1      35.656  32.310  30.336  1.00  0.00     0.014 A 
ATOM     28  C   UNL A   1      36.459  33.882  28.673  1.00  0.00     0.014 A 
ATOM     29  C   UNL A   1      36.970  32.008  30.689  1.00  0.00     0.010 A 
ATOM     30  C   UNL A   1      37.775  33.578  29.022  1.00  0.00     0.010 A 
ATOM     31  C   UNL A   1      38.032  32.616  30.008  1.00  0.00    -0.014 A 
BRANCH  31  32
ATOM     32  C   UNL A   1      39.403  32.067  30.194  1.00  0.00     0.031 A 
ATOM     33  C   UNL A   1      40.283  33.014  31.046  1.00  0.00     0.074 A 
ATOM     34  C   UNL A   1      39.696  30.871  29.596  1.00  0.00     0.049 A 
ATOM     35  N   UNL A   1      41.568  33.222  31.020  1.00  0.00    -0.248 NA
ATOM     36  C   UNL A   1      39.618  33.955  31.990  1.00  0.00     0.031 C 
ATOM     37  C   UNL A   1      38.722  30.059  28.835  1.00  0.00     0.029 A 
ATOM     38  N   UNL A   1      40.835  30.088  29.496  1.00  0.00    -0.354 N 
ATOM     39  C   UNL A   1      41.869  34.098  32.097  1.00  0.00     0.074 A 
ATOM     40  C   UNL A   1      40.624  34.640  32.539  1.00  0.00     0.031 C 
ATOM     41  C   UNL A   1      39.310  28.964  28.306  1.00  0.00     0.029 A 
ATOM     42  C   UNL A   1      40.712  28.927  28.687  1.00  0.00     0.049 A 
ATOM     43  H   UNL A   1      41.674  30.321  29.957  1.00  0.00     0.167 HD
ATOM     44  C   UNL A   1      43.105  34.183  32.677  1.00  0.00     0.034 A 
ATOM     45  C   UNL A   1      41.662  28.006  28.324  1.00  0.00     0.034 A 
ATOM     46  C   UNL A   1      43.981  33.256  32.044  1.00  0.00     0.049 A 
ATOM     47  C   UNL A   1      42.851  28.310  29.127  1.00  0.00     0.074 A 
ATOM     48  C   UNL A   1      44.624  33.235  30.839  1.00  0.00     0.029 A 
ATOM     49  N   UNL A   1      44.006  32.003  32.609  1.00  0.00    -0.354 N 
ATOM     50  N   UNL A   1      42.962  28.044  30.394  1.00  0.00    -0.248 NA
ATOM     51  C   UNL A   1      43.980  29.015  28.508  1.00  0.00     0.031 C 
ATOM     52  C   UNL A   1      44.678  31.865  30.518  1.00  0.00     0.029 A 
ATOM     53  C   UNL A   1      44.214  31.104  31.601  1.00  0.00     0.049 A 
ATOM     54  H   UNL A   1      43.895  31.793  33.565  1.00  0.00     0.167 HD
ATOM     55  C   UNL A   1      43.971  28.892  30.769  1.00  0.00     0.074 A 
ATOM     56  C   UNL A   1      44.754  29.147  29.582  1.00  0.00     0.031 C 
ATOM     57  C   UNL A   1      43.754  29.751  31.801  1.00  0.00     0.034 A 
BRANCH  44  58
ATOM     58  C   UNL A   1      43.639  34.800  33.956  1.00  0.00     0.023 A 
ATOM     59  C   UNL A   1      44.815  35.598  33.800  1.00  0.00     0.012 A 
ATOM     60  C   UNL A   1      43.293  34.433  35.267  1.00  0.00     0.148 A 
ATOM     61  C   UNL A   1      45.675  35.890  34.855  1.00  0.00     0.002 A 
ATOM     62  C   UNL A   1      44.131  34.781  36.334  1.00  0.00     0.091 A 
ATOM     63  F   UNL A   1      42.209  33.680  35.478  1.00  0.00    -0.205 F 
ATOM     64  C   UNL A   1      45.337  35.467  36.126  1.00  0.00     0.022 A 
BRANCH  62  65
ATOM     65  S   UNL A   1      43.743  34.379  38.043  1.00  0.00     0.127 S 
ATOM     66  O   UNL A   1      44.856  34.991  38.761  1.00  0.00    -0.237 OA
ATOM     67  O   UNL A   1      42.456  35.054  38.231  1.00  0.00    -0.237 OA
ATOM     68  O   UNL A   1      43.655  32.925  38.087  1.00  0.00    -0.744 OA
ENDBRANCH  62  65
ENDBRANCH  44  58
BRANCH  45  69
ATOM     69  C   UNL A   1      41.798  26.868  27.331  1.00  0.00     0.023 A 
ATOM     70  C   UNL A   1      42.359  26.995  26.053  1.00  0.00     0.012 A 
ATOM     71  C   UNL A   1      41.424  25.538  27.707  1.00  0.00     0.148 A 
ATOM     72  C   UNL A   1      42.625  25.865  25.251  1.00  0.00     0.002 A 
ATOM     73  C   UNL A   1      41.800  24.418  26.975  1.00  0.00     0.091 A 
ATOM     74  F   UNL A   1      40.653  25.339  28.780  1.00  0.00    -0.205 F 
ATOM     75  C   UNL A   1      42.394  24.576  25.729  1.00  0.00     0.022 A 
BRANCH  73  76
ATOM     76  S   UNL A   1      41.685  22.752  27.663  1.00  0.00     0.127 S 
ATOM     77  O   UNL A   1      42.265  22.922  28.994  1.00  0.00    -0.237 OA
ATOM     78  O   UNL A   1      40.240  22.531  27.646  1.00  0.00    -0.237 OA
ATOM     79  O   UNL A   1      42.440  21.882  26.769  1.00  0.00    -0.744 OA
ENDBRANCH  73  76
ENDBRANCH  45  69
BRANCH  57  80
ATOM     80  C   UNL A   1      42.727  29.255  32.825  1.00  0.00     0.023 A 
ATOM     81  C   UNL A   1      41.423  29.788  32.741  1.00  0.00     0.012 A 
ATOM     82  C   UNL A   1      43.006  28.415  33.929  1.00  0.00     0.148 A 
ATOM     83  C   UNL A   1      40.457  29.533  33.718  1.00  0.00     0.002 A 
ATOM     84  C   UNL A   1      42.043  28.166  34.915  1.00  0.00     0.091 A 
ATOM     85  F   UNL A   1      44.216  27.870  34.025  1.00  0.00    -0.205 F 
ATOM     86  C   UNL A   1      40.766  28.727  34.807  1.00  0.00     0.022 A 
BRANCH  84  87
ATOM     87  S   UNL A   1      42.348  27.182  36.399  1.00  0.00     0.127 S 
ATOM     88  O   UNL A   1      43.350  27.979  37.109  1.00  0.00    -0.237 OA
ATOM     89  O   UNL A   1      41.034  27.170  37.038  1.00  0.00    -0.237 OA
ATOM     90  O   UNL A   1      42.829  25.882  35.951  1.00  0.00    -0.744 OA
ENDBRANCH  84  87
ENDBRANCH  57  80
ENDBRANCH  31  32
ENDBRANCH  23  26
ENDBRANCH  21  22
ENDBRANCH  20  21
ENDBRANCH  19  20
ENDBRANCH   1  19
TORSDOF 20
ENDMDL
