MODEL 1
REMARK VINA RESULT:     -12.0      0.000      0.000
REMARK SMILES C[C@H]1[C@H](C(=O)NCCCCNC(=O)c2ccc(-c3c4nc(c(-c5cccc(S(=O)(=O)[O-])c5F)c5ccc([nH]5)c(-c5cccc(S(=O)(=O)[O-])c5F)c5nc(c(-c6cccc(S(=O)(=O)[O-])c6F)c6ccc3[nH]6)C=C5)C=C4)cc2)CC[N@@H+]1CC(=O)N1CCCC1
REMARK SMILES IDX 9 1 8 2 7 3 6 4 4 5 5 6 3 8 1 9 2 10 79 11 77 12 78 13 80 15
REMARK SMILES IDX 81 16 82 17 83 18 84 19 87 20 85 21 86 22 10 23 11 24 12 25
REMARK SMILES IDX 13 27 14 28 15 29 76 30 16 31 75 32 17 33 18 34 19 35 69 36
REMARK SMILES IDX 20 37 74 38 68 39 70 40 21 41 73 42 67 43 66 44 22 46 54 47
REMARK SMILES IDX 34 48 53 49 35 50 38 51 52 52 71 53 36 54 37 55 51 57 72 58
REMARK SMILES IDX 39 59 23 60 24 61 32 62 25 63 27 64 33 65 26 66 28 67 29 68
REMARK SMILES IDX 30 69 31 70 55 71 56 72 64 73 57 74 59 75 65 76 58 77 60 78
REMARK SMILES IDX 61 79 62 80 63 81 40 82 41 83 49 84 42 85 44 86 50 87 43 88
REMARK SMILES IDX 45 89 46 90 47 91 48 92
REMARK H PARENT 6 7 79 14 11 26 70 45 38 56
REMARK Flexibility Score: inf
ROOT
ATOM      1  C   UNL A   1      32.290  28.250  26.204  1.00  0.00     0.023 C 
ENDROOT
BRANCH   1   2
ATOM      2  C   UNL A   1      31.319  27.978  25.073  1.00  0.00     0.023 C 
BRANCH   2   3
ATOM      3  C   UNL A   1      30.426  26.703  24.998  1.00  0.00     0.116 C 
BRANCH   3   4
ATOM      4  N   UNL A   1      30.682  25.565  25.901  1.00  0.00    -0.356 N 
ATOM      5  C   UNL A   1      31.712  24.752  26.275  1.00  0.00     0.229 C 
ATOM      6  O   UNL A   1      31.440  24.057  27.273  1.00  0.00    -0.275 OA
ATOM      7  H   UNL A   1      29.859  25.317  26.381  1.00  0.00     0.163 HD
BRANCH   5   8
ATOM      8  C   UNL A   1      33.110  24.489  25.647  1.00  0.00     0.142 C 
ATOM      9  C   UNL A   1      35.149  23.164  26.693  1.00  0.00     0.076 C 
ATOM     10  C   UNL A   1      33.754  23.153  26.064  1.00  0.00     0.194 C 
ATOM     11  N   UNL A   1      33.939  22.338  24.852  1.00  0.00    -0.324 N 
ATOM     12  C   UNL A   1      33.293  24.576  24.155  1.00  0.00     0.081 C 
ATOM     13  C   UNL A   1      33.578  23.154  23.682  1.00  0.00     0.263 C 
ATOM     14  H   UNL A   1      34.915  22.073  24.724  1.00  0.00     0.348 HD
BRANCH  11  15
ATOM     15  C   UNL A   1      33.244  21.030  24.972  1.00  0.00     0.364 C 
BRANCH  15  16
ATOM     16  C   UNL A   1      34.264  19.910  24.909  1.00  0.00     0.277 C 
ATOM     17  O   UNL A   1      35.415  20.315  24.787  1.00  0.00    -0.268 OA
ATOM     18  N   UNL A   1      33.844  18.588  24.816  1.00  0.00    -0.338 N 
ATOM     19  C   UNL A   1      32.571  18.065  25.260  1.00  0.00     0.119 C 
ATOM     20  C   UNL A   1      34.533  17.527  24.099  1.00  0.00     0.119 C 
ATOM     21  C   UNL A   1      32.708  16.536  25.214  1.00  0.00     0.023 C 
ATOM     22  C   UNL A   1      34.142  16.251  24.794  1.00  0.00     0.023 C 
ENDBRANCH  15  16
ENDBRANCH  11  15
ENDBRANCH   5   8
ENDBRANCH   3   4
ENDBRANCH   2   3
ENDBRANCH   1   2
BRANCH   1  23
ATOM     23  C   UNL A   1      33.299  29.303  25.884  1.00  0.00     0.116 C 
BRANCH  23  24
ATOM     24  N   UNL A   1      32.844  30.643  26.259  1.00  0.00    -0.352 N 
ATOM     25  C   UNL A   1      33.394  31.483  27.195  1.00  0.00     0.251 C 
ATOM     26  H   UNL A   1      32.050  30.982  25.784  1.00  0.00     0.163 HD
ATOM     27  O   UNL A   1      32.811  32.496  27.574  1.00  0.00    -0.269 OA
BRANCH  25  28
ATOM     28  C   UNL A   1      34.709  31.106  27.736  1.00  0.00     0.039 A 
ATOM     29  C   UNL A   1      35.719  32.057  27.868  1.00  0.00     0.014 A 
ATOM     30  C   UNL A   1      34.849  29.822  28.263  1.00  0.00     0.014 A 
ATOM     31  C   UNL A   1      36.867  31.714  28.576  1.00  0.00     0.010 A 
ATOM     32  C   UNL A   1      35.887  29.563  29.131  1.00  0.00     0.010 A 
ATOM     33  C   UNL A   1      36.945  30.472  29.229  1.00  0.00    -0.014 A 
BRANCH  33  34
ATOM     34  C   UNL A   1      38.169  30.021  29.923  1.00  0.00     0.031 A 
ATOM     35  C   UNL A   1      38.431  30.534  31.318  1.00  0.00     0.074 A 
ATOM     36  C   UNL A   1      39.059  29.239  29.287  1.00  0.00     0.049 A 
ATOM     37  N   UNL A   1      39.467  30.336  32.087  1.00  0.00    -0.248 NA
ATOM     38  C   UNL A   1      37.424  31.441  31.907  1.00  0.00     0.031 C 
ATOM     39  C   UNL A   1      38.952  28.775  27.901  1.00  0.00     0.029 A 
ATOM     40  N   UNL A   1      40.243  28.706  29.724  1.00  0.00    -0.354 N 
ATOM     41  C   UNL A   1      39.256  31.131  33.207  1.00  0.00     0.074 A 
ATOM     42  C   UNL A   1      38.045  31.880  32.988  1.00  0.00     0.031 C 
ATOM     43  C   UNL A   1      40.010  28.000  27.614  1.00  0.00     0.029 A 
ATOM     44  C   UNL A   1      40.882  27.936  28.782  1.00  0.00     0.049 A 
ATOM     45  H   UNL A   1      40.601  28.860  30.628  1.00  0.00     0.167 HD
ATOM     46  C   UNL A   1      39.974  31.189  34.350  1.00  0.00     0.034 A 
ATOM     47  C   UNL A   1      42.040  27.254  28.866  1.00  0.00     0.034 A 
ATOM     48  C   UNL A   1      41.126  30.372  34.589  1.00  0.00     0.049 A 
ATOM     49  C   UNL A   1      42.781  27.269  30.177  1.00  0.00     0.074 A 
ATOM     50  C   UNL A   1      41.875  30.255  35.742  1.00  0.00     0.029 A 
ATOM     51  N   UNL A   1      41.688  29.523  33.648  1.00  0.00    -0.354 N 
ATOM     52  N   UNL A   1      42.481  27.900  31.288  1.00  0.00    -0.248 NA
ATOM     53  C   UNL A   1      43.997  26.449  30.260  1.00  0.00     0.031 C 
ATOM     54  C   UNL A   1      42.913  29.353  35.488  1.00  0.00     0.029 A 
ATOM     55  C   UNL A   1      42.786  28.883  34.189  1.00  0.00     0.049 A 
ATOM     56  H   UNL A   1      41.355  29.396  32.731  1.00  0.00     0.167 HD
ATOM     57  C   UNL A   1      43.449  27.527  32.213  1.00  0.00     0.074 A 
ATOM     58  C   UNL A   1      44.331  26.597  31.535  1.00  0.00     0.031 C 
ATOM     59  C   UNL A   1      43.609  27.925  33.499  1.00  0.00     0.034 A 
BRANCH  46  60
ATOM     60  C   UNL A   1      39.489  32.115  35.435  1.00  0.00     0.023 A 
ATOM     61  C   UNL A   1      38.580  31.646  36.407  1.00  0.00     0.012 A 
ATOM     62  C   UNL A   1      39.948  33.443  35.504  1.00  0.00     0.148 A 
ATOM     63  C   UNL A   1      38.100  32.496  37.402  1.00  0.00     0.002 A 
ATOM     64  C   UNL A   1      39.508  34.268  36.532  1.00  0.00     0.091 A 
ATOM     65  F   UNL A   1      40.788  33.880  34.556  1.00  0.00    -0.205 F 
ATOM     66  C   UNL A   1      38.573  33.802  37.472  1.00  0.00     0.022 A 
BRANCH  64  67
ATOM     67  S   UNL A   1      40.120  35.940  36.761  1.00  0.00     0.127 S 
ATOM     68  O   UNL A   1      41.558  35.712  36.903  1.00  0.00    -0.237 OA
ATOM     69  O   UNL A   1      39.726  36.584  35.508  1.00  0.00    -0.237 OA
ATOM     70  O   UNL A   1      39.453  36.455  37.947  1.00  0.00    -0.744 OA
ENDBRANCH  64  67
ENDBRANCH  46  60
BRANCH  47  71
ATOM     71  C   UNL A   1      42.514  26.439  27.713  1.00  0.00     0.023 A 
ATOM     72  C   UNL A   1      43.427  26.997  26.797  1.00  0.00     0.012 A 
ATOM     73  C   UNL A   1      42.093  25.107  27.536  1.00  0.00     0.148 A 
ATOM     74  C   UNL A   1      43.885  26.256  25.706  1.00  0.00     0.002 A 
ATOM     75  C   UNL A   1      42.595  24.357  26.478  1.00  0.00     0.091 A 
ATOM     76  F   UNL A   1      41.220  24.595  28.414  1.00  0.00    -0.205 F 
ATOM     77  C   UNL A   1      43.475  24.935  25.551  1.00  0.00     0.022 A 
BRANCH  75  78
ATOM     78  S   UNL A   1      42.226  22.610  26.277  1.00  0.00     0.127 S 
ATOM     79  O   UNL A   1      42.881  22.309  25.007  1.00  0.00    -0.237 OA
ATOM     80  O   UNL A   1      42.869  22.028  27.455  1.00  0.00    -0.237 OA
ATOM     81  O   UNL A   1      40.773  22.512  26.279  1.00  0.00    -0.744 OA
ENDBRANCH  75  78
ENDBRANCH  47  71
BRANCH  59  82
ATOM     82  C   UNL A   1      44.754  27.331  34.272  1.00  0.00     0.023 A 
ATOM     83  C   UNL A   1      46.012  27.962  34.257  1.00  0.00     0.012 A 
ATOM     84  C   UNL A   1      44.551  26.199  35.084  1.00  0.00     0.148 A 
ATOM     85  C   UNL A   1      47.065  27.453  35.014  1.00  0.00     0.002 A 
ATOM     86  C   UNL A   1      45.589  25.730  35.878  1.00  0.00     0.091 A 
ATOM     87  F   UNL A   1      43.347  25.608  35.070  1.00  0.00    -0.205 F 
ATOM     88  C   UNL A   1      46.850  26.347  35.833  1.00  0.00     0.022 A 
BRANCH  86  89
ATOM     89  S   UNL A   1      45.373  24.381  37.042  1.00  0.00     0.127 S 
ATOM     90  O   UNL A   1      44.273  24.874  37.867  1.00  0.00    -0.237 OA
ATOM     91  O   UNL A   1      45.025  23.265  36.162  1.00  0.00    -0.237 OA
ATOM     92  O   UNL A   1      46.650  24.233  37.728  1.00  0.00    -0.744 OA
ENDBRANCH  86  89
ENDBRANCH  59  82
ENDBRANCH  33  34
ENDBRANCH  25  28
ENDBRANCH  23  24
ENDBRANCH   1  23
TORSDOF 16
ENDMDL
MODEL 2
REMARK VINA RESULT:     -11.9      1.456      1.734
REMARK SMILES C[C@H]1[C@H](C(=O)NCCCCNC(=O)c2ccc(-c3c4nc(c(-c5cccc(S(=O)(=O)[O-])c5F)c5ccc([nH]5)c(-c5cccc(S(=O)(=O)[O-])c5F)c5nc(c(-c6cccc(S(=O)(=O)[O-])c6F)c6ccc3[nH]6)C=C5)C=C4)cc2)CC[N@@H+]1CC(=O)N1CCCC1
REMARK SMILES IDX 9 1 8 2 7 3 6 4 4 5 5 6 3 8 1 9 2 10 79 11 77 12 78 13 80 15
REMARK SMILES IDX 81 16 82 17 83 18 84 19 87 20 85 21 86 22 10 23 11 24 12 25
REMARK SMILES IDX 13 27 14 28 15 29 76 30 16 31 75 32 17 33 18 34 19 35 69 36
REMARK SMILES IDX 20 37 74 38 68 39 70 40 21 41 73 42 67 43 66 44 22 46 54 47
REMARK SMILES IDX 34 48 53 49 35 50 38 51 52 52 71 53 36 54 37 55 51 57 72 58
REMARK SMILES IDX 39 59 23 60 24 61 32 62 25 63 27 64 33 65 26 66 28 67 29 68
REMARK SMILES IDX 30 69 31 70 55 71 56 72 64 73 57 74 59 75 65 76 58 77 60 78
REMARK SMILES IDX 61 79 62 80 63 81 40 82 41 83 49 84 42 85 44 86 50 87 43 88
REMARK SMILES IDX 45 89 46 90 47 91 48 92
REMARK H PARENT 6 7 79 14 11 26 70 45 38 56
REMARK Flexibility Score: inf
ROOT
ATOM      1  C   UNL A   1      31.762  29.849  26.826  1.00  0.00     0.023 C 
ENDROOT
BRANCH   1   2
ATOM      2  C   UNL A   1      31.788  28.409  27.296  1.00  0.00     0.023 C 
BRANCH   2   3
ATOM      3  C   UNL A   1      32.034  27.200  26.343  1.00  0.00     0.116 C 
BRANCH   3   4
ATOM      4  N   UNL A   1      31.458  25.880  26.661  1.00  0.00    -0.356 N 
ATOM      5  C   UNL A   1      31.855  24.581  26.792  1.00  0.00     0.229 C 
ATOM      6  O   UNL A   1      30.979  23.857  27.303  1.00  0.00    -0.275 OA
ATOM      7  H   UNL A   1      30.491  25.960  26.828  1.00  0.00     0.163 HD
BRANCH   5   8
ATOM      8  C   UNL A   1      33.154  23.842  26.359  1.00  0.00     0.142 C 
ATOM      9  C   UNL A   1      34.167  21.605  27.346  1.00  0.00     0.076 C 
ATOM     10  C   UNL A   1      33.096  22.310  26.513  1.00  0.00     0.194 C 
ATOM     11  N   UNL A   1      33.261  21.712  25.178  1.00  0.00    -0.324 N 
ATOM     12  C   UNL A   1      33.741  24.088  24.995  1.00  0.00     0.081 C 
ATOM     13  C   UNL A   1      33.566  22.786  24.220  1.00  0.00     0.263 C 
ATOM     14  H   UNL A   1      34.054  21.072  25.150  1.00  0.00     0.348 HD
BRANCH  11  15
ATOM     15  C   UNL A   1      32.108  20.840  24.833  1.00  0.00     0.364 C 
BRANCH  15  16
ATOM     16  C   UNL A   1      32.452  20.009  23.612  1.00  0.00     0.277 C 
ATOM     17  O   UNL A   1      31.989  20.469  22.573  1.00  0.00    -0.268 OA
ATOM     18  N   UNL A   1      33.071  18.773  23.761  1.00  0.00    -0.338 N 
ATOM     19  C   UNL A   1      33.887  18.357  24.880  1.00  0.00     0.119 C 
ATOM     20  C   UNL A   1      32.869  17.615  22.906  1.00  0.00     0.119 C 
ATOM     21  C   UNL A   1      34.568  17.053  24.439  1.00  0.00     0.023 C 
ATOM     22  C   UNL A   1      34.141  16.818  22.998  1.00  0.00     0.023 C 
ENDBRANCH  15  16
ENDBRANCH  11  15
ENDBRANCH   5   8
ENDBRANCH   3   4
ENDBRANCH   2   3
ENDBRANCH   1   2
BRANCH   1  23
ATOM     23  C   UNL A   1      33.091  30.526  26.901  1.00  0.00     0.116 C 
BRANCH  23  24
ATOM     24  N   UNL A   1      32.971  31.962  27.163  1.00  0.00    -0.352 N 
ATOM     25  C   UNL A   1      33.809  32.750  27.912  1.00  0.00     0.251 C 
ATOM     26  H   UNL A   1      32.199  32.415  26.753  1.00  0.00     0.163 HD
ATOM     27  O   UNL A   1      33.500  33.894  28.233  1.00  0.00    -0.269 OA
BRANCH  25  28
ATOM     28  C   UNL A   1      35.088  32.154  28.326  1.00  0.00     0.039 A 
ATOM     29  C   UNL A   1      36.278  32.865  28.186  1.00  0.00     0.014 A 
ATOM     30  C   UNL A   1      35.047  30.938  29.010  1.00  0.00     0.014 A 
ATOM     31  C   UNL A   1      37.430  32.359  28.782  1.00  0.00     0.010 A 
ATOM     32  C   UNL A   1      36.134  30.556  29.764  1.00  0.00     0.010 A 
ATOM     33  C   UNL A   1      37.356  31.213  29.591  1.00  0.00    -0.014 A 
BRANCH  33  34
ATOM     34  C   UNL A   1      38.557  30.583  30.178  1.00  0.00     0.031 A 
ATOM     35  C   UNL A   1      38.991  31.015  31.558  1.00  0.00     0.074 A 
ATOM     36  C   UNL A   1      39.283  29.709  29.459  1.00  0.00     0.049 A 
ATOM     37  N   UNL A   1      40.046  30.659  32.239  1.00  0.00    -0.248 NA
ATOM     38  C   UNL A   1      38.162  32.030  32.241  1.00  0.00     0.031 C 
ATOM     39  C   UNL A   1      39.010  29.304  28.078  1.00  0.00     0.029 A 
ATOM     40  N   UNL A   1      40.414  29.010  29.792  1.00  0.00    -0.354 N 
ATOM     41  C   UNL A   1      40.028  31.442  33.387  1.00  0.00     0.074 A 
ATOM     42  C   UNL A   1      38.916  32.351  33.278  1.00  0.00     0.031 C 
ATOM     43  C   UNL A   1      39.930  28.404  27.693  1.00  0.00     0.029 A 
ATOM     44  C   UNL A   1      40.871  28.191  28.788  1.00  0.00     0.049 A 
ATOM     45  H   UNL A   1      40.857  29.089  30.667  1.00  0.00     0.167 HD
ATOM     46  C   UNL A   1      40.831  31.370  34.471  1.00  0.00     0.034 A 
ATOM     47  C   UNL A   1      41.929  27.359  28.768  1.00  0.00     0.034 A 
ATOM     48  C   UNL A   1      41.877  30.401  34.602  1.00  0.00     0.049 A 
ATOM     49  C   UNL A   1      42.763  27.237  30.015  1.00  0.00     0.074 A 
ATOM     50  C   UNL A   1      42.689  30.152  35.691  1.00  0.00     0.029 A 
ATOM     51  N   UNL A   1      42.248  29.513  33.605  1.00  0.00    -0.354 N 
ATOM     52  N   UNL A   1      42.635  27.869  31.159  1.00  0.00    -0.248 NA
ATOM     53  C   UNL A   1      43.859  26.261  29.987  1.00  0.00     0.031 C 
ATOM     54  C   UNL A   1      43.574  29.128  35.339  1.00  0.00     0.029 A 
ATOM     55  C   UNL A   1      43.287  28.717  34.045  1.00  0.00     0.049 A 
ATOM     56  H   UNL A   1      41.833  29.458  32.714  1.00  0.00     0.167 HD
ATOM     57  C   UNL A   1      43.611  27.344  31.997  1.00  0.00     0.074 A 
ATOM     58  C   UNL A   1      44.306  26.325  31.234  1.00  0.00     0.031 C 
ATOM     59  C   UNL A   1      43.920  27.679  33.274  1.00  0.00     0.034 A 
BRANCH  46  60
ATOM     60  C   UNL A   1      40.559  32.320  35.608  1.00  0.00     0.023 A 
ATOM     61  C   UNL A   1      41.355  33.475  35.767  1.00  0.00     0.012 A 
ATOM     62  C   UNL A   1      39.505  32.080  36.508  1.00  0.00     0.148 A 
ATOM     63  C   UNL A   1      41.134  34.351  36.828  1.00  0.00     0.002 A 
ATOM     64  C   UNL A   1      39.256  32.987  37.531  1.00  0.00     0.091 A 
ATOM     65  F   UNL A   1      38.778  30.963  36.360  1.00  0.00    -0.205 F 
ATOM     66  C   UNL A   1      40.078  34.113  37.702  1.00  0.00     0.022 A 
BRANCH  64  67
ATOM     67  S   UNL A   1      37.870  32.818  38.659  1.00  0.00     0.127 S 
ATOM     68  O   UNL A   1      38.132  33.895  39.613  1.00  0.00    -0.237 OA
ATOM     69  O   UNL A   1      36.727  33.049  37.776  1.00  0.00    -0.237 OA
ATOM     70  O   UNL A   1      37.956  31.471  39.204  1.00  0.00    -0.744 OA
ENDBRANCH  64  67
ENDBRANCH  46  60
BRANCH  47  71
ATOM     71  C   UNL A   1      42.201  26.522  27.565  1.00  0.00     0.023 A 
ATOM     72  C   UNL A   1      42.855  27.093  26.456  1.00  0.00     0.012 A 
ATOM     73  C   UNL A   1      41.846  25.160  27.526  1.00  0.00     0.148 A 
ATOM     74  C   UNL A   1      43.119  26.332  25.315  1.00  0.00     0.002 A 
ATOM     75  C   UNL A   1      42.161  24.394  26.409  1.00  0.00     0.091 A 
ATOM     76  F   UNL A   1      41.220  24.637  28.589  1.00  0.00    -0.205 F 
ATOM     77  C   UNL A   1      42.779  24.983  25.295  1.00  0.00     0.022 A 
BRANCH  75  78
ATOM     78  S   UNL A   1      41.881  22.621  26.348  1.00  0.00     0.127 S 
ATOM     79  O   UNL A   1      40.423  22.548  26.307  1.00  0.00    -0.237 OA
ATOM     80  O   UNL A   1      42.552  22.252  25.101  1.00  0.00    -0.237 OA
ATOM     81  O   UNL A   1      42.508  22.082  27.547  1.00  0.00    -0.744 OA
ENDBRANCH  75  78
ENDBRANCH  47  71
BRANCH  59  82
ATOM     82  C   UNL A   1      45.029  26.915  33.943  1.00  0.00     0.023 A 
ATOM     83  C   UNL A   1      46.357  27.369  33.834  1.00  0.00     0.012 A 
ATOM     84  C   UNL A   1      44.737  25.803  34.754  1.00  0.00     0.148 A 
ATOM     85  C   UNL A   1      47.386  26.703  34.495  1.00  0.00     0.002 A 
ATOM     86  C   UNL A   1      45.759  25.178  35.454  1.00  0.00     0.091 A 
ATOM     87  F   UNL A   1      43.465  25.382  34.831  1.00  0.00    -0.205 F 
ATOM     88  C   UNL A   1      47.086  25.617  35.315  1.00  0.00     0.022 A 
BRANCH  86  89
ATOM     89  S   UNL A   1      45.452  23.843  36.615  1.00  0.00     0.127 S 
ATOM     90  O   UNL A   1      44.405  24.416  37.456  1.00  0.00    -0.237 OA
ATOM     91  O   UNL A   1      45.007  22.763  35.734  1.00  0.00    -0.237 OA
ATOM     92  O   UNL A   1      46.722  23.591  37.284  1.00  0.00    -0.744 OA
ENDBRANCH  86  89
ENDBRANCH  59  82
ENDBRANCH  33  34
ENDBRANCH  25  28
ENDBRANCH  23  24
ENDBRANCH   1  23
TORSDOF 16
ENDMDL
MODEL 3
REMARK VINA RESULT:     -11.9      1.840      2.481
REMARK SMILES C[C@H]1[C@H](C(=O)NCCCCNC(=O)c2ccc(-c3c4nc(c(-c5cccc(S(=O)(=O)[O-])c5F)c5ccc([nH]5)c(-c5cccc(S(=O)(=O)[O-])c5F)c5nc(c(-c6cccc(S(=O)(=O)[O-])c6F)c6ccc3[nH]6)C=C5)C=C4)cc2)CC[N@@H+]1CC(=O)N1CCCC1
REMARK SMILES IDX 9 1 8 2 7 3 6 4 4 5 5 6 3 8 1 9 2 10 79 11 77 12 78 13 80 15
REMARK SMILES IDX 81 16 82 17 83 18 84 19 87 20 85 21 86 22 10 23 11 24 12 25
REMARK SMILES IDX 13 27 14 28 15 29 76 30 16 31 75 32 17 33 18 34 19 35 69 36
REMARK SMILES IDX 20 37 74 38 68 39 70 40 21 41 73 42 67 43 66 44 22 46 54 47
REMARK SMILES IDX 34 48 53 49 35 50 38 51 52 52 71 53 36 54 37 55 51 57 72 58
REMARK SMILES IDX 39 59 23 60 24 61 32 62 25 63 27 64 33 65 26 66 28 67 29 68
REMARK SMILES IDX 30 69 31 70 55 71 56 72 64 73 57 74 59 75 65 76 58 77 60 78
REMARK SMILES IDX 61 79 62 80 63 81 40 82 41 83 49 84 42 85 44 86 50 87 43 88
REMARK SMILES IDX 45 89 46 90 47 91 48 92
REMARK H PARENT 6 7 79 14 11 26 70 45 38 56
REMARK Flexibility Score: inf
ROOT
ATOM      1  C   UNL A   1      32.965  27.916  26.640  1.00  0.00     0.023 C 
ENDROOT
BRANCH   1   2
ATOM      2  C   UNL A   1      31.603  27.995  25.982  1.00  0.00     0.023 C 
BRANCH   2   3
ATOM      3  C   UNL A   1      30.903  26.776  25.309  1.00  0.00     0.116 C 
BRANCH   3   4
ATOM      4  N   UNL A   1      30.829  25.483  26.016  1.00  0.00    -0.356 N 
ATOM      5  C   UNL A   1      31.665  24.546  26.549  1.00  0.00     0.229 C 
ATOM      6  O   UNL A   1      31.065  23.708  27.252  1.00  0.00    -0.275 OA
ATOM      7  H   UNL A   1      29.890  25.215  26.141  1.00  0.00     0.163 HD
BRANCH   5   8
ATOM      8  C   UNL A   1      33.191  24.296  26.380  1.00  0.00     0.142 C 
ATOM      9  C   UNL A   1      34.700  22.503  27.611  1.00  0.00     0.076 C 
ATOM     10  C   UNL A   1      33.622  22.830  26.576  1.00  0.00     0.194 C 
ATOM     11  N   UNL A   1      34.214  22.357  25.314  1.00  0.00    -0.324 N 
ATOM     12  C   UNL A   1      33.896  24.760  25.134  1.00  0.00     0.081 C 
ATOM     13  C   UNL A   1      34.308  23.495  24.387  1.00  0.00     0.263 C 
ATOM     14  H   UNL A   1      35.166  22.021  25.450  1.00  0.00     0.348 HD
BRANCH  11  15
ATOM     15  C   UNL A   1      33.501  21.158  24.801  1.00  0.00     0.364 C 
BRANCH  15  16
ATOM     16  C   UNL A   1      34.413  19.950  24.895  1.00  0.00     0.277 C 
ATOM     17  O   UNL A   1      35.603  20.244  24.852  1.00  0.00    -0.268 OA
ATOM     18  N   UNL A   1      33.880  18.668  24.843  1.00  0.00    -0.338 N 
ATOM     19  C   UNL A   1      32.531  18.290  25.203  1.00  0.00     0.119 C 
ATOM     20  C   UNL A   1      34.523  17.504  24.254  1.00  0.00     0.119 C 
ATOM     21  C   UNL A   1      32.528  16.755  25.260  1.00  0.00     0.023 C 
ATOM     22  C   UNL A   1      33.959  16.318  24.986  1.00  0.00     0.023 C 
ENDBRANCH  15  16
ENDBRANCH  11  15
ENDBRANCH   5   8
ENDBRANCH   3   4
ENDBRANCH   2   3
ENDBRANCH   1   2
BRANCH   1  23
ATOM     23  C   UNL A   1      33.958  28.878  26.075  1.00  0.00     0.116 C 
BRANCH  23  24
ATOM     24  N   UNL A   1      33.813  30.223  26.636  1.00  0.00    -0.352 N 
ATOM     25  C   UNL A   1      34.585  30.815  27.604  1.00  0.00     0.251 C 
ATOM     26  H   UNL A   1      33.075  30.767  26.276  1.00  0.00     0.163 HD
ATOM     27  O   UNL A   1      34.248  31.865  28.144  1.00  0.00    -0.269 OA
BRANCH  25  28
ATOM     28  C   UNL A   1      35.829  30.124  27.978  1.00  0.00     0.039 A 
ATOM     29  C   UNL A   1      37.004  30.348  27.265  1.00  0.00     0.014 A 
ATOM     30  C   UNL A   1      35.827  29.378  29.158  1.00  0.00     0.014 A 
ATOM     31  C   UNL A   1      38.198  29.846  27.776  1.00  0.00     0.010 A 
ATOM     32  C   UNL A   1      37.028  29.069  29.756  1.00  0.00     0.010 A 
ATOM     33  C   UNL A   1      38.217  29.223  29.035  1.00  0.00    -0.014 A 
BRANCH  33  34
ATOM     34  C   UNL A   1      39.436  28.597  29.589  1.00  0.00     0.031 A 
ATOM     35  C   UNL A   1      40.016  29.163  30.862  1.00  0.00     0.074 A 
ATOM     36  C   UNL A   1      40.049  27.604  28.921  1.00  0.00     0.049 A 
ATOM     37  N   UNL A   1      41.111  28.828  31.487  1.00  0.00    -0.248 NA
ATOM     38  C   UNL A   1      39.303  30.297  31.486  1.00  0.00     0.031 C 
ATOM     39  C   UNL A   1      39.630  27.057  27.628  1.00  0.00     0.029 A 
ATOM     40  N   UNL A   1      41.172  26.885  29.237  1.00  0.00    -0.354 N 
ATOM     41  C   UNL A   1      41.238  29.740  32.529  1.00  0.00     0.074 A 
ATOM     42  C   UNL A   1      40.165  30.692  32.406  1.00  0.00     0.031 C 
ATOM     43  C   UNL A   1      40.466  26.066  27.278  1.00  0.00     0.029 A 
ATOM     44  C   UNL A   1      41.494  25.928  28.305  1.00  0.00     0.049 A 
ATOM     45  H   UNL A   1      41.697  27.039  30.055  1.00  0.00     0.167 HD
ATOM     46  C   UNL A   1      42.134  29.749  33.539  1.00  0.00     0.034 A 
ATOM     47  C   UNL A   1      42.505  25.039  28.295  1.00  0.00     0.034 A 
ATOM     48  C   UNL A   1      43.141  28.743  33.697  1.00  0.00     0.049 A 
ATOM     49  C   UNL A   1      43.444  25.016  29.471  1.00  0.00     0.074 A 
ATOM     50  C   UNL A   1      44.038  28.576  34.733  1.00  0.00     0.029 A 
ATOM     51  N   UNL A   1      43.375  27.723  32.787  1.00  0.00    -0.354 N 
ATOM     52  N   UNL A   1      43.454  25.784  30.536  1.00  0.00    -0.248 NA
ATOM     53  C   UNL A   1      44.486  23.981  29.468  1.00  0.00     0.031 C 
ATOM     54  C   UNL A   1      44.836  27.468  34.434  1.00  0.00     0.029 A 
ATOM     55  C   UNL A   1      44.411  26.925  33.230  1.00  0.00     0.049 A 
ATOM     56  H   UNL A   1      42.876  27.588  31.949  1.00  0.00     0.167 HD
ATOM     57  C   UNL A   1      44.478  25.305  31.344  1.00  0.00     0.074 A 
ATOM     58  C   UNL A   1      45.049  24.165  30.654  1.00  0.00     0.031 C 
ATOM     59  C   UNL A   1      44.919  25.769  32.539  1.00  0.00     0.034 A 
BRANCH  46  60
ATOM     60  C   UNL A   1      42.015  30.840  34.571  1.00  0.00     0.023 A 
ATOM     61  C   UNL A   1      41.210  30.643  35.714  1.00  0.00     0.012 A 
ATOM     62  C   UNL A   1      42.713  32.052  34.420  1.00  0.00     0.148 A 
ATOM     63  C   UNL A   1      41.066  31.651  36.665  1.00  0.00     0.002 A 
ATOM     64  C   UNL A   1      42.609  33.030  35.401  1.00  0.00     0.091 A 
ATOM     65  F   UNL A   1      43.449  32.233  33.314  1.00  0.00    -0.205 F 
ATOM     66  C   UNL A   1      41.774  32.839  36.515  1.00  0.00     0.022 A 
BRANCH  64  67
ATOM     67  S   UNL A   1      43.545  34.561  35.345  1.00  0.00     0.127 S 
ATOM     68  O   UNL A   1      42.922  35.247  34.214  1.00  0.00    -0.237 OA
ATOM     69  O   UNL A   1      43.250  35.148  36.652  1.00  0.00    -0.237 OA
ATOM     70  O   UNL A   1      44.935  34.176  35.150  1.00  0.00    -0.744 OA
ENDBRANCH  64  67
ENDBRANCH  46  60
BRANCH  47  71
ATOM     71  C   UNL A   1      42.624  24.052  27.185  1.00  0.00     0.023 A 
ATOM     72  C   UNL A   1      43.362  24.389  26.033  1.00  0.00     0.012 A 
ATOM     73  C   UNL A   1      42.039  22.775  27.275  1.00  0.00     0.148 A 
ATOM     74  C   UNL A   1      43.486  23.484  24.977  1.00  0.00     0.002 A 
ATOM     75  C   UNL A   1      42.212  21.859  26.243  1.00  0.00     0.091 A 
ATOM     76  F   UNL A   1      41.335  22.476  28.376  1.00  0.00    -0.205 F 
ATOM     77  C   UNL A   1      42.919  22.219  25.085  1.00  0.00     0.022 A 
BRANCH  75  78
ATOM     78  S   UNL A   1      41.630  20.164  26.354  1.00  0.00     0.127 S 
ATOM     79  O   UNL A   1      40.184  20.334  26.231  1.00  0.00    -0.237 OA
ATOM     80  O   UNL A   1      42.278  19.545  25.197  1.00  0.00    -0.237 OA
ATOM     81  O   UNL A   1      42.102  19.668  27.639  1.00  0.00    -0.744 OA
ENDBRANCH  75  78
ENDBRANCH  47  71
BRANCH  59  82
ATOM     82  C   UNL A   1      46.049  25.026  33.197  1.00  0.00     0.023 A 
ATOM     83  C   UNL A   1      47.370  25.491  33.056  1.00  0.00     0.012 A 
ATOM     84  C   UNL A   1      45.782  23.922  34.030  1.00  0.00     0.148 A 
ATOM     85  C   UNL A   1      48.417  24.844  33.707  1.00  0.00     0.002 A 
ATOM     86  C   UNL A   1      46.824  23.317  34.719  1.00  0.00     0.091 A 
ATOM     87  F   UNL A   1      44.517  23.491  34.137  1.00  0.00    -0.205 F 
ATOM     88  C   UNL A   1      48.143  23.767  34.548  1.00  0.00     0.022 A 
BRANCH  86  89
ATOM     89  S   UNL A   1      46.552  21.996  35.905  1.00  0.00     0.127 S 
ATOM     90  O   UNL A   1      46.029  20.934  35.050  1.00  0.00    -0.237 OA
ATOM     91  O   UNL A   1      47.902  21.761  36.419  1.00  0.00    -0.237 OA
ATOM     92  O   UNL A   1      45.616  22.525  36.888  1.00  0.00    -0.744 OA
ENDBRANCH  86  89
ENDBRANCH  59  82
ENDBRANCH  33  34
ENDBRANCH  25  28
ENDBRANCH  23  24
ENDBRANCH   1  23
TORSDOF 16
ENDMDL
