MODEL 1
REMARK VINA RESULT:     -10.3      0.000      0.000
REMARK SMILES O=C(CCC(=O)/[NH+]=C1\S[C@H]2CS(=O)(=O)C[C@@H]2N1c1ccc(Oc2ccccc2)cc1)NCCCCNC(=O)c1ccc(-c2c3nc(c(-c4cccc(S(=O)(=O)[O-])c4F)c4ccc([nH]4)c(-c4cccc(S(=O)(=O)[O-])c4F)c4nc(c(-c5cccc(S(=O)(=O)[O-])c5F)c5ccc2[nH]5)C=C4)C=C3)cc1
REMARK SMILES IDX 32 1 31 2 2 3 1 4 3 6 4 7 5 8 6 9 7 10 8 11 9 13 17 14 10 15
REMARK SMILES IDX 16 16 11 17 15 18 12 19 13 20 14 21 18 22 19 23 30 24 20 25
REMARK SMILES IDX 29 26 21 27 22 28 23 29 24 30 28 31 25 32 27 33 26 34 33 35
REMARK SMILES IDX 34 36 35 37 36 38 37 39 38 41 39 42 40 43 101 44 41 45
REMARK SMILES IDX 100 46 42 47 43 48 44 49 94 50 45 51 99 52 93 53 95 54 46 55
REMARK SMILES IDX 98 56 92 57 91 58 47 60 79 61 59 62 78 63 60 64 63 65 77 66
REMARK SMILES IDX 96 67 61 68 62 69 76 71 97 72 64 73 48 74 49 75 57 76 50 77
REMARK SMILES IDX 52 78 58 79 51 80 53 81 54 82 55 83 56 84 80 85 81 86 89 87
REMARK SMILES IDX 82 88 84 89 90 90 83 91 85 92 86 93 87 94 88 95 65 96 66 97
REMARK SMILES IDX 74 98 67 99 69 100 75 101 68 102 70 103 71 104 72 105 73 106
REMARK H PARENT 31 5 7 12 36 40 95 59 63 70
REMARK Flexibility Score: inf
ROOT
ATOM      1  C   UNL A   1      35.494  31.720  30.966  1.00  0.00     0.116 C 
ENDROOT
BRANCH   1   2
ATOM      2  N   UNL A   1      36.384  31.200  29.940  1.00  0.00    -0.356 N 
ATOM      3  C   UNL A   1      36.226  31.125  28.595  1.00  0.00     0.220 C 
ATOM      4  O   UNL A   1      37.169  30.736  27.902  1.00  0.00    -0.275 OA
ATOM      5  H   UNL A   1      37.238  30.846  30.278  1.00  0.00     0.163 HD
BRANCH   3   6
ATOM      6  C   UNL A   1      34.920  31.512  27.959  1.00  0.00     0.112 C 
BRANCH   6   7
ATOM      7  C   UNL A   1      34.411  30.673  26.794  1.00  0.00     0.138 C 
BRANCH   7   8
ATOM      8  C   UNL A   1      34.044  29.195  26.913  1.00  0.00     0.308 C 
ATOM      9  O   UNL A   1      34.203  28.646  28.005  1.00  0.00    -0.247 OA
ATOM     10  N   UNL A   1      33.601  28.489  25.832  1.00  0.00    -0.204 N 
ATOM     11  C   UNL A   1      32.476  28.726  25.245  1.00  0.00     0.319 C 
ATOM     12  H   UNL A   1      34.166  27.762  25.483  1.00  0.00     0.316 HD
ATOM     13  S   UNL A   1      31.370  30.051  25.710  1.00  0.00    -0.029 SA
ATOM     14  N   UNL A   1      31.984  28.083  24.103  1.00  0.00    -0.217 N 
ATOM     15  C   UNL A   1      30.252  29.636  24.360  1.00  0.00     0.120 C 
ATOM     16  C   UNL A   1      31.143  28.966  23.306  1.00  0.00     0.212 C 
ATOM     17  C   UNL A   1      29.534  30.725  23.613  1.00  0.00     0.156 C 
ATOM     18  C   UNL A   1      30.156  28.444  22.283  1.00  0.00     0.188 C 
ATOM     19  S   UNL A   1      29.003  29.831  22.148  1.00  0.00     0.155 S 
ATOM     20  O   UNL A   1      27.658  29.348  22.394  1.00  0.00    -0.229 OA
ATOM     21  O   UNL A   1      29.341  30.627  20.992  1.00  0.00    -0.229 OA
BRANCH  14  22
ATOM     22  C   UNL A   1      32.354  26.804  23.688  1.00  0.00     0.128 A 
ATOM     23  C   UNL A   1      33.364  26.571  22.745  1.00  0.00     0.056 A 
ATOM     24  C   UNL A   1      31.723  25.679  24.252  1.00  0.00     0.056 A 
ATOM     25  C   UNL A   1      33.742  25.265  22.403  1.00  0.00     0.051 A 
ATOM     26  C   UNL A   1      32.101  24.376  23.922  1.00  0.00     0.051 A 
ATOM     27  C   UNL A   1      33.125  24.169  23.008  1.00  0.00     0.127 A 
BRANCH  27  28
ATOM     28  O   UNL A   1      33.688  22.947  22.752  1.00  0.00    -0.457 OA
BRANCH  28  29
ATOM     29  C   UNL A   1      33.460  21.888  23.602  1.00  0.00     0.127 A 
ATOM     30  C   UNL A   1      34.473  21.608  24.525  1.00  0.00     0.047 A 
ATOM     31  C   UNL A   1      32.437  20.966  23.379  1.00  0.00     0.047 A 
ATOM     32  C   UNL A   1      34.494  20.384  25.191  1.00  0.00     0.004 A 
ATOM     33  C   UNL A   1      32.438  19.756  24.078  1.00  0.00     0.004 A 
ATOM     34  C   UNL A   1      33.478  19.456  24.963  1.00  0.00     0.000 A 
ENDBRANCH  28  29
ENDBRANCH  27  28
ENDBRANCH  14  22
ENDBRANCH   7   8
ENDBRANCH   6   7
ENDBRANCH   3   6
ENDBRANCH   1   2
BRANCH   1  35
ATOM     35  C   UNL A   1      36.047  32.915  31.744  1.00  0.00     0.023 C 
BRANCH  35  36
ATOM     36  C   UNL A   1      35.963  32.803  33.264  1.00  0.00     0.023 C 
BRANCH  36  37
ATOM     37  C   UNL A   1      37.212  32.298  33.966  1.00  0.00     0.116 C 
BRANCH  37  38
ATOM     38  N   UNL A   1      37.324  30.855  33.913  1.00  0.00    -0.352 N 
ATOM     39  C   UNL A   1      38.181  30.058  33.197  1.00  0.00     0.251 C 
ATOM     40  H   UNL A   1      36.684  30.369  34.482  1.00  0.00     0.163 HD
ATOM     41  O   UNL A   1      37.945  28.852  33.149  1.00  0.00    -0.269 OA
BRANCH  39  42
ATOM     42  C   UNL A   1      39.363  30.605  32.475  1.00  0.00     0.039 A 
ATOM     43  C   UNL A   1      39.337  30.589  31.074  1.00  0.00     0.014 A 
ATOM     44  C   UNL A   1      40.510  31.069  33.125  1.00  0.00     0.014 A 
ATOM     45  C   UNL A   1      40.421  31.073  30.336  1.00  0.00     0.010 A 
ATOM     46  C   UNL A   1      41.566  31.615  32.390  1.00  0.00     0.010 A 
ATOM     47  C   UNL A   1      41.540  31.609  30.988  1.00  0.00    -0.014 A 
BRANCH  47  48
ATOM     48  C   UNL A   1      42.698  32.126  30.210  1.00  0.00     0.031 A 
ATOM     49  C   UNL A   1      42.770  33.571  29.849  1.00  0.00     0.074 A 
ATOM     50  C   UNL A   1      43.680  31.302  29.798  1.00  0.00     0.049 A 
ATOM     51  N   UNL A   1      43.748  34.213  29.271  1.00  0.00    -0.248 NA
ATOM     52  C   UNL A   1      41.605  34.406  30.179  1.00  0.00     0.031 C 
ATOM     53  C   UNL A   1      43.706  29.882  30.086  1.00  0.00     0.029 A 
ATOM     54  N   UNL A   1      44.817  31.499  29.057  1.00  0.00    -0.354 N 
ATOM     55  C   UNL A   1      43.325  35.526  29.167  1.00  0.00     0.074 A 
ATOM     56  C   UNL A   1      41.977  35.580  29.693  1.00  0.00     0.031 C 
ATOM     57  C   UNL A   1      44.779  29.316  29.519  1.00  0.00     0.029 A 
ATOM     58  C   UNL A   1      45.531  30.343  28.825  1.00  0.00     0.049 A 
ATOM     59  H   UNL A   1      45.096  32.382  28.723  1.00  0.00     0.167 HD
ATOM     60  C   UNL A   1      44.014  36.592  28.703  1.00  0.00     0.034 A 
ATOM     61  C   UNL A   1      46.677  30.121  28.155  1.00  0.00     0.034 A 
ATOM     62  C   UNL A   1      45.344  36.515  28.164  1.00  0.00     0.049 A 
ATOM     63  C   UNL A   1      47.405  31.315  27.619  1.00  0.00     0.074 A 
ATOM     64  C   UNL A   1      46.154  37.545  27.726  1.00  0.00     0.029 A 
ATOM     65  N   UNL A   1      46.047  35.336  27.951  1.00  0.00    -0.354 N 
ATOM     66  N   UNL A   1      47.064  32.578  27.691  1.00  0.00    -0.248 NA
ATOM     67  C   UNL A   1      48.700  31.069  26.975  1.00  0.00     0.031 C 
ATOM     68  C   UNL A   1      47.323  36.986  27.196  1.00  0.00     0.029 A 
ATOM     69  C   UNL A   1      47.267  35.610  27.352  1.00  0.00     0.049 A 
ATOM     70  H   UNL A   1      45.727  34.437  28.190  1.00  0.00     0.167 HD
ATOM     71  C   UNL A   1      48.124  33.286  27.148  1.00  0.00     0.074 A 
ATOM     72  C   UNL A   1      49.125  32.307  26.767  1.00  0.00     0.031 C 
ATOM     73  C   UNL A   1      48.255  34.626  26.984  1.00  0.00     0.034 A 
BRANCH  60  74
ATOM     74  C   UNL A   1      43.314  37.919  28.761  1.00  0.00     0.023 A 
ATOM     75  C   UNL A   1      42.447  38.308  27.717  1.00  0.00     0.012 A 
ATOM     76  C   UNL A   1      43.534  38.793  29.840  1.00  0.00     0.148 A 
ATOM     77  C   UNL A   1      41.854  39.569  27.722  1.00  0.00     0.002 A 
ATOM     78  C   UNL A   1      42.898  40.026  29.863  1.00  0.00     0.091 A 
ATOM     79  F   UNL A   1      44.387  38.416  30.803  1.00  0.00    -0.205 F 
ATOM     80  C   UNL A   1      42.073  40.424  28.799  1.00  0.00     0.022 A 
BRANCH  78  81
ATOM     81  S   UNL A   1      43.063  41.167  31.238  1.00  0.00     0.127 S 
ATOM     82  O   UNL A   1      42.647  40.332  32.365  1.00  0.00    -0.237 OA
ATOM     83  O   UNL A   1      44.492  41.479  31.204  1.00  0.00    -0.237 OA
ATOM     84  O   UNL A   1      42.188  42.290  30.937  1.00  0.00    -0.744 OA
ENDBRANCH  78  81
ENDBRANCH  60  74
BRANCH  61  85
ATOM     85  C   UNL A   1      47.256  28.749  28.070  1.00  0.00     0.023 A 
ATOM     86  C   UNL A   1      48.257  28.362  28.984  1.00  0.00     0.012 A 
ATOM     87  C   UNL A   1      46.803  27.814  27.117  1.00  0.00     0.148 A 
ATOM     88  C   UNL A   1      48.828  27.089  28.924  1.00  0.00     0.002 A 
ATOM     89  C   UNL A   1      47.340  26.531  27.095  1.00  0.00     0.091 A 
ATOM     90  F   UNL A   1      45.846  28.194  26.261  1.00  0.00    -0.205 F 
ATOM     91  C   UNL A   1      48.366  26.172  27.985  1.00  0.00     0.022 A 
BRANCH  89  92
ATOM     92  S   UNL A   1      46.729  25.238  26.008  1.00  0.00     0.127 S 
ATOM     93  O   UNL A   1      47.504  24.081  26.452  1.00  0.00    -0.237 OA
ATOM     94  O   UNL A   1      45.309  25.202  26.358  1.00  0.00    -0.237 OA
ATOM     95  O   UNL A   1      47.003  25.696  24.652  1.00  0.00    -0.744 OA
ENDBRANCH  89  92
ENDBRANCH  61  85
BRANCH  73  96
ATOM     96  C   UNL A   1      49.544  35.107  26.376  1.00  0.00     0.023 A 
ATOM     97  C   UNL A   1      49.635  35.311  24.983  1.00  0.00     0.012 A 
ATOM     98  C   UNL A   1      50.658  35.380  27.191  1.00  0.00     0.148 A 
ATOM     99  C   UNL A   1      50.835  35.726  24.408  1.00  0.00     0.002 A 
ATOM    100  C   UNL A   1      51.829  35.855  26.617  1.00  0.00     0.091 A 
ATOM    101  F   UNL A   1      50.558  35.157  28.510  1.00  0.00    -0.205 F 
ATOM    102  C   UNL A   1      51.927  36.009  25.225  1.00  0.00     0.022 A 
BRANCH 100 103
ATOM    103  S   UNL A   1      53.248  36.345  27.601  1.00  0.00     0.127 S 
ATOM    104  O   UNL A   1      54.234  36.658  26.569  1.00  0.00    -0.237 OA
ATOM    105  O   UNL A   1      52.732  37.507  28.327  1.00  0.00    -0.237 OA
ATOM    106  O   UNL A   1      53.567  35.200  28.444  1.00  0.00    -0.744 OA
ENDBRANCH 100 103
ENDBRANCH  73  96
ENDBRANCH  47  48
ENDBRANCH  39  42
ENDBRANCH  37  38
ENDBRANCH  36  37
ENDBRANCH  35  36
ENDBRANCH   1  35
TORSDOF 19
ENDMDL
MODEL 2
REMARK VINA RESULT:     -10.3      5.154      8.287
REMARK SMILES O=C(CCC(=O)/[NH+]=C1\S[C@H]2CS(=O)(=O)C[C@@H]2N1c1ccc(Oc2ccccc2)cc1)NCCCCNC(=O)c1ccc(-c2c3nc(c(-c4cccc(S(=O)(=O)[O-])c4F)c4ccc([nH]4)c(-c4cccc(S(=O)(=O)[O-])c4F)c4nc(c(-c5cccc(S(=O)(=O)[O-])c5F)c5ccc2[nH]5)C=C4)C=C3)cc1
REMARK SMILES IDX 32 1 31 2 2 3 1 4 3 6 4 7 5 8 6 9 7 10 8 11 9 13 17 14 10 15
REMARK SMILES IDX 16 16 11 17 15 18 12 19 13 20 14 21 18 22 19 23 30 24 20 25
REMARK SMILES IDX 29 26 21 27 22 28 23 29 24 30 28 31 25 32 27 33 26 34 33 35
REMARK SMILES IDX 34 36 35 37 36 38 37 39 38 41 39 42 40 43 101 44 41 45
REMARK SMILES IDX 100 46 42 47 43 48 44 49 94 50 45 51 99 52 93 53 95 54 46 55
REMARK SMILES IDX 98 56 92 57 91 58 47 60 79 61 59 62 78 63 60 64 63 65 77 66
REMARK SMILES IDX 96 67 61 68 62 69 76 71 97 72 64 73 48 74 49 75 57 76 50 77
REMARK SMILES IDX 52 78 58 79 51 80 53 81 54 82 55 83 56 84 80 85 81 86 89 87
REMARK SMILES IDX 82 88 84 89 90 90 83 91 85 92 86 93 87 94 88 95 65 96 66 97
REMARK SMILES IDX 74 98 67 99 69 100 75 101 68 102 70 103 71 104 72 105 73 106
REMARK H PARENT 31 5 7 12 36 40 95 59 63 70
REMARK Flexibility Score: inf
ROOT
ATOM      1  C   UNL A   1      40.675  33.307  32.607  1.00  0.00     0.116 C 
ENDROOT
BRANCH   1   2
ATOM      2  N   UNL A   1      40.958  34.265  33.662  1.00  0.00    -0.356 N 
ATOM      3  C   UNL A   1      40.116  34.986  34.445  1.00  0.00     0.220 C 
ATOM      4  O   UNL A   1      40.585  35.668  35.359  1.00  0.00    -0.275 OA
ATOM      5  H   UNL A   1      41.916  34.415  33.837  1.00  0.00     0.163 HD
BRANCH   3   6
ATOM      6  C   UNL A   1      38.634  34.950  34.200  1.00  0.00     0.112 C 
BRANCH   6   7
ATOM      7  C   UNL A   1      37.800  33.944  34.983  1.00  0.00     0.138 C 
BRANCH   7   8
ATOM      8  C   UNL A   1      37.509  32.526  34.494  1.00  0.00     0.308 C 
ATOM      9  O   UNL A   1      37.411  31.633  35.338  1.00  0.00    -0.247 OA
ATOM     10  N   UNL A   1      37.410  32.245  33.161  1.00  0.00    -0.204 N 
ATOM     11  C   UNL A   1      36.465  32.704  32.410  1.00  0.00     0.319 C 
ATOM     12  H   UNL A   1      38.090  31.664  32.753  1.00  0.00     0.316 HD
ATOM     13  S   UNL A   1      35.194  33.825  32.980  1.00  0.00    -0.029 SA
ATOM     14  N   UNL A   1      36.330  32.504  31.032  1.00  0.00    -0.217 N 
ATOM     15  C   UNL A   1      34.497  33.930  31.323  1.00  0.00     0.120 C 
ATOM     16  C   UNL A   1      35.674  33.632  30.384  1.00  0.00     0.212 C 
ATOM     17  C   UNL A   1      33.933  35.230  30.824  1.00  0.00     0.156 C 
ATOM     18  C   UNL A   1      35.024  33.522  29.021  1.00  0.00     0.188 C 
ATOM     19  S   UNL A   1      33.861  34.907  29.058  1.00  0.00     0.155 S 
ATOM     20  O   UNL A   1      32.533  34.411  28.757  1.00  0.00    -0.229 OA
ATOM     21  O   UNL A   1      34.440  36.038  28.373  1.00  0.00    -0.229 OA
BRANCH  14  22
ATOM     22  C   UNL A   1      36.876  31.432  30.325  1.00  0.00     0.128 A 
ATOM     23  C   UNL A   1      38.027  31.547  29.534  1.00  0.00     0.056 A 
ATOM     24  C   UNL A   1      36.281  30.161  30.421  1.00  0.00     0.056 A 
ATOM     25  C   UNL A   1      38.573  30.428  28.891  1.00  0.00     0.051 A 
ATOM     26  C   UNL A   1      36.825  29.040  29.790  1.00  0.00     0.051 A 
ATOM     27  C   UNL A   1      37.983  29.172  29.036  1.00  0.00     0.127 A 
BRANCH  27  28
ATOM     28  O   UNL A   1      38.691  28.115  28.528  1.00  0.00    -0.457 OA
BRANCH  28  29
ATOM     29  C   UNL A   1      39.980  28.298  28.080  1.00  0.00     0.127 A 
ATOM     30  C   UNL A   1      40.118  28.878  26.814  1.00  0.00     0.047 A 
ATOM     31  C   UNL A   1      41.073  27.687  28.696  1.00  0.00     0.047 A 
ATOM     32  C   UNL A   1      41.334  28.804  26.139  1.00  0.00     0.004 A 
ATOM     33  C   UNL A   1      42.303  27.649  28.032  1.00  0.00     0.004 A 
ATOM     34  C   UNL A   1      42.426  28.185  26.748  1.00  0.00     0.000 A 
ENDBRANCH  28  29
ENDBRANCH  27  28
ENDBRANCH  14  22
ENDBRANCH   7   8
ENDBRANCH   6   7
ENDBRANCH   3   6
ENDBRANCH   1   2
BRANCH   1  35
ATOM     35  C   UNL A   1      39.988  33.898  31.375  1.00  0.00     0.023 C 
BRANCH  35  36
ATOM     36  C   UNL A   1      40.892  34.694  30.438  1.00  0.00     0.023 C 
BRANCH  36  37
ATOM     37  C   UNL A   1      40.432  34.795  28.993  1.00  0.00     0.116 C 
BRANCH  37  38
ATOM     38  N   UNL A   1      40.752  36.079  28.405  1.00  0.00    -0.352 N 
ATOM     39  C   UNL A   1      41.915  36.527  27.832  1.00  0.00     0.251 C 
ATOM     40  H   UNL A   1      40.017  36.734  28.419  1.00  0.00     0.163 HD
ATOM     41  O   UNL A   1      42.017  37.730  27.596  1.00  0.00    -0.269 OA
BRANCH  39  42
ATOM     42  C   UNL A   1      43.047  35.616  27.507  1.00  0.00     0.039 A 
ATOM     43  C   UNL A   1      43.999  35.375  28.506  1.00  0.00     0.014 A 
ATOM     44  C   UNL A   1      43.232  35.049  26.243  1.00  0.00     0.014 A 
ATOM     45  C   UNL A   1      45.094  34.542  28.259  1.00  0.00     0.010 A 
ATOM     46  C   UNL A   1      44.290  34.163  26.016  1.00  0.00     0.010 A 
ATOM     47  C   UNL A   1      45.240  33.911  27.016  1.00  0.00    -0.014 A 
BRANCH  47  48
ATOM     48  C   UNL A   1      46.403  33.023  26.746  1.00  0.00     0.031 A 
ATOM     49  C   UNL A   1      47.700  33.607  26.298  1.00  0.00     0.074 A 
ATOM     50  C   UNL A   1      46.299  31.687  26.872  1.00  0.00     0.049 A 
ATOM     51  N   UNL A   1      48.841  33.001  26.119  1.00  0.00    -0.248 NA
ATOM     52  C   UNL A   1      47.727  35.052  26.020  1.00  0.00     0.031 C 
ATOM     53  C   UNL A   1      45.086  31.015  27.292  1.00  0.00     0.029 A 
ATOM     54  N   UNL A   1      47.179  30.657  26.659  1.00  0.00    -0.354 N 
ATOM     55  C   UNL A   1      49.726  33.982  25.710  1.00  0.00     0.074 A 
ATOM     56  C   UNL A   1      48.976  35.217  25.614  1.00  0.00     0.031 C 
ATOM     57  C   UNL A   1      45.269  29.688  27.290  1.00  0.00     0.029 A 
ATOM     58  C   UNL A   1      46.629  29.410  26.870  1.00  0.00     0.049 A 
ATOM     59  H   UNL A   1      48.113  30.794  26.382  1.00  0.00     0.167 HD
ATOM     60  C   UNL A   1      51.051  33.864  25.468  1.00  0.00     0.034 A 
ATOM     61  C   UNL A   1      47.153  28.175  26.769  1.00  0.00     0.034 A 
ATOM     62  C   UNL A   1      51.774  32.624  25.547  1.00  0.00     0.049 A 
ATOM     63  C   UNL A   1      48.615  28.068  26.465  1.00  0.00     0.074 A 
ATOM     64  C   UNL A   1      53.129  32.409  25.382  1.00  0.00     0.029 A 
ATOM     65  N   UNL A   1      51.197  31.382  25.773  1.00  0.00    -0.354 N 
ATOM     66  N   UNL A   1      49.476  29.033  26.255  1.00  0.00    -0.248 NA
ATOM     67  C   UNL A   1      49.195  26.721  26.453  1.00  0.00     0.031 C 
ATOM     68  C   UNL A   1      53.363  31.031  25.453  1.00  0.00     0.029 A 
ATOM     69  C   UNL A   1      52.163  30.390  25.715  1.00  0.00     0.049 A 
ATOM     70  H   UNL A   1      50.241  31.227  25.949  1.00  0.00     0.167 HD
ATOM     71  C   UNL A   1      50.712  28.417  26.134  1.00  0.00     0.074 A 
ATOM     72  C   UNL A   1      50.484  26.995  26.313  1.00  0.00     0.031 C 
ATOM     73  C   UNL A   1      51.922  28.980  25.900  1.00  0.00     0.034 A 
BRANCH  60  74
ATOM     74  C   UNL A   1      51.777  35.123  25.087  1.00  0.00     0.023 A 
ATOM     75  C   UNL A   1      52.179  35.330  23.750  1.00  0.00     0.012 A 
ATOM     76  C   UNL A   1      52.083  36.089  26.060  1.00  0.00     0.148 A 
ATOM     77  C   UNL A   1      52.922  36.457  23.401  1.00  0.00     0.002 A 
ATOM     78  C   UNL A   1      52.777  37.234  25.695  1.00  0.00     0.091 A 
ATOM     79  F   UNL A   1      51.720  35.855  27.329  1.00  0.00    -0.205 F 
ATOM     80  C   UNL A   1      53.213  37.412  24.371  1.00  0.00     0.022 A 
BRANCH  78  81
ATOM     81  S   UNL A   1      53.139  38.552  26.857  1.00  0.00     0.127 S 
ATOM     82  O   UNL A   1      53.900  37.839  27.883  1.00  0.00    -0.237 OA
ATOM     83  O   UNL A   1      53.929  39.471  26.038  1.00  0.00    -0.237 OA
ATOM     84  O   UNL A   1      51.850  39.075  27.287  1.00  0.00    -0.744 OA
ENDBRANCH  78  81
ENDBRANCH  60  74
BRANCH  61  85
ATOM     85  C   UNL A   1      46.329  26.970  27.080  1.00  0.00     0.023 A 
ATOM     86  C   UNL A   1      46.228  26.525  28.413  1.00  0.00     0.012 A 
ATOM     87  C   UNL A   1      45.619  26.282  26.075  1.00  0.00     0.148 A 
ATOM     88  C   UNL A   1      45.474  25.395  28.736  1.00  0.00     0.002 A 
ATOM     89  C   UNL A   1      44.830  25.186  26.410  1.00  0.00     0.091 A 
ATOM     90  F   UNL A   1      45.720  26.721  24.813  1.00  0.00    -0.205 F 
ATOM     91  C   UNL A   1      44.771  24.729  27.736  1.00  0.00     0.022 A 
BRANCH  89  92
ATOM     92  S   UNL A   1      43.789  24.336  25.219  1.00  0.00     0.127 S 
ATOM     93  O   UNL A   1      42.925  25.416  24.749  1.00  0.00    -0.237 OA
ATOM     94  O   UNL A   1      44.775  23.865  24.245  1.00  0.00    -0.237 OA
ATOM     95  O   UNL A   1      43.122  23.274  25.960  1.00  0.00    -0.744 OA
ENDBRANCH  89  92
ENDBRANCH  61  85
BRANCH  73  96
ATOM     96  C   UNL A   1      53.100  28.045  25.841  1.00  0.00     0.023 A 
ATOM     97  C   UNL A   1      53.519  27.514  24.604  1.00  0.00     0.012 A 
ATOM     98  C   UNL A   1      53.806  27.713  27.013  1.00  0.00     0.148 A 
ATOM     99  C   UNL A   1      54.589  26.623  24.543  1.00  0.00     0.002 A 
ATOM    100  C   UNL A   1      54.909  26.876  26.935  1.00  0.00     0.091 A 
ATOM    101  F   UNL A   1      53.377  28.210  28.182  1.00  0.00    -0.205 F 
ATOM    102  C   UNL A   1      55.290  26.313  25.706  1.00  0.00     0.022 A 
BRANCH 100 103
ATOM    103  S   UNL A   1      55.935  26.508  28.362  1.00  0.00     0.127 S 
ATOM    104  O   UNL A   1      56.330  27.845  28.799  1.00  0.00    -0.237 OA
ATOM    105  O   UNL A   1      54.992  25.827  29.251  1.00  0.00    -0.237 OA
ATOM    106  O   UNL A   1      57.017  25.665  27.870  1.00  0.00    -0.744 OA
ENDBRANCH 100 103
ENDBRANCH  73  96
ENDBRANCH  47  48
ENDBRANCH  39  42
ENDBRANCH  37  38
ENDBRANCH  36  37
ENDBRANCH  35  36
ENDBRANCH   1  35
TORSDOF 19
ENDMDL
MODEL 3
REMARK VINA RESULT:     -10.1      6.071     11.825
REMARK SMILES O=C(CCC(=O)/[NH+]=C1\S[C@H]2CS(=O)(=O)C[C@@H]2N1c1ccc(Oc2ccccc2)cc1)NCCCCNC(=O)c1ccc(-c2c3nc(c(-c4cccc(S(=O)(=O)[O-])c4F)c4ccc([nH]4)c(-c4cccc(S(=O)(=O)[O-])c4F)c4nc(c(-c5cccc(S(=O)(=O)[O-])c5F)c5ccc2[nH]5)C=C4)C=C3)cc1
REMARK SMILES IDX 32 1 31 2 2 3 1 4 3 6 4 7 5 8 6 9 7 10 8 11 9 13 17 14 10 15
REMARK SMILES IDX 16 16 11 17 15 18 12 19 13 20 14 21 18 22 19 23 30 24 20 25
REMARK SMILES IDX 29 26 21 27 22 28 23 29 24 30 28 31 25 32 27 33 26 34 33 35
REMARK SMILES IDX 34 36 35 37 36 38 37 39 38 41 39 42 40 43 101 44 41 45
REMARK SMILES IDX 100 46 42 47 43 48 44 49 94 50 45 51 99 52 93 53 95 54 46 55
REMARK SMILES IDX 98 56 92 57 91 58 47 60 79 61 59 62 78 63 60 64 63 65 77 66
REMARK SMILES IDX 96 67 61 68 62 69 76 71 97 72 64 73 48 74 49 75 57 76 50 77
REMARK SMILES IDX 52 78 58 79 51 80 53 81 54 82 55 83 56 84 80 85 81 86 89 87
REMARK SMILES IDX 82 88 84 89 90 90 83 91 85 92 86 93 87 94 88 95 65 96 66 97
REMARK SMILES IDX 74 98 67 99 69 100 75 101 68 102 70 103 71 104 72 105 73 106
REMARK H PARENT 31 5 7 12 36 40 95 59 63 70
REMARK Flexibility Score: inf
ROOT
ATOM      1  C   UNL A   1      48.667  32.779  27.798  1.00  0.00     0.116 C 
ENDROOT
BRANCH   1   2
ATOM      2  N   UNL A   1      48.334  32.931  29.205  1.00  0.00    -0.356 N 
ATOM      3  C   UNL A   1      47.484  32.221  29.990  1.00  0.00     0.220 C 
ATOM      4  O   UNL A   1      47.439  32.466  31.197  1.00  0.00    -0.275 OA
ATOM      5  H   UNL A   1      48.801  33.668  29.662  1.00  0.00     0.163 HD
BRANCH   3   6
ATOM      6  C   UNL A   1      46.613  31.151  29.393  1.00  0.00     0.112 C 
BRANCH   6   7
ATOM      7  C   UNL A   1      45.639  30.423  30.310  1.00  0.00     0.138 C 
BRANCH   7   8
ATOM      8  C   UNL A   1      45.341  28.927  30.210  1.00  0.00     0.308 C 
ATOM      9  O   UNL A   1      46.088  28.149  30.806  1.00  0.00    -0.247 OA
ATOM     10  N   UNL A   1      44.310  28.463  29.445  1.00  0.00    -0.204 N 
ATOM     11  C   UNL A   1      43.070  28.698  29.711  1.00  0.00     0.319 C 
ATOM     12  H   UNL A   1      44.523  27.921  28.651  1.00  0.00     0.316 HD
ATOM     13  S   UNL A   1      42.519  29.719  31.072  1.00  0.00    -0.029 SA
ATOM     14  N   UNL A   1      41.967  28.302  28.946  1.00  0.00    -0.217 N 
ATOM     15  C   UNL A   1      40.801  29.516  30.572  1.00  0.00     0.120 C 
ATOM     16  C   UNL A   1      40.862  29.245  29.063  1.00  0.00     0.212 C 
ATOM     17  C   UNL A   1      39.835  30.659  30.712  1.00  0.00     0.156 C 
ATOM     18  C   UNL A   1      39.437  28.875  28.708  1.00  0.00     0.188 C 
ATOM     19  S   UNL A   1      38.497  30.099  29.652  1.00  0.00     0.155 S 
ATOM     20  O   UNL A   1      37.536  29.407  30.489  1.00  0.00    -0.229 OA
ATOM     21  O   UNL A   1      38.126  31.192  28.786  1.00  0.00    -0.229 OA
BRANCH  14  22
ATOM     22  C   UNL A   1      41.956  27.222  28.063  1.00  0.00     0.128 A 
ATOM     23  C   UNL A   1      41.628  27.349  26.707  1.00  0.00     0.056 A 
ATOM     24  C   UNL A   1      42.321  25.944  28.524  1.00  0.00     0.056 A 
ATOM     25  C   UNL A   1      41.690  26.245  25.845  1.00  0.00     0.051 A 
ATOM     26  C   UNL A   1      42.392  24.841  27.669  1.00  0.00     0.051 A 
ATOM     27  C   UNL A   1      42.092  24.997  26.323  1.00  0.00     0.127 A 
BRANCH  27  28
ATOM     28  O   UNL A   1      42.302  24.032  25.374  1.00  0.00    -0.457 OA
BRANCH  28  29
ATOM     29  C   UNL A   1      42.506  22.723  25.752  1.00  0.00     0.127 A 
ATOM     30  C   UNL A   1      43.801  22.224  25.574  1.00  0.00     0.047 A 
ATOM     31  C   UNL A   1      41.447  21.854  26.015  1.00  0.00     0.047 A 
ATOM     32  C   UNL A   1      44.032  20.850  25.608  1.00  0.00     0.004 A 
ATOM     33  C   UNL A   1      41.689  20.479  26.089  1.00  0.00     0.004 A 
ATOM     34  C   UNL A   1      42.974  19.978  25.861  1.00  0.00     0.000 A 
ENDBRANCH  28  29
ENDBRANCH  27  28
ENDBRANCH  14  22
ENDBRANCH   7   8
ENDBRANCH   6   7
ENDBRANCH   3   6
ENDBRANCH   1   2
BRANCH   1  35
ATOM     35  C   UNL A   1      47.547  33.170  26.832  1.00  0.00     0.023 C 
BRANCH  35  36
ATOM     36  C   UNL A   1      47.760  34.480  26.078  1.00  0.00     0.023 C 
BRANCH  36  37
ATOM     37  C   UNL A   1      46.521  35.331  25.856  1.00  0.00     0.116 C 
BRANCH  37  38
ATOM     38  N   UNL A   1      45.557  34.683  24.992  1.00  0.00    -0.352 N 
ATOM     39  C   UNL A   1      44.412  33.992  25.302  1.00  0.00     0.251 C 
ATOM     40  H   UNL A   1      45.755  34.747  24.030  1.00  0.00     0.163 HD
ATOM     41  O   UNL A   1      43.869  33.344  24.408  1.00  0.00    -0.269 OA
BRANCH  39  42
ATOM     42  C   UNL A   1      43.826  33.992  26.670  1.00  0.00     0.039 A 
ATOM     43  C   UNL A   1      43.230  35.176  27.124  1.00  0.00     0.014 A 
ATOM     44  C   UNL A   1      43.902  32.896  27.534  1.00  0.00     0.014 A 
ATOM     45  C   UNL A   1      42.675  35.246  28.406  1.00  0.00     0.010 A 
ATOM     46  C   UNL A   1      43.289  32.945  28.790  1.00  0.00     0.010 A 
ATOM     47  C   UNL A   1      42.682  34.124  29.245  1.00  0.00    -0.014 A 
BRANCH  47  48
ATOM     48  C   UNL A   1      42.094  34.191  30.610  1.00  0.00     0.031 A 
ATOM     49  C   UNL A   1      40.613  34.214  30.786  1.00  0.00     0.074 A 
ATOM     50  C   UNL A   1      42.881  34.260  31.701  1.00  0.00     0.049 A 
ATOM     51  N   UNL A   1      39.930  34.165  31.896  1.00  0.00    -0.248 NA
ATOM     52  C   UNL A   1      39.793  34.298  29.568  1.00  0.00     0.031 C 
ATOM     53  C   UNL A   1      44.329  34.252  31.646  1.00  0.00     0.029 A 
ATOM     54  N   UNL A   1      42.612  34.362  33.042  1.00  0.00    -0.354 N 
ATOM     55  C   UNL A   1      38.600  34.210  31.518  1.00  0.00     0.074 A 
ATOM     56  C   UNL A   1      38.572  34.345  30.077  1.00  0.00     0.031 C 
ATOM     57  C   UNL A   1      44.839  34.369  32.878  1.00  0.00     0.029 A 
ATOM     58  C   UNL A   1      43.744  34.454  33.825  1.00  0.00     0.049 A 
ATOM     59  H   UNL A   1      41.700  34.370  33.411  1.00  0.00     0.167 HD
ATOM     60  C   UNL A   1      37.504  34.114  32.304  1.00  0.00     0.034 A 
ATOM     61  C   UNL A   1      43.900  34.565  35.157  1.00  0.00     0.034 A 
ATOM     62  C   UNL A   1      37.551  34.002  33.736  1.00  0.00     0.049 A 
ATOM     63  C   UNL A   1      42.669  34.492  36.006  1.00  0.00     0.074 A 
ATOM     64  C   UNL A   1      36.501  33.836  34.619  1.00  0.00     0.029 A 
ATOM     65  N   UNL A   1      38.707  34.086  34.501  1.00  0.00    -0.354 N 
ATOM     66  N   UNL A   1      41.423  34.354  35.624  1.00  0.00    -0.248 NA
ATOM     67  C   UNL A   1      42.861  34.519  37.459  1.00  0.00     0.031 C 
ATOM     68  C   UNL A   1      37.015  33.876  35.920  1.00  0.00     0.029 A 
ATOM     69  C   UNL A   1      38.393  34.013  35.849  1.00  0.00     0.049 A 
ATOM     70  H   UNL A   1      39.617  34.183  34.140  1.00  0.00     0.167 HD
ATOM     71  C   UNL A   1      40.683  34.226  36.788  1.00  0.00     0.074 A 
ATOM     72  C   UNL A   1      41.628  34.286  37.888  1.00  0.00     0.031 C 
ATOM     73  C   UNL A   1      39.344  34.069  36.931  1.00  0.00     0.034 A 
BRANCH  60  74
ATOM     74  C   UNL A   1      36.174  34.138  31.606  1.00  0.00     0.023 A 
ATOM     75  C   UNL A   1      35.855  33.143  30.657  1.00  0.00     0.012 A 
ATOM     76  C   UNL A   1      35.250  35.163  31.872  1.00  0.00     0.148 A 
ATOM     77  C   UNL A   1      34.657  33.200  29.947  1.00  0.00     0.002 A 
ATOM     78  C   UNL A   1      34.037  35.183  31.198  1.00  0.00     0.091 A 
ATOM     79  F   UNL A   1      35.589  36.115  32.752  1.00  0.00    -0.205 F 
ATOM     80  C   UNL A   1      33.745  34.215  30.224  1.00  0.00     0.022 A 
BRANCH  78  81
ATOM     81  S   UNL A   1      32.771  36.409  31.535  1.00  0.00     0.127 S 
ATOM     82  O   UNL A   1      33.025  37.391  30.481  1.00  0.00    -0.237 OA
ATOM     83  O   UNL A   1      31.543  35.632  31.363  1.00  0.00    -0.237 OA
ATOM     84  O   UNL A   1      33.012  36.875  32.893  1.00  0.00    -0.744 OA
ENDBRANCH  78  81
ENDBRANCH  60  74
BRANCH  61  85
ATOM     85  C   UNL A   1      45.263  34.628  35.761  1.00  0.00     0.023 A 
ATOM     86  C   UNL A   1      45.862  35.883  35.992  1.00  0.00     0.012 A 
ATOM     87  C   UNL A   1      45.957  33.461  36.140  1.00  0.00     0.148 A 
ATOM     88  C   UNL A   1      47.140  35.976  36.545  1.00  0.00     0.002 A 
ATOM     89  C   UNL A   1      47.210  33.562  36.737  1.00  0.00     0.091 A 
ATOM     90  F   UNL A   1      45.372  32.275  35.922  1.00  0.00    -0.205 F 
ATOM     91  C   UNL A   1      47.812  34.817  36.923  1.00  0.00     0.022 A 
BRANCH  89  92
ATOM     92  S   UNL A   1      48.103  32.139  37.372  1.00  0.00     0.127 S 
ATOM     93  O   UNL A   1      48.499  31.459  36.141  1.00  0.00    -0.237 OA
ATOM     94  O   UNL A   1      49.197  32.778  38.105  1.00  0.00    -0.237 OA
ATOM     95  O   UNL A   1      47.157  31.418  38.213  1.00  0.00    -0.744 OA
ENDBRANCH  89  92
ENDBRANCH  61  85
BRANCH  73  96
ATOM     96  C   UNL A   1      38.828  33.936  38.338  1.00  0.00     0.023 A 
ATOM     97  C   UNL A   1      38.988  34.997  39.253  1.00  0.00     0.012 A 
ATOM     98  C   UNL A   1      38.162  32.764  38.745  1.00  0.00     0.148 A 
ATOM     99  C   UNL A   1      38.541  34.870  40.567  1.00  0.00     0.002 A 
ATOM    100  C   UNL A   1      37.664  32.671  40.036  1.00  0.00     0.091 A 
ATOM    101  F   UNL A   1      38.042  31.757  37.867  1.00  0.00    -0.205 F 
ATOM    102  C   UNL A   1      37.869  33.713  40.955  1.00  0.00     0.022 A 
BRANCH 100 103
ATOM    103  S   UNL A   1      36.695  31.265  40.590  1.00  0.00     0.127 S 
ATOM    104  O   UNL A   1      37.713  30.222  40.694  1.00  0.00    -0.237 OA
ATOM    105  O   UNL A   1      36.170  31.738  41.871  1.00  0.00    -0.237 OA
ATOM    106  O   UNL A   1      35.681  31.048  39.566  1.00  0.00    -0.744 OA
ENDBRANCH 100 103
ENDBRANCH  73  96
ENDBRANCH  47  48
ENDBRANCH  39  42
ENDBRANCH  37  38
ENDBRANCH  36  37
ENDBRANCH  35  36
ENDBRANCH   1  35
TORSDOF 19
ENDMDL
