MODEL 1
REMARK VINA RESULT:     -11.6      0.000      0.000
REMARK SMILES C[NH+](C)[C@@H]1CC[N@@H+](Cc2ccc(C(=O)NCCCCNC(=O)c3ccc(-c4c5nc(c(-c6cccc(S(=O)(=O)[O-])c6F)c6ccc([nH]6)c(-c6cccc(S(=O)(=O)[O-])c6F)c6nc(c(-c7cccc(S(=O)(=O)[O-])c7F)c7ccc4[nH]7)C=C6)C=C5)cc3)cn2)C1
REMARK SMILES IDX 17 1 16 2 15 3 13 4 14 5 12 7 9 8 10 9 87 10 11 11 86 12
REMARK SMILES IDX 8 13 7 14 4 15 5 16 88 17 6 18 2 20 1 21 3 22 18 24 19 25
REMARK SMILES IDX 20 26 21 27 22 29 23 30 24 31 85 32 25 33 84 34 26 35 27 36
REMARK SMILES IDX 28 37 78 38 29 39 83 40 77 41 79 42 30 43 82 44 76 45 75 46
REMARK SMILES IDX 31 48 63 49 43 50 62 51 44 52 47 53 61 54 80 55 45 56 46 57
REMARK SMILES IDX 60 59 81 60 48 61 32 62 33 63 41 64 34 65 36 66 42 67 35 68
REMARK SMILES IDX 37 69 38 70 39 71 40 72 64 73 65 74 73 75 66 76 68 77 74 78
REMARK SMILES IDX 67 79 69 80 70 81 71 82 72 83 49 84 50 85 58 86 51 87 53 88
REMARK SMILES IDX 59 89 52 90 54 91 55 92 56 93 57 94
REMARK H PARENT 15 6 7 19 2 23 20 28 79 47 47 58
REMARK Flexibility Score: inf
ROOT
ATOM      1  C   UNL A   1      32.153  30.129  26.881  1.00  0.00     0.023 C 
ENDROOT
BRANCH   1   2
ATOM      2  C   UNL A   1      32.524  29.523  25.526  1.00  0.00     0.116 C 
BRANCH   2   3
ATOM      3  N   UNL A   1      31.590  29.938  24.497  1.00  0.00    -0.352 N 
ATOM      4  C   UNL A   1      30.812  29.209  23.632  1.00  0.00     0.252 C 
ATOM      5  O   UNL A   1      30.028  29.808  22.898  1.00  0.00    -0.269 OA
ATOM      6  H   UNL A   1      31.498  30.913  24.402  1.00  0.00     0.163 HD
BRANCH   4   7
ATOM      7  C   UNL A   1      30.826  27.730  23.600  1.00  0.00     0.058 A 
ATOM      8  C   UNL A   1      30.792  24.985  23.897  1.00  0.00     0.095 A 
ATOM      9  C   UNL A   1      31.689  25.557  23.003  1.00  0.00     0.030 A 
ATOM     10  N   UNL A   1      29.859  25.722  24.553  1.00  0.00    -0.255 NA
ATOM     11  C   UNL A   1      31.688  26.941  22.842  1.00  0.00     0.017 A 
ATOM     12  C   UNL A   1      29.898  27.070  24.392  1.00  0.00     0.125 A 
BRANCH   8  13
ATOM     13  C   UNL A   1      30.897  23.517  24.260  1.00  0.00     0.319 C 
BRANCH  13  14
ATOM     14  N   UNL A   1      32.205  22.863  24.067  1.00  0.00    -0.325 N 
ATOM     15  C   UNL A   1      32.377  20.409  24.101  1.00  0.00     0.245 C 
ATOM     16  C   UNL A   1      32.078  20.917  22.681  1.00  0.00     0.132 C 
ATOM     17  C   UNL A   1      32.486  21.717  24.939  1.00  0.00     0.328 C 
ATOM     18  C   UNL A   1      32.451  22.391  22.703  1.00  0.00     0.269 C 
ATOM     19  H   UNL A   1      32.824  23.637  24.310  1.00  0.00     0.348 HD
BRANCH  15  20
ATOM     20  N   UNL A   1      33.409  19.359  24.270  1.00  0.00    -0.333 N 
ATOM     21  C   UNL A   1      34.680  19.787  24.841  1.00  0.00     0.332 C 
ATOM     22  C   UNL A   1      32.951  18.125  24.895  1.00  0.00     0.332 C 
ATOM     23  H   UNL A   1      33.601  19.145  23.292  1.00  0.00     0.348 HD
ENDBRANCH  15  20
ENDBRANCH  13  14
ENDBRANCH   8  13
ENDBRANCH   4   7
ENDBRANCH   2   3
ENDBRANCH   1   2
BRANCH   1  24
ATOM     24  C   UNL A   1      31.902  31.637  26.854  1.00  0.00     0.023 C 
BRANCH  24  25
ATOM     25  C   UNL A   1      33.046  32.494  27.381  1.00  0.00     0.116 C 
BRANCH  25  26
ATOM     26  N   UNL A   1      32.649  33.866  27.669  1.00  0.00    -0.352 N 
ATOM     27  C   UNL A   1      33.164  34.728  28.611  1.00  0.00     0.251 C 
ATOM     28  H   UNL A   1      31.915  34.222  27.119  1.00  0.00     0.163 HD
ATOM     29  O   UNL A   1      32.646  35.818  28.797  1.00  0.00    -0.269 OA
BRANCH  27  30
ATOM     30  C   UNL A   1      34.328  34.301  29.417  1.00  0.00     0.039 A 
ATOM     31  C   UNL A   1      34.103  33.604  30.607  1.00  0.00     0.014 A 
ATOM     32  C   UNL A   1      35.631  34.546  28.976  1.00  0.00     0.014 A 
ATOM     33  C   UNL A   1      35.188  33.088  31.318  1.00  0.00     0.010 A 
ATOM     34  C   UNL A   1      36.705  33.973  29.649  1.00  0.00     0.010 A 
ATOM     35  C   UNL A   1      36.493  33.237  30.825  1.00  0.00    -0.014 A 
BRANCH  35  36
ATOM     36  C   UNL A   1      37.652  32.601  31.501  1.00  0.00     0.031 A 
ATOM     37  C   UNL A   1      38.356  31.436  30.867  1.00  0.00     0.074 A 
ATOM     38  C   UNL A   1      37.994  33.005  32.740  1.00  0.00     0.049 A 
ATOM     39  N   UNL A   1      39.340  30.713  31.338  1.00  0.00    -0.248 NA
ATOM     40  C   UNL A   1      37.871  31.005  29.547  1.00  0.00     0.031 C 
ATOM     41  C   UNL A   1      37.319  34.055  33.504  1.00  0.00     0.029 A 
ATOM     42  N   UNL A   1      38.973  32.553  33.590  1.00  0.00    -0.354 N 
ATOM     43  C   UNL A   1      39.570  29.725  30.390  1.00  0.00     0.074 A 
ATOM     44  C   UNL A   1      38.596  29.916  29.335  1.00  0.00     0.031 C 
ATOM     45  C   UNL A   1      37.893  34.159  34.713  1.00  0.00     0.029 A 
ATOM     46  C   UNL A   1      38.964  33.172  34.817  1.00  0.00     0.049 A 
ATOM     47  H   UNL A   1      39.618  31.851  33.344  1.00  0.00     0.167 HD
ATOM     48  C   UNL A   1      40.526  28.766  30.377  1.00  0.00     0.034 A 
ATOM     49  C   UNL A   1      39.728  32.965  35.909  1.00  0.00     0.034 A 
ATOM     50  C   UNL A   1      41.518  28.606  31.406  1.00  0.00     0.049 A 
ATOM     51  C   UNL A   1      40.826  31.941  35.849  1.00  0.00     0.074 A 
ATOM     52  C   UNL A   1      42.592  27.735  31.441  1.00  0.00     0.029 A 
ATOM     53  N   UNL A   1      41.556  29.331  32.588  1.00  0.00    -0.354 N 
ATOM     54  N   UNL A   1      41.148  31.136  34.865  1.00  0.00    -0.248 NA
ATOM     55  C   UNL A   1      41.692  31.822  37.030  1.00  0.00     0.031 C 
ATOM     56  C   UNL A   1      43.271  27.924  32.650  1.00  0.00     0.029 A 
ATOM     57  C   UNL A   1      42.628  28.924  33.362  1.00  0.00     0.049 A 
ATOM     58  H   UNL A   1      40.913  30.033  32.839  1.00  0.00     0.167 HD
ATOM     59  C   UNL A   1      42.266  30.432  35.297  1.00  0.00     0.074 A 
ATOM     60  C   UNL A   1      42.581  30.926  36.623  1.00  0.00     0.031 C 
ATOM     61  C   UNL A   1      42.958  29.454  34.661  1.00  0.00     0.034 A 
BRANCH  48  62
ATOM     62  C   UNL A   1      40.581  27.860  29.174  1.00  0.00     0.023 A 
ATOM     63  C   UNL A   1      39.699  26.762  29.097  1.00  0.00     0.012 A 
ATOM     64  C   UNL A   1      41.476  28.102  28.114  1.00  0.00     0.148 A 
ATOM     65  C   UNL A   1      39.737  25.894  28.008  1.00  0.00     0.002 A 
ATOM     66  C   UNL A   1      41.477  27.257  27.010  1.00  0.00     0.091 A 
ATOM     67  F   UNL A   1      42.326  29.135  28.214  1.00  0.00    -0.205 F 
ATOM     68  C   UNL A   1      40.619  26.146  26.961  1.00  0.00     0.022 A 
BRANCH  66  69
ATOM     69  S   UNL A   1      42.527  27.546  25.582  1.00  0.00     0.127 S 
ATOM     70  O   UNL A   1      43.856  27.565  26.189  1.00  0.00    -0.237 OA
ATOM     71  O   UNL A   1      42.255  26.373  24.750  1.00  0.00    -0.237 OA
ATOM     72  O   UNL A   1      42.074  28.806  25.009  1.00  0.00    -0.744 OA
ENDBRANCH  66  69
ENDBRANCH  48  62
BRANCH  49  73
ATOM     73  C   UNL A   1      39.514  33.806  37.119  1.00  0.00     0.023 A 
ATOM     74  C   UNL A   1      39.913  35.157  37.102  1.00  0.00     0.012 A 
ATOM     75  C   UNL A   1      38.858  33.297  38.257  1.00  0.00     0.148 A 
ATOM     76  C   UNL A   1      39.679  35.980  38.204  1.00  0.00     0.002 A 
ATOM     77  C   UNL A   1      38.579  34.136  39.329  1.00  0.00     0.091 A 
ATOM     78  F   UNL A   1      38.496  32.005  38.255  1.00  0.00    -0.205 F 
ATOM     79  C   UNL A   1      39.002  35.474  39.311  1.00  0.00     0.022 A 
BRANCH  77  80
ATOM     80  S   UNL A   1      37.590  33.610  40.733  1.00  0.00     0.127 S 
ATOM     81  O   UNL A   1      38.466  32.626  41.365  1.00  0.00    -0.237 OA
ATOM     82  O   UNL A   1      37.431  34.862  41.475  1.00  0.00    -0.237 OA
ATOM     83  O   UNL A   1      36.353  33.088  40.168  1.00  0.00    -0.744 OA
ENDBRANCH  77  80
ENDBRANCH  49  73
BRANCH  61  84
ATOM     84  C   UNL A   1      44.135  28.852  35.381  1.00  0.00     0.023 A 
ATOM     85  C   UNL A   1      45.419  29.400  35.192  1.00  0.00     0.012 A 
ATOM     86  C   UNL A   1      43.961  27.801  36.303  1.00  0.00     0.148 A 
ATOM     87  C   UNL A   1      46.516  28.895  35.888  1.00  0.00     0.002 A 
ATOM     88  C   UNL A   1      45.051  27.331  37.027  1.00  0.00     0.091 A 
ATOM     89  F   UNL A   1      42.735  27.279  36.455  1.00  0.00    -0.205 F 
ATOM     90  C   UNL A   1      46.331  27.870  36.812  1.00  0.00     0.022 A 
BRANCH  88  91
ATOM     91  S   UNL A   1      44.890  26.077  38.303  1.00  0.00     0.127 S 
ATOM     92  O   UNL A   1      46.256  25.996  38.815  1.00  0.00    -0.237 OA
ATOM     93  O   UNL A   1      43.928  26.687  39.222  1.00  0.00    -0.237 OA
ATOM     94  O   UNL A   1      44.400  24.882  37.626  1.00  0.00    -0.744 OA
ENDBRANCH  88  91
ENDBRANCH  61  84
ENDBRANCH  35  36
ENDBRANCH  27  30
ENDBRANCH  25  26
ENDBRANCH  24  25
ENDBRANCH   1  24
TORSDOF 17
ENDMDL
MODEL 2
REMARK VINA RESULT:     -11.4      0.875      7.849
REMARK SMILES C[NH+](C)[C@@H]1CC[N@@H+](Cc2ccc(C(=O)NCCCCNC(=O)c3ccc(-c4c5nc(c(-c6cccc(S(=O)(=O)[O-])c6F)c6ccc([nH]6)c(-c6cccc(S(=O)(=O)[O-])c6F)c6nc(c(-c7cccc(S(=O)(=O)[O-])c7F)c7ccc4[nH]7)C=C6)C=C5)cc3)cn2)C1
REMARK SMILES IDX 17 1 16 2 15 3 13 4 14 5 12 7 9 8 10 9 87 10 11 11 86 12
REMARK SMILES IDX 8 13 7 14 4 15 5 16 88 17 6 18 2 20 1 21 3 22 18 24 19 25
REMARK SMILES IDX 20 26 21 27 22 29 23 30 24 31 85 32 25 33 84 34 26 35 27 36
REMARK SMILES IDX 28 37 78 38 29 39 83 40 77 41 79 42 30 43 82 44 76 45 75 46
REMARK SMILES IDX 31 48 63 49 43 50 62 51 44 52 47 53 61 54 80 55 45 56 46 57
REMARK SMILES IDX 60 59 81 60 48 61 32 62 33 63 41 64 34 65 36 66 42 67 35 68
REMARK SMILES IDX 37 69 38 70 39 71 40 72 64 73 65 74 73 75 66 76 68 77 74 78
REMARK SMILES IDX 67 79 69 80 70 81 71 82 72 83 49 84 50 85 58 86 51 87 53 88
REMARK SMILES IDX 59 89 52 90 54 91 55 92 56 93 57 94
REMARK H PARENT 15 6 7 19 2 23 20 28 79 47 47 58
REMARK Flexibility Score: inf
ROOT
ATOM      1  C   UNL A   1      31.957  30.256  26.754  1.00  0.00     0.023 C 
ENDROOT
BRANCH   1   2
ATOM      2  C   UNL A   1      33.143  29.768  25.921  1.00  0.00     0.116 C 
BRANCH   2   3
ATOM      3  N   UNL A   1      32.804  29.722  24.511  1.00  0.00    -0.352 N 
ATOM      4  C   UNL A   1      32.340  28.697  23.723  1.00  0.00     0.252 C 
ATOM      5  O   UNL A   1      32.046  28.939  22.554  1.00  0.00    -0.269 OA
ATOM      6  H   UNL A   1      32.930  30.574  24.035  1.00  0.00     0.163 HD
BRANCH   4   7
ATOM      7  C   UNL A   1      32.111  27.331  24.244  1.00  0.00     0.058 A 
ATOM      8  C   UNL A   1      31.826  24.665  24.903  1.00  0.00     0.095 A 
ATOM      9  C   UNL A   1      30.837  25.564  25.282  1.00  0.00     0.030 A 
ATOM     10  N   UNL A   1      32.980  25.069  24.311  1.00  0.00    -0.255 NA
ATOM     11  C   UNL A   1      30.995  26.912  24.965  1.00  0.00     0.017 A 
ATOM     12  C   UNL A   1      33.095  26.384  23.995  1.00  0.00     0.125 A 
BRANCH   8  13
ATOM     13  C   UNL A   1      31.603  23.172  25.039  1.00  0.00     0.319 C 
BRANCH  13  14
ATOM     14  N   UNL A   1      32.789  22.299  24.960  1.00  0.00    -0.325 N 
ATOM     15  C   UNL A   1      32.539  19.856  25.114  1.00  0.00     0.245 C 
ATOM     16  C   UNL A   1      32.410  20.328  23.657  1.00  0.00     0.132 C 
ATOM     17  C   UNL A   1      32.823  21.172  25.898  1.00  0.00     0.328 C 
ATOM     18  C   UNL A   1      33.026  21.718  23.637  1.00  0.00     0.269 C 
ATOM     19  H   UNL A   1      33.517  22.971  25.206  1.00  0.00     0.348 HD
BRANCH  15  20
ATOM     20  N   UNL A   1      33.367  18.660  25.395  1.00  0.00    -0.333 N 
ATOM     21  C   UNL A   1      32.647  17.423  25.672  1.00  0.00     0.332 C 
ATOM     22  C   UNL A   1      34.462  18.422  24.462  1.00  0.00     0.332 C 
ATOM     23  H   UNL A   1      33.786  18.943  26.281  1.00  0.00     0.348 HD
ENDBRANCH  15  20
ENDBRANCH  13  14
ENDBRANCH   8  13
ENDBRANCH   4   7
ENDBRANCH   2   3
ENDBRANCH   1   2
BRANCH   1  24
ATOM     24  C   UNL A   1      31.788  31.775  26.787  1.00  0.00     0.023 C 
BRANCH  24  25
ATOM     25  C   UNL A   1      32.947  32.543  27.409  1.00  0.00     0.116 C 
BRANCH  25  26
ATOM     26  N   UNL A   1      32.612  33.923  27.734  1.00  0.00    -0.352 N 
ATOM     27  C   UNL A   1      33.169  34.738  28.694  1.00  0.00     0.251 C 
ATOM     28  H   UNL A   1      31.893  34.326  27.197  1.00  0.00     0.163 HD
ATOM     29  O   UNL A   1      32.700  35.845  28.911  1.00  0.00    -0.269 OA
BRANCH  27  30
ATOM     30  C   UNL A   1      34.316  34.240  29.483  1.00  0.00     0.039 A 
ATOM     31  C   UNL A   1      34.064  33.483  30.631  1.00  0.00     0.014 A 
ATOM     32  C   UNL A   1      35.628  34.479  29.067  1.00  0.00     0.014 A 
ATOM     33  C   UNL A   1      35.131  32.903  31.320  1.00  0.00     0.010 A 
ATOM     34  C   UNL A   1      36.682  33.845  29.715  1.00  0.00     0.010 A 
ATOM     35  C   UNL A   1      36.444  33.048  30.845  1.00  0.00    -0.014 A 
BRANCH  35  36
ATOM     36  C   UNL A   1      37.582  32.349  31.494  1.00  0.00     0.031 A 
ATOM     37  C   UNL A   1      38.149  32.861  32.787  1.00  0.00     0.074 A 
ATOM     38  C   UNL A   1      38.174  31.322  30.855  1.00  0.00     0.049 A 
ATOM     39  N   UNL A   1      39.179  32.423  33.464  1.00  0.00    -0.248 NA
ATOM     40  C   UNL A   1      37.494  34.036  33.382  1.00  0.00     0.031 C 
ATOM     41  C   UNL A   1      37.782  30.801  29.545  1.00  0.00     0.029 A 
ATOM     42  N   UNL A   1      39.257  30.555  31.206  1.00  0.00    -0.354 N 
ATOM     43  C   UNL A   1      39.317  33.286  34.543  1.00  0.00     0.074 A 
ATOM     44  C   UNL A   1      38.289  34.297  34.409  1.00  0.00     0.031 C 
ATOM     45  C   UNL A   1      38.618  29.810  29.196  1.00  0.00     0.029 A 
ATOM     46  C   UNL A   1      39.615  29.638  30.248  1.00  0.00     0.049 A 
ATOM     47  H   UNL A   1      39.733  30.654  32.063  1.00  0.00     0.167 HD
ATOM     48  C   UNL A   1      40.194  33.226  35.573  1.00  0.00     0.034 A 
ATOM     49  C   UNL A   1      40.638  28.759  30.214  1.00  0.00     0.034 A 
ATOM     50  C   UNL A   1      41.187  32.195  35.725  1.00  0.00     0.049 A 
ATOM     51  C   UNL A   1      41.560  28.665  31.397  1.00  0.00     0.074 A 
ATOM     52  C   UNL A   1      42.055  31.984  36.780  1.00  0.00     0.029 A 
ATOM     53  N   UNL A   1      41.447  31.205  34.789  1.00  0.00    -0.354 N 
ATOM     54  N   UNL A   1      41.558  29.373  32.500  1.00  0.00    -0.248 NA
ATOM     55  C   UNL A   1      42.598  27.625  31.352  1.00  0.00     0.031 C 
ATOM     56  C   UNL A   1      42.850  30.873  36.476  1.00  0.00     0.029 A 
ATOM     57  C   UNL A   1      42.467  30.384  35.238  1.00  0.00     0.049 A 
ATOM     58  H   UNL A   1      40.975  31.102  33.931  1.00  0.00     0.167 HD
ATOM     59  C   UNL A   1      42.577  28.853  33.290  1.00  0.00     0.074 A 
ATOM     60  C   UNL A   1      43.156  27.750  32.549  1.00  0.00     0.031 C 
ATOM     61  C   UNL A   1      43.005  29.262  34.510  1.00  0.00     0.034 A 
BRANCH  48  62
ATOM     62  C   UNL A   1      40.069  34.271  36.650  1.00  0.00     0.023 A 
ATOM     63  C   UNL A   1      40.482  35.593  36.380  1.00  0.00     0.012 A 
ATOM     64  C   UNL A   1      39.524  33.963  37.912  1.00  0.00     0.148 A 
ATOM     65  C   UNL A   1      40.397  36.580  37.360  1.00  0.00     0.002 A 
ATOM     66  C   UNL A   1      39.402  34.964  38.870  1.00  0.00     0.091 A 
ATOM     67  F   UNL A   1      39.160  32.697  38.163  1.00  0.00    -0.205 F 
ATOM     68  C   UNL A   1      39.850  36.268  38.601  1.00  0.00     0.022 A 
BRANCH  66  69
ATOM     69  S   UNL A   1      38.641  34.671  40.470  1.00  0.00     0.127 S 
ATOM     70  O   UNL A   1      39.721  34.007  41.196  1.00  0.00    -0.237 OA
ATOM     71  O   UNL A   1      38.344  36.029  40.930  1.00  0.00    -0.237 OA
ATOM     72  O   UNL A   1      37.463  33.857  40.203  1.00  0.00    -0.744 OA
ENDBRANCH  66  69
ENDBRANCH  48  62
BRANCH  49  73
ATOM     73  C   UNL A   1      40.783  27.854  29.041  1.00  0.00     0.023 A 
ATOM     74  C   UNL A   1      39.976  26.704  28.949  1.00  0.00     0.012 A 
ATOM     75  C   UNL A   1      41.664  28.162  27.984  1.00  0.00     0.148 A 
ATOM     76  C   UNL A   1      40.056  25.865  27.837  1.00  0.00     0.002 A 
ATOM     77  C   UNL A   1      41.699  27.352  26.855  1.00  0.00     0.091 A 
ATOM     78  F   UNL A   1      42.430  29.256  28.096  1.00  0.00    -0.205 F 
ATOM     79  C   UNL A   1      40.907  26.196  26.785  1.00  0.00     0.022 A 
BRANCH  77  80
ATOM     80  S   UNL A   1      42.657  27.776  25.395  1.00  0.00     0.127 S 
ATOM     81  O   UNL A   1      43.949  28.130  25.978  1.00  0.00    -0.237 OA
ATOM     82  O   UNL A   1      42.640  26.517  24.648  1.00  0.00    -0.237 OA
ATOM     83  O   UNL A   1      41.932  28.864  24.752  1.00  0.00    -0.744 OA
ENDBRANCH  77  80
ENDBRANCH  49  73
BRANCH  61  84
ATOM     84  C   UNL A   1      44.151  28.511  35.135  1.00  0.00     0.023 A 
ATOM     85  C   UNL A   1      45.474  28.862  34.803  1.00  0.00     0.012 A 
ATOM     86  C   UNL A   1      43.922  27.517  36.106  1.00  0.00     0.148 A 
ATOM     87  C   UNL A   1      46.552  28.218  35.408  1.00  0.00     0.002 A 
ATOM     88  C   UNL A   1      45.001  26.909  36.738  1.00  0.00     0.091 A 
ATOM     89  F   UNL A   1      42.655  27.182  36.394  1.00  0.00    -0.205 F 
ATOM     90  C   UNL A   1      46.316  27.251  36.383  1.00  0.00     0.022 A 
BRANCH  88  91
ATOM     91  S   UNL A   1      44.791  25.719  38.068  1.00  0.00     0.127 S 
ATOM     92  O   UNL A   1      46.176  25.451  38.449  1.00  0.00    -0.237 OA
ATOM     93  O   UNL A   1      44.023  26.483  39.053  1.00  0.00    -0.237 OA
ATOM     94  O   UNL A   1      44.071  24.594  37.485  1.00  0.00    -0.744 OA
ENDBRANCH  88  91
ENDBRANCH  61  84
ENDBRANCH  35  36
ENDBRANCH  27  30
ENDBRANCH  25  26
ENDBRANCH  24  25
ENDBRANCH   1  24
TORSDOF 17
ENDMDL
MODEL 3
REMARK VINA RESULT:     -11.4      1.337      1.758
REMARK SMILES C[NH+](C)[C@@H]1CC[N@@H+](Cc2ccc(C(=O)NCCCCNC(=O)c3ccc(-c4c5nc(c(-c6cccc(S(=O)(=O)[O-])c6F)c6ccc([nH]6)c(-c6cccc(S(=O)(=O)[O-])c6F)c6nc(c(-c7cccc(S(=O)(=O)[O-])c7F)c7ccc4[nH]7)C=C6)C=C5)cc3)cn2)C1
REMARK SMILES IDX 17 1 16 2 15 3 13 4 14 5 12 7 9 8 10 9 87 10 11 11 86 12
REMARK SMILES IDX 8 13 7 14 4 15 5 16 88 17 6 18 2 20 1 21 3 22 18 24 19 25
REMARK SMILES IDX 20 26 21 27 22 29 23 30 24 31 85 32 25 33 84 34 26 35 27 36
REMARK SMILES IDX 28 37 78 38 29 39 83 40 77 41 79 42 30 43 82 44 76 45 75 46
REMARK SMILES IDX 31 48 63 49 43 50 62 51 44 52 47 53 61 54 80 55 45 56 46 57
REMARK SMILES IDX 60 59 81 60 48 61 32 62 33 63 41 64 34 65 36 66 42 67 35 68
REMARK SMILES IDX 37 69 38 70 39 71 40 72 64 73 65 74 73 75 66 76 68 77 74 78
REMARK SMILES IDX 67 79 69 80 70 81 71 82 72 83 49 84 50 85 58 86 51 87 53 88
REMARK SMILES IDX 59 89 52 90 54 91 55 92 56 93 57 94
REMARK H PARENT 15 6 7 19 2 23 20 28 79 47 47 58
REMARK Flexibility Score: inf
ROOT
ATOM      1  C   UNL A   1      31.385  31.028  25.798  1.00  0.00     0.023 C 
ENDROOT
BRANCH   1   2
ATOM      2  C   UNL A   1      31.442  29.639  25.161  1.00  0.00     0.116 C 
BRANCH   2   3
ATOM      3  N   UNL A   1      30.873  29.654  23.827  1.00  0.00    -0.352 N 
ATOM      4  C   UNL A   1      30.887  28.716  22.825  1.00  0.00     0.252 C 
ATOM      5  O   UNL A   1      30.249  28.941  21.798  1.00  0.00    -0.269 OA
ATOM      6  H   UNL A   1      30.394  30.483  23.600  1.00  0.00     0.163 HD
BRANCH   4   7
ATOM      7  C   UNL A   1      31.577  27.414  22.960  1.00  0.00     0.058 A 
ATOM      8  C   UNL A   1      32.635  24.918  23.484  1.00  0.00     0.095 A 
ATOM      9  C   UNL A   1      33.490  25.952  23.122  1.00  0.00     0.030 A 
ATOM     10  N   UNL A   1      31.285  25.067  23.487  1.00  0.00    -0.255 NA
ATOM     11  C   UNL A   1      32.949  27.205  22.839  1.00  0.00     0.017 A 
ATOM     12  C   UNL A   1      30.790  26.304  23.229  1.00  0.00     0.125 A 
BRANCH   8  13
ATOM     13  C   UNL A   1      33.190  23.606  24.001  1.00  0.00     0.319 C 
BRANCH  13  14
ATOM     14  N   UNL A   1      32.224  22.529  24.290  1.00  0.00    -0.325 N 
ATOM     15  C   UNL A   1      32.977  20.189  24.393  1.00  0.00     0.245 C 
ATOM     16  C   UNL A   1      33.100  20.864  25.769  1.00  0.00     0.132 C 
ATOM     17  C   UNL A   1      32.368  21.305  23.494  1.00  0.00     0.328 C 
ATOM     18  C   UNL A   1      32.206  22.091  25.687  1.00  0.00     0.269 C 
ATOM     19  H   UNL A   1      31.356  23.001  24.037  1.00  0.00     0.348 HD
BRANCH  15  20
ATOM     20  N   UNL A   1      32.405  18.823  24.329  1.00  0.00    -0.333 N 
ATOM     21  C   UNL A   1      32.505  18.138  23.047  1.00  0.00     0.332 C 
ATOM     22  C   UNL A   1      32.783  17.934  25.421  1.00  0.00     0.332 C 
ATOM     23  H   UNL A   1      31.417  19.043  24.452  1.00  0.00     0.348 HD
ENDBRANCH  15  20
ENDBRANCH  13  14
ENDBRANCH   8  13
ENDBRANCH   4   7
ENDBRANCH   2   3
ENDBRANCH   1   2
BRANCH   1  24
ATOM     24  C   UNL A   1      32.089  31.134  27.151  1.00  0.00     0.023 C 
BRANCH  24  25
ATOM     25  C   UNL A   1      33.220  32.153  27.216  1.00  0.00     0.116 C 
BRANCH  25  26
ATOM     26  N   UNL A   1      32.763  33.498  27.538  1.00  0.00    -0.352 N 
ATOM     27  C   UNL A   1      33.207  34.340  28.533  1.00  0.00     0.251 C 
ATOM     28  H   UNL A   1      32.041  33.851  26.971  1.00  0.00     0.163 HD
ATOM     29  O   UNL A   1      32.644  35.404  28.737  1.00  0.00    -0.269 OA
BRANCH  27  30
ATOM     30  C   UNL A   1      34.351  33.921  29.372  1.00  0.00     0.039 A 
ATOM     31  C   UNL A   1      34.112  33.079  30.461  1.00  0.00     0.014 A 
ATOM     32  C   UNL A   1      35.652  34.319  29.057  1.00  0.00     0.014 A 
ATOM     33  C   UNL A   1      35.191  32.577  31.192  1.00  0.00     0.010 A 
ATOM     34  C   UNL A   1      36.727  33.764  29.743  1.00  0.00     0.010 A 
ATOM     35  C   UNL A   1      36.507  32.885  30.814  1.00  0.00    -0.014 A 
BRANCH  35  36
ATOM     36  C   UNL A   1      37.671  32.274  31.503  1.00  0.00     0.031 A 
ATOM     37  C   UNL A   1      38.432  31.152  30.857  1.00  0.00     0.074 A 
ATOM     38  C   UNL A   1      37.969  32.657  32.760  1.00  0.00     0.049 A 
ATOM     39  N   UNL A   1      39.431  30.453  31.333  1.00  0.00    -0.248 NA
ATOM     40  C   UNL A   1      37.996  30.739  29.514  1.00  0.00     0.031 C 
ATOM     41  C   UNL A   1      37.238  33.661  33.533  1.00  0.00     0.029 A 
ATOM     42  N   UNL A   1      38.943  32.218  33.622  1.00  0.00    -0.354 N 
ATOM     43  C   UNL A   1      39.719  29.499  30.366  1.00  0.00     0.074 A 
ATOM     44  C   UNL A   1      38.765  29.683  29.293  1.00  0.00     0.031 C 
ATOM     45  C   UNL A   1      37.780  33.754  34.758  1.00  0.00     0.029 A 
ATOM     46  C   UNL A   1      38.883  32.804  34.863  1.00  0.00     0.049 A 
ATOM     47  H   UNL A   1      39.620  31.547  33.374  1.00  0.00     0.167 HD
ATOM     48  C   UNL A   1      40.710  28.576  30.352  1.00  0.00     0.034 A 
ATOM     49  C   UNL A   1      39.628  32.596  35.968  1.00  0.00     0.034 A 
ATOM     50  C   UNL A   1      41.683  28.425  31.401  1.00  0.00     0.049 A 
ATOM     51  C   UNL A   1      40.764  31.613  35.909  1.00  0.00     0.074 A 
ATOM     52  C   UNL A   1      42.787  27.592  31.439  1.00  0.00     0.029 A 
ATOM     53  N   UNL A   1      41.666  29.119  32.601  1.00  0.00    -0.354 N 
ATOM     54  N   UNL A   1      41.139  30.848  34.913  1.00  0.00    -0.248 NA
ATOM     55  C   UNL A   1      41.605  31.494  37.108  1.00  0.00     0.031 C 
ATOM     56  C   UNL A   1      43.429  27.774  32.669  1.00  0.00     0.029 A 
ATOM     57  C   UNL A   1      42.734  28.731  33.391  1.00  0.00     0.049 A 
ATOM     58  H   UNL A   1      40.991  29.791  32.854  1.00  0.00     0.167 HD
ATOM     59  C   UNL A   1      42.271  30.173  35.354  1.00  0.00     0.074 A 
ATOM     60  C   UNL A   1      42.537  30.642  36.700  1.00  0.00     0.031 C 
ATOM     61  C   UNL A   1      43.013  29.238  34.711  1.00  0.00     0.034 A 
BRANCH  48  62
ATOM     62  C   UNL A   1      40.827  27.705  29.128  1.00  0.00     0.023 A 
ATOM     63  C   UNL A   1      40.051  26.530  29.041  1.00  0.00     0.012 A 
ATOM     64  C   UNL A   1      41.674  28.053  28.059  1.00  0.00     0.148 A 
ATOM     65  C   UNL A   1      40.149  25.692  27.932  1.00  0.00     0.002 A 
ATOM     66  C   UNL A   1      41.734  27.235  26.936  1.00  0.00     0.091 A 
ATOM     67  F   UNL A   1      42.425  29.159  28.166  1.00  0.00    -0.205 F 
ATOM     68  C   UNL A   1      40.983  26.049  26.877  1.00  0.00     0.022 A 
BRANCH  66  69
ATOM     69  S   UNL A   1      42.723  27.652  25.496  1.00  0.00     0.127 S 
ATOM     70  O   UNL A   1      42.565  26.457  24.670  1.00  0.00    -0.237 OA
ATOM     71  O   UNL A   1      42.043  28.842  24.982  1.00  0.00    -0.237 OA
ATOM     72  O   UNL A   1      44.067  27.900  26.000  1.00  0.00    -0.744 OA
ENDBRANCH  66  69
ENDBRANCH  48  62
BRANCH  49  73
ATOM     73  C   UNL A   1      39.355  33.396  37.194  1.00  0.00     0.023 A 
ATOM     74  C   UNL A   1      38.522  32.864  38.197  1.00  0.00     0.012 A 
ATOM     75  C   UNL A   1      39.971  34.646  37.402  1.00  0.00     0.148 A 
ATOM     76  C   UNL A   1      38.291  33.571  39.377  1.00  0.00     0.002 A 
ATOM     77  C   UNL A   1      39.780  35.320  38.603  1.00  0.00     0.091 A 
ATOM     78  F   UNL A   1      40.752  35.138  36.430  1.00  0.00    -0.205 F 
ATOM     79  C   UNL A   1      38.929  34.792  39.586  1.00  0.00     0.022 A 
BRANCH  77  80
ATOM     80  S   UNL A   1      40.670  36.825  39.015  1.00  0.00     0.127 S 
ATOM     81  O   UNL A   1      39.613  37.830  38.936  1.00  0.00    -0.237 OA
ATOM     82  O   UNL A   1      41.144  36.533  40.369  1.00  0.00    -0.237 OA
ATOM     83  O   UNL A   1      41.730  36.939  38.022  1.00  0.00    -0.744 OA
ENDBRANCH  77  80
ENDBRANCH  49  73
BRANCH  61  84
ATOM     84  C   UNL A   1      44.194  28.660  35.444  1.00  0.00     0.023 A 
ATOM     85  C   UNL A   1      45.467  29.241  35.279  1.00  0.00     0.012 A 
ATOM     86  C   UNL A   1      44.033  27.597  36.355  1.00  0.00     0.148 A 
ATOM     87  C   UNL A   1      46.565  28.758  35.988  1.00  0.00     0.002 A 
ATOM     88  C   UNL A   1      45.123  27.149  37.091  1.00  0.00     0.091 A 
ATOM     89  F   UNL A   1      42.818  27.043  36.484  1.00  0.00    -0.205 F 
ATOM     90  C   UNL A   1      46.392  27.721  36.901  1.00  0.00     0.022 A 
BRANCH  88  91
ATOM     91  S   UNL A   1      44.974  25.880  38.355  1.00  0.00     0.127 S 
ATOM     92  O   UNL A   1      43.999  26.478  39.264  1.00  0.00    -0.237 OA
ATOM     93  O   UNL A   1      44.477  24.735  37.592  1.00  0.00    -0.237 OA
ATOM     94  O   UNL A   1      46.315  25.703  38.900  1.00  0.00    -0.744 OA
ENDBRANCH  88  91
ENDBRANCH  61  84
ENDBRANCH  35  36
ENDBRANCH  27  30
ENDBRANCH  25  26
ENDBRANCH  24  25
ENDBRANCH   1  24
TORSDOF 17
ENDMDL
