MODEL 1
REMARK VINA RESULT:     -11.7      0.000      0.000
REMARK SMILES [NH3+][C@@H](Cc1c[nH]c2ccccc12)C(=O)N[C@@H](CS)C(=O)N[C@@H](CO)C(=O)NCCCCNC(=O)c1ccc(-c2c3nc(c(-c4cccc(S(=O)(=O)[O-])c4F)c4ccc([nH]4)c(-c4cccc(S(=O)(=O)[O-])c4F)c4nc(c(-c5cccc(S(=O)(=O)[O-])c5F)c5ccc2[nH]5)C=C4)C=C3)cc1
REMARK SMILES IDX 28 1 27 2 25 3 26 4 22 6 21 7 19 8 20 9 16 11 15 12 13 13
REMARK SMILES IDX 14 14 2 16 1 17 3 21 4 22 5 23 12 24 6 25 7 26 11 27 8 29
REMARK SMILES IDX 10 30 9 31 17 32 18 33 23 35 24 36 29 38 30 39 31 40 32 41
REMARK SMILES IDX 33 42 34 44 35 45 36 46 97 47 37 48 96 49 38 50 39 51 40 52
REMARK SMILES IDX 90 53 41 54 95 55 89 56 91 57 42 58 94 59 88 60 87 61 43 63
REMARK SMILES IDX 75 64 55 65 74 66 56 67 59 68 73 69 92 70 57 71 58 72 72 74
REMARK SMILES IDX 93 75 60 76 44 77 45 78 53 79 46 80 48 81 54 82 47 83 49 84
REMARK SMILES IDX 50 85 51 86 52 87 76 88 77 89 85 90 78 91 80 92 86 93 79 94
REMARK SMILES IDX 81 95 82 96 83 97 84 98 61 99 62 100 70 101 63 102 65 103
REMARK SMILES IDX 71 104 64 105 66 106 67 107 68 108 69 109
REMARK H PARENT 27 5 21 10 15 15 1 18 1 19 1 20 6 28 18 34 24 37 32 43 91 62
REMARK H PARENT 59 73
REMARK Flexibility Score: inf
ROOT
ATOM      1  C   UNL A   1      31.868  26.717  26.460  1.00  0.00     0.116 C 
ENDROOT
BRANCH   1   2
ATOM      2  N   UNL A   1      30.859  25.706  26.706  1.00  0.00    -0.354 N 
ATOM      3  C   UNL A   1      30.941  24.349  26.705  1.00  0.00     0.244 C 
ATOM      4  O   UNL A   1      29.987  23.714  27.168  1.00  0.00    -0.273 OA
ATOM      5  H   UNL A   1      29.963  26.062  26.906  1.00  0.00     0.163 HD
BRANCH   3   6
ATOM      6  C   UNL A   1      32.178  23.591  26.215  1.00  0.00     0.197 C 
BRANCH   6   7
ATOM      7  N   UNL A   1      33.400  24.373  26.338  1.00  0.00    -0.340 N 
ATOM      8  C   UNL A   1      34.403  24.426  25.437  1.00  0.00     0.244 C 
ATOM      9  O   UNL A   1      35.530  24.240  25.910  1.00  0.00    -0.273 OA
ATOM     10  H   UNL A   1      33.503  24.913  27.155  1.00  0.00     0.164 HD
BRANCH   8  11
ATOM     11  C   UNL A   1      34.169  24.600  23.921  1.00  0.00     0.181 C 
BRANCH  11  12
ATOM     12  N   UNL A   1      34.457  25.979  23.579  1.00  0.00    -0.338 N 
ATOM     13  C   UNL A   1      33.557  26.928  23.177  1.00  0.00     0.279 C 
ATOM     14  O   UNL A   1      33.842  28.105  23.429  1.00  0.00    -0.268 OA
ATOM     15  H   UNL A   1      35.398  26.263  23.642  1.00  0.00     0.164 HD
BRANCH  13  16
ATOM     16  C   UNL A   1      32.294  26.581  22.327  1.00  0.00     0.275 C 
BRANCH  16  17
ATOM     17  N   UNL A   1      32.706  26.029  21.020  1.00  0.00    -0.347 N 
ATOM     18  H   UNL A   1      33.542  26.514  20.695  1.00  0.00     0.345 HD
ATOM     19  H   UNL A   1      31.954  26.158  20.344  1.00  0.00     0.345 HD
ATOM     20  H   UNL A   1      32.907  25.034  21.120  1.00  0.00     0.345 HD
ENDBRANCH  16  17
BRANCH  16  21
ATOM     21  C   UNL A   1      31.043  25.953  22.997  1.00  0.00     0.113 C 
BRANCH  21  22
ATOM     22  C   UNL A   1      29.798  26.760  23.281  1.00  0.00    -0.016 A 
ATOM     23  C   UNL A   1      28.684  26.236  23.917  1.00  0.00     0.087 A 
ATOM     24  C   UNL A   1      29.458  28.127  22.969  1.00  0.00     0.003 A 
ATOM     25  N   UNL A   1      27.655  27.129  23.820  1.00  0.00    -0.361 N 
ATOM     26  C   UNL A   1      28.078  28.256  23.161  1.00  0.00     0.046 A 
ATOM     27  C   UNL A   1      30.140  29.233  22.419  1.00  0.00     0.010 A 
ATOM     28  H   UNL A   1      26.747  26.986  24.171  1.00  0.00     0.166 HD
ATOM     29  C   UNL A   1      27.340  29.361  22.716  1.00  0.00     0.026 A 
ATOM     30  C   UNL A   1      29.419  30.347  21.965  1.00  0.00     0.001 A 
ATOM     31  C   UNL A   1      28.035  30.393  22.084  1.00  0.00     0.002 A 
ENDBRANCH  21  22
ENDBRANCH  16  21
ENDBRANCH  13  16
ENDBRANCH  11  12
BRANCH  11  32
ATOM     32  C   UNL A   1      34.610  23.495  22.945  1.00  0.00     0.101 C 
BRANCH  32  33
ATOM     33  S   UNL A   1      36.315  22.866  23.133  1.00  0.00    -0.177 SA
ATOM     34  H   UNL A   1      37.054  23.229  22.051  1.00  0.00     0.102 HD
ENDBRANCH  32  33
ENDBRANCH  11  32
ENDBRANCH   8  11
ENDBRANCH   6   7
BRANCH   6  35
ATOM     35  C   UNL A   1      32.314  22.182  26.814  1.00  0.00     0.191 C 
BRANCH  35  36
ATOM     36  O   UNL A   1      32.567  22.185  28.217  1.00  0.00    -0.394 OA
ATOM     37  H   UNL A   1      31.997  22.841  28.647  1.00  0.00     0.210 HD
ENDBRANCH  35  36
ENDBRANCH   6  35
ENDBRANCH   3   6
ENDBRANCH   1   2
BRANCH   1  38
ATOM     38  C   UNL A   1      31.458  28.086  26.991  1.00  0.00     0.023 C 
BRANCH  38  39
ATOM     39  C   UNL A   1      31.742  29.249  26.041  1.00  0.00     0.023 C 
BRANCH  39  40
ATOM     40  C   UNL A   1      33.059  29.975  26.288  1.00  0.00     0.116 C 
BRANCH  40  41
ATOM     41  N   UNL A   1      32.879  31.351  26.724  1.00  0.00    -0.352 N 
ATOM     42  C   UNL A   1      33.678  32.105  27.553  1.00  0.00     0.251 C 
ATOM     43  H   UNL A   1      32.077  31.805  26.379  1.00  0.00     0.163 HD
ATOM     44  O   UNL A   1      33.321  33.219  27.900  1.00  0.00    -0.269 OA
BRANCH  42  45
ATOM     45  C   UNL A   1      34.947  31.530  28.044  1.00  0.00     0.039 A 
ATOM     46  C   UNL A   1      36.060  32.365  28.141  1.00  0.00     0.014 A 
ATOM     47  C   UNL A   1      35.025  30.194  28.444  1.00  0.00     0.014 A 
ATOM     48  C   UNL A   1      37.240  31.870  28.697  1.00  0.00     0.010 A 
ATOM     49  C   UNL A   1      36.173  29.729  29.076  1.00  0.00     0.010 A 
ATOM     50  C   UNL A   1      37.296  30.560  29.200  1.00  0.00    -0.014 A 
BRANCH  50  51
ATOM     51  C   UNL A   1      38.522  30.064  29.872  1.00  0.00     0.031 A 
ATOM     52  C   UNL A   1      38.887  30.540  31.251  1.00  0.00     0.074 A 
ATOM     53  C   UNL A   1      39.336  29.214  29.212  1.00  0.00     0.049 A 
ATOM     54  N   UNL A   1      39.891  30.175  32.007  1.00  0.00    -0.248 NA
ATOM     55  C   UNL A   1      38.035  31.578  31.852  1.00  0.00     0.031 C 
ATOM     56  C   UNL A   1      39.145  28.761  27.832  1.00  0.00     0.029 A 
ATOM     57  N   UNL A   1      40.491  28.588  29.609  1.00  0.00    -0.354 N 
ATOM     58  C   UNL A   1      39.805  30.952  33.155  1.00  0.00     0.074 A 
ATOM     59  C   UNL A   1      38.680  31.843  32.978  1.00  0.00     0.031 C 
ATOM     60  C   UNL A   1      40.133  27.912  27.507  1.00  0.00     0.029 A 
ATOM     61  C   UNL A   1      41.038  27.776  28.644  1.00  0.00     0.049 A 
ATOM     62  H   UNL A   1      40.890  28.710  30.501  1.00  0.00     0.167 HD
ATOM     63  C   UNL A   1      40.571  30.906  34.271  1.00  0.00     0.034 A 
ATOM     64  C   UNL A   1      42.139  27.001  28.674  1.00  0.00     0.034 A 
ATOM     65  C   UNL A   1      41.666  29.992  34.455  1.00  0.00     0.049 A 
ATOM     66  C   UNL A   1      42.934  26.921  29.949  1.00  0.00     0.074 A 
ATOM     67  C   UNL A   1      42.448  29.802  35.580  1.00  0.00     0.029 A 
ATOM     68  N   UNL A   1      42.143  29.124  33.486  1.00  0.00    -0.354 N 
ATOM     69  N   UNL A   1      42.729  27.532  31.090  1.00  0.00    -0.248 NA
ATOM     70  C   UNL A   1      44.087  26.009  29.953  1.00  0.00     0.031 C 
ATOM     71  C   UNL A   1      43.415  28.835  35.282  1.00  0.00     0.029 A 
ATOM     72  C   UNL A   1      43.215  28.400  33.982  1.00  0.00     0.049 A 
ATOM     73  H   UNL A   1      41.774  29.033  32.578  1.00  0.00     0.167 HD
ATOM     74  C   UNL A   1      43.706  27.057  31.958  1.00  0.00     0.074 A 
ATOM     75  C   UNL A   1      44.481  26.082  31.217  1.00  0.00     0.031 C 
ATOM     76  C   UNL A   1      43.952  27.406  33.245  1.00  0.00     0.034 A 
BRANCH  63  77
ATOM     77  C   UNL A   1      40.214  31.834  35.403  1.00  0.00     0.023 A 
ATOM     78  C   UNL A   1      40.914  33.048  35.557  1.00  0.00     0.012 A 
ATOM     79  C   UNL A   1      39.153  31.534  36.281  1.00  0.00     0.148 A 
ATOM     80  C   UNL A   1      40.591  33.932  36.585  1.00  0.00     0.002 A 
ATOM     81  C   UNL A   1      38.805  32.442  37.274  1.00  0.00     0.091 A 
ATOM     82  F   UNL A   1      38.514  30.365  36.134  1.00  0.00    -0.205 F 
ATOM     83  C   UNL A   1      39.530  33.635  37.436  1.00  0.00     0.022 A 
BRANCH  81  84
ATOM     84  S   UNL A   1      37.403  32.191  38.370  1.00  0.00     0.127 S 
ATOM     85  O   UNL A   1      37.243  30.739  38.316  1.00  0.00    -0.237 OA
ATOM     86  O   UNL A   1      37.914  32.702  39.642  1.00  0.00    -0.237 OA
ATOM     87  O   UNL A   1      36.306  32.962  37.801  1.00  0.00    -0.744 OA
ENDBRANCH  81  84
ENDBRANCH  63  77
BRANCH  64  88
ATOM     88  C   UNL A   1      42.504  26.179  27.487  1.00  0.00     0.023 A 
ATOM     89  C   UNL A   1      43.278  26.750  26.456  1.00  0.00     0.012 A 
ATOM     90  C   UNL A   1      42.114  24.831  27.384  1.00  0.00     0.148 A 
ATOM     91  C   UNL A   1      43.626  26.004  25.330  1.00  0.00     0.002 A 
ATOM     92  C   UNL A   1      42.514  24.075  26.288  1.00  0.00     0.091 A 
ATOM     93  F   UNL A   1      41.370  24.307  28.369  1.00  0.00    -0.205 F 
ATOM     94  C   UNL A   1      43.253  24.664  25.250  1.00  0.00     0.022 A 
BRANCH  92  95
ATOM     95  S   UNL A   1      42.199  22.310  26.170  1.00  0.00     0.127 S 
ATOM     96  O   UNL A   1      40.742  22.271  26.078  1.00  0.00    -0.237 OA
ATOM     97  O   UNL A   1      42.906  21.959  24.939  1.00  0.00    -0.237 OA
ATOM     98  O   UNL A   1      42.774  21.729  27.376  1.00  0.00    -0.744 OA
ENDBRANCH  92  95
ENDBRANCH  64  88
BRANCH  76  99
ATOM     99  C   UNL A   1      45.092  26.711  33.945  1.00  0.00     0.023 A 
ATOM    100  C   UNL A   1      46.369  27.304  33.962  1.00  0.00     0.012 A 
ATOM    101  C   UNL A   1      44.885  25.494  34.621  1.00  0.00     0.148 A 
ATOM    102  C   UNL A   1      47.436  26.672  34.601  1.00  0.00     0.002 A 
ATOM    103  C   UNL A   1      45.940  24.896  35.301  1.00  0.00     0.091 A 
ATOM    104  F   UNL A   1      43.667  24.934  34.580  1.00  0.00    -0.205 F 
ATOM    105  C   UNL A   1      47.219  25.475  35.279  1.00  0.00     0.022 A 
BRANCH 103 106
ATOM    106  S   UNL A   1      45.725  23.405  36.282  1.00  0.00     0.127 S 
ATOM    107  O   UNL A   1      47.074  22.844  36.267  1.00  0.00    -0.237 OA
ATOM    108  O   UNL A   1      45.302  23.942  37.575  1.00  0.00    -0.237 OA
ATOM    109  O   UNL A   1      44.709  22.620  35.595  1.00  0.00    -0.744 OA
ENDBRANCH 103 106
ENDBRANCH  76  99
ENDBRANCH  50  51
ENDBRANCH  42  45
ENDBRANCH  40  41
ENDBRANCH  39  40
ENDBRANCH  38  39
ENDBRANCH   1  38
TORSDOF 25
ENDMDL
MODEL 2
REMARK VINA RESULT:     -11.5      5.295      8.357
REMARK SMILES [NH3+][C@@H](Cc1c[nH]c2ccccc12)C(=O)N[C@@H](CS)C(=O)N[C@@H](CO)C(=O)NCCCCNC(=O)c1ccc(-c2c3nc(c(-c4cccc(S(=O)(=O)[O-])c4F)c4ccc([nH]4)c(-c4cccc(S(=O)(=O)[O-])c4F)c4nc(c(-c5cccc(S(=O)(=O)[O-])c5F)c5ccc2[nH]5)C=C4)C=C3)cc1
REMARK SMILES IDX 28 1 27 2 25 3 26 4 22 6 21 7 19 8 20 9 16 11 15 12 13 13
REMARK SMILES IDX 14 14 2 16 1 17 3 21 4 22 5 23 12 24 6 25 7 26 11 27 8 29
REMARK SMILES IDX 10 30 9 31 17 32 18 33 23 35 24 36 29 38 30 39 31 40 32 41
REMARK SMILES IDX 33 42 34 44 35 45 36 46 97 47 37 48 96 49 38 50 39 51 40 52
REMARK SMILES IDX 90 53 41 54 95 55 89 56 91 57 42 58 94 59 88 60 87 61 43 63
REMARK SMILES IDX 75 64 55 65 74 66 56 67 59 68 73 69 92 70 57 71 58 72 72 74
REMARK SMILES IDX 93 75 60 76 44 77 45 78 53 79 46 80 48 81 54 82 47 83 49 84
REMARK SMILES IDX 50 85 51 86 52 87 76 88 77 89 85 90 78 91 80 92 86 93 79 94
REMARK SMILES IDX 81 95 82 96 83 97 84 98 61 99 62 100 70 101 63 102 65 103
REMARK SMILES IDX 71 104 64 105 66 106 67 107 68 108 69 109
REMARK H PARENT 27 5 21 10 15 15 1 18 1 19 1 20 6 28 18 34 24 37 32 43 91 62
REMARK H PARENT 59 73
REMARK Flexibility Score: inf
ROOT
ATOM      1  C   UNL A   1      35.625  20.476  24.801  1.00  0.00     0.116 C 
ENDROOT
BRANCH   1   2
ATOM      2  N   UNL A   1      35.261  21.128  26.043  1.00  0.00    -0.354 N 
ATOM      3  C   UNL A   1      35.147  22.446  26.356  1.00  0.00     0.244 C 
ATOM      4  O   UNL A   1      34.600  22.738  27.426  1.00  0.00    -0.273 OA
ATOM      5  H   UNL A   1      35.064  20.512  26.787  1.00  0.00     0.163 HD
BRANCH   3   6
ATOM      6  C   UNL A   1      35.609  23.566  25.420  1.00  0.00     0.197 C 
BRANCH   6   7
ATOM      7  N   UNL A   1      34.910  24.820  25.657  1.00  0.00    -0.340 N 
ATOM      8  C   UNL A   1      33.752  25.205  25.081  1.00  0.00     0.244 C 
ATOM      9  O   UNL A   1      33.774  26.339  24.589  1.00  0.00    -0.273 OA
ATOM     10  H   UNL A   1      35.321  25.445  26.298  1.00  0.00     0.164 HD
BRANCH   8  11
ATOM     11  C   UNL A   1      32.525  24.278  24.949  1.00  0.00     0.181 C 
BRANCH  11  12
ATOM     12  N   UNL A   1      31.588  24.623  25.999  1.00  0.00    -0.338 N 
ATOM     13  C   UNL A   1      30.337  25.156  25.838  1.00  0.00     0.279 C 
ATOM     14  O   UNL A   1      29.510  24.906  26.724  1.00  0.00    -0.268 OA
ATOM     15  H   UNL A   1      31.881  24.457  26.925  1.00  0.00     0.164 HD
BRANCH  13  16
ATOM     16  C   UNL A   1      29.986  26.139  24.678  1.00  0.00     0.275 C 
BRANCH  16  17
ATOM     17  N   UNL A   1      28.553  26.021  24.336  1.00  0.00    -0.347 N 
ATOM     18  H   UNL A   1      28.066  26.873  24.616  1.00  0.00     0.345 HD
ATOM     19  H   UNL A   1      28.151  25.223  24.827  1.00  0.00     0.345 HD
ATOM     20  H   UNL A   1      28.454  25.887  23.330  1.00  0.00     0.345 HD
ENDBRANCH  16  17
BRANCH  16  21
ATOM     21  C   UNL A   1      30.608  27.560  24.635  1.00  0.00     0.113 C 
BRANCH  21  22
ATOM     22  C   UNL A   1      30.463  28.459  23.430  1.00  0.00    -0.016 A 
ATOM     23  C   UNL A   1      31.483  28.669  22.515  1.00  0.00     0.087 A 
ATOM     24  C   UNL A   1      29.364  29.277  22.978  1.00  0.00     0.003 A 
ATOM     25  N   UNL A   1      31.131  29.695  21.684  1.00  0.00    -0.361 N 
ATOM     26  C   UNL A   1      29.875  30.146  22.007  1.00  0.00     0.046 A 
ATOM     27  C   UNL A   1      28.024  29.469  23.375  1.00  0.00     0.010 A 
ATOM     28  H   UNL A   1      31.693  30.055  20.960  1.00  0.00     0.166 HD
ATOM     29  C   UNL A   1      29.172  31.257  21.524  1.00  0.00     0.026 A 
ATOM     30  C   UNL A   1      27.305  30.577  22.904  1.00  0.00     0.001 A 
ATOM     31  C   UNL A   1      27.885  31.474  22.016  1.00  0.00     0.002 A 
ENDBRANCH  21  22
ENDBRANCH  16  21
ENDBRANCH  13  16
ENDBRANCH  11  12
BRANCH  11  32
ATOM     32  C   UNL A   1      31.970  23.934  23.555  1.00  0.00     0.101 C 
BRANCH  32  33
ATOM     33  S   UNL A   1      33.019  24.370  22.123  1.00  0.00    -0.177 SA
ATOM     34  H   UNL A   1      33.508  23.233  21.558  1.00  0.00     0.102 HD
ENDBRANCH  32  33
ENDBRANCH  11  32
ENDBRANCH   8  11
ENDBRANCH   6   7
BRANCH   6  35
ATOM     35  C   UNL A   1      37.136  23.738  25.375  1.00  0.00     0.191 C 
BRANCH  35  36
ATOM     36  O   UNL A   1      37.790  23.315  26.569  1.00  0.00    -0.394 OA
ATOM     37  H   UNL A   1      37.155  23.312  27.302  1.00  0.00     0.210 HD
ENDBRANCH  35  36
ENDBRANCH   6  35
ENDBRANCH   3   6
ENDBRANCH   1   2
BRANCH   1  38
ATOM     38  C   UNL A   1      36.799  19.517  24.972  1.00  0.00     0.023 C 
BRANCH  38  39
ATOM     39  C   UNL A   1      38.169  20.128  24.677  1.00  0.00     0.023 C 
BRANCH  39  40
ATOM     40  C   UNL A   1      39.082  20.274  25.888  1.00  0.00     0.116 C 
BRANCH  40  41
ATOM     41  N   UNL A   1      40.101  19.239  25.964  1.00  0.00    -0.352 N 
ATOM     42  C   UNL A   1      41.458  19.375  26.145  1.00  0.00     0.251 C 
ATOM     43  H   UNL A   1      39.775  18.314  25.871  1.00  0.00     0.163 HD
ATOM     44  O   UNL A   1      42.186  18.399  26.079  1.00  0.00    -0.269 OA
BRANCH  42  45
ATOM     45  C   UNL A   1      42.019  20.723  26.380  1.00  0.00     0.039 A 
ATOM     46  C   UNL A   1      42.258  21.543  25.277  1.00  0.00     0.014 A 
ATOM     47  C   UNL A   1      42.264  21.186  27.675  1.00  0.00     0.014 A 
ATOM     48  C   UNL A   1      42.691  22.853  25.480  1.00  0.00     0.010 A 
ATOM     49  C   UNL A   1      42.611  22.517  27.878  1.00  0.00     0.010 A 
ATOM     50  C   UNL A   1      42.838  23.362  26.782  1.00  0.00    -0.014 A 
BRANCH  50  51
ATOM     51  C   UNL A   1      43.211  24.781  26.997  1.00  0.00     0.031 A 
ATOM     52  C   UNL A   1      42.255  25.733  27.662  1.00  0.00     0.074 A 
ATOM     53  C   UNL A   1      44.402  25.224  26.546  1.00  0.00     0.049 A 
ATOM     54  N   UNL A   1      42.433  26.990  27.975  1.00  0.00    -0.248 NA
ATOM     55  C   UNL A   1      40.916  25.220  27.994  1.00  0.00     0.031 C 
ATOM     56  C   UNL A   1      45.371  24.423  25.793  1.00  0.00     0.029 A 
ATOM     57  N   UNL A   1      44.997  26.457  26.645  1.00  0.00    -0.354 N 
ATOM     58  C   UNL A   1      41.229  27.423  28.517  1.00  0.00     0.074 A 
ATOM     59  C   UNL A   1      40.311  26.308  28.446  1.00  0.00     0.031 C 
ATOM     60  C   UNL A   1      46.448  25.177  25.522  1.00  0.00     0.029 A 
ATOM     61  C   UNL A   1      46.239  26.518  26.060  1.00  0.00     0.049 A 
ATOM     62  H   UNL A   1      44.573  27.224  27.093  1.00  0.00     0.167 HD
ATOM     63  C   UNL A   1      40.924  28.627  29.055  1.00  0.00     0.034 A 
ATOM     64  C   UNL A   1      47.116  27.537  25.973  1.00  0.00     0.034 A 
ATOM     65  C   UNL A   1      41.853  29.720  29.156  1.00  0.00     0.049 A 
ATOM     66  C   UNL A   1      46.777  28.843  26.637  1.00  0.00     0.074 A 
ATOM     67  C   UNL A   1      41.674  30.949  29.765  1.00  0.00     0.029 A 
ATOM     68  N   UNL A   1      43.134  29.721  28.625  1.00  0.00    -0.354 N 
ATOM     69  N   UNL A   1      45.698  29.175  27.304  1.00  0.00    -0.248 NA
ATOM     70  C   UNL A   1      47.795  29.902  26.574  1.00  0.00     0.031 C 
ATOM     71  C   UNL A   1      42.838  31.703  29.579  1.00  0.00     0.029 A 
ATOM     72  C   UNL A   1      43.754  30.932  28.882  1.00  0.00     0.049 A 
ATOM     73  H   UNL A   1      43.543  28.970  28.137  1.00  0.00     0.167 HD
ATOM     74  C   UNL A   1      45.919  30.468  27.767  1.00  0.00     0.074 A 
ATOM     75  C   UNL A   1      47.249  30.844  27.331  1.00  0.00     0.031 C 
ATOM     76  C   UNL A   1      45.092  31.277  28.475  1.00  0.00     0.034 A 
BRANCH  63  77
ATOM     77  C   UNL A   1      39.543  28.806  29.631  1.00  0.00     0.023 A 
ATOM     78  C   UNL A   1      39.270  28.359  30.941  1.00  0.00     0.012 A 
ATOM     79  C   UNL A   1      38.531  29.462  28.903  1.00  0.00     0.148 A 
ATOM     80  C   UNL A   1      38.006  28.528  31.503  1.00  0.00     0.002 A 
ATOM     81  C   UNL A   1      37.288  29.671  29.488  1.00  0.00     0.091 A 
ATOM     82  F   UNL A   1      38.801  29.859  27.651  1.00  0.00    -0.205 F 
ATOM     83  C   UNL A   1      37.019  29.194  30.781  1.00  0.00     0.022 A 
BRANCH  81  84
ATOM     84  S   UNL A   1      35.974  30.588  28.674  1.00  0.00     0.127 S 
ATOM     85  O   UNL A   1      35.196  31.064  29.816  1.00  0.00    -0.237 OA
ATOM     86  O   UNL A   1      36.720  31.629  27.968  1.00  0.00    -0.237 OA
ATOM     87  O   UNL A   1      35.294  29.633  27.810  1.00  0.00    -0.744 OA
ENDBRANCH  81  84
ENDBRANCH  63  77
BRANCH  64  88
ATOM     88  C   UNL A   1      48.431  27.334  25.302  1.00  0.00     0.023 A 
ATOM     89  C   UNL A   1      49.551  26.952  26.068  1.00  0.00     0.012 A 
ATOM     90  C   UNL A   1      48.572  27.490  23.911  1.00  0.00     0.148 A 
ATOM     91  C   UNL A   1      50.795  26.765  25.464  1.00  0.00     0.002 A 
ATOM     92  C   UNL A   1      49.800  27.244  23.307  1.00  0.00     0.091 A 
ATOM     93  F   UNL A   1      47.498  27.864  23.201  1.00  0.00    -0.205 F 
ATOM     94  C   UNL A   1      50.917  26.901  24.084  1.00  0.00     0.022 A 
BRANCH  92  95
ATOM     95  S   UNL A   1      50.014  27.259  21.524  1.00  0.00     0.127 S 
ATOM     96  O   UNL A   1      49.830  28.673  21.211  1.00  0.00    -0.237 OA
ATOM     97  O   UNL A   1      51.385  26.768  21.381  1.00  0.00    -0.237 OA
ATOM     98  O   UNL A   1      48.998  26.355  21.000  1.00  0.00    -0.744 OA
ENDBRANCH  92  95
ENDBRANCH  64  88
BRANCH  76  99
ATOM     99  C   UNL A   1      45.611  32.643  28.844  1.00  0.00     0.023 A 
ATOM    100  C   UNL A   1      46.302  32.826  30.058  1.00  0.00     0.012 A 
ATOM    101  C   UNL A   1      45.452  33.734  27.968  1.00  0.00     0.148 A 
ATOM    102  C   UNL A   1      46.785  34.085  30.417  1.00  0.00     0.002 A 
ATOM    103  C   UNL A   1      45.982  34.973  28.307  1.00  0.00     0.091 A 
ATOM    104  F   UNL A   1      44.777  33.546  26.825  1.00  0.00    -0.205 F 
ATOM    105  C   UNL A   1      46.634  35.154  29.537  1.00  0.00     0.022 A 
BRANCH 103 106
ATOM    106  S   UNL A   1      45.921  36.379  27.191  1.00  0.00     0.127 S 
ATOM    107  O   UNL A   1      46.751  37.354  27.894  1.00  0.00    -0.237 OA
ATOM    108  O   UNL A   1      46.520  35.835  25.972  1.00  0.00    -0.237 OA
ATOM    109  O   UNL A   1      44.512  36.726  27.066  1.00  0.00    -0.744 OA
ENDBRANCH 103 106
ENDBRANCH  76  99
ENDBRANCH  50  51
ENDBRANCH  42  45
ENDBRANCH  40  41
ENDBRANCH  39  40
ENDBRANCH  38  39
ENDBRANCH   1  38
TORSDOF 25
ENDMDL
MODEL 3
REMARK VINA RESULT:     -11.4      5.644      8.318
REMARK SMILES [NH3+][C@@H](Cc1c[nH]c2ccccc12)C(=O)N[C@@H](CS)C(=O)N[C@@H](CO)C(=O)NCCCCNC(=O)c1ccc(-c2c3nc(c(-c4cccc(S(=O)(=O)[O-])c4F)c4ccc([nH]4)c(-c4cccc(S(=O)(=O)[O-])c4F)c4nc(c(-c5cccc(S(=O)(=O)[O-])c5F)c5ccc2[nH]5)C=C4)C=C3)cc1
REMARK SMILES IDX 28 1 27 2 25 3 26 4 22 6 21 7 19 8 20 9 16 11 15 12 13 13
REMARK SMILES IDX 14 14 2 16 1 17 3 21 4 22 5 23 12 24 6 25 7 26 11 27 8 29
REMARK SMILES IDX 10 30 9 31 17 32 18 33 23 35 24 36 29 38 30 39 31 40 32 41
REMARK SMILES IDX 33 42 34 44 35 45 36 46 97 47 37 48 96 49 38 50 39 51 40 52
REMARK SMILES IDX 90 53 41 54 95 55 89 56 91 57 42 58 94 59 88 60 87 61 43 63
REMARK SMILES IDX 75 64 55 65 74 66 56 67 59 68 73 69 92 70 57 71 58 72 72 74
REMARK SMILES IDX 93 75 60 76 44 77 45 78 53 79 46 80 48 81 54 82 47 83 49 84
REMARK SMILES IDX 50 85 51 86 52 87 76 88 77 89 85 90 78 91 80 92 86 93 79 94
REMARK SMILES IDX 81 95 82 96 83 97 84 98 61 99 62 100 70 101 63 102 65 103
REMARK SMILES IDX 71 104 64 105 66 106 67 107 68 108 69 109
REMARK H PARENT 27 5 21 10 15 15 1 18 1 19 1 20 6 28 18 34 24 37 32 43 91 62
REMARK H PARENT 59 73
REMARK Flexibility Score: inf
ROOT
ATOM      1  C   UNL A   1      35.990  20.212  25.013  1.00  0.00     0.116 C 
ENDROOT
BRANCH   1   2
ATOM      2  N   UNL A   1      35.350  20.995  26.052  1.00  0.00    -0.354 N 
ATOM      3  C   UNL A   1      34.036  21.235  26.303  1.00  0.00     0.244 C 
ATOM      4  O   UNL A   1      33.742  21.751  27.386  1.00  0.00    -0.273 OA
ATOM      5  H   UNL A   1      35.973  21.425  26.682  1.00  0.00     0.163 HD
BRANCH   3   6
ATOM      6  C   UNL A   1      32.919  20.842  25.332  1.00  0.00     0.197 C 
BRANCH   6   7
ATOM      7  N   UNL A   1      33.162  21.314  23.976  1.00  0.00    -0.340 N 
ATOM      8  C   UNL A   1      32.306  22.032  23.220  1.00  0.00     0.244 C 
ATOM      9  O   UNL A   1      32.127  21.587  22.081  1.00  0.00    -0.273 OA
ATOM     10  H   UNL A   1      34.033  21.088  23.575  1.00  0.00     0.164 HD
BRANCH   8  11
ATOM     11  C   UNL A   1      31.526  23.253  23.754  1.00  0.00     0.181 C 
BRANCH  11  12
ATOM     12  N   UNL A   1      31.886  23.440  25.146  1.00  0.00    -0.338 N 
ATOM     13  C   UNL A   1      31.201  24.172  26.077  1.00  0.00     0.279 C 
ATOM     14  O   UNL A   1      31.321  23.820  27.257  1.00  0.00    -0.268 OA
ATOM     15  H   UNL A   1      32.709  22.994  25.454  1.00  0.00     0.164 HD
BRANCH  13  16
ATOM     16  C   UNL A   1      30.410  25.467  25.711  1.00  0.00     0.275 C 
BRANCH  16  17
ATOM     17  N   UNL A   1      29.065  25.424  26.322  1.00  0.00    -0.347 N 
ATOM     18  H   UNL A   1      28.382  25.135  25.622  1.00  0.00     0.345 HD
ATOM     19  H   UNL A   1      28.820  26.349  26.674  1.00  0.00     0.345 HD
ATOM     20  H   UNL A   1      29.064  24.756  27.093  1.00  0.00     0.345 HD
ENDBRANCH  16  17
BRANCH  16  21
ATOM     21  C   UNL A   1      31.125  26.844  25.677  1.00  0.00     0.113 C 
BRANCH  21  22
ATOM     22  C   UNL A   1      31.042  27.758  24.477  1.00  0.00    -0.016 A 
ATOM     23  C   UNL A   1      32.135  28.445  23.971  1.00  0.00     0.087 A 
ATOM     24  C   UNL A   1      29.925  28.147  23.652  1.00  0.00     0.003 A 
ATOM     25  N   UNL A   1      31.701  29.352  23.047  1.00  0.00    -0.361 N 
ATOM     26  C   UNL A   1      30.339  29.254  22.901  1.00  0.00     0.046 A 
ATOM     27  C   UNL A   1      28.569  27.770  23.551  1.00  0.00     0.010 A 
ATOM     28  H   UNL A   1      32.278  29.981  22.557  1.00  0.00     0.166 HD
ATOM     29  C   UNL A   1      29.456  30.066  22.178  1.00  0.00     0.026 A 
ATOM     30  C   UNL A   1      27.669  28.572  22.835  1.00  0.00     0.001 A 
ATOM     31  C   UNL A   1      28.104  29.721  22.185  1.00  0.00     0.002 A 
ENDBRANCH  21  22
ENDBRANCH  16  21
ENDBRANCH  13  16
ENDBRANCH  11  12
BRANCH  11  32
ATOM     32  C   UNL A   1      31.351  24.499  22.868  1.00  0.00     0.101 C 
BRANCH  32  33
ATOM     33  S   UNL A   1      32.866  25.193  22.119  1.00  0.00    -0.177 SA
ATOM     34  H   UNL A   1      32.582  25.663  20.875  1.00  0.00     0.102 HD
ENDBRANCH  32  33
ENDBRANCH  11  32
ENDBRANCH   8  11
ENDBRANCH   6   7
BRANCH   6  35
ATOM     35  C   UNL A   1      32.559  19.348  25.382  1.00  0.00     0.191 C 
BRANCH  35  36
ATOM     36  O   UNL A   1      32.914  18.720  26.611  1.00  0.00    -0.394 OA
ATOM     37  H   UNL A   1      33.625  18.080  26.454  1.00  0.00     0.210 HD
ENDBRANCH  35  36
ENDBRANCH   6  35
ENDBRANCH   3   6
ENDBRANCH   1   2
BRANCH   1  38
ATOM     38  C   UNL A   1      37.423  20.660  24.750  1.00  0.00     0.023 C 
BRANCH  38  39
ATOM     39  C   UNL A   1      38.482  19.584  24.992  1.00  0.00     0.023 C 
BRANCH  39  40
ATOM     40  C   UNL A   1      39.413  19.850  26.168  1.00  0.00     0.116 C 
BRANCH  40  41
ATOM     41  N   UNL A   1      40.625  19.047  26.130  1.00  0.00    -0.352 N 
ATOM     42  C   UNL A   1      41.936  19.458  26.198  1.00  0.00     0.251 C 
ATOM     43  H   UNL A   1      40.488  18.075  26.043  1.00  0.00     0.163 HD
ATOM     44  O   UNL A   1      42.840  18.653  26.045  1.00  0.00    -0.269 OA
BRANCH  42  45
ATOM     45  C   UNL A   1      42.228  20.890  26.417  1.00  0.00     0.039 A 
ATOM     46  C   UNL A   1      42.507  21.319  27.715  1.00  0.00     0.014 A 
ATOM     47  C   UNL A   1      42.268  21.789  25.348  1.00  0.00     0.014 A 
ATOM     48  C   UNL A   1      42.884  22.644  27.930  1.00  0.00     0.010 A 
ATOM     49  C   UNL A   1      42.728  23.085  25.554  1.00  0.00     0.010 A 
ATOM     50  C   UNL A   1      43.031  23.529  26.849  1.00  0.00    -0.014 A 
BRANCH  50  51
ATOM     51  C   UNL A   1      43.519  24.912  27.069  1.00  0.00     0.031 A 
ATOM     52  C   UNL A   1      42.600  25.972  27.613  1.00  0.00     0.074 A 
ATOM     53  C   UNL A   1      44.786  25.225  26.731  1.00  0.00     0.049 A 
ATOM     54  N   UNL A   1      42.869  27.215  27.916  1.00  0.00    -0.248 NA
ATOM     55  C   UNL A   1      41.192  25.599  27.821  1.00  0.00     0.031 C 
ATOM     56  C   UNL A   1      45.741  24.312  26.097  1.00  0.00     0.029 A 
ATOM     57  N   UNL A   1      45.486  26.398  26.862  1.00  0.00    -0.354 N 
ATOM     58  C   UNL A   1      41.666  27.778  28.324  1.00  0.00     0.074 A 
ATOM     59  C   UNL A   1      40.654  26.754  28.185  1.00  0.00     0.031 C 
ATOM     60  C   UNL A   1      46.908  24.952  25.918  1.00  0.00     0.029 A 
ATOM     61  C   UNL A   1      46.780  26.323  26.403  1.00  0.00     0.049 A 
ATOM     62  H   UNL A   1      45.098  27.216  27.248  1.00  0.00     0.167 HD
ATOM     63  C   UNL A   1      41.429  29.022  28.802  1.00  0.00     0.034 A 
ATOM     64  C   UNL A   1      47.756  27.250  26.383  1.00  0.00     0.034 A 
ATOM     65  C   UNL A   1      42.447  30.024  28.972  1.00  0.00     0.049 A 
ATOM     66  C   UNL A   1      47.483  28.603  26.981  1.00  0.00     0.074 A 
ATOM     67  C   UNL A   1      42.330  31.283  29.532  1.00  0.00     0.029 A 
ATOM     68  N   UNL A   1      43.767  29.886  28.573  1.00  0.00    -0.354 N 
ATOM     69  N   UNL A   1      46.382  29.057  27.528  1.00  0.00    -0.248 NA
ATOM     70  C   UNL A   1      48.602  29.557  26.997  1.00  0.00     0.031 C 
ATOM     71  C   UNL A   1      43.575  31.916  29.448  1.00  0.00     0.029 A 
ATOM     72  C   UNL A   1      44.475  31.040  28.864  1.00  0.00     0.049 A 
ATOM     73  H   UNL A   1      44.146  29.085  28.144  1.00  0.00     0.167 HD
ATOM     74  C   UNL A   1      46.683  30.337  27.983  1.00  0.00     0.074 A 
ATOM     75  C   UNL A   1      48.079  30.570  27.674  1.00  0.00     0.031 C 
ATOM     76  C   UNL A   1      45.873  31.243  28.586  1.00  0.00     0.034 A 
BRANCH  63  77
ATOM     77  C   UNL A   1      40.022  29.350  29.232  1.00  0.00     0.023 A 
ATOM     78  C   UNL A   1      39.069  29.730  28.265  1.00  0.00     0.012 A 
ATOM     79  C   UNL A   1      39.628  29.230  30.579  1.00  0.00     0.148 A 
ATOM     80  C   UNL A   1      37.756  30.021  28.634  1.00  0.00     0.002 A 
ATOM     81  C   UNL A   1      38.306  29.475  30.933  1.00  0.00     0.091 A 
ATOM     82  F   UNL A   1      40.553  28.890  31.488  1.00  0.00    -0.205 F 
ATOM     83  C   UNL A   1      37.373  29.882  29.965  1.00  0.00     0.022 A 
BRANCH  81  84
ATOM     84  S   UNL A   1      37.691  29.247  32.605  1.00  0.00     0.127 S 
ATOM     85  O   UNL A   1      38.600  30.097  33.372  1.00  0.00    -0.237 OA
ATOM     86  O   UNL A   1      36.323  29.755  32.500  1.00  0.00    -0.237 OA
ATOM     87  O   UNL A   1      37.790  27.820  32.879  1.00  0.00    -0.744 OA
ENDBRANCH  81  84
ENDBRANCH  63  77
BRANCH  64  88
ATOM     88  C   UNL A   1      49.104  26.901  25.852  1.00  0.00     0.023 A 
ATOM     89  C   UNL A   1      49.994  26.154  26.649  1.00  0.00     0.012 A 
ATOM     90  C   UNL A   1      49.499  27.281  24.556  1.00  0.00     0.148 A 
ATOM     91  C   UNL A   1      51.265  25.823  26.179  1.00  0.00     0.002 A 
ATOM     92  C   UNL A   1      50.744  26.897  24.070  1.00  0.00     0.091 A 
ATOM     93  F   UNL A   1      48.644  28.001  23.816  1.00  0.00    -0.205 F 
ATOM     94  C   UNL A   1      51.636  26.186  24.886  1.00  0.00     0.022 A 
BRANCH  92  95
ATOM     95  S   UNL A   1      51.248  27.199  22.373  1.00  0.00     0.127 S 
ATOM     96  O   UNL A   1      51.301  28.658  22.331  1.00  0.00    -0.237 OA
ATOM     97  O   UNL A   1      52.549  26.532  22.321  1.00  0.00    -0.237 OA
ATOM     98  O   UNL A   1      50.224  26.578  21.544  1.00  0.00    -0.744 OA
ENDBRANCH  92  95
ENDBRANCH  64  88
BRANCH  76  99
ATOM     99  C   UNL A   1      46.485  32.564  28.976  1.00  0.00     0.023 A 
ATOM    100  C   UNL A   1      47.104  32.707  30.233  1.00  0.00     0.012 A 
ATOM    101  C   UNL A   1      46.486  33.649  28.078  1.00  0.00     0.148 A 
ATOM    102  C   UNL A   1      47.671  33.924  30.611  1.00  0.00     0.002 A 
ATOM    103  C   UNL A   1      47.099  34.842  28.440  1.00  0.00     0.091 A 
ATOM    104  F   UNL A   1      45.877  33.502  26.892  1.00  0.00    -0.205 F 
ATOM    105  C   UNL A   1      47.678  34.987  29.711  1.00  0.00     0.022 A 
BRANCH 103 106
ATOM    106  S   UNL A   1      47.241  36.229  27.306  1.00  0.00     0.127 S 
ATOM    107  O   UNL A   1      47.953  37.209  28.122  1.00  0.00    -0.237 OA
ATOM    108  O   UNL A   1      48.029  35.658  26.213  1.00  0.00    -0.237 OA
ATOM    109  O   UNL A   1      45.877  36.586  26.942  1.00  0.00    -0.744 OA
ENDBRANCH 103 106
ENDBRANCH  76  99
ENDBRANCH  50  51
ENDBRANCH  42  45
ENDBRANCH  40  41
ENDBRANCH  39  40
ENDBRANCH  38  39
ENDBRANCH   1  38
TORSDOF 25
ENDMDL
