MODEL 1
REMARK VINA RESULT:     -11.6      0.000      0.000
REMARK SMILES C[NH2+][C@]1(C(=O)NCCCCNC(=O)c2ccc(-c3c4nc(c(-c5cccc(S(=O)(=O)[O-])c5F)c5ccc([nH]5)c(-c5cccc(S(=O)(=O)[O-])c5F)c5nc(c(-c6cccc(S(=O)(=O)[O-])c6F)c6ccc3[nH]6)C=C5)C=C4)cc2)CCC[C@@H]1CCn1nc(C)c(Cl)c1C
REMARK SMILES IDX 8 1 7 2 6 3 4 4 5 5 3 7 77 8 80 9 78 10 79 11 2 12 1 13
REMARK SMILES IDX 81 16 82 17 83 18 84 19 89 20 85 21 87 22 90 23 86 24 88 25
REMARK SMILES IDX 9 26 10 27 11 28 12 29 13 31 14 32 15 33 76 34 16 35 75 36
REMARK SMILES IDX 17 37 18 38 19 39 69 40 20 41 74 42 68 43 70 44 21 45 73 46
REMARK SMILES IDX 67 47 66 48 22 50 54 51 34 52 53 53 35 54 38 55 52 56 71 57
REMARK SMILES IDX 36 58 37 59 51 61 72 62 39 63 23 64 24 65 32 66 25 67 27 68
REMARK SMILES IDX 33 69 26 70 28 71 29 72 30 73 31 74 55 75 56 76 64 77 57 78
REMARK SMILES IDX 59 79 65 80 58 81 60 82 61 83 62 84 63 85 40 86 41 87 49 88
REMARK SMILES IDX 42 89 44 90 50 91 43 92 45 93 46 94 47 95 48 96
REMARK H PARENT 6 6 2 14 2 15 11 30 70 49 38 60
REMARK Flexibility Score: inf
ROOT
ATOM      1  C   UNL A   1      32.136  28.231  27.531  1.00  0.00     0.023 C 
ENDROOT
BRANCH   1   2
ATOM      2  C   UNL A   1      32.240  27.159  26.448  1.00  0.00     0.116 C 
BRANCH   2   3
ATOM      3  N   UNL A   1      30.983  27.022  25.739  1.00  0.00    -0.351 N 
ATOM      4  C   UNL A   1      30.628  27.247  24.448  1.00  0.00     0.281 C 
ATOM      5  O   UNL A   1      29.421  27.127  24.194  1.00  0.00    -0.268 OA
ATOM      6  H   UNL A   1      30.242  26.705  26.304  1.00  0.00     0.163 HD
BRANCH   4   7
ATOM      7  C   UNL A   1      31.645  27.527  23.286  1.00  0.00     0.178 C 
ATOM      8  C   UNL A   1      32.774  28.541  23.541  1.00  0.00     0.079 C 
ATOM      9  C   UNL A   1      32.476  26.244  22.995  1.00  0.00     0.062 C 
ATOM     10  C   UNL A   1      33.839  28.219  22.492  1.00  0.00     0.008 C 
ATOM     11  C   UNL A   1      33.651  26.741  22.136  1.00  0.00     0.011 C 
BRANCH   7  12
ATOM     12  N   UNL A   1      30.869  27.875  22.046  1.00  0.00    -0.336 N 
ATOM     13  C   UNL A   1      30.427  29.268  21.998  1.00  0.00     0.331 C 
ATOM     14  H   UNL A   1      31.463  27.698  21.236  1.00  0.00     0.346 HD
ATOM     15  H   UNL A   1      30.030  27.297  22.049  1.00  0.00     0.346 HD
ENDBRANCH   7  12
BRANCH   9  16
ATOM     16  C   UNL A   1      31.705  25.067  22.371  1.00  0.00     0.034 C 
BRANCH  16  17
ATOM     17  C   UNL A   1      31.078  24.126  23.407  1.00  0.00     0.145 C 
BRANCH  17  18
ATOM     18  N   UNL A   1      32.048  23.261  24.064  1.00  0.00    -0.268 N 
ATOM     19  N   UNL A   1      32.546  23.663  25.252  1.00  0.00    -0.176 NA
ATOM     20  C   UNL A   1      32.546  22.048  23.652  1.00  0.00     0.054 A 
ATOM     21  C   UNL A   1      33.425  22.710  25.588  1.00  0.00     0.078 A 
ATOM     22  C   UNL A   1      33.472  21.692  24.611  1.00  0.00     0.084 A 
ATOM     23  C   UNL A   1      32.154  21.331  22.414  1.00  0.00     0.068 C 
ATOM     24  C   UNL A   1      34.178  22.820  26.863  1.00  0.00     0.070 C 
ATOM     25  Cl  UNL A   1      34.459  20.312  24.626  1.00  0.00    -0.080 Cl
ENDBRANCH  17  18
ENDBRANCH  16  17
ENDBRANCH   9  16
ENDBRANCH   4   7
ENDBRANCH   2   3
ENDBRANCH   1   2
BRANCH   1  26
ATOM     26  C   UNL A   1      31.809  29.628  26.998  1.00  0.00     0.023 C 
BRANCH  26  27
ATOM     27  C   UNL A   1      33.014  30.421  26.503  1.00  0.00     0.116 C 
BRANCH  27  28
ATOM     28  N   UNL A   1      32.968  31.828  26.878  1.00  0.00    -0.352 N 
ATOM     29  C   UNL A   1      33.848  32.529  27.668  1.00  0.00     0.251 C 
ATOM     30  H   UNL A   1      32.208  32.342  26.520  1.00  0.00     0.163 HD
ATOM     31  O   UNL A   1      33.610  33.688  27.980  1.00  0.00    -0.269 OA
BRANCH  29  32
ATOM     32  C   UNL A   1      35.061  31.848  28.169  1.00  0.00     0.039 A 
ATOM     33  C   UNL A   1      36.267  32.554  28.186  1.00  0.00     0.014 A 
ATOM     34  C   UNL A   1      34.997  30.540  28.655  1.00  0.00     0.014 A 
ATOM     35  C   UNL A   1      37.398  31.967  28.754  1.00  0.00     0.010 A 
ATOM     36  C   UNL A   1      36.107  29.984  29.280  1.00  0.00     0.010 A 
ATOM     37  C   UNL A   1      37.318  30.690  29.335  1.00  0.00    -0.014 A 
BRANCH  37  38
ATOM     38  C   UNL A   1      38.484  30.083  30.024  1.00  0.00     0.031 A 
ATOM     39  C   UNL A   1      38.873  30.545  31.401  1.00  0.00     0.074 A 
ATOM     40  C   UNL A   1      39.252  29.191  29.368  1.00  0.00     0.049 A 
ATOM     41  N   UNL A   1      39.891  30.179  32.135  1.00  0.00    -0.248 NA
ATOM     42  C   UNL A   1      38.025  31.575  32.024  1.00  0.00     0.031 C 
ATOM     43  C   UNL A   1      39.032  28.735  27.994  1.00  0.00     0.029 A 
ATOM     44  N   UNL A   1      40.391  28.533  29.758  1.00  0.00    -0.354 N 
ATOM     45  C   UNL A   1      39.830  30.957  33.285  1.00  0.00     0.074 A 
ATOM     46  C   UNL A   1      38.693  31.838  33.139  1.00  0.00     0.031 C 
ATOM     47  C   UNL A   1      40.005  27.873  27.655  1.00  0.00     0.029 A 
ATOM     48  C   UNL A   1      40.929  27.731  28.776  1.00  0.00     0.049 A 
ATOM     49  H   UNL A   1      40.787  28.624  30.654  1.00  0.00     0.167 HD
ATOM     50  C   UNL A   1      40.631  30.921  34.375  1.00  0.00     0.034 A 
ATOM     51  C   UNL A   1      42.041  26.972  28.778  1.00  0.00     0.034 A 
ATOM     52  C   UNL A   1      41.726  30.004  34.540  1.00  0.00     0.049 A 
ATOM     53  C   UNL A   1      42.872  26.897  30.030  1.00  0.00     0.074 A 
ATOM     54  C   UNL A   1      42.528  29.814  35.650  1.00  0.00     0.029 A 
ATOM     55  N   UNL A   1      42.174  29.125  33.567  1.00  0.00    -0.354 N 
ATOM     56  N   UNL A   1      42.694  27.509  31.175  1.00  0.00    -0.248 NA
ATOM     57  C   UNL A   1      44.034  25.996  30.006  1.00  0.00     0.031 C 
ATOM     58  C   UNL A   1      43.472  28.828  35.344  1.00  0.00     0.029 A 
ATOM     59  C   UNL A   1      43.247  28.394  34.047  1.00  0.00     0.049 A 
ATOM     60  H   UNL A   1      41.787  29.035  32.666  1.00  0.00     0.167 HD
ATOM     61  C   UNL A   1      43.698  27.046  32.017  1.00  0.00     0.074 A 
ATOM     62  C   UNL A   1      44.469  26.084  31.256  1.00  0.00     0.031 C 
ATOM     63  C   UNL A   1      43.968  27.398  33.299  1.00  0.00     0.034 A 
BRANCH  50  64
ATOM     64  C   UNL A   1      40.312  31.859  35.509  1.00  0.00     0.023 A 
ATOM     65  C   UNL A   1      41.124  32.993  35.716  1.00  0.00     0.012 A 
ATOM     66  C   UNL A   1      39.184  31.658  36.327  1.00  0.00     0.148 A 
ATOM     67  C   UNL A   1      40.837  33.895  36.739  1.00  0.00     0.002 A 
ATOM     68  C   UNL A   1      38.880  32.584  37.318  1.00  0.00     0.091 A 
ATOM     69  F   UNL A   1      38.437  30.562  36.130  1.00  0.00    -0.205 F 
ATOM     70  C   UNL A   1      39.712  33.697  37.532  1.00  0.00     0.022 A 
BRANCH  68  71
ATOM     71  S   UNL A   1      37.410  32.459  38.342  1.00  0.00     0.127 S 
ATOM     72  O   UNL A   1      37.795  33.252  39.510  1.00  0.00    -0.237 OA
ATOM     73  O   UNL A   1      36.389  33.077  37.496  1.00  0.00    -0.237 OA
ATOM     74  O   UNL A   1      37.214  31.037  38.588  1.00  0.00    -0.744 OA
ENDBRANCH  68  71
ENDBRANCH  50  64
BRANCH  51  75
ATOM     75  C   UNL A   1      42.385  26.158  27.578  1.00  0.00     0.023 A 
ATOM     76  C   UNL A   1      43.154  26.738  26.551  1.00  0.00     0.012 A 
ATOM     77  C   UNL A   1      41.996  24.810  27.467  1.00  0.00     0.148 A 
ATOM     78  C   UNL A   1      43.504  25.999  25.421  1.00  0.00     0.002 A 
ATOM     79  C   UNL A   1      42.393  24.063  26.364  1.00  0.00     0.091 A 
ATOM     80  F   UNL A   1      41.254  24.280  28.450  1.00  0.00    -0.205 F 
ATOM     81  C   UNL A   1      43.134  24.660  25.332  1.00  0.00     0.022 A 
BRANCH  79  82
ATOM     82  S   UNL A   1      42.077  22.300  26.232  1.00  0.00     0.127 S 
ATOM     83  O   UNL A   1      42.628  21.802  27.490  1.00  0.00    -0.237 OA
ATOM     84  O   UNL A   1      40.617  22.258  26.139  1.00  0.00    -0.237 OA
ATOM     85  O   UNL A   1      42.765  21.870  25.022  1.00  0.00    -0.744 OA
ENDBRANCH  79  82
ENDBRANCH  51  75
BRANCH  63  86
ATOM     86  C   UNL A   1      45.131  26.725  33.978  1.00  0.00     0.023 A 
ATOM     87  C   UNL A   1      46.407  27.317  33.926  1.00  0.00     0.012 A 
ATOM     88  C   UNL A   1      44.941  25.554  34.738  1.00  0.00     0.148 A 
ATOM     89  C   UNL A   1      47.484  26.740  34.598  1.00  0.00     0.002 A 
ATOM     90  C   UNL A   1      46.008  25.010  35.442  1.00  0.00     0.091 A 
ATOM     91  F   UNL A   1      43.722  24.994  34.759  1.00  0.00    -0.205 F 
ATOM     92  C   UNL A   1      47.283  25.595  35.365  1.00  0.00     0.022 A 
BRANCH  90  93
ATOM     93  S   UNL A   1      45.817  23.592  36.529  1.00  0.00     0.127 S 
ATOM     94  O   UNL A   1      45.078  22.661  35.679  1.00  0.00    -0.237 OA
ATOM     95  O   UNL A   1      47.205  23.208  36.792  1.00  0.00    -0.237 OA
ATOM     96  O   UNL A   1      45.098  24.081  37.698  1.00  0.00    -0.744 OA
ENDBRANCH  90  93
ENDBRANCH  63  86
ENDBRANCH  37  38
ENDBRANCH  29  32
ENDBRANCH  27  28
ENDBRANCH  26  27
ENDBRANCH   1  26
TORSDOF 18
ENDMDL
MODEL 2
REMARK VINA RESULT:     -11.6      2.596      3.866
REMARK SMILES C[NH2+][C@]1(C(=O)NCCCCNC(=O)c2ccc(-c3c4nc(c(-c5cccc(S(=O)(=O)[O-])c5F)c5ccc([nH]5)c(-c5cccc(S(=O)(=O)[O-])c5F)c5nc(c(-c6cccc(S(=O)(=O)[O-])c6F)c6ccc3[nH]6)C=C5)C=C4)cc2)CCC[C@@H]1CCn1nc(C)c(Cl)c1C
REMARK SMILES IDX 8 1 7 2 6 3 4 4 5 5 3 7 77 8 80 9 78 10 79 11 2 12 1 13
REMARK SMILES IDX 81 16 82 17 83 18 84 19 89 20 85 21 87 22 90 23 86 24 88 25
REMARK SMILES IDX 9 26 10 27 11 28 12 29 13 31 14 32 15 33 76 34 16 35 75 36
REMARK SMILES IDX 17 37 18 38 19 39 69 40 20 41 74 42 68 43 70 44 21 45 73 46
REMARK SMILES IDX 67 47 66 48 22 50 54 51 34 52 53 53 35 54 38 55 52 56 71 57
REMARK SMILES IDX 36 58 37 59 51 61 72 62 39 63 23 64 24 65 32 66 25 67 27 68
REMARK SMILES IDX 33 69 26 70 28 71 29 72 30 73 31 74 55 75 56 76 64 77 57 78
REMARK SMILES IDX 59 79 65 80 58 81 60 82 61 83 62 84 63 85 40 86 41 87 49 88
REMARK SMILES IDX 42 89 44 90 50 91 43 92 45 93 46 94 47 95 48 96
REMARK H PARENT 6 6 2 14 2 15 11 30 70 49 38 60
REMARK Flexibility Score: inf
ROOT
ATOM      1  C   UNL A   1      31.762  27.377  26.710  1.00  0.00     0.023 C 
ENDROOT
BRANCH   1   2
ATOM      2  C   UNL A   1      32.394  26.003  26.497  1.00  0.00     0.116 C 
BRANCH   2   3
ATOM      3  N   UNL A   1      31.375  24.975  26.424  1.00  0.00    -0.351 N 
ATOM      4  C   UNL A   1      31.385  23.705  25.947  1.00  0.00     0.281 C 
ATOM      5  O   UNL A   1      30.290  23.123  25.944  1.00  0.00    -0.268 OA
ATOM      6  H   UNL A   1      30.506  25.254  26.792  1.00  0.00     0.163 HD
BRANCH   4   7
ATOM      7  C   UNL A   1      32.681  22.927  25.524  1.00  0.00     0.178 C 
ATOM      8  C   UNL A   1      32.601  21.395  25.409  1.00  0.00     0.079 C 
ATOM      9  C   UNL A   1      33.062  23.301  24.062  1.00  0.00     0.062 C 
ATOM     10  C   UNL A   1      33.781  21.002  24.520  1.00  0.00     0.008 C 
ATOM     11  C   UNL A   1      34.083  22.227  23.650  1.00  0.00     0.011 C 
BRANCH   7  12
ATOM     12  N   UNL A   1      33.807  23.349  26.425  1.00  0.00    -0.336 N 
ATOM     13  C   UNL A   1      33.875  22.596  27.676  1.00  0.00     0.331 C 
ATOM     14  H   UNL A   1      34.686  23.219  25.923  1.00  0.00     0.346 HD
ATOM     15  H   UNL A   1      33.639  24.323  26.674  1.00  0.00     0.346 HD
ENDBRANCH   7  12
BRANCH   9  16
ATOM     16  C   UNL A   1      33.554  24.743  23.840  1.00  0.00     0.034 C 
BRANCH  16  17
ATOM     17  C   UNL A   1      32.929  25.423  22.616  1.00  0.00     0.145 C 
BRANCH  17  18
ATOM     18  N   UNL A   1      31.858  26.350  22.954  1.00  0.00    -0.268 N 
ATOM     19  N   UNL A   1      30.654  25.831  23.274  1.00  0.00    -0.176 NA
ATOM     20  C   UNL A   1      31.886  27.723  23.012  1.00  0.00     0.054 A 
ATOM     21  C   UNL A   1      29.874  26.897  23.493  1.00  0.00     0.078 A 
ATOM     22  C   UNL A   1      30.595  28.099  23.322  1.00  0.00     0.084 A 
ATOM     23  C   UNL A   1      33.076  28.572  22.758  1.00  0.00     0.068 C 
ATOM     24  C   UNL A   1      28.453  26.703  23.876  1.00  0.00     0.070 C 
ATOM     25  Cl  UNL A   1      29.993  29.677  23.480  1.00  0.00    -0.080 Cl
ENDBRANCH  17  18
ENDBRANCH  16  17
ENDBRANCH   9  16
ENDBRANCH   4   7
ENDBRANCH   2   3
ENDBRANCH   1   2
BRANCH   1  26
ATOM     26  C   UNL A   1      32.682  28.386  27.402  1.00  0.00     0.023 C 
BRANCH  26  27
ATOM     27  C   UNL A   1      33.632  29.131  26.470  1.00  0.00     0.116 C 
BRANCH  27  28
ATOM     28  N   UNL A   1      33.747  30.548  26.781  1.00  0.00    -0.352 N 
ATOM     29  C   UNL A   1      34.720  31.184  27.516  1.00  0.00     0.251 C 
ATOM     30  H   UNL A   1      33.036  31.126  26.419  1.00  0.00     0.163 HD
ATOM     31  O   UNL A   1      34.616  32.375  27.780  1.00  0.00    -0.269 OA
BRANCH  29  32
ATOM     32  C   UNL A   1      35.869  30.399  28.016  1.00  0.00     0.039 A 
ATOM     33  C   UNL A   1      37.037  30.358  27.251  1.00  0.00     0.014 A 
ATOM     34  C   UNL A   1      35.804  29.747  29.250  1.00  0.00     0.014 A 
ATOM     35  C   UNL A   1      38.166  29.713  27.757  1.00  0.00     0.010 A 
ATOM     36  C   UNL A   1      36.949  29.163  29.779  1.00  0.00     0.010 A 
ATOM     37  C   UNL A   1      38.141  29.140  29.039  1.00  0.00    -0.014 A 
BRANCH  37  38
ATOM     38  C   UNL A   1      39.356  28.528  29.633  1.00  0.00     0.031 A 
ATOM     39  C   UNL A   1      39.978  29.125  30.865  1.00  0.00     0.074 A 
ATOM     40  C   UNL A   1      39.956  27.499  29.003  1.00  0.00     0.049 A 
ATOM     41  N   UNL A   1      41.069  28.770  31.491  1.00  0.00    -0.248 NA
ATOM     42  C   UNL A   1      39.302  30.293  31.454  1.00  0.00     0.031 C 
ATOM     43  C   UNL A   1      39.501  26.894  27.750  1.00  0.00     0.029 A 
ATOM     44  N   UNL A   1      41.095  26.801  29.314  1.00  0.00    -0.354 N 
ATOM     45  C   UNL A   1      41.233  29.689  32.520  1.00  0.00     0.074 A 
ATOM     46  C   UNL A   1      40.146  30.637  32.417  1.00  0.00     0.031 C 
ATOM     47  C   UNL A   1      40.354  25.917  27.398  1.00  0.00     0.029 A 
ATOM     48  C   UNL A   1      41.425  25.840  28.386  1.00  0.00     0.049 A 
ATOM     49  H   UNL A   1      41.627  26.971  30.125  1.00  0.00     0.167 HD
ATOM     50  C   UNL A   1      42.185  29.722  33.481  1.00  0.00     0.034 A 
ATOM     51  C   UNL A   1      42.473  24.996  28.335  1.00  0.00     0.034 A 
ATOM     52  C   UNL A   1      43.231  28.745  33.614  1.00  0.00     0.049 A 
ATOM     53  C   UNL A   1      43.477  25.009  29.455  1.00  0.00     0.074 A 
ATOM     54  C   UNL A   1      44.178  28.629  34.615  1.00  0.00     0.029 A 
ATOM     55  N   UNL A   1      43.469  27.715  32.716  1.00  0.00    -0.354 N 
ATOM     56  N   UNL A   1      43.514  25.773  30.520  1.00  0.00    -0.248 NA
ATOM     57  C   UNL A   1      44.562  24.017  29.390  1.00  0.00     0.031 C 
ATOM     58  C   UNL A   1      44.998  27.536  34.316  1.00  0.00     0.029 A 
ATOM     59  C   UNL A   1      44.552  26.963  33.136  1.00  0.00     0.049 A 
ATOM     60  H   UNL A   1      42.945  27.546  31.900  1.00  0.00     0.167 HD
ATOM     61  C   UNL A   1      44.603  25.337  31.267  1.00  0.00     0.074 A 
ATOM     62  C   UNL A   1      45.185  24.225  30.543  1.00  0.00     0.031 C 
ATOM     63  C   UNL A   1      45.086  25.823  32.436  1.00  0.00     0.034 A 
BRANCH  50  64
ATOM     64  C   UNL A   1      42.103  30.820  34.509  1.00  0.00     0.023 A 
ATOM     65  C   UNL A   1      41.406  30.589  35.712  1.00  0.00     0.012 A 
ATOM     66  C   UNL A   1      42.760  32.050  34.316  1.00  0.00     0.148 A 
ATOM     67  C   UNL A   1      41.337  31.575  36.695  1.00  0.00     0.002 A 
ATOM     68  C   UNL A   1      42.723  33.013  35.318  1.00  0.00     0.091 A 
ATOM     69  F   UNL A   1      43.399  32.260  33.156  1.00  0.00    -0.205 F 
ATOM     70  C   UNL A   1      42.003  32.781  36.503  1.00  0.00     0.022 A 
BRANCH  68  71
ATOM     71  S   UNL A   1      43.611  34.569  35.198  1.00  0.00     0.127 S 
ATOM     72  O   UNL A   1      43.079  35.118  33.951  1.00  0.00    -0.237 OA
ATOM     73  O   UNL A   1      43.174  35.269  36.407  1.00  0.00    -0.237 OA
ATOM     74  O   UNL A   1      45.025  34.223  35.178  1.00  0.00    -0.744 OA
ENDBRANCH  68  71
ENDBRANCH  50  64
BRANCH  51  75
ATOM     75  C   UNL A   1      42.578  24.011  27.221  1.00  0.00     0.023 A 
ATOM     76  C   UNL A   1      43.343  24.337  26.084  1.00  0.00     0.012 A 
ATOM     77  C   UNL A   1      41.967  22.745  27.298  1.00  0.00     0.148 A 
ATOM     78  C   UNL A   1      43.472  23.432  25.030  1.00  0.00     0.002 A 
ATOM     79  C   UNL A   1      42.143  21.828  26.268  1.00  0.00     0.091 A 
ATOM     80  F   UNL A   1      41.233  22.459  28.383  1.00  0.00    -0.205 F 
ATOM     81  C   UNL A   1      42.882  22.175  25.126  1.00  0.00     0.022 A 
BRANCH  79  82
ATOM     82  S   UNL A   1      41.534  20.141  26.369  1.00  0.00     0.127 S 
ATOM     83  O   UNL A   1      40.104  20.325  26.130  1.00  0.00    -0.237 OA
ATOM     84  O   UNL A   1      42.262  19.488  25.280  1.00  0.00    -0.237 OA
ATOM     85  O   UNL A   1      41.902  19.673  27.698  1.00  0.00    -0.744 OA
ENDBRANCH  79  82
ENDBRANCH  51  75
BRANCH  63  86
ATOM     86  C   UNL A   1      46.291  25.145  33.031  1.00  0.00     0.023 A 
ATOM     87  C   UNL A   1      47.581  25.607  32.707  1.00  0.00     0.012 A 
ATOM     88  C   UNL A   1      46.142  24.108  33.973  1.00  0.00     0.148 A 
ATOM     89  C   UNL A   1      48.708  25.030  33.293  1.00  0.00     0.002 A 
ATOM     90  C   UNL A   1      47.267  23.570  34.587  1.00  0.00     0.091 A 
ATOM     91  F   UNL A   1      44.907  23.669  34.253  1.00  0.00    -0.205 F 
ATOM     92  C   UNL A   1      48.551  24.022  34.240  1.00  0.00     0.022 A 
BRANCH  90  93
ATOM     93  S   UNL A   1      47.152  22.334  35.886  1.00  0.00     0.127 S 
ATOM     94  O   UNL A   1      46.310  23.012  36.870  1.00  0.00    -0.237 OA
ATOM     95  O   UNL A   1      46.506  21.215  35.198  1.00  0.00    -0.237 OA
ATOM     96  O   UNL A   1      48.521  22.070  36.307  1.00  0.00    -0.744 OA
ENDBRANCH  90  93
ENDBRANCH  63  86
ENDBRANCH  37  38
ENDBRANCH  29  32
ENDBRANCH  27  28
ENDBRANCH  26  27
ENDBRANCH   1  26
TORSDOF 18
ENDMDL
MODEL 3
REMARK VINA RESULT:     -11.6      1.271      1.833
REMARK SMILES C[NH2+][C@]1(C(=O)NCCCCNC(=O)c2ccc(-c3c4nc(c(-c5cccc(S(=O)(=O)[O-])c5F)c5ccc([nH]5)c(-c5cccc(S(=O)(=O)[O-])c5F)c5nc(c(-c6cccc(S(=O)(=O)[O-])c6F)c6ccc3[nH]6)C=C5)C=C4)cc2)CCC[C@@H]1CCn1nc(C)c(Cl)c1C
REMARK SMILES IDX 8 1 7 2 6 3 4 4 5 5 3 7 77 8 80 9 78 10 79 11 2 12 1 13
REMARK SMILES IDX 81 16 82 17 83 18 84 19 89 20 85 21 87 22 90 23 86 24 88 25
REMARK SMILES IDX 9 26 10 27 11 28 12 29 13 31 14 32 15 33 76 34 16 35 75 36
REMARK SMILES IDX 17 37 18 38 19 39 69 40 20 41 74 42 68 43 70 44 21 45 73 46
REMARK SMILES IDX 67 47 66 48 22 50 54 51 34 52 53 53 35 54 38 55 52 56 71 57
REMARK SMILES IDX 36 58 37 59 51 61 72 62 39 63 23 64 24 65 32 66 25 67 27 68
REMARK SMILES IDX 33 69 26 70 28 71 29 72 30 73 31 74 55 75 56 76 64 77 57 78
REMARK SMILES IDX 59 79 65 80 58 81 60 82 61 83 62 84 63 85 40 86 41 87 49 88
REMARK SMILES IDX 42 89 44 90 50 91 43 92 45 93 46 94 47 95 48 96
REMARK H PARENT 6 6 2 14 2 15 11 30 70 49 38 60
REMARK Flexibility Score: inf
ROOT
ATOM      1  C   UNL A   1      31.116  30.505  25.291  1.00  0.00     0.023 C 
ENDROOT
BRANCH   1   2
ATOM      2  C   UNL A   1      32.204  29.447  25.471  1.00  0.00     0.116 C 
BRANCH   2   3
ATOM      3  N   UNL A   1      31.675  28.277  26.142  1.00  0.00    -0.351 N 
ATOM      4  C   UNL A   1      31.439  27.007  25.724  1.00  0.00     0.281 C 
ATOM      5  O   UNL A   1      30.872  26.269  26.541  1.00  0.00    -0.268 OA
ATOM      6  H   UNL A   1      31.441  28.433  27.085  1.00  0.00     0.163 HD
BRANCH   4   7
ATOM      7  C   UNL A   1      31.930  26.421  24.353  1.00  0.00     0.178 C 
ATOM      8  C   UNL A   1      31.634  27.223  23.075  1.00  0.00     0.079 C 
ATOM      9  C   UNL A   1      33.485  26.398  24.320  1.00  0.00     0.062 C 
ATOM     10  C   UNL A   1      32.635  26.705  22.041  1.00  0.00     0.008 C 
ATOM     11  C   UNL A   1      33.829  26.172  22.838  1.00  0.00     0.011 C 
BRANCH   7  12
ATOM     12  N   UNL A   1      31.438  25.005  24.236  1.00  0.00    -0.336 N 
ATOM     13  C   UNL A   1      30.221  24.868  23.436  1.00  0.00     0.331 C 
ATOM     14  H   UNL A   1      32.172  24.445  23.802  1.00  0.00     0.346 HD
ATOM     15  H   UNL A   1      31.211  24.691  25.178  1.00  0.00     0.346 HD
ENDBRANCH   7  12
BRANCH   9  16
ATOM     16  C   UNL A   1      34.168  25.402  25.275  1.00  0.00     0.034 C 
BRANCH  16  17
ATOM     17  C   UNL A   1      34.960  24.305  24.553  1.00  0.00     0.145 C 
BRANCH  17  18
ATOM     18  N   UNL A   1      34.221  23.059  24.409  1.00  0.00    -0.268 N 
ATOM     19  N   UNL A   1      33.504  22.881  23.279  1.00  0.00    -0.176 NA
ATOM     20  C   UNL A   1      34.144  21.991  25.270  1.00  0.00     0.054 A 
ATOM     21  C   UNL A   1      32.911  21.691  23.441  1.00  0.00     0.078 A 
ATOM     22  C   UNL A   1      33.266  21.108  24.677  1.00  0.00     0.084 A 
ATOM     23  C   UNL A   1      34.857  21.877  26.567  1.00  0.00     0.068 C 
ATOM     24  C   UNL A   1      32.028  21.158  22.373  1.00  0.00     0.070 C 
ATOM     25  Cl  UNL A   1      32.729  19.620  25.292  1.00  0.00    -0.080 Cl
ENDBRANCH  17  18
ENDBRANCH  16  17
ENDBRANCH   9  16
ENDBRANCH   4   7
ENDBRANCH   2   3
ENDBRANCH   1   2
BRANCH   1  26
ATOM     26  C   UNL A   1      31.112  31.587  26.374  1.00  0.00     0.023 C 
BRANCH  26  27
ATOM     27  C   UNL A   1      32.494  31.991  26.878  1.00  0.00     0.116 C 
BRANCH  27  28
ATOM     28  N   UNL A   1      32.571  33.388  27.283  1.00  0.00    -0.352 N 
ATOM     29  C   UNL A   1      33.508  33.991  28.089  1.00  0.00     0.251 C 
ATOM     30  H   UNL A   1      31.860  33.975  26.937  1.00  0.00     0.163 HD
ATOM     31  O   UNL A   1      33.372  35.160  28.425  1.00  0.00    -0.269 OA
BRANCH  29  32
ATOM     32  C   UNL A   1      34.656  33.196  28.574  1.00  0.00     0.039 A 
ATOM     33  C   UNL A   1      35.948  33.666  28.330  1.00  0.00     0.014 A 
ATOM     34  C   UNL A   1      34.453  32.020  29.300  1.00  0.00     0.014 A 
ATOM     35  C   UNL A   1      37.040  32.988  28.873  1.00  0.00     0.010 A 
ATOM     36  C   UNL A   1      35.537  31.384  29.894  1.00  0.00     0.010 A 
ATOM     37  C   UNL A   1      36.841  31.860  29.687  1.00  0.00    -0.014 A 
BRANCH  37  38
ATOM     38  C   UNL A   1      37.980  31.176  30.348  1.00  0.00     0.031 A 
ATOM     39  C   UNL A   1      38.365  31.537  31.755  1.00  0.00     0.074 A 
ATOM     40  C   UNL A   1      38.729  30.305  29.644  1.00  0.00     0.049 A 
ATOM     41  N   UNL A   1      39.363  31.095  32.475  1.00  0.00    -0.248 NA
ATOM     42  C   UNL A   1      37.540  32.550  32.434  1.00  0.00     0.031 C 
ATOM     43  C   UNL A   1      38.512  29.944  28.241  1.00  0.00     0.029 A 
ATOM     44  N   UNL A   1      39.843  29.589  30.002  1.00  0.00    -0.354 N 
ATOM     45  C   UNL A   1      39.311  31.800  33.671  1.00  0.00     0.074 A 
ATOM     46  C   UNL A   1      38.201  32.722  33.570  1.00  0.00     0.031 C 
ATOM     47  C   UNL A   1      39.464  29.077  27.858  1.00  0.00     0.029 A 
ATOM     48  C   UNL A   1      40.369  28.836  28.977  1.00  0.00     0.049 A 
ATOM     49  H   UNL A   1      40.231  29.612  30.906  1.00  0.00     0.167 HD
ATOM     50  C   UNL A   1      40.097  31.670  34.765  1.00  0.00     0.034 A 
ATOM     51  C   UNL A   1      41.459  28.045  28.942  1.00  0.00     0.034 A 
ATOM     52  C   UNL A   1      41.163  30.713  34.882  1.00  0.00     0.049 A 
ATOM     53  C   UNL A   1      42.272  27.866  30.195  1.00  0.00     0.074 A 
ATOM     54  C   UNL A   1      41.946  30.428  35.986  1.00  0.00     0.029 A 
ATOM     55  N   UNL A   1      41.597  29.884  33.859  1.00  0.00    -0.354 N 
ATOM     56  N   UNL A   1      42.098  28.409  31.375  1.00  0.00    -0.248 NA
ATOM     57  C   UNL A   1      43.408  26.934  30.124  1.00  0.00     0.031 C 
ATOM     58  C   UNL A   1      42.864  29.436  35.627  1.00  0.00     0.029 A 
ATOM     59  C   UNL A   1      42.642  29.093  34.303  1.00  0.00     0.049 A 
ATOM     60  H   UNL A   1      41.218  29.863  32.951  1.00  0.00     0.167 HD
ATOM     61  C   UNL A   1      43.078  27.863  32.196  1.00  0.00     0.074 A 
ATOM     62  C   UNL A   1      43.829  26.929  31.383  1.00  0.00     0.031 C 
ATOM     63  C   UNL A   1      43.343  28.125  33.500  1.00  0.00     0.034 A 
BRANCH  50  64
ATOM     64  C   UNL A   1      39.792  32.544  35.953  1.00  0.00     0.023 A 
ATOM     65  C   UNL A   1      40.397  33.814  36.050  1.00  0.00     0.012 A 
ATOM     66  C   UNL A   1      38.869  32.141  36.937  1.00  0.00     0.148 A 
ATOM     67  C   UNL A   1      40.112  34.656  37.123  1.00  0.00     0.002 A 
ATOM     68  C   UNL A   1      38.557  33.004  37.982  1.00  0.00     0.091 A 
ATOM     69  F   UNL A   1      38.321  30.921  36.840  1.00  0.00    -0.205 F 
ATOM     70  C   UNL A   1      39.186  34.257  38.082  1.00  0.00     0.022 A 
BRANCH  68  71
ATOM     71  S   UNL A   1      37.322  32.613  39.224  1.00  0.00     0.127 S 
ATOM     72  O   UNL A   1      37.576  33.645  40.230  1.00  0.00    -0.237 OA
ATOM     73  O   UNL A   1      36.071  32.781  38.482  1.00  0.00    -0.237 OA
ATOM     74  O   UNL A   1      37.596  31.247  39.646  1.00  0.00    -0.744 OA
ENDBRANCH  68  71
ENDBRANCH  50  64
BRANCH  51  75
ATOM     75  C   UNL A   1      41.793  27.300  27.696  1.00  0.00     0.023 A 
ATOM     76  C   UNL A   1      42.307  28.003  26.589  1.00  0.00     0.012 A 
ATOM     77  C   UNL A   1      41.649  25.902  27.613  1.00  0.00     0.148 A 
ATOM     78  C   UNL A   1      42.643  27.333  25.413  1.00  0.00     0.002 A 
ATOM     79  C   UNL A   1      42.036  25.232  26.457  1.00  0.00     0.091 A 
ATOM     80  F   UNL A   1      41.147  25.251  28.673  1.00  0.00    -0.205 F 
ATOM     81  C   UNL A   1      42.517  25.948  25.350  1.00  0.00     0.022 A 
BRANCH  79  82
ATOM     82  S   UNL A   1      42.036  23.440  26.339  1.00  0.00     0.127 S 
ATOM     83  O   UNL A   1      42.848  23.064  27.494  1.00  0.00    -0.237 OA
ATOM     84  O   UNL A   1      40.611  23.126  26.458  1.00  0.00    -0.237 OA
ATOM     85  O   UNL A   1      42.607  23.136  25.034  1.00  0.00    -0.744 OA
ENDBRANCH  79  82
ENDBRANCH  51  75
BRANCH  63  86
ATOM     86  C   UNL A   1      44.476  27.375  34.147  1.00  0.00     0.023 A 
ATOM     87  C   UNL A   1      45.778  27.911  34.110  1.00  0.00     0.012 A 
ATOM     88  C   UNL A   1      44.237  26.185  34.862  1.00  0.00     0.148 A 
ATOM     89  C   UNL A   1      46.831  27.262  34.754  1.00  0.00     0.002 A 
ATOM     90  C   UNL A   1      45.282  25.568  35.540  1.00  0.00     0.091 A 
ATOM     91  F   UNL A   1      42.995  25.680  34.869  1.00  0.00    -0.205 F 
ATOM     92  C   UNL A   1      46.581  26.099  35.477  1.00  0.00     0.022 A 
BRANCH  90  93
ATOM     93  S   UNL A   1      45.032  24.119  36.573  1.00  0.00     0.127 S 
ATOM     94  O   UNL A   1      46.390  23.843  37.035  1.00  0.00    -0.237 OA
ATOM     95  O   UNL A   1      44.127  24.625  37.607  1.00  0.00    -0.237 OA
ATOM     96  O   UNL A   1      44.446  23.108  35.705  1.00  0.00    -0.744 OA
ENDBRANCH  90  93
ENDBRANCH  63  86
ENDBRANCH  37  38
ENDBRANCH  29  32
ENDBRANCH  27  28
ENDBRANCH  26  27
ENDBRANCH   1  26
TORSDOF 18
ENDMDL
