MODEL 1
REMARK VINA RESULT:     -12.9      0.000      0.000
REMARK SMILES CS(=O)(=O)c1ccc(C2=NN(c3ccc(C(=O)NCCCCNC(=O)c4ccc(-c5c6nc(c(-c7cccc(S(=O)(=O)[O-])c7F)c7ccc([nH]7)c(-c7cccc(S(=O)(=O)[O-])c7F)c7nc(c(-c8cccc(S(=O)(=O)[O-])c8F)c8ccc5[nH]8)C=C7)C=C6)cc4)cc3)[C@H](c3ccc(F)cc3)C2)cc1
REMARK SMILES IDX 20 1 19 2 18 3 16 4 17 5 15 7 12 8 13 9 90 10 14 11 89 12
REMARK SMILES IDX 11 13 9 14 10 15 99 16 91 17 8 18 5 19 6 20 101 21 7 22
REMARK SMILES IDX 100 23 2 24 1 25 3 26 4 27 92 28 93 29 98 30 94 31 97 32
REMARK SMILES IDX 95 33 96 34 21 35 22 36 23 37 24 38 25 40 26 41 27 42 88 43
REMARK SMILES IDX 28 44 87 45 29 46 30 47 31 48 81 49 32 50 86 51 80 52 82 53
REMARK SMILES IDX 33 54 85 55 79 56 78 57 34 59 66 60 46 61 65 62 47 63 50 64
REMARK SMILES IDX 64 65 83 66 48 67 49 68 63 70 84 71 51 72 35 73 36 74 44 75
REMARK SMILES IDX 37 76 39 77 45 78 38 79 40 80 41 81 42 82 43 83 67 84 68 85
REMARK SMILES IDX 76 86 69 87 71 88 77 89 70 90 72 91 73 92 74 93 75 94 52 95
REMARK SMILES IDX 53 96 61 97 54 98 56 99 62 100 55 101 57 102 58 103 59 104
REMARK SMILES IDX 60 105
REMARK H PARENT 18 6 23 39 82 58 50 69
REMARK Flexibility Score: inf
ROOT
ATOM      1  C   UNL A   1      33.061  33.514  27.851  1.00  0.00     0.023 C 
ENDROOT
BRANCH   1   2
ATOM      2  C   UNL A   1      33.017  32.009  27.580  1.00  0.00     0.116 C 
BRANCH   2   3
ATOM      3  N   UNL A   1      34.146  31.327  28.188  1.00  0.00    -0.352 N 
ATOM      4  C   UNL A   1      34.639  30.059  27.998  1.00  0.00     0.251 C 
ATOM      5  O   UNL A   1      35.700  29.750  28.537  1.00  0.00    -0.269 OA
ATOM      6  H   UNL A   1      34.642  31.865  28.847  1.00  0.00     0.163 HD
BRANCH   4   7
ATOM      7  C   UNL A   1      33.964  29.067  27.120  1.00  0.00     0.039 A 
ATOM      8  C   UNL A   1      32.613  27.133  25.577  1.00  0.00     0.060 A 
ATOM      9  C   UNL A   1      32.113  27.521  26.823  1.00  0.00     0.029 A 
ATOM     10  C   UNL A   1      33.756  27.768  25.087  1.00  0.00     0.029 A 
ATOM     11  C   UNL A   1      32.781  28.480  27.591  1.00  0.00     0.016 A 
ATOM     12  C   UNL A   1      34.416  28.738  25.842  1.00  0.00     0.016 A 
BRANCH   8  13
ATOM     13  N   UNL A   1      32.026  26.123  24.830  1.00  0.00    -0.257 N 
ATOM     14  C   UNL A   1      32.102  24.146  24.057  1.00  0.00     0.071 C 
ATOM     15  N   UNL A   1      32.303  24.834  25.136  1.00  0.00    -0.176 NA
ATOM     16  C   UNL A   1      31.731  24.941  22.833  1.00  0.00     0.091 C 
ATOM     17  C   UNL A   1      31.588  26.342  23.450  1.00  0.00     0.144 C 
BRANCH  14  18
ATOM     18  C   UNL A   1      32.235  22.681  24.031  1.00  0.00    -0.002 A 
ATOM     19  C   UNL A   1      32.439  19.913  23.884  1.00  0.00     0.067 A 
ATOM     20  C   UNL A   1      32.282  20.653  22.710  1.00  0.00     0.021 A 
ATOM     21  C   UNL A   1      32.502  20.547  25.131  1.00  0.00     0.021 A 
ATOM     22  C   UNL A   1      32.161  22.039  22.789  1.00  0.00     0.011 A 
ATOM     23  C   UNL A   1      32.406  21.940  25.204  1.00  0.00     0.011 A 
BRANCH  19  24
ATOM     24  S   UNL A   1      32.594  18.146  23.772  1.00  0.00     0.175 S 
ATOM     25  C   UNL A   1      34.309  17.837  24.104  1.00  0.00     0.163 C 
ATOM     26  O   UNL A   1      32.336  17.766  22.398  1.00  0.00    -0.224 OA
ATOM     27  O   UNL A   1      31.809  17.588  24.860  1.00  0.00    -0.224 OA
ENDBRANCH  19  24
ENDBRANCH  14  18
BRANCH  17  28
ATOM     28  C   UNL A   1      30.205  26.985  23.454  1.00  0.00    -0.023 A 
ATOM     29  C   UNL A   1      29.932  28.252  22.911  1.00  0.00     0.009 A 
ATOM     30  C   UNL A   1      29.119  26.231  23.952  1.00  0.00     0.009 A 
ATOM     31  C   UNL A   1      28.625  28.755  22.892  1.00  0.00     0.039 A 
ATOM     32  C   UNL A   1      27.814  26.725  23.913  1.00  0.00     0.039 A 
ATOM     33  C   UNL A   1      27.580  27.985  23.388  1.00  0.00     0.123 A 
ATOM     34  F   UNL A   1      26.331  28.464  23.345  1.00  0.00    -0.207 F 
ENDBRANCH  17  28
ENDBRANCH   8  13
ENDBRANCH   4   7
ENDBRANCH   2   3
ENDBRANCH   1   2
BRANCH   1  35
ATOM     35  C   UNL A   1      33.974  33.931  29.006  1.00  0.00     0.023 C 
BRANCH  35  36
ATOM     36  C   UNL A   1      33.916  35.407  29.379  1.00  0.00     0.116 C 
BRANCH  36  37
ATOM     37  N   UNL A   1      32.840  35.728  30.307  1.00  0.00    -0.352 N 
ATOM     38  C   UNL A   1      32.768  35.475  31.657  1.00  0.00     0.251 C 
ATOM     39  H   UNL A   1      32.062  36.188  29.917  1.00  0.00     0.163 HD
ATOM     40  O   UNL A   1      31.742  35.726  32.280  1.00  0.00    -0.269 OA
BRANCH  38  41
ATOM     41  C   UNL A   1      33.925  34.857  32.340  1.00  0.00     0.039 A 
ATOM     42  C   UNL A   1      33.758  33.611  32.951  1.00  0.00     0.014 A 
ATOM     43  C   UNL A   1      35.175  35.480  32.330  1.00  0.00     0.014 A 
ATOM     44  C   UNL A   1      34.867  32.952  33.483  1.00  0.00     0.010 A 
ATOM     45  C   UNL A   1      36.288  34.793  32.802  1.00  0.00     0.010 A 
ATOM     46  C   UNL A   1      36.147  33.519  33.374  1.00  0.00    -0.014 A 
BRANCH  46  47
ATOM     47  C   UNL A   1      37.359  32.774  33.796  1.00  0.00     0.031 A 
ATOM     48  C   UNL A   1      38.133  33.200  35.011  1.00  0.00     0.074 A 
ATOM     49  C   UNL A   1      37.822  31.777  33.016  1.00  0.00     0.049 A 
ATOM     50  N   UNL A   1      39.238  32.699  35.499  1.00  0.00    -0.248 NA
ATOM     51  C   UNL A   1      37.614  34.356  35.760  1.00  0.00     0.031 C 
ATOM     52  C   UNL A   1      37.208  31.331  31.764  1.00  0.00     0.029 A 
ATOM     53  N   UNL A   1      38.931  30.980  33.145  1.00  0.00    -0.354 N 
ATOM     54  C   UNL A   1      39.568  33.497  36.587  1.00  0.00     0.074 A 
ATOM     55  C   UNL A   1      38.561  34.533  36.670  1.00  0.00     0.031 C 
ATOM     56  C   UNL A   1      37.943  30.334  31.245  1.00  0.00     0.029 A 
ATOM     57  C   UNL A   1      39.093  30.090  32.109  1.00  0.00     0.049 A 
ATOM     58  H   UNL A   1      39.552  31.040  33.906  1.00  0.00     0.167 HD
ATOM     59  C   UNL A   1      40.597  33.361  37.457  1.00  0.00     0.034 A 
ATOM     60  C   UNL A   1      40.058  29.178  31.881  1.00  0.00     0.034 A 
ATOM     61  C   UNL A   1      41.566  32.299  37.399  1.00  0.00     0.049 A 
ATOM     62  C   UNL A   1      41.171  29.024  32.880  1.00  0.00     0.074 A 
ATOM     63  C   UNL A   1      42.570  32.001  38.303  1.00  0.00     0.029 A 
ATOM     64  N   UNL A   1      41.661  31.371  36.374  1.00  0.00    -0.354 N 
ATOM     65  N   UNL A   1      41.359  29.664  34.009  1.00  0.00    -0.248 NA
ATOM     66  C   UNL A   1      42.188  28.003  32.591  1.00  0.00     0.031 C 
ATOM     67  C   UNL A   1      43.287  30.903  37.812  1.00  0.00     0.029 A 
ATOM     68  C   UNL A   1      42.720  30.511  36.610  1.00  0.00     0.049 A 
ATOM     69  H   UNL A   1      41.064  31.329  35.593  1.00  0.00     0.167 HD
ATOM     70  C   UNL A   1      42.500  29.110  34.575  1.00  0.00     0.074 A 
ATOM     71  C   UNL A   1      42.946  28.064  33.678  1.00  0.00     0.031 C 
ATOM     72  C   UNL A   1      43.132  29.448  35.727  1.00  0.00     0.034 A 
BRANCH  59  73
ATOM     73  C   UNL A   1      40.690  34.356  38.583  1.00  0.00     0.023 A 
ATOM     74  C   UNL A   1      41.581  35.443  38.475  1.00  0.00     0.012 A 
ATOM     75  C   UNL A   1      39.876  34.242  39.726  1.00  0.00     0.148 A 
ATOM     76  C   UNL A   1      41.690  36.380  39.501  1.00  0.00     0.002 A 
ATOM     77  C   UNL A   1      39.961  35.204  40.729  1.00  0.00     0.091 A 
ATOM     78  F   UNL A   1      39.054  33.189  39.827  1.00  0.00    -0.205 F 
ATOM     79  C   UNL A   1      40.873  36.265  40.622  1.00  0.00     0.022 A 
BRANCH  77  80
ATOM     80  S   UNL A   1      38.896  35.176  42.176  1.00  0.00     0.127 S 
ATOM     81  O   UNL A   1      39.380  33.986  42.875  1.00  0.00    -0.237 OA
ATOM     82  O   UNL A   1      39.224  36.442  42.830  1.00  0.00    -0.237 OA
ATOM     83  O   UNL A   1      37.535  35.098  41.662  1.00  0.00    -0.744 OA
ENDBRANCH  77  80
ENDBRANCH  59  73
BRANCH  60  84
ATOM     84  C   UNL A   1      39.959  28.283  30.694  1.00  0.00     0.023 A 
ATOM     85  C   UNL A   1      39.052  27.206  30.725  1.00  0.00     0.012 A 
ATOM     86  C   UNL A   1      40.706  28.520  29.524  1.00  0.00     0.148 A 
ATOM     87  C   UNL A   1      38.902  26.370  29.619  1.00  0.00     0.002 A 
ATOM     88  C   UNL A   1      40.514  27.714  28.407  1.00  0.00     0.091 A 
ATOM     89  F   UNL A   1      41.571  29.544  29.521  1.00  0.00    -0.205 F 
ATOM     90  C   UNL A   1      39.623  26.629  28.458  1.00  0.00     0.022 A 
BRANCH  88  91
ATOM     91  S   UNL A   1      41.302  28.049  26.828  1.00  0.00     0.127 S 
ATOM     92  O   UNL A   1      42.643  28.451  27.241  1.00  0.00    -0.237 OA
ATOM     93  O   UNL A   1      41.224  26.744  26.171  1.00  0.00    -0.237 OA
ATOM     94  O   UNL A   1      40.496  29.087  26.199  1.00  0.00    -0.744 OA
ENDBRANCH  88  91
ENDBRANCH  60  84
BRANCH  72  95
ATOM     95  C   UNL A   1      44.377  28.680  36.090  1.00  0.00     0.023 A 
ATOM     96  C   UNL A   1      45.631  29.157  35.662  1.00  0.00     0.012 A 
ATOM     97  C   UNL A   1      44.313  27.538  36.911  1.00  0.00     0.148 A 
ATOM     98  C   UNL A   1      46.803  28.493  36.025  1.00  0.00     0.002 A 
ATOM     99  C   UNL A   1      45.487  26.907  37.305  1.00  0.00     0.091 A 
ATOM    100  F   UNL A   1      43.108  27.089  37.291  1.00  0.00    -0.205 F 
ATOM    101  C   UNL A   1      46.731  27.377  36.855  1.00  0.00     0.022 A 
BRANCH  99 102
ATOM    102  S   UNL A   1      45.498  25.518  38.445  1.00  0.00     0.127 S 
ATOM    103  O   UNL A   1      44.969  24.442  37.609  1.00  0.00    -0.237 OA
ATOM    104  O   UNL A   1      46.918  25.394  38.774  1.00  0.00    -0.237 OA
ATOM    105  O   UNL A   1      44.653  25.914  39.564  1.00  0.00    -0.744 OA
ENDBRANCH  99 102
ENDBRANCH  72  95
ENDBRANCH  46  47
ENDBRANCH  38  41
ENDBRANCH  36  37
ENDBRANCH  35  36
ENDBRANCH   1  35
TORSDOF 18
ENDMDL
MODEL 2
REMARK VINA RESULT:     -12.4      5.680     10.231
REMARK SMILES CS(=O)(=O)c1ccc(C2=NN(c3ccc(C(=O)NCCCCNC(=O)c4ccc(-c5c6nc(c(-c7cccc(S(=O)(=O)[O-])c7F)c7ccc([nH]7)c(-c7cccc(S(=O)(=O)[O-])c7F)c7nc(c(-c8cccc(S(=O)(=O)[O-])c8F)c8ccc5[nH]8)C=C7)C=C6)cc4)cc3)[C@H](c3ccc(F)cc3)C2)cc1
REMARK SMILES IDX 20 1 19 2 18 3 16 4 17 5 15 7 12 8 13 9 90 10 14 11 89 12
REMARK SMILES IDX 11 13 9 14 10 15 99 16 91 17 8 18 5 19 6 20 101 21 7 22
REMARK SMILES IDX 100 23 2 24 1 25 3 26 4 27 92 28 93 29 98 30 94 31 97 32
REMARK SMILES IDX 95 33 96 34 21 35 22 36 23 37 24 38 25 40 26 41 27 42 88 43
REMARK SMILES IDX 28 44 87 45 29 46 30 47 31 48 81 49 32 50 86 51 80 52 82 53
REMARK SMILES IDX 33 54 85 55 79 56 78 57 34 59 66 60 46 61 65 62 47 63 50 64
REMARK SMILES IDX 64 65 83 66 48 67 49 68 63 70 84 71 51 72 35 73 36 74 44 75
REMARK SMILES IDX 37 76 39 77 45 78 38 79 40 80 41 81 42 82 43 83 67 84 68 85
REMARK SMILES IDX 76 86 69 87 71 88 77 89 70 90 72 91 73 92 74 93 75 94 52 95
REMARK SMILES IDX 53 96 61 97 54 98 56 99 62 100 55 101 57 102 58 103 59 104
REMARK SMILES IDX 60 105
REMARK H PARENT 18 6 23 39 82 58 50 69
REMARK Flexibility Score: inf
ROOT
ATOM      1  C   UNL A   1      35.533  31.635  32.017  1.00  0.00     0.023 C 
ENDROOT
BRANCH   1   2
ATOM      2  C   UNL A   1      36.907  31.887  32.639  1.00  0.00     0.116 C 
BRANCH   2   3
ATOM      3  N   UNL A   1      36.922  33.114  33.414  1.00  0.00    -0.352 N 
ATOM      4  C   UNL A   1      37.749  34.210  33.349  1.00  0.00     0.251 C 
ATOM      5  O   UNL A   1      37.477  35.197  34.029  1.00  0.00    -0.269 OA
ATOM      6  H   UNL A   1      36.220  33.172  34.103  1.00  0.00     0.163 HD
BRANCH   4   7
ATOM      7  C   UNL A   1      38.928  34.262  32.444  1.00  0.00     0.039 A 
ATOM      8  C   UNL A   1      41.077  34.302  30.621  1.00  0.00     0.060 A 
ATOM      9  C   UNL A   1      39.759  34.244  30.161  1.00  0.00     0.029 A 
ATOM     10  C   UNL A   1      41.303  34.404  31.995  1.00  0.00     0.029 A 
ATOM     11  C   UNL A   1      38.691  34.224  31.063  1.00  0.00     0.016 A 
ATOM     12  C   UNL A   1      40.239  34.402  32.898  1.00  0.00     0.016 A 
BRANCH   8  13
ATOM     13  N   UNL A   1      42.162  34.234  29.759  1.00  0.00    -0.257 N 
ATOM     14  C   UNL A   1      43.731  33.099  28.888  1.00  0.00     0.071 C 
ATOM     15  N   UNL A   1      42.472  33.048  29.186  1.00  0.00    -0.176 NA
ATOM     16  C   UNL A   1      44.456  34.346  29.321  1.00  0.00     0.091 C 
ATOM     17  C   UNL A   1      43.277  35.178  29.851  1.00  0.00     0.144 C 
BRANCH  14  18
ATOM     18  C   UNL A   1      44.408  32.003  28.178  1.00  0.00    -0.002 A 
ATOM     19  C   UNL A   1      45.709  30.001  26.754  1.00  0.00     0.067 A 
ATOM     20  C   UNL A   1      45.966  31.339  26.447  1.00  0.00     0.021 A 
ATOM     21  C   UNL A   1      44.812  29.656  27.772  1.00  0.00     0.021 A 
ATOM     22  C   UNL A   1      45.298  32.340  27.150  1.00  0.00     0.011 A 
ATOM     23  C   UNL A   1      44.164  30.664  28.494  1.00  0.00     0.011 A 
BRANCH  19  24
ATOM     24  S   UNL A   1      46.566  28.733  25.852  1.00  0.00     0.175 S 
ATOM     25  C   UNL A   1      48.209  28.758  26.520  1.00  0.00     0.163 C 
ATOM     26  O   UNL A   1      46.648  29.153  24.468  1.00  0.00    -0.224 OA
ATOM     27  O   UNL A   1      45.945  27.470  26.212  1.00  0.00    -0.224 OA
ENDBRANCH  19  24
ENDBRANCH  14  18
BRANCH  17  28
ATOM     28  C   UNL A   1      42.916  36.462  29.110  1.00  0.00    -0.023 A 
ATOM     29  C   UNL A   1      43.238  37.748  29.575  1.00  0.00     0.009 A 
ATOM     30  C   UNL A   1      42.301  36.352  27.844  1.00  0.00     0.009 A 
ATOM     31  C   UNL A   1      42.932  38.881  28.813  1.00  0.00     0.039 A 
ATOM     32  C   UNL A   1      42.016  37.481  27.075  1.00  0.00     0.039 A 
ATOM     33  C   UNL A   1      42.329  38.737  27.570  1.00  0.00     0.123 A 
ATOM     34  F   UNL A   1      42.060  39.824  26.837  1.00  0.00    -0.207 F 
ENDBRANCH  17  28
ENDBRANCH   8  13
ENDBRANCH   4   7
ENDBRANCH   2   3
ENDBRANCH   1   2
BRANCH   1  35
ATOM     35  C   UNL A   1      34.995  32.786  31.164  1.00  0.00     0.023 C 
BRANCH  35  36
ATOM     36  C   UNL A   1      35.411  32.759  29.698  1.00  0.00     0.116 C 
BRANCH  36  37
ATOM     37  N   UNL A   1      34.522  31.969  28.858  1.00  0.00    -0.352 N 
ATOM     38  C   UNL A   1      34.767  30.761  28.249  1.00  0.00     0.251 C 
ATOM     39  H   UNL A   1      33.626  32.348  28.708  1.00  0.00     0.163 HD
ATOM     40  O   UNL A   1      33.937  30.270  27.491  1.00  0.00    -0.269 OA
BRANCH  38  41
ATOM     41  C   UNL A   1      36.059  30.081  28.483  1.00  0.00     0.039 A 
ATOM     42  C   UNL A   1      37.088  30.253  27.554  1.00  0.00     0.014 A 
ATOM     43  C   UNL A   1      36.267  29.323  29.638  1.00  0.00     0.014 A 
ATOM     44  C   UNL A   1      38.354  29.732  27.824  1.00  0.00     0.010 A 
ATOM     45  C   UNL A   1      37.545  28.861  29.935  1.00  0.00     0.010 A 
ATOM     46  C   UNL A   1      38.603  29.068  29.037  1.00  0.00    -0.014 A 
BRANCH  46  47
ATOM     47  C   UNL A   1      39.971  28.636  29.413  1.00  0.00     0.031 A 
ATOM     48  C   UNL A   1      40.759  29.401  30.439  1.00  0.00     0.074 A 
ATOM     49  C   UNL A   1      40.545  27.616  28.744  1.00  0.00     0.049 A 
ATOM     50  N   UNL A   1      41.982  29.198  30.854  1.00  0.00    -0.248 NA
ATOM     51  C   UNL A   1      40.097  30.560  31.058  1.00  0.00     0.031 C 
ATOM     52  C   UNL A   1      39.913  26.854  27.665  1.00  0.00     0.029 A 
ATOM     53  N   UNL A   1      41.796  27.064  28.854  1.00  0.00    -0.354 N 
ATOM     54  C   UNL A   1      42.251  30.221  31.754  1.00  0.00     0.074 A 
ATOM     55  C   UNL A   1      41.073  31.060  31.803  1.00  0.00     0.031 C 
ATOM     56  C   UNL A   1      40.777  25.928  27.218  1.00  0.00     0.029 A 
ATOM     57  C   UNL A   1      42.029  26.048  27.957  1.00  0.00     0.049 A 
ATOM     58  H   UNL A   1      42.462  27.366  29.511  1.00  0.00     0.167 HD
ATOM     59  C   UNL A   1      43.365  30.425  32.497  1.00  0.00     0.034 A 
ATOM     60  C   UNL A   1      43.128  25.296  27.752  1.00  0.00     0.034 A 
ATOM     61  C   UNL A   1      44.513  29.559  32.482  1.00  0.00     0.049 A 
ATOM     62  C   UNL A   1      44.340  25.520  28.614  1.00  0.00     0.074 A 
ATOM     63  C   UNL A   1      45.637  29.608  33.287  1.00  0.00     0.029 A 
ATOM     64  N   UNL A   1      44.690  28.496  31.610  1.00  0.00    -0.354 N 
ATOM     65  N   UNL A   1      44.505  26.373  29.596  1.00  0.00    -0.248 NA
ATOM     66  C   UNL A   1      45.505  24.662  28.360  1.00  0.00     0.031 C 
ATOM     67  C   UNL A   1      46.506  28.585  32.886  1.00  0.00     0.029 A 
ATOM     68  C   UNL A   1      45.915  27.893  31.840  1.00  0.00     0.049 A 
ATOM     69  H   UNL A   1      44.042  28.212  30.927  1.00  0.00     0.167 HD
ATOM     70  C   UNL A   1      45.782  26.138  30.093  1.00  0.00     0.074 A 
ATOM     71  C   UNL A   1      46.337  25.047  29.319  1.00  0.00     0.031 C 
ATOM     72  C   UNL A   1      46.442  26.781  31.089  1.00  0.00     0.034 A 
BRANCH  59  73
ATOM     73  C   UNL A   1      43.367  31.604  33.435  1.00  0.00     0.023 A 
ATOM     74  C   UNL A   1      44.138  32.740  33.115  1.00  0.00     0.012 A 
ATOM     75  C   UNL A   1      42.585  31.607  34.605  1.00  0.00     0.148 A 
ATOM     76  C   UNL A   1      44.162  33.846  33.963  1.00  0.00     0.002 A 
ATOM     77  C   UNL A   1      42.582  32.730  35.426  1.00  0.00     0.091 A 
ATOM     78  F   UNL A   1      41.880  30.509  34.909  1.00  0.00    -0.205 F 
ATOM     79  C   UNL A   1      43.376  33.844  35.113  1.00  0.00     0.022 A 
BRANCH  77  80
ATOM     80  S   UNL A   1      41.545  32.844  36.890  1.00  0.00     0.127 S 
ATOM     81  O   UNL A   1      41.660  31.495  37.438  1.00  0.00    -0.237 OA
ATOM     82  O   UNL A   1      42.220  33.880  37.671  1.00  0.00    -0.237 OA
ATOM     83  O   UNL A   1      40.223  33.221  36.407  1.00  0.00    -0.744 OA
ENDBRANCH  77  80
ENDBRANCH  59  73
BRANCH  60  84
ATOM     84  C   UNL A   1      43.095  24.202  26.741  1.00  0.00     0.023 A 
ATOM     85  C   UNL A   1      43.802  24.367  25.534  1.00  0.00     0.012 A 
ATOM     86  C   UNL A   1      42.425  22.988  26.986  1.00  0.00     0.148 A 
ATOM     87  C   UNL A   1      43.828  23.351  24.580  1.00  0.00     0.002 A 
ATOM     88  C   UNL A   1      42.498  21.959  26.054  1.00  0.00     0.091 A 
ATOM     89  F   UNL A   1      41.751  22.857  28.136  1.00  0.00    -0.205 F 
ATOM     90  C   UNL A   1      43.187  22.144  24.843  1.00  0.00     0.022 A 
BRANCH  88  91
ATOM     91  S   UNL A   1      41.814  20.327  26.361  1.00  0.00     0.127 S 
ATOM     92  O   UNL A   1      42.385  20.004  27.665  1.00  0.00    -0.237 OA
ATOM     93  O   UNL A   1      40.376  20.600  26.367  1.00  0.00    -0.237 OA
ATOM     94  O   UNL A   1      42.263  19.497  25.251  1.00  0.00    -0.744 OA
ENDBRANCH  88  91
ENDBRANCH  60  84
BRANCH  72  95
ATOM     95  C   UNL A   1      47.842  26.323  31.405  1.00  0.00     0.023 A 
ATOM     96  C   UNL A   1      48.049  25.411  32.458  1.00  0.00     0.012 A 
ATOM     97  C   UNL A   1      48.936  26.732  30.618  1.00  0.00     0.148 A 
ATOM     98  C   UNL A   1      49.327  24.933  32.741  1.00  0.00     0.002 A 
ATOM     99  C   UNL A   1      50.200  26.218  30.878  1.00  0.00     0.091 A 
ATOM    100  F   UNL A   1      48.721  27.616  29.633  1.00  0.00    -0.205 F 
ATOM    101  C   UNL A   1      50.400  25.327  31.944  1.00  0.00     0.022 A 
BRANCH  99 102
ATOM    102  S   UNL A   1      51.624  26.597  29.849  1.00  0.00     0.127 S 
ATOM    103  O   UNL A   1      52.705  25.939  30.580  1.00  0.00    -0.237 OA
ATOM    104  O   UNL A   1      51.270  25.961  28.579  1.00  0.00    -0.237 OA
ATOM    105  O   UNL A   1      51.700  28.051  29.793  1.00  0.00    -0.744 OA
ENDBRANCH  99 102
ENDBRANCH  72  95
ENDBRANCH  46  47
ENDBRANCH  38  41
ENDBRANCH  36  37
ENDBRANCH  35  36
ENDBRANCH   1  35
TORSDOF 18
ENDMDL
MODEL 3
REMARK VINA RESULT:     -12.3      1.254      7.256
REMARK SMILES CS(=O)(=O)c1ccc(C2=NN(c3ccc(C(=O)NCCCCNC(=O)c4ccc(-c5c6nc(c(-c7cccc(S(=O)(=O)[O-])c7F)c7ccc([nH]7)c(-c7cccc(S(=O)(=O)[O-])c7F)c7nc(c(-c8cccc(S(=O)(=O)[O-])c8F)c8ccc5[nH]8)C=C7)C=C6)cc4)cc3)[C@H](c3ccc(F)cc3)C2)cc1
REMARK SMILES IDX 20 1 19 2 18 3 16 4 17 5 15 7 12 8 13 9 90 10 14 11 89 12
REMARK SMILES IDX 11 13 9 14 10 15 99 16 91 17 8 18 5 19 6 20 101 21 7 22
REMARK SMILES IDX 100 23 2 24 1 25 3 26 4 27 92 28 93 29 98 30 94 31 97 32
REMARK SMILES IDX 95 33 96 34 21 35 22 36 23 37 24 38 25 40 26 41 27 42 88 43
REMARK SMILES IDX 28 44 87 45 29 46 30 47 31 48 81 49 32 50 86 51 80 52 82 53
REMARK SMILES IDX 33 54 85 55 79 56 78 57 34 59 66 60 46 61 65 62 47 63 50 64
REMARK SMILES IDX 64 65 83 66 48 67 49 68 63 70 84 71 51 72 35 73 36 74 44 75
REMARK SMILES IDX 37 76 39 77 45 78 38 79 40 80 41 81 42 82 43 83 67 84 68 85
REMARK SMILES IDX 76 86 69 87 71 88 77 89 70 90 72 91 73 92 74 93 75 94 52 95
REMARK SMILES IDX 53 96 61 97 54 98 56 99 62 100 55 101 57 102 58 103 59 104
REMARK SMILES IDX 60 105
REMARK H PARENT 18 6 23 39 82 58 50 69
REMARK Flexibility Score: inf
ROOT
ATOM      1  C   UNL A   1      32.975  33.538  27.633  1.00  0.00     0.023 C 
ENDROOT
BRANCH   1   2
ATOM      2  C   UNL A   1      32.913  32.021  27.448  1.00  0.00     0.116 C 
BRANCH   2   3
ATOM      3  N   UNL A   1      34.040  31.363  28.085  1.00  0.00    -0.352 N 
ATOM      4  C   UNL A   1      34.556  30.100  27.918  1.00  0.00     0.251 C 
ATOM      5  O   UNL A   1      35.610  29.813  28.481  1.00  0.00    -0.269 OA
ATOM      6  H   UNL A   1      34.514  31.914  28.748  1.00  0.00     0.163 HD
BRANCH   4   7
ATOM      7  C   UNL A   1      33.913  29.089  27.037  1.00  0.00     0.039 A 
ATOM      8  C   UNL A   1      32.637  27.108  25.490  1.00  0.00     0.060 A 
ATOM      9  C   UNL A   1      32.189  27.395  26.783  1.00  0.00     0.029 A 
ATOM     10  C   UNL A   1      33.684  27.865  24.961  1.00  0.00     0.029 A 
ATOM     11  C   UNL A   1      32.821  28.377  27.552  1.00  0.00     0.016 A 
ATOM     12  C   UNL A   1      34.305  28.858  25.719  1.00  0.00     0.016 A 
BRANCH   8  13
ATOM     13  N   UNL A   1      32.092  26.081  24.733  1.00  0.00    -0.257 N 
ATOM     14  C   UNL A   1      32.216  24.093  23.999  1.00  0.00     0.071 C 
ATOM     15  N   UNL A   1      32.361  24.800  25.075  1.00  0.00    -0.176 NA
ATOM     16  C   UNL A   1      31.901  24.864  22.746  1.00  0.00     0.091 C 
ATOM     17  C   UNL A   1      31.720  26.274  23.331  1.00  0.00     0.144 C 
BRANCH  14  18
ATOM     18  C   UNL A   1      32.359  22.628  24.006  1.00  0.00    -0.002 A 
ATOM     19  C   UNL A   1      32.567  19.858  23.927  1.00  0.00     0.067 A 
ATOM     20  C   UNL A   1      32.236  20.554  22.762  1.00  0.00     0.021 A 
ATOM     21  C   UNL A   1      32.801  20.536  25.129  1.00  0.00     0.021 A 
ATOM     22  C   UNL A   1      32.114  21.942  22.810  1.00  0.00     0.011 A 
ATOM     23  C   UNL A   1      32.704  21.930  25.166  1.00  0.00     0.011 A 
BRANCH  19  24
ATOM     24  S   UNL A   1      32.721  18.089  23.855  1.00  0.00     0.175 S 
ATOM     25  C   UNL A   1      34.414  17.781  24.286  1.00  0.00     0.163 C 
ATOM     26  O   UNL A   1      32.539  17.685  22.476  1.00  0.00    -0.224 OA
ATOM     27  O   UNL A   1      31.875  17.553  24.907  1.00  0.00    -0.224 OA
ENDBRANCH  19  24
ENDBRANCH  14  18
BRANCH  17  28
ATOM     28  C   UNL A   1      30.334  26.909  23.257  1.00  0.00    -0.023 A 
ATOM     29  C   UNL A   1      29.181  26.330  23.813  1.00  0.00     0.009 A 
ATOM     30  C   UNL A   1      30.217  28.190  22.676  1.00  0.00     0.009 A 
ATOM     31  C   UNL A   1      27.952  26.998  23.764  1.00  0.00     0.039 A 
ATOM     32  C   UNL A   1      28.995  28.865  22.647  1.00  0.00     0.039 A 
ATOM     33  C   UNL A   1      27.872  28.259  23.187  1.00  0.00     0.123 A 
ATOM     34  F   UNL A   1      26.697  28.901  23.164  1.00  0.00    -0.207 F 
ENDBRANCH  17  28
ENDBRANCH   8  13
ENDBRANCH   4   7
ENDBRANCH   2   3
ENDBRANCH   1   2
BRANCH   1  35
ATOM     35  C   UNL A   1      33.381  33.997  29.034  1.00  0.00     0.023 C 
BRANCH  35  36
ATOM     36  C   UNL A   1      33.315  35.501  29.271  1.00  0.00     0.116 C 
BRANCH  36  37
ATOM     37  N   UNL A   1      32.709  35.861  30.545  1.00  0.00    -0.352 N 
ATOM     38  C   UNL A   1      33.099  35.496  31.812  1.00  0.00     0.251 C 
ATOM     39  H   UNL A   1      31.917  36.443  30.493  1.00  0.00     0.163 HD
ATOM     40  O   UNL A   1      32.417  35.809  32.784  1.00  0.00    -0.269 OA
BRANCH  38  41
ATOM     41  C   UNL A   1      34.323  34.687  31.989  1.00  0.00     0.039 A 
ATOM     42  C   UNL A   1      35.556  35.250  31.651  1.00  0.00     0.014 A 
ATOM     43  C   UNL A   1      34.256  33.401  32.532  1.00  0.00     0.014 A 
ATOM     44  C   UNL A   1      36.732  34.554  31.936  1.00  0.00     0.010 A 
ATOM     45  C   UNL A   1      35.430  32.738  32.873  1.00  0.00     0.010 A 
ATOM     46  C   UNL A   1      36.679  33.311  32.588  1.00  0.00    -0.014 A 
BRANCH  46  47
ATOM     47  C   UNL A   1      37.914  32.621  33.034  1.00  0.00     0.031 A 
ATOM     48  C   UNL A   1      38.485  31.484  32.235  1.00  0.00     0.074 A 
ATOM     49  C   UNL A   1      38.458  32.951  34.222  1.00  0.00     0.049 A 
ATOM     50  N   UNL A   1      39.525  30.737  32.496  1.00  0.00    -0.248 NA
ATOM     51  C   UNL A   1      37.781  31.122  30.994  1.00  0.00     0.031 C 
ATOM     52  C   UNL A   1      37.941  33.977  35.131  1.00  0.00     0.029 A 
ATOM     53  N   UNL A   1      39.546  32.439  34.882  1.00  0.00    -0.354 N 
ATOM     54  C   UNL A   1      39.581  29.794  31.478  1.00  0.00     0.074 A 
ATOM     55  C   UNL A   1      38.452  30.047  30.608  1.00  0.00     0.031 C 
ATOM     56  C   UNL A   1      38.718  34.025  36.225  1.00  0.00     0.029 A 
ATOM     57  C   UNL A   1      39.767  33.018  36.110  1.00  0.00     0.049 A 
ATOM     58  H   UNL A   1      40.115  31.727  34.512  1.00  0.00     0.167 HD
ATOM     59  C   UNL A   1      40.506  28.827  31.268  1.00  0.00     0.034 A 
ATOM     60  C   UNL A   1      40.710  32.767  37.040  1.00  0.00     0.034 A 
ATOM     61  C   UNL A   1      41.653  28.613  32.108  1.00  0.00     0.049 A 
ATOM     62  C   UNL A   1      41.745  31.711  36.766  1.00  0.00     0.074 A 
ATOM     63  C   UNL A   1      42.712  27.745  31.912  1.00  0.00     0.029 A 
ATOM     64  N   UNL A   1      41.885  29.264  33.310  1.00  0.00    -0.354 N 
ATOM     65  N   UNL A   1      41.893  30.959  35.702  1.00  0.00    -0.248 NA
ATOM     66  C   UNL A   1      42.760  31.489  37.806  1.00  0.00     0.031 C 
ATOM     67  C   UNL A   1      43.576  27.856  33.009  1.00  0.00     0.029 A 
ATOM     68  C   UNL A   1      43.059  28.801  33.880  1.00  0.00     0.049 A 
ATOM     69  H   UNL A   1      41.301  29.952  33.701  1.00  0.00     0.167 HD
ATOM     70  C   UNL A   1      43.028  30.192  35.934  1.00  0.00     0.074 A 
ATOM     71  C   UNL A   1      43.544  30.589  37.228  1.00  0.00     0.031 C 
ATOM     72  C   UNL A   1      43.584  29.232  35.152  1.00  0.00     0.034 A 
BRANCH  59  73
ATOM     73  C   UNL A   1      40.341  27.965  30.044  1.00  0.00     0.023 A 
ATOM     74  C   UNL A   1      39.373  26.939  30.045  1.00  0.00     0.012 A 
ATOM     75  C   UNL A   1      41.110  28.188  28.886  1.00  0.00     0.148 A 
ATOM     76  C   UNL A   1      39.199  26.124  28.928  1.00  0.00     0.002 A 
ATOM     77  C   UNL A   1      40.902  27.396  27.760  1.00  0.00     0.091 A 
ATOM     78  F   UNL A   1      42.045  29.148  28.910  1.00  0.00    -0.205 F 
ATOM     79  C   UNL A   1      39.956  26.360  27.783  1.00  0.00     0.022 A 
BRANCH  77  80
ATOM     80  S   UNL A   1      41.781  27.674  26.218  1.00  0.00     0.127 S 
ATOM     81  O   UNL A   1      41.349  29.026  25.871  1.00  0.00    -0.237 OA
ATOM     82  O   UNL A   1      43.180  27.568  26.632  1.00  0.00    -0.237 OA
ATOM     83  O   UNL A   1      41.340  26.617  25.317  1.00  0.00    -0.744 OA
ENDBRANCH  77  80
ENDBRANCH  59  73
BRANCH  60  84
ATOM     84  C   UNL A   1      40.763  33.595  38.277  1.00  0.00     0.023 A 
ATOM     85  C   UNL A   1      40.164  33.102  39.453  1.00  0.00     0.012 A 
ATOM     86  C   UNL A   1      41.446  34.825  38.315  1.00  0.00     0.148 A 
ATOM     87  C   UNL A   1      40.228  33.829  40.641  1.00  0.00     0.002 A 
ATOM     88  C   UNL A   1      41.550  35.520  39.515  1.00  0.00     0.091 A 
ATOM     89  F   UNL A   1      41.999  35.279  37.182  1.00  0.00    -0.205 F 
ATOM     90  C   UNL A   1      40.929  35.031  40.676  1.00  0.00     0.022 A 
BRANCH  88  91
ATOM     91  S   UNL A   1      42.541  37.009  39.686  1.00  0.00     0.127 S 
ATOM     92  O   UNL A   1      43.081  36.855  41.034  1.00  0.00    -0.237 OA
ATOM     93  O   UNL A   1      43.517  36.846  38.608  1.00  0.00    -0.237 OA
ATOM     94  O   UNL A   1      41.617  38.119  39.497  1.00  0.00    -0.744 OA
ENDBRANCH  88  91
ENDBRANCH  60  84
BRANCH  72  95
ATOM     95  C   UNL A   1      44.818  28.541  35.670  1.00  0.00     0.023 A 
ATOM     96  C   UNL A   1      46.083  29.106  35.420  1.00  0.00     0.012 A 
ATOM     97  C   UNL A   1      44.723  27.381  36.463  1.00  0.00     0.148 A 
ATOM     98  C   UNL A   1      47.238  28.514  35.929  1.00  0.00     0.002 A 
ATOM     99  C   UNL A   1      45.873  26.820  37.003  1.00  0.00     0.091 A 
ATOM    100  F   UNL A   1      43.510  26.846  36.672  1.00  0.00    -0.205 F 
ATOM    101  C   UNL A   1      47.132  27.379  36.730  1.00  0.00     0.022 A 
BRANCH  99 102
ATOM    102  S   UNL A   1      45.826  25.413  38.120  1.00  0.00     0.127 S 
ATOM    103  O   UNL A   1      47.243  25.228  38.427  1.00  0.00    -0.237 OA
ATOM    104  O   UNL A   1      45.022  25.922  39.231  1.00  0.00    -0.237 OA
ATOM    105  O   UNL A   1      45.201  24.330  37.371  1.00  0.00    -0.744 OA
ENDBRANCH  99 102
ENDBRANCH  72  95
ENDBRANCH  46  47
ENDBRANCH  38  41
ENDBRANCH  36  37
ENDBRANCH  35  36
ENDBRANCH   1  35
TORSDOF 18
ENDMDL
