MODEL 1
REMARK VINA RESULT:      -7.8      0.000      0.000
REMARK SMILES C/C=C(\C)[C@H]1C(C)=C[C@H]2CC[C@@H](OS(=O)(=O)[O-])[C@@H](C)[C@H]2[C@H]1/C=C/C=C/C(=O)NCCCCNC(=O)c1ccc(-c2c3nc(c(-c4cccc(S(=O)(=O)[O-])c4F)c4ccc([nH]4)c(-c4cccc(S(=O)(=O)[O-])c4F)c4nc(c(-c5cccc(S(=O)(=O)[O-])c5F)c5ccc2[nH]5)C=C4)C=C3)cc1
REMARK SMILES IDX 30 1 29 2 28 3 26 4 27 5 25 7 24 8 23 9 22 10 21 11 5 12
REMARK SMILES IDX 6 13 7 14 8 15 20 16 9 17 18 18 10 19 12 20 19 21 11 22 3 23
REMARK SMILES IDX 1 24 2 25 4 26 13 27 14 28 15 29 16 30 17 31 31 32 32 33
REMARK SMILES IDX 33 34 34 35 35 37 36 38 37 39 98 40 38 41 97 42 39 43 40 44
REMARK SMILES IDX 41 45 91 46 42 47 96 48 90 49 92 50 43 51 95 52 89 53 88 54
REMARK SMILES IDX 44 56 76 57 56 58 75 59 57 60 60 61 74 62 93 63 58 64 59 65
REMARK SMILES IDX 73 67 94 68 61 69 45 70 46 71 54 72 47 73 49 74 55 75 48 76
REMARK SMILES IDX 50 77 51 78 52 79 53 80 77 81 78 82 86 83 79 84 81 85 87 86
REMARK SMILES IDX 80 87 82 88 83 89 84 90 85 91 62 92 63 93 71 94 64 95 66 96
REMARK SMILES IDX 72 97 65 98 67 99 68 100 69 101 70 102
REMARK H PARENT 28 6 33 36 92 55 60 66
REMARK Flexibility Score: inf
ROOT
ATOM      1  C   UNL A   1      37.082  33.373  32.077  1.00  0.00     0.023 C 
ENDROOT
BRANCH   1   2
ATOM      2  C   UNL A   1      38.176  34.445  32.116  1.00  0.00     0.116 C 
BRANCH   2   3
ATOM      3  N   UNL A   1      38.555  34.847  30.769  1.00  0.00    -0.353 N 
ATOM      4  C   UNL A   1      39.577  34.507  29.939  1.00  0.00     0.243 C 
ATOM      5  O   UNL A   1      39.602  34.991  28.807  1.00  0.00    -0.270 OA
ATOM      6  H   UNL A   1      37.940  35.508  30.375  1.00  0.00     0.163 HD
BRANCH   4   7
ATOM      7  C   UNL A   1      40.630  33.521  30.296  1.00  0.00     0.071 C 
ATOM      8  C   UNL A   1      41.932  33.795  30.389  1.00  0.00     0.005 C 
BRANCH   8   9
ATOM      9  C   UNL A   1      42.996  32.894  30.770  1.00  0.00    -0.004 C 
ATOM     10  C   UNL A   1      43.213  31.846  29.962  1.00  0.00    -0.022 C 
BRANCH  10  11
ATOM     11  C   UNL A   1      44.047  30.610  30.198  1.00  0.00     0.027 C 
ATOM     12  C   UNL A   1      44.285  29.725  28.879  1.00  0.00     0.047 C 
ATOM     13  C   UNL A   1      45.654  29.035  28.830  1.00  0.00    -0.069 C 
ATOM     14  C   UNL A   1      46.019  28.213  27.620  1.00  0.00     0.040 C 
ATOM     15  C   UNL A   1      46.499  29.041  29.879  1.00  0.00    -0.024 C 
ATOM     16  C   UNL A   1      45.322  30.967  31.020  1.00  0.00     0.009 C 
ATOM     17  C   UNL A   1      46.212  29.717  31.189  1.00  0.00     0.016 C 
ATOM     18  C   UNL A   1      46.107  32.262  30.617  1.00  0.00     0.021 C 
ATOM     19  C   UNL A   1      47.489  30.011  31.999  1.00  0.00     0.011 C 
ATOM     20  C   UNL A   1      47.304  32.470  31.570  1.00  0.00     0.141 C 
ATOM     21  C   UNL A   1      46.538  32.357  29.150  1.00  0.00     0.011 C 
ATOM     22  C   UNL A   1      48.233  31.260  31.549  1.00  0.00     0.034 C 
BRANCH  12  23
ATOM     23  C   UNL A   1      43.781  30.372  27.553  1.00  0.00    -0.070 C 
ATOM     24  C   UNL A   1      44.136  32.258  25.849  1.00  0.00     0.035 C 
ATOM     25  C   UNL A   1      44.324  31.546  27.151  1.00  0.00    -0.031 C 
ATOM     26  C   UNL A   1      42.752  29.675  26.703  1.00  0.00     0.040 C 
ENDBRANCH  12  23
BRANCH  20  27
ATOM     27  O   UNL A   1      48.026  33.630  31.180  1.00  0.00    -0.276 OA
BRANCH  27  28
ATOM     28  S   UNL A   1      47.674  35.046  31.882  1.00  0.00     0.217 S 
ATOM     29  O   UNL A   1      46.831  34.806  33.034  1.00  0.00    -0.213 OA
ATOM     30  O   UNL A   1      48.882  35.827  31.991  1.00  0.00    -0.213 OA
ATOM     31  O   UNL A   1      46.748  35.772  30.785  1.00  0.00    -0.726 OA
ENDBRANCH  27  28
ENDBRANCH  20  27
ENDBRANCH  10  11
ENDBRANCH   8   9
ENDBRANCH   4   7
ENDBRANCH   2   3
ENDBRANCH   1   2
BRANCH   1  32
ATOM     32  C   UNL A   1      35.895  33.721  31.174  1.00  0.00     0.023 C 
BRANCH  32  33
ATOM     33  C   UNL A   1      34.756  32.706  31.182  1.00  0.00     0.116 C 
BRANCH  33  34
ATOM     34  N   UNL A   1      34.253  32.391  29.853  1.00  0.00    -0.352 N 
ATOM     35  C   UNL A   1      34.854  31.642  28.869  1.00  0.00     0.251 C 
ATOM     36  H   UNL A   1      33.369  32.762  29.629  1.00  0.00     0.163 HD
ATOM     37  O   UNL A   1      34.347  31.572  27.753  1.00  0.00    -0.269 OA
BRANCH  35  38
ATOM     38  C   UNL A   1      36.130  30.953  29.157  1.00  0.00     0.039 A 
ATOM     39  C   UNL A   1      37.323  31.538  28.728  1.00  0.00     0.014 A 
ATOM     40  C   UNL A   1      36.151  29.755  29.876  1.00  0.00     0.014 A 
ATOM     41  C   UNL A   1      38.541  30.948  29.073  1.00  0.00     0.010 A 
ATOM     42  C   UNL A   1      37.366  29.221  30.295  1.00  0.00     0.010 A 
ATOM     43  C   UNL A   1      38.575  29.804  29.889  1.00  0.00    -0.014 A 
BRANCH  43  44
ATOM     44  C   UNL A   1      39.869  29.218  30.325  1.00  0.00     0.031 A 
ATOM     45  C   UNL A   1      40.557  29.721  31.567  1.00  0.00     0.074 A 
ATOM     46  C   UNL A   1      40.451  28.262  29.573  1.00  0.00     0.049 A 
ATOM     47  N   UNL A   1      41.676  29.315  32.108  1.00  0.00    -0.248 NA
ATOM     48  C   UNL A   1      39.919  30.839  32.282  1.00  0.00     0.031 C 
ATOM     49  C   UNL A   1      39.930  27.751  28.302  1.00  0.00     0.029 A 
ATOM     50  N   UNL A   1      41.613  27.558  29.758  1.00  0.00    -0.354 N 
ATOM     51  C   UNL A   1      41.889  30.140  33.206  1.00  0.00     0.074 A 
ATOM     52  C   UNL A   1      40.809  31.101  33.228  1.00  0.00     0.031 C 
ATOM     53  C   UNL A   1      40.754  26.798  27.838  1.00  0.00     0.029 A 
ATOM     54  C   UNL A   1      41.878  26.651  28.757  1.00  0.00     0.049 A 
ATOM     55  H   UNL A   1      42.204  27.688  30.536  1.00  0.00     0.167 HD
ATOM     56  C   UNL A   1      42.871  30.082  34.137  1.00  0.00     0.034 A 
ATOM     57  C   UNL A   1      42.908  25.799  28.598  1.00  0.00     0.034 A 
ATOM     58  C   UNL A   1      43.929  29.108  34.128  1.00  0.00     0.049 A 
ATOM     59  C   UNL A   1      43.974  25.738  29.659  1.00  0.00     0.074 A 
ATOM     60  C   UNL A   1      44.932  28.918  35.062  1.00  0.00     0.029 A 
ATOM     61  N   UNL A   1      44.130  28.166  33.130  1.00  0.00    -0.354 N 
ATOM     62  N   UNL A   1      44.070  26.421  30.774  1.00  0.00    -0.248 NA
ATOM     63  C   UNL A   1      45.052  24.760  29.460  1.00  0.00     0.031 C 
ATOM     64  C   UNL A   1      45.759  27.884  34.612  1.00  0.00     0.029 A 
ATOM     65  C   UNL A   1      45.245  27.400  33.420  1.00  0.00     0.049 A 
ATOM     66  H   UNL A   1      43.562  28.059  32.334  1.00  0.00     0.167 HD
ATOM     67  C   UNL A   1      45.193  25.928  31.427  1.00  0.00     0.074 A 
ATOM     68  C   UNL A   1      45.729  24.871  30.595  1.00  0.00     0.031 C 
ATOM     69  C   UNL A   1      45.740  26.320  32.605  1.00  0.00     0.034 A 
BRANCH  56  70
ATOM     70  C   UNL A   1      42.821  31.073  35.273  1.00  0.00     0.023 A 
ATOM     71  C   UNL A   1      42.213  30.705  36.491  1.00  0.00     0.012 A 
ATOM     72  C   UNL A   1      43.422  32.341  35.159  1.00  0.00     0.148 A 
ATOM     73  C   UNL A   1      42.170  31.595  37.563  1.00  0.00     0.002 A 
ATOM     74  C   UNL A   1      43.419  33.205  36.247  1.00  0.00     0.091 A 
ATOM     75  F   UNL A   1      43.979  32.681  33.987  1.00  0.00    -0.205 F 
ATOM     76  C   UNL A   1      42.782  32.839  37.445  1.00  0.00     0.022 A 
BRANCH  74  77
ATOM     77  S   UNL A   1      44.250  34.797  36.228  1.00  0.00     0.127 S 
ATOM     78  O   UNL A   1      43.643  35.432  35.060  1.00  0.00    -0.237 OA
ATOM     79  O   UNL A   1      43.845  35.369  37.512  1.00  0.00    -0.237 OA
ATOM     80  O   UNL A   1      45.672  34.508  36.111  1.00  0.00    -0.744 OA
ENDBRANCH  74  77
ENDBRANCH  56  70
BRANCH  57  81
ATOM     81  C   UNL A   1      42.954  24.885  27.420  1.00  0.00     0.023 A 
ATOM     82  C   UNL A   1      43.564  25.321  26.227  1.00  0.00     0.012 A 
ATOM     83  C   UNL A   1      42.402  23.593  27.475  1.00  0.00     0.148 A 
ATOM     84  C   UNL A   1      43.583  24.501  25.097  1.00  0.00     0.002 A 
ATOM     85  C   UNL A   1      42.476  22.760  26.365  1.00  0.00     0.091 A 
ATOM     86  F   UNL A   1      41.818  23.199  28.616  1.00  0.00    -0.205 F 
ATOM     87  C   UNL A   1      43.047  23.220  25.168  1.00  0.00     0.022 A 
BRANCH  85  88
ATOM     88  S   UNL A   1      41.928  21.051  26.405  1.00  0.00     0.127 S 
ATOM     89  O   UNL A   1      40.506  21.184  26.099  1.00  0.00    -0.237 OA
ATOM     90  O   UNL A   1      42.734  20.451  25.341  1.00  0.00    -0.237 OA
ATOM     91  O   UNL A   1      42.245  20.567  27.742  1.00  0.00    -0.744 OA
ENDBRANCH  85  88
ENDBRANCH  57  81
BRANCH  69  92
ATOM     92  C   UNL A   1      46.954  25.572  33.092  1.00  0.00     0.023 A 
ATOM     93  C   UNL A   1      48.247  26.042  32.783  1.00  0.00     0.012 A 
ATOM     94  C   UNL A   1      46.811  24.427  33.902  1.00  0.00     0.148 A 
ATOM     95  C   UNL A   1      49.376  25.358  33.233  1.00  0.00     0.002 A 
ATOM     96  C   UNL A   1      47.940  23.785  34.394  1.00  0.00     0.091 A 
ATOM     97  F   UNL A   1      45.574  23.986  34.172  1.00  0.00    -0.205 F 
ATOM     98  C   UNL A   1      49.223  24.237  34.046  1.00  0.00     0.022 A 
BRANCH  96  99
ATOM     99  S   UNL A   1      47.839  22.397  35.528  1.00  0.00     0.127 S 
ATOM    100  O   UNL A   1      47.305  21.344  34.666  1.00  0.00    -0.237 OA
ATOM    101  O   UNL A   1      49.237  22.214  35.919  1.00  0.00    -0.237 OA
ATOM    102  O   UNL A   1      46.961  22.824  36.610  1.00  0.00    -0.744 OA
ENDBRANCH  96  99
ENDBRANCH  69  92
ENDBRANCH  43  44
ENDBRANCH  35  38
ENDBRANCH  33  34
ENDBRANCH  32  33
ENDBRANCH   1  32
TORSDOF 19
ENDMDL
MODEL 2
REMARK VINA RESULT:      -7.7      3.919      9.201
REMARK SMILES C/C=C(\C)[C@H]1C(C)=C[C@H]2CC[C@@H](OS(=O)(=O)[O-])[C@@H](C)[C@H]2[C@H]1/C=C/C=C/C(=O)NCCCCNC(=O)c1ccc(-c2c3nc(c(-c4cccc(S(=O)(=O)[O-])c4F)c4ccc([nH]4)c(-c4cccc(S(=O)(=O)[O-])c4F)c4nc(c(-c5cccc(S(=O)(=O)[O-])c5F)c5ccc2[nH]5)C=C4)C=C3)cc1
REMARK SMILES IDX 30 1 29 2 28 3 26 4 27 5 25 7 24 8 23 9 22 10 21 11 5 12
REMARK SMILES IDX 6 13 7 14 8 15 20 16 9 17 18 18 10 19 12 20 19 21 11 22 3 23
REMARK SMILES IDX 1 24 2 25 4 26 13 27 14 28 15 29 16 30 17 31 31 32 32 33
REMARK SMILES IDX 33 34 34 35 35 37 36 38 37 39 98 40 38 41 97 42 39 43 40 44
REMARK SMILES IDX 41 45 91 46 42 47 96 48 90 49 92 50 43 51 95 52 89 53 88 54
REMARK SMILES IDX 44 56 76 57 56 58 75 59 57 60 60 61 74 62 93 63 58 64 59 65
REMARK SMILES IDX 73 67 94 68 61 69 45 70 46 71 54 72 47 73 49 74 55 75 48 76
REMARK SMILES IDX 50 77 51 78 52 79 53 80 77 81 78 82 86 83 79 84 81 85 87 86
REMARK SMILES IDX 80 87 82 88 83 89 84 90 85 91 62 92 63 93 71 94 64 95 66 96
REMARK SMILES IDX 72 97 65 98 67 99 68 100 69 101 70 102
REMARK H PARENT 28 6 33 36 92 55 60 66
REMARK Flexibility Score: inf
ROOT
ATOM      1  C   UNL A   1      38.860  34.248  38.658  1.00  0.00     0.023 C 
ENDROOT
BRANCH   1   2
ATOM      2  C   UNL A   1      38.009  33.708  37.503  1.00  0.00     0.116 C 
BRANCH   2   3
ATOM      3  N   UNL A   1      38.140  32.262  37.395  1.00  0.00    -0.353 N 
ATOM      4  C   UNL A   1      38.222  31.401  36.346  1.00  0.00     0.243 C 
ATOM      5  O   UNL A   1      38.383  30.203  36.579  1.00  0.00    -0.270 OA
ATOM      6  H   UNL A   1      38.175  31.811  38.270  1.00  0.00     0.163 HD
BRANCH   4   7
ATOM      7  C   UNL A   1      38.203  31.836  34.926  1.00  0.00     0.071 C 
ATOM      8  C   UNL A   1      39.229  32.402  34.288  1.00  0.00     0.005 C 
BRANCH   8   9
ATOM      9  C   UNL A   1      39.286  32.809  32.902  1.00  0.00    -0.004 C 
ATOM     10  C   UNL A   1      38.154  32.688  32.193  1.00  0.00    -0.022 C 
BRANCH  10  11
ATOM     11  C   UNL A   1      37.943  32.773  30.701  1.00  0.00     0.027 C 
ATOM     12  C   UNL A   1      37.928  31.348  29.963  1.00  0.00     0.047 C 
ATOM     13  C   UNL A   1      36.972  31.274  28.766  1.00  0.00    -0.069 C 
ATOM     14  C   UNL A   1      36.830  29.973  28.018  1.00  0.00     0.040 C 
ATOM     15  C   UNL A   1      36.339  32.362  28.285  1.00  0.00    -0.024 C 
ATOM     16  C   UNL A   1      36.748  33.722  30.379  1.00  0.00     0.009 C 
ATOM     17  C   UNL A   1      36.482  33.743  28.857  1.00  0.00     0.016 C 
ATOM     18  C   UNL A   1      35.455  33.583  31.252  1.00  0.00     0.021 C 
ATOM     19  C   UNL A   1      35.312  34.668  28.479  1.00  0.00     0.011 C 
ATOM     20  C   UNL A   1      34.409  34.631  30.813  1.00  0.00     0.141 C 
ATOM     21  C   UNL A   1      34.842  32.181  31.328  1.00  0.00     0.011 C 
ATOM     22  C   UNL A   1      34.067  34.474  29.334  1.00  0.00     0.034 C 
BRANCH  12  23
ATOM     23  C   UNL A   1      37.949  30.114  30.916  1.00  0.00    -0.070 C 
ATOM     24  C   UNL A   1      39.427  28.413  32.146  1.00  0.00     0.035 C 
ATOM     25  C   UNL A   1      39.128  29.488  31.149  1.00  0.00    -0.031 C 
ATOM     26  C   UNL A   1      36.693  29.661  31.612  1.00  0.00     0.040 C 
ENDBRANCH  12  23
BRANCH  20  27
ATOM     27  O   UNL A   1      33.229  34.479  31.591  1.00  0.00    -0.276 OA
BRANCH  27  28
ATOM     28  S   UNL A   1      32.536  35.795  32.231  1.00  0.00     0.217 S 
ATOM     29  O   UNL A   1      31.201  35.458  32.675  1.00  0.00    -0.213 OA
ATOM     30  O   UNL A   1      33.478  36.437  33.115  1.00  0.00    -0.213 OA
ATOM     31  O   UNL A   1      32.360  36.763  30.958  1.00  0.00    -0.726 OA
ENDBRANCH  27  28
ENDBRANCH  20  27
ENDBRANCH  10  11
ENDBRANCH   8   9
ENDBRANCH   4   7
ENDBRANCH   2   3
ENDBRANCH   1   2
BRANCH   1  32
ATOM     32  C   UNL A   1      40.275  33.665  38.720  1.00  0.00     0.023 C 
BRANCH  32  33
ATOM     33  C   UNL A   1      41.159  34.231  39.827  1.00  0.00     0.116 C 
BRANCH  33  34
ATOM     34  N   UNL A   1      41.411  35.659  39.691  1.00  0.00    -0.352 N 
ATOM     35  C   UNL A   1      41.926  36.335  38.611  1.00  0.00     0.251 C 
ATOM     36  H   UNL A   1      41.183  36.211  40.474  1.00  0.00     0.163 HD
ATOM     37  O   UNL A   1      42.189  37.531  38.702  1.00  0.00    -0.269 OA
BRANCH  35  38
ATOM     38  C   UNL A   1      42.191  35.604  37.354  1.00  0.00     0.039 A 
ATOM     39  C   UNL A   1      43.389  34.900  37.223  1.00  0.00     0.014 A 
ATOM     40  C   UNL A   1      41.246  35.584  36.324  1.00  0.00     0.014 A 
ATOM     41  C   UNL A   1      43.613  34.129  36.081  1.00  0.00     0.010 A 
ATOM     42  C   UNL A   1      41.432  34.744  35.230  1.00  0.00     0.010 A 
ATOM     43  C   UNL A   1      42.622  34.015  35.090  1.00  0.00    -0.014 A 
BRANCH  43  44
ATOM     44  C   UNL A   1      42.822  33.134  33.911  1.00  0.00     0.031 A 
ATOM     45  C   UNL A   1      42.976  33.723  32.533  1.00  0.00     0.074 A 
ATOM     46  C   UNL A   1      42.817  31.796  34.074  1.00  0.00     0.049 A 
ATOM     47  N   UNL A   1      43.178  33.110  31.395  1.00  0.00    -0.248 NA
ATOM     48  C   UNL A   1      42.864  35.186  32.411  1.00  0.00     0.031 C 
ATOM     49  C   UNL A   1      42.590  31.099  35.344  1.00  0.00     0.029 A 
ATOM     50  N   UNL A   1      42.995  30.780  33.170  1.00  0.00    -0.354 N 
ATOM     51  C   UNL A   1      43.194  34.106  30.425  1.00  0.00     0.074 A 
ATOM     52  C   UNL A   1      42.931  35.357  31.099  1.00  0.00     0.031 C 
ATOM     53  C   UNL A   1      42.670  29.774  35.141  1.00  0.00     0.029 A 
ATOM     54  C   UNL A   1      42.920  29.523  33.726  1.00  0.00     0.049 A 
ATOM     55  H   UNL A   1      43.162  30.936  32.211  1.00  0.00     0.167 HD
ATOM     56  C   UNL A   1      43.441  33.996  29.098  1.00  0.00     0.034 A 
ATOM     57  C   UNL A   1      43.041  28.308  33.160  1.00  0.00     0.034 A 
ATOM     58  C   UNL A   1      43.729  32.753  28.434  1.00  0.00     0.049 A 
ATOM     59  C   UNL A   1      43.340  28.215  31.687  1.00  0.00     0.074 A 
ATOM     60  C   UNL A   1      44.063  32.544  27.108  1.00  0.00     0.029 A 
ATOM     61  N   UNL A   1      43.704  31.507  29.042  1.00  0.00    -0.354 N 
ATOM     62  N   UNL A   1      43.508  29.181  30.817  1.00  0.00    -0.248 NA
ATOM     63  C   UNL A   1      43.506  26.867  31.127  1.00  0.00     0.031 C 
ATOM     64  C   UNL A   1      44.208  31.167  26.907  1.00  0.00     0.029 A 
ATOM     65  C   UNL A   1      44.007  30.523  28.117  1.00  0.00     0.049 A 
ATOM     66  H   UNL A   1      43.501  31.347  29.991  1.00  0.00     0.167 HD
ATOM     67  C   UNL A   1      43.839  28.559  29.618  1.00  0.00     0.074 A 
ATOM     68  C   UNL A   1      43.872  27.136  29.882  1.00  0.00     0.031 C 
ATOM     69  C   UNL A   1      44.083  29.114  28.405  1.00  0.00     0.034 A 
BRANCH  56  70
ATOM     70  C   UNL A   1      43.460  35.264  28.281  1.00  0.00     0.023 A 
ATOM     71  C   UNL A   1      42.265  35.738  27.701  1.00  0.00     0.012 A 
ATOM     72  C   UNL A   1      44.642  36.017  28.135  1.00  0.00     0.148 A 
ATOM     73  C   UNL A   1      42.252  36.916  26.957  1.00  0.00     0.002 A 
ATOM     74  C   UNL A   1      44.611  37.217  27.434  1.00  0.00     0.091 A 
ATOM     75  F   UNL A   1      45.773  35.543  28.677  1.00  0.00    -0.205 F 
ATOM     76  C   UNL A   1      43.421  37.661  26.834  1.00  0.00     0.022 A 
BRANCH  74  77
ATOM     77  S   UNL A   1      46.042  38.293  27.285  1.00  0.00     0.127 S 
ATOM     78  O   UNL A   1      45.612  39.208  26.229  1.00  0.00    -0.237 OA
ATOM     79  O   UNL A   1      46.113  38.892  28.618  1.00  0.00    -0.237 OA
ATOM     80  O   UNL A   1      47.162  37.429  26.942  1.00  0.00    -0.744 OA
ENDBRANCH  74  77
ENDBRANCH  56  70
BRANCH  57  81
ATOM     81  C   UNL A   1      42.944  27.075  33.995  1.00  0.00     0.023 A 
ATOM     82  C   UNL A   1      41.686  26.664  34.481  1.00  0.00     0.012 A 
ATOM     83  C   UNL A   1      44.083  26.311  34.306  1.00  0.00     0.148 A 
ATOM     84  C   UNL A   1      41.574  25.539  35.300  1.00  0.00     0.002 A 
ATOM     85  C   UNL A   1      43.956  25.159  35.073  1.00  0.00     0.091 A 
ATOM     86  F   UNL A   1      45.271  26.723  33.841  1.00  0.00    -0.205 F 
ATOM     87  C   UNL A   1      42.706  24.783  35.588  1.00  0.00     0.022 A 
BRANCH  85  88
ATOM     88  S   UNL A   1      45.335  24.054  35.387  1.00  0.00     0.127 S 
ATOM     89  O   UNL A   1      46.195  24.880  36.230  1.00  0.00    -0.237 OA
ATOM     90  O   UNL A   1      44.680  22.942  36.076  1.00  0.00    -0.237 OA
ATOM     91  O   UNL A   1      45.873  23.713  34.076  1.00  0.00    -0.744 OA
ENDBRANCH  85  88
ENDBRANCH  57  81
BRANCH  69  92
ATOM     92  C   UNL A   1      44.457  28.186  27.278  1.00  0.00     0.023 A 
ATOM     93  C   UNL A   1      43.452  27.558  26.513  1.00  0.00     0.012 A 
ATOM     94  C   UNL A   1      45.811  27.977  26.943  1.00  0.00     0.148 A 
ATOM     95  C   UNL A   1      43.790  26.701  25.466  1.00  0.00     0.002 A 
ATOM     96  C   UNL A   1      46.137  27.168  25.863  1.00  0.00     0.091 A 
ATOM     97  F   UNL A   1      46.752  28.570  27.692  1.00  0.00    -0.205 F 
ATOM     98  C   UNL A   1      45.131  26.514  25.135  1.00  0.00     0.022 A 
BRANCH  96  99
ATOM     99  S   UNL A   1      47.828  26.951  25.301  1.00  0.00     0.127 S 
ATOM    100  O   UNL A   1      48.241  28.332  25.053  1.00  0.00    -0.237 OA
ATOM    101  O   UNL A   1      48.462  26.324  26.460  1.00  0.00    -0.237 OA
ATOM    102  O   UNL A   1      47.754  26.100  24.120  1.00  0.00    -0.744 OA
ENDBRANCH  96  99
ENDBRANCH  69  92
ENDBRANCH  43  44
ENDBRANCH  35  38
ENDBRANCH  33  34
ENDBRANCH  32  33
ENDBRANCH   1  32
TORSDOF 19
ENDMDL
MODEL 3
REMARK VINA RESULT:      -7.3      3.331     11.379
REMARK SMILES C/C=C(\C)[C@H]1C(C)=C[C@H]2CC[C@@H](OS(=O)(=O)[O-])[C@@H](C)[C@H]2[C@H]1/C=C/C=C/C(=O)NCCCCNC(=O)c1ccc(-c2c3nc(c(-c4cccc(S(=O)(=O)[O-])c4F)c4ccc([nH]4)c(-c4cccc(S(=O)(=O)[O-])c4F)c4nc(c(-c5cccc(S(=O)(=O)[O-])c5F)c5ccc2[nH]5)C=C4)C=C3)cc1
REMARK SMILES IDX 30 1 29 2 28 3 26 4 27 5 25 7 24 8 23 9 22 10 21 11 5 12
REMARK SMILES IDX 6 13 7 14 8 15 20 16 9 17 18 18 10 19 12 20 19 21 11 22 3 23
REMARK SMILES IDX 1 24 2 25 4 26 13 27 14 28 15 29 16 30 17 31 31 32 32 33
REMARK SMILES IDX 33 34 34 35 35 37 36 38 37 39 98 40 38 41 97 42 39 43 40 44
REMARK SMILES IDX 41 45 91 46 42 47 96 48 90 49 92 50 43 51 95 52 89 53 88 54
REMARK SMILES IDX 44 56 76 57 56 58 75 59 57 60 60 61 74 62 93 63 58 64 59 65
REMARK SMILES IDX 73 67 94 68 61 69 45 70 46 71 54 72 47 73 49 74 55 75 48 76
REMARK SMILES IDX 50 77 51 78 52 79 53 80 77 81 78 82 86 83 79 84 81 85 87 86
REMARK SMILES IDX 80 87 82 88 83 89 84 90 85 91 62 92 63 93 71 94 64 95 66 96
REMARK SMILES IDX 72 97 65 98 67 99 68 100 69 101 70 102
REMARK H PARENT 28 6 33 36 92 55 60 66
REMARK Flexibility Score: inf
ROOT
ATOM      1  C   UNL A   1      49.906  25.202  32.804  1.00  0.00     0.023 C 
ENDROOT
BRANCH   1   2
ATOM      2  C   UNL A   1      48.822  26.226  32.450  1.00  0.00     0.116 C 
BRANCH   2   3
ATOM      3  N   UNL A   1      49.278  27.119  31.395  1.00  0.00    -0.353 N 
ATOM      4  C   UNL A   1      48.691  28.127  30.695  1.00  0.00     0.243 C 
ATOM      5  O   UNL A   1      49.368  28.750  29.877  1.00  0.00    -0.270 OA
ATOM      6  H   UNL A   1      50.214  26.959  31.129  1.00  0.00     0.163 HD
BRANCH   4   7
ATOM      7  C   UNL A   1      47.289  28.569  30.918  1.00  0.00     0.071 C 
ATOM      8  C   UNL A   1      46.711  29.604  30.308  1.00  0.00     0.005 C 
BRANCH   8   9
ATOM      9  C   UNL A   1      45.346  30.059  30.450  1.00  0.00    -0.004 C 
ATOM     10  C   UNL A   1      45.113  30.971  31.405  1.00  0.00    -0.022 C 
BRANCH  10  11
ATOM     11  C   UNL A   1      43.800  31.448  31.976  1.00  0.00     0.027 C 
ATOM     12  C   UNL A   1      43.926  32.106  33.435  1.00  0.00     0.047 C 
ATOM     13  C   UNL A   1      42.945  33.258  33.687  1.00  0.00    -0.069 C 
ATOM     14  C   UNL A   1      42.995  33.991  35.003  1.00  0.00     0.040 C 
ATOM     15  C   UNL A   1      41.961  33.566  32.820  1.00  0.00    -0.024 C 
ATOM     16  C   UNL A   1      43.022  32.284  30.914  1.00  0.00     0.009 C 
ATOM     17  C   UNL A   1      41.718  32.840  31.528  1.00  0.00     0.016 C 
ATOM     18  C   UNL A   1      43.834  33.333  30.079  1.00  0.00     0.021 C 
ATOM     19  C   UNL A   1      40.905  33.674  30.520  1.00  0.00     0.011 C 
ATOM     20  C   UNL A   1      42.905  34.023  29.056  1.00  0.00     0.141 C 
ATOM     21  C   UNL A   1      44.637  34.359  30.886  1.00  0.00     0.011 C 
ATOM     22  C   UNL A   1      41.731  34.700  29.757  1.00  0.00     0.034 C 
BRANCH  12  23
ATOM     23  C   UNL A   1      45.386  32.310  33.941  1.00  0.00    -0.070 C 
ATOM     24  C   UNL A   1      47.562  33.640  33.649  1.00  0.00     0.035 C 
ATOM     25  C   UNL A   1      46.201  33.153  33.262  1.00  0.00    -0.031 C 
ATOM     26  C   UNL A   1      45.865  31.629  35.195  1.00  0.00     0.040 C 
ENDBRANCH  12  23
BRANCH  20  27
ATOM     27  O   UNL A   1      43.643  34.991  28.324  1.00  0.00    -0.276 OA
BRANCH  27  28
ATOM     28  S   UNL A   1      44.060  34.666  26.793  1.00  0.00     0.217 S 
ATOM     29  O   UNL A   1      45.246  35.423  26.455  1.00  0.00    -0.213 OA
ATOM     30  O   UNL A   1      43.999  33.241  26.583  1.00  0.00    -0.213 OA
ATOM     31  O   UNL A   1      42.854  35.312  25.947  1.00  0.00    -0.726 OA
ENDBRANCH  27  28
ENDBRANCH  20  27
ENDBRANCH  10  11
ENDBRANCH   8   9
ENDBRANCH   4   7
ENDBRANCH   2   3
ENDBRANCH   1   2
BRANCH   1  32
ATOM     32  C   UNL A   1      49.477  24.175  33.856  1.00  0.00     0.023 C 
BRANCH  32  33
ATOM     33  C   UNL A   1      48.081  24.387  34.435  1.00  0.00     0.116 C 
BRANCH  33  34
ATOM     34  N   UNL A   1      48.082  24.620  35.873  1.00  0.00    -0.352 N 
ATOM     35  C   UNL A   1      47.270  25.456  36.602  1.00  0.00     0.251 C 
ATOM     36  H   UNL A   1      48.751  24.115  36.389  1.00  0.00     0.163 HD
ATOM     37  O   UNL A   1      47.482  25.629  37.799  1.00  0.00    -0.269 OA
BRANCH  35  38
ATOM     38  C   UNL A   1      46.164  26.167  35.926  1.00  0.00     0.039 A 
ATOM     39  C   UNL A   1      46.440  27.363  35.261  1.00  0.00     0.014 A 
ATOM     40  C   UNL A   1      44.870  25.639  35.919  1.00  0.00     0.014 A 
ATOM     41  C   UNL A   1      45.427  27.998  34.539  1.00  0.00     0.010 A 
ATOM     42  C   UNL A   1      43.888  26.225  35.126  1.00  0.00     0.010 A 
ATOM     43  C   UNL A   1      44.151  27.417  34.437  1.00  0.00    -0.014 A 
BRANCH  43  44
ATOM     44  C   UNL A   1      43.092  28.047  33.606  1.00  0.00     0.031 A 
ATOM     45  C   UNL A   1      42.966  27.710  32.143  1.00  0.00     0.074 A 
ATOM     46  C   UNL A   1      42.272  28.963  34.160  1.00  0.00     0.049 A 
ATOM     47  N   UNL A   1      42.093  28.145  31.272  1.00  0.00    -0.248 NA
ATOM     48  C   UNL A   1      43.961  26.783  31.579  1.00  0.00     0.031 C 
ATOM     49  C   UNL A   1      42.349  29.441  35.543  1.00  0.00     0.029 A 
ATOM     50  N   UNL A   1      41.221  29.666  33.627  1.00  0.00    -0.354 N 
ATOM     51  C   UNL A   1      42.446  27.568  30.058  1.00  0.00     0.074 A 
ATOM     52  C   UNL A   1      43.641  26.790  30.293  1.00  0.00     0.031 C 
ATOM     53  C   UNL A   1      41.371  30.336  35.755  1.00  0.00     0.029 A 
ATOM     54  C   UNL A   1      40.618  30.522  34.519  1.00  0.00     0.049 A 
ATOM     55  H   UNL A   1      40.926  29.566  32.692  1.00  0.00     0.167 HD
ATOM     56  C   UNL A   1      41.814  27.645  28.863  1.00  0.00     0.034 A 
ATOM     57  C   UNL A   1      39.577  31.360  34.360  1.00  0.00     0.034 A 
ATOM     58  C   UNL A   1      40.609  28.398  28.639  1.00  0.00     0.049 A 
ATOM     59  C   UNL A   1      38.877  31.409  33.028  1.00  0.00     0.074 A 
ATOM     60  C   UNL A   1      39.851  28.484  27.485  1.00  0.00     0.029 A 
ATOM     61  N   UNL A   1      39.993  29.205  29.583  1.00  0.00    -0.354 N 
ATOM     62  N   UNL A   1      39.134  30.732  31.935  1.00  0.00    -0.248 NA
ATOM     63  C   UNL A   1      37.720  32.308  32.919  1.00  0.00     0.031 C 
ATOM     64  C   UNL A   1      38.795  29.370  27.722  1.00  0.00     0.029 A 
ATOM     65  C   UNL A   1      38.869  29.801  29.036  1.00  0.00     0.049 A 
ATOM     66  H   UNL A   1      40.307  29.334  30.507  1.00  0.00     0.167 HD
ATOM     67  C   UNL A   1      38.147  31.092  31.024  1.00  0.00     0.074 A 
ATOM     68  C   UNL A   1      37.274  32.026  31.703  1.00  0.00     0.031 C 
ATOM     69  C   UNL A   1      37.983  30.693  29.738  1.00  0.00     0.034 A 
BRANCH  56  70
ATOM     70  C   UNL A   1      42.387  26.855  27.714  1.00  0.00     0.023 A 
ATOM     71  C   UNL A   1      43.322  27.461  26.849  1.00  0.00     0.012 A 
ATOM     72  C   UNL A   1      42.049  25.501  27.522  1.00  0.00     0.148 A 
ATOM     73  C   UNL A   1      43.881  26.747  25.790  1.00  0.00     0.002 A 
ATOM     74  C   UNL A   1      42.647  24.781  26.495  1.00  0.00     0.091 A 
ATOM     75  F   UNL A   1      41.145  24.946  28.342  1.00  0.00    -0.205 F 
ATOM     76  C   UNL A   1      43.553  25.405  25.621  1.00  0.00     0.022 A 
BRANCH  74  77
ATOM     77  S   UNL A   1      42.358  23.026  26.240  1.00  0.00     0.127 S 
ATOM     78  O   UNL A   1      42.948  22.820  24.918  1.00  0.00    -0.237 OA
ATOM     79  O   UNL A   1      43.110  22.429  27.343  1.00  0.00    -0.237 OA
ATOM     80  O   UNL A   1      40.915  22.842  26.314  1.00  0.00    -0.744 OA
ENDBRANCH  74  77
ENDBRANCH  56  70
BRANCH  57  81
ATOM     81  C   UNL A   1      39.087  32.179  35.507  1.00  0.00     0.023 A 
ATOM     82  C   UNL A   1      39.340  33.565  35.529  1.00  0.00     0.012 A 
ATOM     83  C   UNL A   1      38.373  31.595  36.569  1.00  0.00     0.148 A 
ATOM     84  C   UNL A   1      38.930  34.346  36.611  1.00  0.00     0.002 A 
ATOM     85  C   UNL A   1      37.915  32.389  37.615  1.00  0.00     0.091 A 
ATOM     86  F   UNL A   1      38.148  30.274  36.533  1.00  0.00    -0.205 F 
ATOM     87  C   UNL A   1      38.211  33.760  37.648  1.00  0.00     0.022 A 
BRANCH  85  88
ATOM     88  S   UNL A   1      36.873  31.745  38.927  1.00  0.00     0.127 S 
ATOM     89  O   UNL A   1      35.648  32.518  38.743  1.00  0.00    -0.237 OA
ATOM     90  O   UNL A   1      36.771  30.330  38.563  1.00  0.00    -0.237 OA
ATOM     91  O   UNL A   1      37.599  31.994  40.165  1.00  0.00    -0.744 OA
ENDBRANCH  85  88
ENDBRANCH  57  81
BRANCH  69  92
ATOM     92  C   UNL A   1      36.787  31.226  28.991  1.00  0.00     0.023 A 
ATOM     93  C   UNL A   1      36.671  32.607  28.735  1.00  0.00     0.012 A 
ATOM     94  C   UNL A   1      35.802  30.347  28.498  1.00  0.00     0.148 A 
ATOM     95  C   UNL A   1      35.570  33.109  28.041  1.00  0.00     0.002 A 
ATOM     96  C   UNL A   1      34.739  30.847  27.759  1.00  0.00     0.091 A 
ATOM     97  F   UNL A   1      35.922  29.038  28.766  1.00  0.00    -0.205 F 
ATOM     98  C   UNL A   1      34.610  32.228  27.545  1.00  0.00     0.022 A 
BRANCH  96  99
ATOM     99  S   UNL A   1      33.512  29.781  26.995  1.00  0.00     0.127 S 
ATOM    100  O   UNL A   1      32.529  30.752  26.516  1.00  0.00    -0.237 OA
ATOM    101  O   UNL A   1      34.286  29.126  25.940  1.00  0.00    -0.237 OA
ATOM    102  O   UNL A   1      33.046  28.887  28.046  1.00  0.00    -0.744 OA
ENDBRANCH  96  99
ENDBRANCH  69  92
ENDBRANCH  43  44
ENDBRANCH  35  38
ENDBRANCH  33  34
ENDBRANCH  32  33
ENDBRANCH   1  32
TORSDOF 19
ENDMDL
