MODEL 1
REMARK VINA RESULT:     -14.2      0.000      0.000
REMARK SMILES O=C(NCCCCNC(=O)c1ccn(-c2cc(-c3ccncc3)nc(-c3ccccc3F)n2)n1)c1ccc(-c2c3nc(c(-c4cccc(S(=O)(=O)[O-])c4F)c4ccc([nH]4)c(-c4cccc(S(=O)(=O)[O-])c4F)c4nc(c(-c5cccc(S(=O)(=O)[O-])c5F)c5ccc2[nH]5)C=C4)C=C3)cc1
REMARK SMILES IDX 5 1 4 2 3 3 1 4 2 5 35 7 36 8 97 9 37 10 96 11 38 12 39 13
REMARK SMILES IDX 40 14 90 15 41 16 95 17 89 18 91 19 42 20 94 21 88 22 87 23
REMARK SMILES IDX 43 25 75 26 55 27 74 28 56 29 59 30 73 31 92 32 57 33 58 34
REMARK SMILES IDX 72 36 93 37 60 38 44 39 45 40 53 41 46 42 48 43 54 44 47 45
REMARK SMILES IDX 49 46 50 47 51 48 52 49 76 50 77 51 85 52 78 53 80 54 86 55
REMARK SMILES IDX 79 56 81 57 82 58 83 59 84 60 61 61 62 62 70 63 63 64 65 65
REMARK SMILES IDX 71 66 64 67 66 68 67 69 68 70 69 71 6 72 7 73 8 74 9 75
REMARK SMILES IDX 10 77 11 78 12 79 34 80 13 81 14 82 15 83 16 84 33 85 17 86
REMARK SMILES IDX 25 87 24 88 18 89 19 90 23 91 20 92 22 93 21 94 26 95 27 96
REMARK SMILES IDX 31 97 28 98 30 99 32 100 29 101
REMARK H PARENT 3 6 91 24 59 35 8 76
REMARK Flexibility Score: inf
ROOT
ATOM      1  C   UNL A   1      34.982  20.349  24.888  1.00  0.00     0.023 C 
ENDROOT
BRANCH   1   2
ATOM      2  C   UNL A   1      36.384  20.859  25.219  1.00  0.00     0.116 C 
BRANCH   2   3
ATOM      3  N   UNL A   1      37.441  19.883  25.066  1.00  0.00    -0.352 N 
ATOM      4  O   UNL A   1      39.294  18.713  25.337  1.00  0.00    -0.269 OA
ATOM      5  C   UNL A   1      38.724  19.788  25.535  1.00  0.00     0.251 C 
ATOM      6  H   UNL A   1      37.180  19.120  24.502  1.00  0.00     0.163 HD
BRANCH   5   7
ATOM      7  C   UNL A   1      39.471  20.901  26.178  1.00  0.00     0.039 A 
ATOM      8  C   UNL A   1      40.647  20.761  26.917  1.00  0.00     0.014 A 
ATOM      9  C   UNL A   1      38.922  22.187  26.020  1.00  0.00     0.014 A 
ATOM     10  C   UNL A   1      41.209  21.854  27.565  1.00  0.00     0.010 A 
ATOM     11  C   UNL A   1      39.493  23.290  26.643  1.00  0.00     0.010 A 
ATOM     12  C   UNL A   1      40.624  23.114  27.437  1.00  0.00    -0.014 A 
BRANCH  12  13
ATOM     13  C   UNL A   1      41.376  24.262  27.939  1.00  0.00     0.031 A 
ATOM     14  C   UNL A   1      40.560  25.510  28.020  1.00  0.00     0.074 A 
ATOM     15  C   UNL A   1      42.624  24.170  28.439  1.00  0.00     0.049 A 
ATOM     16  N   UNL A   1      40.776  26.652  27.450  1.00  0.00    -0.248 NA
ATOM     17  C   UNL A   1      39.266  25.428  28.722  1.00  0.00     0.031 C 
ATOM     18  C   UNL A   1      43.381  22.938  28.670  1.00  0.00     0.029 A 
ATOM     19  N   UNL A   1      43.421  25.135  28.992  1.00  0.00    -0.354 N 
ATOM     20  C   UNL A   1      39.776  27.495  27.936  1.00  0.00     0.074 A 
ATOM     21  C   UNL A   1      38.777  26.653  28.536  1.00  0.00     0.031 C 
ATOM     22  C   UNL A   1      44.388  23.193  29.533  1.00  0.00     0.029 A 
ATOM     23  C   UNL A   1      44.413  24.615  29.825  1.00  0.00     0.049 A 
ATOM     24  H   UNL A   1      43.306  26.096  28.821  1.00  0.00     0.167 HD
ATOM     25  C   UNL A   1      39.985  28.829  28.092  1.00  0.00     0.034 A 
ATOM     26  C   UNL A   1      45.127  25.287  30.763  1.00  0.00     0.034 A 
ATOM     27  C   UNL A   1      41.067  29.305  27.280  1.00  0.00     0.049 A 
ATOM     28  C   UNL A   1      45.026  26.729  30.449  1.00  0.00     0.074 A 
ATOM     29  C   UNL A   1      41.367  29.290  25.934  1.00  0.00     0.029 A 
ATOM     30  N   UNL A   1      42.232  29.616  27.932  1.00  0.00    -0.354 N 
ATOM     31  N   UNL A   1      45.567  27.294  29.408  1.00  0.00    -0.248 NA
ATOM     32  C   UNL A   1      44.014  27.512  31.138  1.00  0.00     0.031 C 
ATOM     33  C   UNL A   1      42.783  29.151  25.874  1.00  0.00     0.029 A 
ATOM     34  C   UNL A   1      43.271  29.144  27.184  1.00  0.00     0.049 A 
ATOM     35  H   UNL A   1      42.306  30.095  28.789  1.00  0.00     0.167 HD
ATOM     36  C   UNL A   1      44.664  28.282  29.052  1.00  0.00     0.074 A 
ATOM     37  C   UNL A   1      43.810  28.460  30.223  1.00  0.00     0.031 C 
ATOM     38  C   UNL A   1      44.505  28.646  27.748  1.00  0.00     0.034 A 
BRANCH  25  39
ATOM     39  C   UNL A   1      39.487  29.613  29.288  1.00  0.00     0.023 A 
ATOM     40  C   UNL A   1      38.780  30.811  29.043  1.00  0.00     0.012 A 
ATOM     41  C   UNL A   1      39.918  29.389  30.616  1.00  0.00     0.148 A 
ATOM     42  C   UNL A   1      38.546  31.745  30.059  1.00  0.00     0.002 A 
ATOM     43  C   UNL A   1      39.588  30.266  31.641  1.00  0.00     0.091 A 
ATOM     44  F   UNL A   1      40.782  28.406  30.886  1.00  0.00    -0.205 F 
ATOM     45  C   UNL A   1      38.933  31.465  31.363  1.00  0.00     0.022 A 
BRANCH  43  46
ATOM     46  S   UNL A   1      39.988  29.889  33.351  1.00  0.00     0.127 S 
ATOM     47  O   UNL A   1      41.431  30.103  33.369  1.00  0.00    -0.237 OA
ATOM     48  O   UNL A   1      39.201  30.892  34.068  1.00  0.00    -0.237 OA
ATOM     49  O   UNL A   1      39.533  28.519  33.558  1.00  0.00    -0.744 OA
ENDBRANCH  43  46
ENDBRANCH  25  39
BRANCH  26  50
ATOM     50  C   UNL A   1      45.666  24.832  32.072  1.00  0.00     0.023 A 
ATOM     51  C   UNL A   1      46.832  25.441  32.585  1.00  0.00     0.012 A 
ATOM     52  C   UNL A   1      44.897  24.036  32.949  1.00  0.00     0.148 A 
ATOM     53  C   UNL A   1      47.188  25.308  33.934  1.00  0.00     0.002 A 
ATOM     54  C   UNL A   1      45.261  23.898  34.287  1.00  0.00     0.091 A 
ATOM     55  F   UNL A   1      43.758  23.494  32.504  1.00  0.00    -0.205 F 
ATOM     56  C   UNL A   1      46.396  24.547  34.787  1.00  0.00     0.022 A 
BRANCH  54  57
ATOM     57  S   UNL A   1      44.273  22.946  35.450  1.00  0.00     0.127 S 
ATOM     58  O   UNL A   1      44.963  23.205  36.715  1.00  0.00    -0.237 OA
ATOM     59  O   UNL A   1      42.965  23.583  35.327  1.00  0.00    -0.237 OA
ATOM     60  O   UNL A   1      44.352  21.563  34.999  1.00  0.00    -0.744 OA
ENDBRANCH  54  57
ENDBRANCH  26  50
BRANCH  38  61
ATOM     61  C   UNL A   1      45.564  28.261  26.752  1.00  0.00     0.023 A 
ATOM     62  C   UNL A   1      46.728  29.025  26.543  1.00  0.00     0.012 A 
ATOM     63  C   UNL A   1      45.478  26.972  26.198  1.00  0.00     0.148 A 
ATOM     64  C   UNL A   1      47.788  28.508  25.793  1.00  0.00     0.002 A 
ATOM     65  C   UNL A   1      46.559  26.438  25.513  1.00  0.00     0.091 A 
ATOM     66  F   UNL A   1      44.353  26.269  26.401  1.00  0.00    -0.205 F 
ATOM     67  C   UNL A   1      47.714  27.206  25.299  1.00  0.00     0.022 A 
BRANCH  65  68
ATOM     68  S   UNL A   1      46.585  24.714  25.014  1.00  0.00     0.127 S 
ATOM     69  O   UNL A   1      45.198  24.493  24.606  1.00  0.00    -0.237 OA
ATOM     70  O   UNL A   1      47.554  24.721  23.917  1.00  0.00    -0.237 OA
ATOM     71  O   UNL A   1      47.020  23.962  26.185  1.00  0.00    -0.744 OA
ENDBRANCH  65  68
ENDBRANCH  38  61
ENDBRANCH  12  13
ENDBRANCH   5   7
ENDBRANCH   2   3
ENDBRANCH   1   2
BRANCH   1  72
ATOM     72  C   UNL A   1      33.925  21.438  24.675  1.00  0.00     0.023 C 
BRANCH  72  73
ATOM     73  C   UNL A   1      33.439  22.129  25.946  1.00  0.00     0.116 C 
BRANCH  73  74
ATOM     74  N   UNL A   1      32.062  21.789  26.247  1.00  0.00    -0.351 N 
ATOM     75  C   UNL A   1      30.924  22.505  25.959  1.00  0.00     0.271 C 
ATOM     76  H   UNL A   1      31.925  20.936  26.718  1.00  0.00     0.163 HD
ATOM     77  O   UNL A   1      29.850  22.134  26.415  1.00  0.00    -0.267 OA
BRANCH  75  78
ATOM     78  C   UNL A   1      31.042  23.651  25.053  1.00  0.00     0.150 A 
ATOM     79  C   UNL A   1      30.801  23.653  23.655  1.00  0.00     0.056 A 
ATOM     80  N   UNL A   1      31.376  24.878  25.490  1.00  0.00    -0.161 NA
ATOM     81  C   UNL A   1      30.865  24.972  23.287  1.00  0.00     0.118 A 
ATOM     82  N   UNL A   1      31.170  25.686  24.423  1.00  0.00    -0.222 N 
BRANCH  82  83
ATOM     83  C   UNL A   1      31.233  27.101  24.523  1.00  0.00     0.158 A 
ATOM     84  C   UNL A   1      30.455  27.868  23.684  1.00  0.00     0.078 A 
ATOM     85  N   UNL A   1      32.062  27.626  25.452  1.00  0.00    -0.209 NA
ATOM     86  C   UNL A   1      30.528  29.232  23.875  1.00  0.00     0.077 A 
ATOM     87  C   UNL A   1      32.131  28.966  25.495  1.00  0.00     0.165 A 
ATOM     88  N   UNL A   1      31.393  29.801  24.746  1.00  0.00    -0.228 NA
BRANCH  86  89
ATOM     89  C   UNL A   1      29.619  30.150  23.185  1.00  0.00     0.003 A 
ATOM     90  C   UNL A   1      29.356  29.998  21.816  1.00  0.00     0.030 A 
ATOM     91  C   UNL A   1      28.986  31.196  23.862  1.00  0.00     0.030 A 
ATOM     92  C   UNL A   1      28.495  30.887  21.194  1.00  0.00     0.111 A 
ATOM     93  C   UNL A   1      28.148  32.039  23.150  1.00  0.00     0.111 A 
ATOM     94  N   UNL A   1      27.887  31.908  21.832  1.00  0.00    -0.265 NA
ENDBRANCH  86  89
BRANCH  87  95
ATOM     95  C   UNL A   1      33.170  29.528  26.347  1.00  0.00     0.055 A 
ATOM     96  C   UNL A   1      34.386  28.844  26.542  1.00  0.00     0.015 A 
ATOM     97  C   UNL A   1      32.984  30.735  27.024  1.00  0.00     0.134 A 
ATOM     98  C   UNL A   1      35.376  29.357  27.385  1.00  0.00     0.001 A 
ATOM     99  C   UNL A   1      33.965  31.249  27.874  1.00  0.00     0.040 A 
ATOM    100  F   UNL A   1      31.834  31.414  26.901  1.00  0.00    -0.206 F 
ATOM    101  C   UNL A   1      35.163  30.560  28.054  1.00  0.00     0.003 A 
ENDBRANCH  87  95
ENDBRANCH  82  83
ENDBRANCH  75  78
ENDBRANCH  73  74
ENDBRANCH  72  73
ENDBRANCH   1  72
TORSDOF 17
ENDMDL
MODEL 2
REMARK VINA RESULT:     -14.1      3.197      7.253
REMARK SMILES O=C(NCCCCNC(=O)c1ccn(-c2cc(-c3ccncc3)nc(-c3ccccc3F)n2)n1)c1ccc(-c2c3nc(c(-c4cccc(S(=O)(=O)[O-])c4F)c4ccc([nH]4)c(-c4cccc(S(=O)(=O)[O-])c4F)c4nc(c(-c5cccc(S(=O)(=O)[O-])c5F)c5ccc2[nH]5)C=C4)C=C3)cc1
REMARK SMILES IDX 5 1 4 2 3 3 1 4 2 5 35 7 36 8 97 9 37 10 96 11 38 12 39 13
REMARK SMILES IDX 40 14 90 15 41 16 95 17 89 18 91 19 42 20 94 21 88 22 87 23
REMARK SMILES IDX 43 25 75 26 55 27 74 28 56 29 59 30 73 31 92 32 57 33 58 34
REMARK SMILES IDX 72 36 93 37 60 38 44 39 45 40 53 41 46 42 48 43 54 44 47 45
REMARK SMILES IDX 49 46 50 47 51 48 52 49 76 50 77 51 85 52 78 53 80 54 86 55
REMARK SMILES IDX 79 56 81 57 82 58 83 59 84 60 61 61 62 62 70 63 63 64 65 65
REMARK SMILES IDX 71 66 64 67 66 68 67 69 68 70 69 71 6 72 7 73 8 74 9 75
REMARK SMILES IDX 10 77 11 78 12 79 34 80 13 81 14 82 15 83 16 84 33 85 17 86
REMARK SMILES IDX 25 87 24 88 18 89 19 90 23 91 20 92 22 93 21 94 26 95 27 96
REMARK SMILES IDX 31 97 28 98 30 99 32 100 29 101
REMARK H PARENT 3 6 91 24 59 35 8 76
REMARK Flexibility Score: inf
ROOT
ATOM      1  C   UNL A   1      35.518  22.451  24.955  1.00  0.00     0.023 C 
ENDROOT
BRANCH   1   2
ATOM      2  C   UNL A   1      36.693  22.909  25.818  1.00  0.00     0.116 C 
BRANCH   2   3
ATOM      3  N   UNL A   1      37.925  22.178  25.611  1.00  0.00    -0.352 N 
ATOM      4  O   UNL A   1      39.971  21.377  25.831  1.00  0.00    -0.269 OA
ATOM      5  C   UNL A   1      39.197  22.297  26.105  1.00  0.00     0.251 C 
ATOM      6  H   UNL A   1      37.826  21.431  24.977  1.00  0.00     0.163 HD
BRANCH   5   7
ATOM      7  C   UNL A   1      39.701  23.474  26.860  1.00  0.00     0.039 A 
ATOM      8  C   UNL A   1      40.670  23.432  27.864  1.00  0.00     0.014 A 
ATOM      9  C   UNL A   1      39.134  24.716  26.520  1.00  0.00     0.014 A 
ATOM     10  C   UNL A   1      40.996  24.576  28.580  1.00  0.00     0.010 A 
ATOM     11  C   UNL A   1      39.474  25.871  27.214  1.00  0.00     0.010 A 
ATOM     12  C   UNL A   1      40.388  25.791  28.262  1.00  0.00    -0.014 A 
BRANCH  12  13
ATOM     13  C   UNL A   1      40.930  27.000  28.880  1.00  0.00     0.031 A 
ATOM     14  C   UNL A   1      42.310  27.330  28.418  1.00  0.00     0.074 A 
ATOM     15  C   UNL A   1      40.200  27.828  29.655  1.00  0.00     0.049 A 
ATOM     16  N   UNL A   1      43.385  27.469  29.126  1.00  0.00    -0.248 NA
ATOM     17  C   UNL A   1      42.544  27.379  26.963  1.00  0.00     0.031 C 
ATOM     18  C   UNL A   1      38.761  27.735  29.913  1.00  0.00     0.029 A 
ATOM     19  N   UNL A   1      40.549  29.011  30.246  1.00  0.00    -0.354 N 
ATOM     20  C   UNL A   1      44.366  27.874  28.220  1.00  0.00     0.074 A 
ATOM     21  C   UNL A   1      43.855  27.604  26.904  1.00  0.00     0.031 C 
ATOM     22  C   UNL A   1      38.318  28.924  30.376  1.00  0.00     0.029 A 
ATOM     23  C   UNL A   1      39.450  29.817  30.549  1.00  0.00     0.049 A 
ATOM     24  H   UNL A   1      41.478  29.267  30.438  1.00  0.00     0.167 HD
ATOM     25  C   UNL A   1      45.390  28.685  28.597  1.00  0.00     0.034 A 
ATOM     26  C   UNL A   1      39.463  31.147  30.816  1.00  0.00     0.034 A 
ATOM     27  C   UNL A   1      45.616  28.648  30.013  1.00  0.00     0.049 A 
ATOM     28  C   UNL A   1      40.845  31.512  31.192  1.00  0.00     0.074 A 
ATOM     29  C   UNL A   1      45.891  27.663  30.939  1.00  0.00     0.029 A 
ATOM     30  N   UNL A   1      45.222  29.750  30.725  1.00  0.00    -0.354 N 
ATOM     31  N   UNL A   1      41.434  31.128  32.289  1.00  0.00    -0.248 NA
ATOM     32  C   UNL A   1      41.718  32.049  30.162  1.00  0.00     0.031 C 
ATOM     33  C   UNL A   1      45.224  28.078  32.126  1.00  0.00     0.029 A 
ATOM     34  C   UNL A   1      44.626  29.316  31.874  1.00  0.00     0.049 A 
ATOM     35  H   UNL A   1      45.348  30.689  30.457  1.00  0.00     0.167 HD
ATOM     36  C   UNL A   1      42.758  30.954  31.919  1.00  0.00     0.074 A 
ATOM     37  C   UNL A   1      42.897  31.664  30.651  1.00  0.00     0.031 C 
ATOM     38  C   UNL A   1      43.531  30.006  32.519  1.00  0.00     0.034 A 
BRANCH  25  39
ATOM     39  C   UNL A   1      45.904  29.824  27.742  1.00  0.00     0.023 A 
ATOM     40  C   UNL A   1      47.303  29.993  27.642  1.00  0.00     0.012 A 
ATOM     41  C   UNL A   1      45.099  30.889  27.275  1.00  0.00     0.148 A 
ATOM     42  C   UNL A   1      47.865  31.171  27.135  1.00  0.00     0.002 A 
ATOM     43  C   UNL A   1      45.659  32.007  26.672  1.00  0.00     0.091 A 
ATOM     44  F   UNL A   1      43.790  30.908  27.541  1.00  0.00    -0.205 F 
ATOM     45  C   UNL A   1      47.043  32.172  26.631  1.00  0.00     0.022 A 
BRANCH  43  46
ATOM     46  S   UNL A   1      44.628  33.274  25.925  1.00  0.00     0.127 S 
ATOM     47  O   UNL A   1      43.963  33.838  27.095  1.00  0.00    -0.237 OA
ATOM     48  O   UNL A   1      45.627  34.140  25.299  1.00  0.00    -0.237 OA
ATOM     49  O   UNL A   1      43.778  32.566  24.975  1.00  0.00    -0.744 OA
ENDBRANCH  43  46
ENDBRANCH  25  39
BRANCH  26  50
ATOM     50  C   UNL A   1      38.457  32.199  30.513  1.00  0.00     0.023 A 
ATOM     51  C   UNL A   1      38.109  32.452  29.168  1.00  0.00     0.012 A 
ATOM     52  C   UNL A   1      37.627  32.737  31.520  1.00  0.00     0.148 A 
ATOM     53  C   UNL A   1      36.948  33.165  28.839  1.00  0.00     0.002 A 
ATOM     54  C   UNL A   1      36.480  33.454  31.189  1.00  0.00     0.091 A 
ATOM     55  F   UNL A   1      37.901  32.465  32.801  1.00  0.00    -0.205 F 
ATOM     56  C   UNL A   1      36.128  33.656  29.848  1.00  0.00     0.022 A 
BRANCH  54  57
ATOM     57  S   UNL A   1      35.363  34.100  32.442  1.00  0.00     0.127 S 
ATOM     58  O   UNL A   1      34.339  34.757  31.626  1.00  0.00    -0.237 OA
ATOM     59  O   UNL A   1      34.921  32.880  33.110  1.00  0.00    -0.237 OA
ATOM     60  O   UNL A   1      36.159  35.015  33.250  1.00  0.00    -0.744 OA
ENDBRANCH  54  57
ENDBRANCH  26  50
BRANCH  38  61
ATOM     61  C   UNL A   1      43.077  29.419  33.827  1.00  0.00     0.023 A 
ATOM     62  C   UNL A   1      42.204  28.317  33.907  1.00  0.00     0.012 A 
ATOM     63  C   UNL A   1      43.746  29.851  34.985  1.00  0.00     0.148 A 
ATOM     64  C   UNL A   1      42.005  27.659  35.123  1.00  0.00     0.002 A 
ATOM     65  C   UNL A   1      43.597  29.154  36.174  1.00  0.00     0.091 A 
ATOM     66  F   UNL A   1      44.563  30.912  34.886  1.00  0.00    -0.205 F 
ATOM     67  C   UNL A   1      42.719  28.062  36.251  1.00  0.00     0.022 A 
BRANCH  65  68
ATOM     68  S   UNL A   1      44.623  29.517  37.601  1.00  0.00     0.127 S 
ATOM     69  O   UNL A   1      45.922  29.781  36.984  1.00  0.00    -0.237 OA
ATOM     70  O   UNL A   1      43.962  30.693  38.169  1.00  0.00    -0.237 OA
ATOM     71  O   UNL A   1      44.563  28.334  38.452  1.00  0.00    -0.744 OA
ENDBRANCH  65  68
ENDBRANCH  38  61
ENDBRANCH  12  13
ENDBRANCH   5   7
ENDBRANCH   2   3
ENDBRANCH   1   2
BRANCH   1  72
ATOM     72  C   UNL A   1      34.252  22.068  25.728  1.00  0.00     0.023 C 
BRANCH  72  73
ATOM     73  C   UNL A   1      33.088  21.584  24.868  1.00  0.00     0.116 C 
BRANCH  73  74
ATOM     74  N   UNL A   1      31.851  21.529  25.623  1.00  0.00    -0.351 N 
ATOM     75  C   UNL A   1      30.887  22.501  25.753  1.00  0.00     0.271 C 
ATOM     76  H   UNL A   1      31.680  20.688  26.105  1.00  0.00     0.163 HD
ATOM     77  O   UNL A   1      29.972  22.335  26.549  1.00  0.00    -0.267 OA
BRANCH  75  78
ATOM     78  C   UNL A   1      30.964  23.670  24.872  1.00  0.00     0.150 A 
ATOM     79  C   UNL A   1      30.665  23.707  23.487  1.00  0.00     0.056 A 
ATOM     80  N   UNL A   1      31.313  24.887  25.327  1.00  0.00    -0.161 NA
ATOM     81  C   UNL A   1      30.710  25.035  23.150  1.00  0.00     0.118 A 
ATOM     82  N   UNL A   1      31.061  25.721  24.290  1.00  0.00    -0.222 N 
BRANCH  82  83
ATOM     83  C   UNL A   1      31.125  27.134  24.423  1.00  0.00     0.158 A 
ATOM     84  C   UNL A   1      30.336  27.919  23.613  1.00  0.00     0.078 A 
ATOM     85  N   UNL A   1      31.966  27.637  25.354  1.00  0.00    -0.209 NA
ATOM     86  C   UNL A   1      30.412  29.279  23.836  1.00  0.00     0.077 A 
ATOM     87  C   UNL A   1      32.035  28.974  25.429  1.00  0.00     0.165 A 
ATOM     88  N   UNL A   1      31.287  29.827  24.709  1.00  0.00    -0.228 NA
BRANCH  86  89
ATOM     89  C   UNL A   1      29.494  30.213  23.180  1.00  0.00     0.003 A 
ATOM     90  C   UNL A   1      29.317  30.180  21.789  1.00  0.00     0.030 A 
ATOM     91  C   UNL A   1      28.767  31.157  23.910  1.00  0.00     0.030 A 
ATOM     92  C   UNL A   1      28.446  31.081  21.200  1.00  0.00     0.111 A 
ATOM     93  C   UNL A   1      27.926  32.022  23.230  1.00  0.00     0.111 A 
ATOM     94  N   UNL A   1      27.747  32.005  21.892  1.00  0.00    -0.265 NA
ENDBRANCH  86  89
BRANCH  87  95
ATOM     95  C   UNL A   1      33.083  29.517  26.282  1.00  0.00     0.055 A 
ATOM     96  C   UNL A   1      34.297  28.821  26.457  1.00  0.00     0.015 A 
ATOM     97  C   UNL A   1      32.911  30.714  26.979  1.00  0.00     0.134 A 
ATOM     98  C   UNL A   1      35.296  29.315  27.300  1.00  0.00     0.001 A 
ATOM     99  C   UNL A   1      33.902  31.208  27.829  1.00  0.00     0.040 A 
ATOM    100  F   UNL A   1      31.765  31.402  26.875  1.00  0.00    -0.206 F 
ATOM    101  C   UNL A   1      35.097  30.509  27.989  1.00  0.00     0.003 A 
ENDBRANCH  87  95
ENDBRANCH  82  83
ENDBRANCH  75  78
ENDBRANCH  73  74
ENDBRANCH  72  73
ENDBRANCH   1  72
TORSDOF 17
ENDMDL
MODEL 3
REMARK VINA RESULT:     -14.0      3.401      7.716
REMARK SMILES O=C(NCCCCNC(=O)c1ccn(-c2cc(-c3ccncc3)nc(-c3ccccc3F)n2)n1)c1ccc(-c2c3nc(c(-c4cccc(S(=O)(=O)[O-])c4F)c4ccc([nH]4)c(-c4cccc(S(=O)(=O)[O-])c4F)c4nc(c(-c5cccc(S(=O)(=O)[O-])c5F)c5ccc2[nH]5)C=C4)C=C3)cc1
REMARK SMILES IDX 5 1 4 2 3 3 1 4 2 5 35 7 36 8 97 9 37 10 96 11 38 12 39 13
REMARK SMILES IDX 40 14 90 15 41 16 95 17 89 18 91 19 42 20 94 21 88 22 87 23
REMARK SMILES IDX 43 25 75 26 55 27 74 28 56 29 59 30 73 31 92 32 57 33 58 34
REMARK SMILES IDX 72 36 93 37 60 38 44 39 45 40 53 41 46 42 48 43 54 44 47 45
REMARK SMILES IDX 49 46 50 47 51 48 52 49 76 50 77 51 85 52 78 53 80 54 86 55
REMARK SMILES IDX 79 56 81 57 82 58 83 59 84 60 61 61 62 62 70 63 63 64 65 65
REMARK SMILES IDX 71 66 64 67 66 68 67 69 68 70 69 71 6 72 7 73 8 74 9 75
REMARK SMILES IDX 10 77 11 78 12 79 34 80 13 81 14 82 15 83 16 84 33 85 17 86
REMARK SMILES IDX 25 87 24 88 18 89 19 90 23 91 20 92 22 93 21 94 26 95 27 96
REMARK SMILES IDX 31 97 28 98 30 99 32 100 29 101
REMARK H PARENT 3 6 91 24 59 35 8 76
REMARK Flexibility Score: inf
ROOT
ATOM      1  C   UNL A   1      33.328  27.960  25.672  1.00  0.00     0.023 C 
ENDROOT
BRANCH   1   2
ATOM      2  C   UNL A   1      33.080  28.346  27.131  1.00  0.00     0.116 C 
BRANCH   2   3
ATOM      3  N   UNL A   1      32.955  29.766  27.374  1.00  0.00    -0.352 N 
ATOM      4  O   UNL A   1      33.394  31.917  27.611  1.00  0.00    -0.269 OA
ATOM      5  C   UNL A   1      33.852  30.773  27.617  1.00  0.00     0.251 C 
ATOM      6  H   UNL A   1      32.021  30.078  27.362  1.00  0.00     0.163 HD
BRANCH   5   7
ATOM      7  C   UNL A   1      35.284  30.562  27.954  1.00  0.00     0.039 A 
ATOM      8  C   UNL A   1      36.214  31.576  28.193  1.00  0.00     0.014 A 
ATOM      9  C   UNL A   1      35.713  29.223  28.024  1.00  0.00     0.014 A 
ATOM     10  C   UNL A   1      37.553  31.273  28.397  1.00  0.00     0.010 A 
ATOM     11  C   UNL A   1      37.046  28.911  28.255  1.00  0.00     0.010 A 
ATOM     12  C   UNL A   1      37.970  29.941  28.416  1.00  0.00    -0.014 A 
BRANCH  12  13
ATOM     13  C   UNL A   1      39.333  29.666  28.864  1.00  0.00     0.031 A 
ATOM     14  C   UNL A   1      39.612  30.162  30.244  1.00  0.00     0.074 A 
ATOM     15  C   UNL A   1      40.198  28.895  28.176  1.00  0.00     0.049 A 
ATOM     16  N   UNL A   1      40.524  30.995  30.632  1.00  0.00    -0.248 NA
ATOM     17  C   UNL A   1      38.662  29.779  31.306  1.00  0.00     0.031 C 
ATOM     18  C   UNL A   1      39.906  28.128  26.962  1.00  0.00     0.029 A 
ATOM     19  N   UNL A   1      41.471  28.505  28.493  1.00  0.00    -0.354 N 
ATOM     20  C   UNL A   1      40.412  31.033  32.023  1.00  0.00     0.074 A 
ATOM     21  C   UNL A   1      39.145  30.441  32.355  1.00  0.00     0.031 C 
ATOM     22  C   UNL A   1      40.857  27.184  26.796  1.00  0.00     0.029 A 
ATOM     23  C   UNL A   1      41.874  27.351  27.819  1.00  0.00     0.049 A 
ATOM     24  H   UNL A   1      42.042  28.987  29.131  1.00  0.00     0.167 HD
ATOM     25  C   UNL A   1      41.493  31.256  32.816  1.00  0.00     0.034 A 
ATOM     26  C   UNL A   1      42.907  26.533  28.146  1.00  0.00     0.034 A 
ATOM     27  C   UNL A   1      42.556  31.911  32.109  1.00  0.00     0.049 A 
ATOM     28  C   UNL A   1      43.812  27.294  29.034  1.00  0.00     0.074 A 
ATOM     29  C   UNL A   1      42.684  33.082  31.393  1.00  0.00     0.029 A 
ATOM     30  N   UNL A   1      43.647  31.144  31.796  1.00  0.00    -0.354 N 
ATOM     31  N   UNL A   1      44.533  28.310  28.653  1.00  0.00    -0.248 NA
ATOM     32  C   UNL A   1      43.662  27.128  30.470  1.00  0.00     0.031 C 
ATOM     33  C   UNL A   1      43.606  32.776  30.351  1.00  0.00     0.029 A 
ATOM     34  C   UNL A   1      44.027  31.455  30.523  1.00  0.00     0.049 A 
ATOM     35  H   UNL A   1      44.081  30.485  32.386  1.00  0.00     0.167 HD
ATOM     36  C   UNL A   1      44.544  29.148  29.756  1.00  0.00     0.074 A 
ATOM     37  C   UNL A   1      44.118  28.314  30.876  1.00  0.00     0.031 C 
ATOM     38  C   UNL A   1      44.606  30.501  29.603  1.00  0.00     0.034 A 
BRANCH  25  39
ATOM     39  C   UNL A   1      41.744  30.507  34.108  1.00  0.00     0.023 A 
ATOM     40  C   UNL A   1      42.108  31.260  35.246  1.00  0.00     0.012 A 
ATOM     41  C   UNL A   1      41.917  29.106  34.189  1.00  0.00     0.148 A 
ATOM     42  C   UNL A   1      42.645  30.652  36.387  1.00  0.00     0.002 A 
ATOM     43  C   UNL A   1      42.347  28.498  35.361  1.00  0.00     0.091 A 
ATOM     44  F   UNL A   1      41.817  28.351  33.091  1.00  0.00    -0.205 F 
ATOM     45  C   UNL A   1      42.747  29.267  36.453  1.00  0.00     0.022 A 
BRANCH  43  46
ATOM     46  S   UNL A   1      42.399  26.709  35.514  1.00  0.00     0.127 S 
ATOM     47  O   UNL A   1      43.019  26.545  36.825  1.00  0.00    -0.237 OA
ATOM     48  O   UNL A   1      40.979  26.363  35.449  1.00  0.00    -0.237 OA
ATOM     49  O   UNL A   1      43.174  26.249  34.368  1.00  0.00    -0.744 OA
ENDBRANCH  43  46
ENDBRANCH  25  39
BRANCH  26  50
ATOM     50  C   UNL A   1      43.056  25.062  27.991  1.00  0.00     0.023 A 
ATOM     51  C   UNL A   1      42.293  24.203  28.812  1.00  0.00     0.012 A 
ATOM     52  C   UNL A   1      43.696  24.500  26.865  1.00  0.00     0.148 A 
ATOM     53  C   UNL A   1      42.128  22.849  28.493  1.00  0.00     0.002 A 
ATOM     54  C   UNL A   1      43.537  23.151  26.557  1.00  0.00     0.091 A 
ATOM     55  F   UNL A   1      44.377  25.302  26.038  1.00  0.00    -0.205 F 
ATOM     56  C   UNL A   1      42.740  22.326  27.359  1.00  0.00     0.022 A 
BRANCH  54  57
ATOM     57  S   UNL A   1      44.283  22.413  25.096  1.00  0.00     0.127 S 
ATOM     58  O   UNL A   1      44.205  20.984  25.405  1.00  0.00    -0.237 OA
ATOM     59  O   UNL A   1      43.380  22.858  24.038  1.00  0.00    -0.237 OA
ATOM     60  O   UNL A   1      45.641  22.937  25.035  1.00  0.00    -0.744 OA
ENDBRANCH  54  57
ENDBRANCH  26  50
BRANCH  38  61
ATOM     61  C   UNL A   1      45.046  31.063  28.280  1.00  0.00     0.023 A 
ATOM     62  C   UNL A   1      44.142  31.573  27.328  1.00  0.00     0.012 A 
ATOM     63  C   UNL A   1      46.423  31.293  28.112  1.00  0.00     0.148 A 
ATOM     64  C   UNL A   1      44.607  32.301  26.230  1.00  0.00     0.002 A 
ATOM     65  C   UNL A   1      46.873  32.073  27.058  1.00  0.00     0.091 A 
ATOM     66  F   UNL A   1      47.265  30.785  29.026  1.00  0.00    -0.205 F 
ATOM     67  C   UNL A   1      45.969  32.571  26.107  1.00  0.00     0.022 A 
BRANCH  65  68
ATOM     68  S   UNL A   1      48.586  32.597  26.954  1.00  0.00     0.127 S 
ATOM     69  O   UNL A   1      48.790  33.235  28.253  1.00  0.00    -0.237 OA
ATOM     70  O   UNL A   1      49.292  31.327  26.775  1.00  0.00    -0.237 OA
ATOM     71  O   UNL A   1      48.666  33.486  25.800  1.00  0.00    -0.744 OA
ENDBRANCH  65  68
ENDBRANCH  38  61
ENDBRANCH  12  13
ENDBRANCH   5   7
ENDBRANCH   2   3
ENDBRANCH   1   2
BRANCH   1  72
ATOM     72  C   UNL A   1      32.440  28.676  24.649  1.00  0.00     0.023 C 
BRANCH  72  73
ATOM     73  C   UNL A   1      31.209  27.894  24.200  1.00  0.00     0.116 C 
BRANCH  73  74
ATOM     74  N   UNL A   1      31.265  27.574  22.786  1.00  0.00    -0.351 N 
ATOM     75  C   UNL A   1      31.546  26.364  22.196  1.00  0.00     0.271 C 
ATOM     76  H   UNL A   1      31.079  28.319  22.170  1.00  0.00     0.163 HD
ATOM     77  O   UNL A   1      31.689  26.308  20.982  1.00  0.00    -0.267 OA
BRANCH  75  78
ATOM     78  C   UNL A   1      31.589  25.174  23.051  1.00  0.00     0.150 A 
ATOM     79  C   UNL A   1      30.478  24.438  23.535  1.00  0.00     0.056 A 
ATOM     80  N   UNL A   1      32.749  24.622  23.450  1.00  0.00    -0.161 NA
ATOM     81  C   UNL A   1      31.020  23.328  24.129  1.00  0.00     0.118 A 
ATOM     82  N   UNL A   1      32.386  23.449  24.023  1.00  0.00    -0.222 N 
BRANCH  82  83
ATOM     83  C   UNL A   1      33.340  22.473  24.415  1.00  0.00     0.158 A 
ATOM     84  C   UNL A   1      32.955  21.153  24.492  1.00  0.00     0.078 A 
ATOM     85  N   UNL A   1      34.593  22.898  24.691  1.00  0.00    -0.209 NA
ATOM     86  C   UNL A   1      33.948  20.255  24.827  1.00  0.00     0.077 A 
ATOM     87  C   UNL A   1      35.461  21.959  25.098  1.00  0.00     0.165 A 
ATOM     88  N   UNL A   1      35.195  20.644  25.175  1.00  0.00    -0.228 NA
BRANCH  86  89
ATOM     89  C   UNL A   1      33.724  18.810  24.761  1.00  0.00     0.003 A 
ATOM     90  C   UNL A   1      34.724  17.954  24.278  1.00  0.00     0.030 A 
ATOM     91  C   UNL A   1      32.519  18.238  25.179  1.00  0.00     0.030 A 
ATOM     92  C   UNL A   1      34.477  16.592  24.225  1.00  0.00     0.111 A 
ATOM     93  C   UNL A   1      32.363  16.865  25.079  1.00  0.00     0.111 A 
ATOM     94  N   UNL A   1      33.314  16.029  24.613  1.00  0.00    -0.265 NA
ENDBRANCH  86  89
BRANCH  87  95
ATOM     95  C   UNL A   1      36.744  22.440  25.591  1.00  0.00     0.055 A 
ATOM     96  C   UNL A   1      36.872  23.749  26.098  1.00  0.00     0.015 A 
ATOM     97  C   UNL A   1      37.889  21.644  25.544  1.00  0.00     0.134 A 
ATOM     98  C   UNL A   1      38.106  24.234  26.541  1.00  0.00     0.001 A 
ATOM     99  C   UNL A   1      39.126  22.124  25.977  1.00  0.00     0.040 A 
ATOM    100  F   UNL A   1      37.833  20.401  25.043  1.00  0.00    -0.206 F 
ATOM    101  C   UNL A   1      39.235  23.420  26.478  1.00  0.00     0.003 A 
ENDBRANCH  87  95
ENDBRANCH  82  83
ENDBRANCH  75  78
ENDBRANCH  73  74
ENDBRANCH  72  73
ENDBRANCH   1  72
TORSDOF 17
ENDMDL
