MODEL 1
REMARK VINA RESULT:     -11.7      0.000      0.000
REMARK SMILES CC[C@@H](C)[C@@H](C(=O)NCCCCNC(=O)c1ccc(-c2c3nc(c(-c4cccc(S(=O)(=O)[O-])c4F)c4ccc([nH]4)c(-c4cccc(S(=O)(=O)[O-])c4F)c4nc(c(-c5cccc(S(=O)(=O)[O-])c5F)c5ccc2[nH]5)C=C4)C=C3)cc1)S(=O)(=O)c1ccc(OC)cc1
REMARK SMILES IDX 10 1 9 2 8 3 6 4 7 5 5 7 3 8 4 9 2 10 1 11 79 12 80 13 81 14
REMARK SMILES IDX 82 15 83 16 89 17 84 18 88 19 85 20 86 21 87 22 11 23 12 24
REMARK SMILES IDX 13 25 14 26 15 28 16 29 17 30 78 31 18 32 77 33 19 34 20 35
REMARK SMILES IDX 21 36 71 37 22 38 76 39 70 40 72 41 23 42 75 43 69 44 68 45
REMARK SMILES IDX 24 47 56 48 36 49 55 50 37 51 40 52 54 53 73 54 38 55 39 56
REMARK SMILES IDX 53 58 74 59 41 60 25 61 26 62 34 63 27 64 29 65 35 66 28 67
REMARK SMILES IDX 30 68 31 69 32 70 33 71 57 72 58 73 66 74 59 75 61 76 67 77
REMARK SMILES IDX 60 78 62 79 63 80 64 81 65 82 42 83 43 84 51 85 44 86 46 87
REMARK SMILES IDX 52 88 45 89 47 90 48 91 49 92 50 93
REMARK H PARENT 8 6 13 27 72 46 40 57
REMARK Flexibility Score: inf
ROOT
ATOM      1  C   UNL A   1      34.390  21.710  27.097  1.00  0.00     0.023 C 
ENDROOT
BRANCH   1   2
ATOM      2  C   UNL A   1      33.604  23.023  27.232  1.00  0.00     0.116 C 
BRANCH   2   3
ATOM      3  N   UNL A   1      32.183  22.754  27.338  1.00  0.00    -0.355 N 
ATOM      4  C   UNL A   1      31.114  23.289  26.681  1.00  0.00     0.239 C 
ATOM      5  O   UNL A   1      30.030  23.185  27.255  1.00  0.00    -0.274 OA
ATOM      6  H   UNL A   1      31.949  22.063  28.000  1.00  0.00     0.163 HD
BRANCH   4   7
ATOM      7  C   UNL A   1      31.256  23.997  25.333  1.00  0.00     0.205 C 
BRANCH   7   8
ATOM      8  C   UNL A   1      32.201  23.263  24.320  1.00  0.00     0.014 C 
ATOM      9  C   UNL A   1      32.165  23.886  22.918  1.00  0.00     0.009 C 
BRANCH   8  10
ATOM     10  C   UNL A   1      31.862  21.766  24.217  1.00  0.00     0.002 C 
ATOM     11  C   UNL A   1      32.139  21.088  22.883  1.00  0.00     0.004 C 
ENDBRANCH   8  10
ENDBRANCH   7   8
BRANCH   7  12
ATOM     12  S   UNL A   1      31.749  25.705  25.719  1.00  0.00     0.190 S 
ATOM     13  O   UNL A   1      31.372  26.022  27.088  1.00  0.00    -0.223 OA
ATOM     14  O   UNL A   1      33.148  25.859  25.357  1.00  0.00    -0.223 OA
BRANCH  12  15
ATOM     15  C   UNL A   1      30.793  26.806  24.685  1.00  0.00     0.068 A 
ATOM     16  C   UNL A   1      31.384  27.962  24.170  1.00  0.00     0.024 A 
ATOM     17  C   UNL A   1      29.467  26.500  24.376  1.00  0.00     0.024 A 
ATOM     18  C   UNL A   1      30.670  28.755  23.268  1.00  0.00     0.048 A 
ATOM     19  C   UNL A   1      28.768  27.281  23.449  1.00  0.00     0.048 A 
ATOM     20  C   UNL A   1      29.378  28.397  22.873  1.00  0.00     0.118 A 
BRANCH  20  21
ATOM     21  O   UNL A   1      28.797  29.222  21.949  1.00  0.00    -0.497 OA
ATOM     22  C   UNL A   1      29.307  30.552  21.900  1.00  0.00     0.278 C 
ENDBRANCH  20  21
ENDBRANCH  12  15
ENDBRANCH   7  12
ENDBRANCH   4   7
ENDBRANCH   2   3
ENDBRANCH   1   2
BRANCH   1  23
ATOM     23  C   UNL A   1      35.106  21.521  25.766  1.00  0.00     0.023 C 
BRANCH  23  24
ATOM     24  C   UNL A   1      36.503  22.114  25.721  1.00  0.00     0.116 C 
BRANCH  24  25
ATOM     25  N   UNL A   1      37.546  21.095  25.622  1.00  0.00    -0.352 N 
ATOM     26  C   UNL A   1      38.881  21.181  25.941  1.00  0.00     0.251 C 
ATOM     27  H   UNL A   1      37.251  20.222  25.276  1.00  0.00     0.163 HD
ATOM     28  O   UNL A   1      39.647  20.264  25.657  1.00  0.00    -0.269 OA
BRANCH  26  29
ATOM     29  C   UNL A   1      39.384  22.403  26.595  1.00  0.00     0.039 A 
ATOM     30  C   UNL A   1      40.361  22.298  27.588  1.00  0.00     0.014 A 
ATOM     31  C   UNL A   1      38.952  23.656  26.153  1.00  0.00     0.014 A 
ATOM     32  C   UNL A   1      40.988  23.452  28.057  1.00  0.00     0.010 A 
ATOM     33  C   UNL A   1      39.646  24.791  26.548  1.00  0.00     0.010 A 
ATOM     34  C   UNL A   1      40.678  24.701  27.494  1.00  0.00    -0.014 A 
BRANCH  34  35
ATOM     35  C   UNL A   1      41.442  25.929  27.830  1.00  0.00     0.031 A 
ATOM     36  C   UNL A   1      40.771  27.047  28.578  1.00  0.00     0.074 A 
ATOM     37  C   UNL A   1      42.686  26.094  27.335  1.00  0.00     0.049 A 
ATOM     38  N   UNL A   1      41.219  28.246  28.841  1.00  0.00    -0.248 NA
ATOM     39  C   UNL A   1      39.401  26.799  29.058  1.00  0.00     0.031 C 
ATOM     40  C   UNL A   1      43.406  25.122  26.508  1.00  0.00     0.029 A 
ATOM     41  N   UNL A   1      43.550  27.157  27.419  1.00  0.00    -0.354 N 
ATOM     42  C   UNL A   1      40.172  28.911  29.467  1.00  0.00     0.074 A 
ATOM     43  C   UNL A   1      39.056  27.994  29.518  1.00  0.00     0.031 C 
ATOM     44  C   UNL A   1      44.599  25.633  26.163  1.00  0.00     0.029 A 
ATOM     45  C   UNL A   1      44.717  26.979  26.713  1.00  0.00     0.049 A 
ATOM     46  H   UNL A   1      43.352  27.971  27.935  1.00  0.00     0.167 HD
ATOM     47  C   UNL A   1      40.154  30.161  29.985  1.00  0.00     0.034 A 
ATOM     48  C   UNL A   1      45.760  27.810  26.519  1.00  0.00     0.034 A 
ATOM     49  C   UNL A   1      41.289  31.039  30.002  1.00  0.00     0.049 A 
ATOM     50  C   UNL A   1      45.738  29.171  27.160  1.00  0.00     0.074 A 
ATOM     51  C   UNL A   1      41.416  32.268  30.624  1.00  0.00     0.029 A 
ATOM     52  N   UNL A   1      42.494  30.783  29.368  1.00  0.00    -0.354 N 
ATOM     53  N   UNL A   1      44.808  29.711  27.911  1.00  0.00    -0.248 NA
ATOM     54  C   UNL A   1      46.914  30.026  26.951  1.00  0.00     0.031 C 
ATOM     55  C   UNL A   1      42.697  32.761  30.356  1.00  0.00     0.029 A 
ATOM     56  C   UNL A   1      43.367  31.837  29.570  1.00  0.00     0.049 A 
ATOM     57  H   UNL A   1      42.698  29.971  28.848  1.00  0.00     0.167 HD
ATOM     58  C   UNL A   1      45.296  30.958  28.281  1.00  0.00     0.074 A 
ATOM     59  C   UNL A   1      46.615  31.082  27.695  1.00  0.00     0.031 C 
ATOM     60  C   UNL A   1      44.696  31.923  29.021  1.00  0.00     0.034 A 
BRANCH  47  61
ATOM     61  C   UNL A   1      38.884  30.622  30.648  1.00  0.00     0.023 A 
ATOM     62  C   UNL A   1      38.731  30.447  32.039  1.00  0.00     0.012 A 
ATOM     63  C   UNL A   1      37.871  31.268  29.916  1.00  0.00     0.148 A 
ATOM     64  C   UNL A   1      37.576  30.880  32.686  1.00  0.00     0.002 A 
ATOM     65  C   UNL A   1      36.738  31.733  30.574  1.00  0.00     0.091 A 
ATOM     66  F   UNL A   1      38.023  31.400  28.590  1.00  0.00    -0.205 F 
ATOM     67  C   UNL A   1      36.585  31.532  31.957  1.00  0.00     0.022 A 
BRANCH  65  68
ATOM     68  S   UNL A   1      35.438  32.645  29.734  1.00  0.00     0.127 S 
ATOM     69  O   UNL A   1      35.184  31.793  28.573  1.00  0.00    -0.237 OA
ATOM     70  O   UNL A   1      34.368  32.648  30.732  1.00  0.00    -0.237 OA
ATOM     71  O   UNL A   1      35.997  33.957  29.442  1.00  0.00    -0.744 OA
ENDBRANCH  65  68
ENDBRANCH  47  61
BRANCH  48  72
ATOM     72  C   UNL A   1      46.943  27.348  25.738  1.00  0.00     0.023 A 
ATOM     73  C   UNL A   1      47.839  26.435  26.329  1.00  0.00     0.012 A 
ATOM     74  C   UNL A   1      47.167  27.767  24.413  1.00  0.00     0.148 A 
ATOM     75  C   UNL A   1      48.948  25.967  25.624  1.00  0.00     0.002 A 
ATOM     76  C   UNL A   1      48.244  27.257  23.698  1.00  0.00     0.091 A 
ATOM     77  F   UNL A   1      46.314  28.650  23.873  1.00  0.00    -0.205 F 
ATOM     78  C   UNL A   1      49.144  26.368  24.304  1.00  0.00     0.022 A 
BRANCH  76  79
ATOM     79  S   UNL A   1      48.488  27.616  21.954  1.00  0.00     0.127 S 
ATOM     80  O   UNL A   1      48.720  26.285  21.402  1.00  0.00    -0.237 OA
ATOM     81  O   UNL A   1      47.208  28.223  21.583  1.00  0.00    -0.237 OA
ATOM     82  O   UNL A   1      49.617  28.536  21.905  1.00  0.00    -0.744 OA
ENDBRANCH  76  79
ENDBRANCH  48  72
BRANCH  60  83
ATOM     83  C   UNL A   1      45.456  33.201  29.246  1.00  0.00     0.023 A 
ATOM     84  C   UNL A   1      46.302  33.311  30.368  1.00  0.00     0.012 A 
ATOM     85  C   UNL A   1      45.409  34.249  28.307  1.00  0.00     0.148 A 
ATOM     86  C   UNL A   1      47.074  34.455  30.561  1.00  0.00     0.002 A 
ATOM     87  C   UNL A   1      46.213  35.368  28.484  1.00  0.00     0.091 A 
ATOM     88  F   UNL A   1      44.582  34.130  27.256  1.00  0.00    -0.205 F 
ATOM     89  C   UNL A   1      47.040  35.477  29.614  1.00  0.00     0.022 A 
BRANCH  87  90
ATOM     90  S   UNL A   1      46.301  36.692  27.273  1.00  0.00     0.127 S 
ATOM     91  O   UNL A   1      47.294  37.580  27.872  1.00  0.00    -0.237 OA
ATOM     92  O   UNL A   1      46.757  35.988  26.074  1.00  0.00    -0.237 OA
ATOM     93  O   UNL A   1      44.952  37.235  27.175  1.00  0.00    -0.744 OA
ENDBRANCH  87  90
ENDBRANCH  60  83
ENDBRANCH  34  35
ENDBRANCH  26  29
ENDBRANCH  24  25
ENDBRANCH  23  24
ENDBRANCH   1  23
TORSDOF 19
ENDMDL
MODEL 2
REMARK VINA RESULT:     -11.6      1.535      7.735
REMARK SMILES CC[C@@H](C)[C@@H](C(=O)NCCCCNC(=O)c1ccc(-c2c3nc(c(-c4cccc(S(=O)(=O)[O-])c4F)c4ccc([nH]4)c(-c4cccc(S(=O)(=O)[O-])c4F)c4nc(c(-c5cccc(S(=O)(=O)[O-])c5F)c5ccc2[nH]5)C=C4)C=C3)cc1)S(=O)(=O)c1ccc(OC)cc1
REMARK SMILES IDX 10 1 9 2 8 3 6 4 7 5 5 7 3 8 4 9 2 10 1 11 79 12 80 13 81 14
REMARK SMILES IDX 82 15 83 16 89 17 84 18 88 19 85 20 86 21 87 22 11 23 12 24
REMARK SMILES IDX 13 25 14 26 15 28 16 29 17 30 78 31 18 32 77 33 19 34 20 35
REMARK SMILES IDX 21 36 71 37 22 38 76 39 70 40 72 41 23 42 75 43 69 44 68 45
REMARK SMILES IDX 24 47 56 48 36 49 55 50 37 51 40 52 54 53 73 54 38 55 39 56
REMARK SMILES IDX 53 58 74 59 41 60 25 61 26 62 34 63 27 64 29 65 35 66 28 67
REMARK SMILES IDX 30 68 31 69 32 70 33 71 57 72 58 73 66 74 59 75 61 76 67 77
REMARK SMILES IDX 60 78 62 79 63 80 64 81 65 82 42 83 43 84 51 85 44 86 46 87
REMARK SMILES IDX 52 88 45 89 47 90 48 91 49 92 50 93
REMARK H PARENT 8 6 13 27 72 46 40 57
REMARK Flexibility Score: inf
ROOT
ATOM      1  C   UNL A   1      35.436  22.806  25.967  1.00  0.00     0.023 C 
ENDROOT
BRANCH   1   2
ATOM      2  C   UNL A   1      35.572  24.103  25.154  1.00  0.00     0.116 C 
BRANCH   2   3
ATOM      3  N   UNL A   1      35.275  23.857  23.756  1.00  0.00    -0.355 N 
ATOM      4  C   UNL A   1      34.098  23.891  23.067  1.00  0.00     0.239 C 
ATOM      5  O   UNL A   1      34.075  23.244  22.020  1.00  0.00    -0.274 OA
ATOM      6  H   UNL A   1      36.060  23.624  23.208  1.00  0.00     0.163 HD
BRANCH   4   7
ATOM      7  C   UNL A   1      32.878  24.660  23.574  1.00  0.00     0.205 C 
BRANCH   7   8
ATOM      8  C   UNL A   1      31.582  23.790  23.709  1.00  0.00     0.014 C 
ATOM      9  C   UNL A   1      30.446  24.525  24.434  1.00  0.00     0.009 C 
BRANCH   8  10
ATOM     10  C   UNL A   1      31.867  22.463  24.433  1.00  0.00     0.002 C 
ATOM     11  C   UNL A   1      31.068  22.182  25.697  1.00  0.00     0.004 C 
ENDBRANCH   8  10
ENDBRANCH   7   8
BRANCH   7  12
ATOM     12  S   UNL A   1      32.706  26.100  22.475  1.00  0.00     0.190 S 
ATOM     13  O   UNL A   1      34.015  26.484  21.970  1.00  0.00    -0.223 OA
ATOM     14  O   UNL A   1      31.674  25.794  21.497  1.00  0.00    -0.223 OA
BRANCH  12  15
ATOM     15  C   UNL A   1      32.138  27.482  23.454  1.00  0.00     0.068 A 
ATOM     16  C   UNL A   1      32.916  27.947  24.516  1.00  0.00     0.024 A 
ATOM     17  C   UNL A   1      30.930  28.110  23.144  1.00  0.00     0.024 A 
ATOM     18  C   UNL A   1      32.525  29.101  25.201  1.00  0.00     0.048 A 
ATOM     19  C   UNL A   1      30.560  29.281  23.814  1.00  0.00     0.048 A 
ATOM     20  C   UNL A   1      31.370  29.793  24.828  1.00  0.00     0.118 A 
BRANCH  20  21
ATOM     21  O   UNL A   1      31.115  30.934  25.539  1.00  0.00    -0.497 OA
ATOM     22  C   UNL A   1      31.916  31.132  26.700  1.00  0.00     0.278 C 
ENDBRANCH  20  21
ENDBRANCH  12  15
ENDBRANCH   7  12
ENDBRANCH   4   7
ENDBRANCH   2   3
ENDBRANCH   1   2
BRANCH   1  23
ATOM     23  C   UNL A   1      36.024  21.566  25.305  1.00  0.00     0.023 C 
BRANCH  23  24
ATOM     24  C   UNL A   1      37.448  21.742  24.809  1.00  0.00     0.116 C 
BRANCH  24  25
ATOM     25  N   UNL A   1      38.357  20.721  25.325  1.00  0.00    -0.352 N 
ATOM     26  C   UNL A   1      39.468  20.866  26.122  1.00  0.00     0.251 C 
ATOM     27  H   UNL A   1      38.143  19.796  25.065  1.00  0.00     0.163 HD
ATOM     28  O   UNL A   1      40.202  19.906  26.345  1.00  0.00    -0.269 OA
BRANCH  26  29
ATOM     29  C   UNL A   1      39.784  22.196  26.676  1.00  0.00     0.039 A 
ATOM     30  C   UNL A   1      40.799  22.319  27.627  1.00  0.00     0.014 A 
ATOM     31  C   UNL A   1      39.136  23.328  26.177  1.00  0.00     0.014 A 
ATOM     32  C   UNL A   1      41.243  23.590  27.994  1.00  0.00     0.010 A 
ATOM     33  C   UNL A   1      39.645  24.585  26.469  1.00  0.00     0.010 A 
ATOM     34  C   UNL A   1      40.710  24.731  27.370  1.00  0.00    -0.014 A 
BRANCH  34  35
ATOM     35  C   UNL A   1      41.272  26.086  27.594  1.00  0.00     0.031 A 
ATOM     36  C   UNL A   1      42.667  26.405  27.133  1.00  0.00     0.074 A 
ATOM     37  C   UNL A   1      40.584  26.975  28.341  1.00  0.00     0.049 A 
ATOM     38  N   UNL A   1      43.384  27.474  27.358  1.00  0.00    -0.248 NA
ATOM     39  C   UNL A   1      43.363  25.369  26.351  1.00  0.00     0.031 C 
ATOM     40  C   UNL A   1      39.263  26.744  28.932  1.00  0.00     0.029 A 
ATOM     41  N   UNL A   1      40.919  28.236  28.766  1.00  0.00    -0.354 N 
ATOM     42  C   UNL A   1      44.627  27.219  26.794  1.00  0.00     0.074 A 
ATOM     43  C   UNL A   1      44.579  25.884  26.243  1.00  0.00     0.031 C 
ATOM     44  C   UNL A   1      38.901  27.826  29.640  1.00  0.00     0.029 A 
ATOM     45  C   UNL A   1      39.974  28.813  29.583  1.00  0.00     0.049 A 
ATOM     46  H   UNL A   1      41.756  28.685  28.511  1.00  0.00     0.167 HD
ATOM     47  C   UNL A   1      45.702  28.038  26.711  1.00  0.00     0.034 A 
ATOM     48  C   UNL A   1      39.976  29.998  30.226  1.00  0.00     0.034 A 
ATOM     49  C   UNL A   1      45.718  29.391  27.191  1.00  0.00     0.049 A 
ATOM     50  C   UNL A   1      41.159  30.913  30.064  1.00  0.00     0.074 A 
ATOM     51  C   UNL A   1      46.705  30.348  27.032  1.00  0.00     0.029 A 
ATOM     52  N   UNL A   1      44.701  29.981  27.923  1.00  0.00    -0.354 N 
ATOM     53  N   UNL A   1      42.253  30.727  29.365  1.00  0.00    -0.248 NA
ATOM     54  C   UNL A   1      41.098  32.210  30.753  1.00  0.00     0.031 C 
ATOM     55  C   UNL A   1      46.287  31.515  27.679  1.00  0.00     0.029 A 
ATOM     56  C   UNL A   1      45.040  31.285  28.237  1.00  0.00     0.049 A 
ATOM     57  H   UNL A   1      43.861  29.537  28.183  1.00  0.00     0.167 HD
ATOM     58  C   UNL A   1      43.001  31.889  29.513  1.00  0.00     0.074 A 
ATOM     59  C   UNL A   1      42.222  32.784  30.345  1.00  0.00     0.031 C 
ATOM     60  C   UNL A   1      44.231  32.180  29.024  1.00  0.00     0.034 A 
BRANCH  47  61
ATOM     61  C   UNL A   1      46.924  27.515  26.005  1.00  0.00     0.023 A 
ATOM     62  C   UNL A   1      47.827  26.693  26.710  1.00  0.00     0.012 A 
ATOM     63  C   UNL A   1      47.154  27.789  24.644  1.00  0.00     0.148 A 
ATOM     64  C   UNL A   1      48.957  26.177  26.080  1.00  0.00     0.002 A 
ATOM     65  C   UNL A   1      48.263  27.239  24.012  1.00  0.00     0.091 A 
ATOM     66  F   UNL A   1      46.299  28.595  23.999  1.00  0.00    -0.205 F 
ATOM     67  C   UNL A   1      49.170  26.440  24.730  1.00  0.00     0.022 A 
BRANCH  65  68
ATOM     68  S   UNL A   1      48.586  27.464  22.259  1.00  0.00     0.127 S 
ATOM     69  O   UNL A   1      47.337  28.074  21.804  1.00  0.00    -0.237 OA
ATOM     70  O   UNL A   1      49.736  28.369  22.270  1.00  0.00    -0.237 OA
ATOM     71  O   UNL A   1      48.866  26.136  21.732  1.00  0.00    -0.744 OA
ENDBRANCH  65  68
ENDBRANCH  47  61
BRANCH  48  72
ATOM     72  C   UNL A   1      38.787  30.412  31.024  1.00  0.00     0.023 A 
ATOM     73  C   UNL A   1      38.764  30.145  32.406  1.00  0.00     0.012 A 
ATOM     74  C   UNL A   1      37.706  31.100  30.440  1.00  0.00     0.148 A 
ATOM     75  C   UNL A   1      37.677  30.534  33.190  1.00  0.00     0.002 A 
ATOM     76  C   UNL A   1      36.650  31.530  31.235  1.00  0.00     0.091 A 
ATOM     77  F   UNL A   1      37.737  31.330  29.120  1.00  0.00    -0.205 F 
ATOM     78  C   UNL A   1      36.625  31.236  32.606  1.00  0.00     0.022 A 
BRANCH  76  79
ATOM     79  S   UNL A   1      35.326  32.559  30.587  1.00  0.00     0.127 S 
ATOM     80  O   UNL A   1      36.031  33.801  30.284  1.00  0.00    -0.237 OA
ATOM     81  O   UNL A   1      34.888  31.796  29.416  1.00  0.00    -0.237 OA
ATOM     82  O   UNL A   1      34.336  32.628  31.654  1.00  0.00    -0.744 OA
ENDBRANCH  76  79
ENDBRANCH  48  72
BRANCH  60  83
ATOM     83  C   UNL A   1      44.818  33.521  29.368  1.00  0.00     0.023 A 
ATOM     84  C   UNL A   1      45.643  33.642  30.504  1.00  0.00     0.012 A 
ATOM     85  C   UNL A   1      44.635  34.633  28.523  1.00  0.00     0.148 A 
ATOM     86  C   UNL A   1      46.261  34.854  30.804  1.00  0.00     0.002 A 
ATOM     87  C   UNL A   1      45.287  35.827  28.806  1.00  0.00     0.091 A 
ATOM     88  F   UNL A   1      43.831  34.500  27.457  1.00  0.00    -0.205 F 
ATOM     89  C   UNL A   1      46.093  35.942  29.950  1.00  0.00     0.022 A 
BRANCH  87  90
ATOM     90  S   UNL A   1      45.201  37.251  27.715  1.00  0.00     0.127 S 
ATOM     91  O   UNL A   1      45.843  36.741  26.506  1.00  0.00    -0.237 OA
ATOM     92  O   UNL A   1      43.759  37.467  27.596  1.00  0.00    -0.237 OA
ATOM     93  O   UNL A   1      45.915  38.323  28.398  1.00  0.00    -0.744 OA
ENDBRANCH  87  90
ENDBRANCH  60  83
ENDBRANCH  34  35
ENDBRANCH  26  29
ENDBRANCH  24  25
ENDBRANCH  23  24
ENDBRANCH   1  23
TORSDOF 19
ENDMDL
MODEL 3
REMARK VINA RESULT:     -11.3      5.195      7.543
REMARK SMILES CC[C@@H](C)[C@@H](C(=O)NCCCCNC(=O)c1ccc(-c2c3nc(c(-c4cccc(S(=O)(=O)[O-])c4F)c4ccc([nH]4)c(-c4cccc(S(=O)(=O)[O-])c4F)c4nc(c(-c5cccc(S(=O)(=O)[O-])c5F)c5ccc2[nH]5)C=C4)C=C3)cc1)S(=O)(=O)c1ccc(OC)cc1
REMARK SMILES IDX 10 1 9 2 8 3 6 4 7 5 5 7 3 8 4 9 2 10 1 11 79 12 80 13 81 14
REMARK SMILES IDX 82 15 83 16 89 17 84 18 88 19 85 20 86 21 87 22 11 23 12 24
REMARK SMILES IDX 13 25 14 26 15 28 16 29 17 30 78 31 18 32 77 33 19 34 20 35
REMARK SMILES IDX 21 36 71 37 22 38 76 39 70 40 72 41 23 42 75 43 69 44 68 45
REMARK SMILES IDX 24 47 56 48 36 49 55 50 37 51 40 52 54 53 73 54 38 55 39 56
REMARK SMILES IDX 53 58 74 59 41 60 25 61 26 62 34 63 27 64 29 65 35 66 28 67
REMARK SMILES IDX 30 68 31 69 32 70 33 71 57 72 58 73 66 74 59 75 61 76 67 77
REMARK SMILES IDX 60 78 62 79 63 80 64 81 65 82 42 83 43 84 51 85 44 86 46 87
REMARK SMILES IDX 52 88 45 89 47 90 48 91 49 92 50 93
REMARK H PARENT 8 6 13 27 72 46 40 57
REMARK Flexibility Score: inf
ROOT
ATOM      1  C   UNL A   1      31.446  28.327  27.129  1.00  0.00     0.023 C 
ENDROOT
BRANCH   1   2
ATOM      2  C   UNL A   1      31.441  26.870  26.640  1.00  0.00     0.116 C 
BRANCH   2   3
ATOM      3  N   UNL A   1      32.798  26.372  26.520  1.00  0.00    -0.355 N 
ATOM      4  C   UNL A   1      33.345  25.445  25.682  1.00  0.00     0.239 C 
ATOM      5  O   UNL A   1      34.389  24.925  26.073  1.00  0.00    -0.274 OA
ATOM      6  H   UNL A   1      33.435  26.773  27.155  1.00  0.00     0.163 HD
BRANCH   4   7
ATOM      7  C   UNL A   1      32.690  25.058  24.356  1.00  0.00     0.205 C 
BRANCH   7   8
ATOM      8  C   UNL A   1      33.131  23.657  23.808  1.00  0.00     0.014 C 
ATOM      9  C   UNL A   1      34.468  23.708  23.057  1.00  0.00     0.009 C 
BRANCH   8  10
ATOM     10  C   UNL A   1      32.058  23.048  22.889  1.00  0.00     0.002 C 
ATOM     11  C   UNL A   1      32.115  21.544  22.667  1.00  0.00     0.004 C 
ENDBRANCH   8  10
ENDBRANCH   7   8
BRANCH   7  12
ATOM     12  S   UNL A   1      33.009  26.444  23.221  1.00  0.00     0.190 S 
ATOM     13  O   UNL A   1      33.933  27.378  23.844  1.00  0.00    -0.223 OA
ATOM     14  O   UNL A   1      33.386  25.888  21.932  1.00  0.00    -0.223 OA
BRANCH  12  15
ATOM     15  C   UNL A   1      31.482  27.345  23.001  1.00  0.00     0.068 A 
ATOM     16  C   UNL A   1      30.283  26.806  23.474  1.00  0.00     0.024 A 
ATOM     17  C   UNL A   1      31.489  28.594  22.377  1.00  0.00     0.024 A 
ATOM     18  C   UNL A   1      29.113  27.568  23.406  1.00  0.00     0.048 A 
ATOM     19  C   UNL A   1      30.321  29.363  22.339  1.00  0.00     0.048 A 
ATOM     20  C   UNL A   1      29.135  28.861  22.876  1.00  0.00     0.118 A 
BRANCH  20  21
ATOM     21  O   UNL A   1      27.941  29.527  22.906  1.00  0.00    -0.497 OA
ATOM     22  C   UNL A   1      27.984  30.852  23.427  1.00  0.00     0.278 C 
ENDBRANCH  20  21
ENDBRANCH  12  15
ENDBRANCH   7  12
ENDBRANCH   4   7
ENDBRANCH   2   3
ENDBRANCH   1   2
BRANCH   1  23
ATOM     23  C   UNL A   1      31.417  29.377  26.026  1.00  0.00     0.023 C 
BRANCH  23  24
ATOM     24  C   UNL A   1      32.693  30.192  25.909  1.00  0.00     0.116 C 
BRANCH  24  25
ATOM     25  N   UNL A   1      32.553  31.542  26.452  1.00  0.00    -0.352 N 
ATOM     26  C   UNL A   1      33.355  32.209  27.347  1.00  0.00     0.251 C 
ATOM     27  H   UNL A   1      31.771  32.046  26.130  1.00  0.00     0.163 HD
ATOM     28  O   UNL A   1      33.007  33.294  27.806  1.00  0.00    -0.269 OA
BRANCH  26  29
ATOM     29  C   UNL A   1      34.622  31.586  27.775  1.00  0.00     0.039 A 
ATOM     30  C   UNL A   1      35.734  32.395  28.024  1.00  0.00     0.014 A 
ATOM     31  C   UNL A   1      34.674  30.212  28.019  1.00  0.00     0.014 A 
ATOM     32  C   UNL A   1      36.863  31.840  28.628  1.00  0.00     0.010 A 
ATOM     33  C   UNL A   1      35.757  29.685  28.708  1.00  0.00     0.010 A 
ATOM     34  C   UNL A   1      36.857  30.494  29.031  1.00  0.00    -0.014 A 
BRANCH  34  35
ATOM     35  C   UNL A   1      37.959  29.907  29.834  1.00  0.00     0.031 A 
ATOM     36  C   UNL A   1      38.196  30.382  31.240  1.00  0.00     0.074 A 
ATOM     37  C   UNL A   1      38.832  29.062  29.246  1.00  0.00     0.049 A 
ATOM     38  N   UNL A   1      39.183  30.100  32.049  1.00  0.00    -0.248 NA
ATOM     39  C   UNL A   1      37.216  31.329  31.798  1.00  0.00     0.031 C 
ATOM     40  C   UNL A   1      38.766  28.606  27.855  1.00  0.00     0.029 A 
ATOM     41  N   UNL A   1      39.968  28.467  29.734  1.00  0.00    -0.354 N 
ATOM     42  C   UNL A   1      38.973  30.872  33.184  1.00  0.00     0.074 A 
ATOM     43  C   UNL A   1      37.782  31.657  32.950  1.00  0.00     0.031 C 
ATOM     44  C   UNL A   1      39.814  27.806  27.603  1.00  0.00     0.029 A 
ATOM     45  C   UNL A   1      40.644  27.716  28.800  1.00  0.00     0.049 A 
ATOM     46  H   UNL A   1      40.272  28.569  30.665  1.00  0.00     0.167 HD
ATOM     47  C   UNL A   1      39.688  30.899  34.333  1.00  0.00     0.034 A 
ATOM     48  C   UNL A   1      41.807  27.041  28.892  1.00  0.00     0.034 A 
ATOM     49  C   UNL A   1      40.824  30.060  34.590  1.00  0.00     0.049 A 
ATOM     50  C   UNL A   1      42.547  27.038  30.202  1.00  0.00     0.074 A 
ATOM     51  C   UNL A   1      41.532  29.909  35.769  1.00  0.00     0.029 A 
ATOM     52  N   UNL A   1      41.420  29.229  33.655  1.00  0.00    -0.354 N 
ATOM     53  N   UNL A   1      42.227  27.629  31.328  1.00  0.00    -0.248 NA
ATOM     54  C   UNL A   1      43.790  26.257  30.263  1.00  0.00     0.031 C 
ATOM     55  C   UNL A   1      42.564  28.993  35.542  1.00  0.00     0.029 A 
ATOM     56  C   UNL A   1      42.496  28.573  34.224  1.00  0.00     0.049 A 
ATOM     57  H   UNL A   1      41.121  29.123  32.722  1.00  0.00     0.167 HD
ATOM     58  C   UNL A   1      43.217  27.275  32.237  1.00  0.00     0.074 A 
ATOM     59  C   UNL A   1      44.131  26.395  31.538  1.00  0.00     0.031 C 
ATOM     60  C   UNL A   1      43.367  27.661  33.528  1.00  0.00     0.034 A 
BRANCH  47  61
ATOM     61  C   UNL A   1      39.211  31.812  35.429  1.00  0.00     0.023 A 
ATOM     62  C   UNL A   1      38.247  31.343  36.346  1.00  0.00     0.012 A 
ATOM     63  C   UNL A   1      39.745  33.105  35.587  1.00  0.00     0.148 A 
ATOM     64  C   UNL A   1      37.800  32.157  37.384  1.00  0.00     0.002 A 
ATOM     65  C   UNL A   1      39.322  33.897  36.648  1.00  0.00     0.091 A 
ATOM     66  F   UNL A   1      40.640  33.542  34.689  1.00  0.00    -0.205 F 
ATOM     67  C   UNL A   1      38.344  33.429  37.541  1.00  0.00     0.022 A 
BRANCH  65  68
ATOM     68  S   UNL A   1      40.014  35.523  36.975  1.00  0.00     0.127 S 
ATOM     69  O   UNL A   1      39.677  36.239  35.745  1.00  0.00    -0.237 OA
ATOM     70  O   UNL A   1      39.258  35.949  38.154  1.00  0.00    -0.237 OA
ATOM     71  O   UNL A   1      41.435  35.311  37.211  1.00  0.00    -0.744 OA
ENDBRANCH  65  68
ENDBRANCH  47  61
BRANCH  48  72
ATOM     72  C   UNL A   1      42.304  26.255  27.727  1.00  0.00     0.023 A 
ATOM     73  C   UNL A   1      43.162  26.875  26.799  1.00  0.00     0.012 A 
ATOM     74  C   UNL A   1      41.970  24.898  27.552  1.00  0.00     0.148 A 
ATOM     75  C   UNL A   1      43.662  26.166  25.705  1.00  0.00     0.002 A 
ATOM     76  C   UNL A   1      42.513  24.184  26.490  1.00  0.00     0.091 A 
ATOM     77  F   UNL A   1      41.137  24.329  28.434  1.00  0.00    -0.205 F 
ATOM     78  C   UNL A   1      43.347  24.818  25.557  1.00  0.00     0.022 A 
BRANCH  76  79
ATOM     79  S   UNL A   1      42.267  22.413  26.307  1.00  0.00     0.127 S 
ATOM     80  O   UNL A   1      40.811  22.315  26.255  1.00  0.00    -0.237 OA
ATOM     81  O   UNL A   1      42.949  22.136  25.041  1.00  0.00    -0.237 OA
ATOM     82  O   UNL A   1      42.909  21.813  27.469  1.00  0.00    -0.744 OA
ENDBRANCH  76  79
ENDBRANCH  48  72
BRANCH  60  83
ATOM     83  C   UNL A   1      44.561  27.137  34.277  1.00  0.00     0.023 A 
ATOM     84  C   UNL A   1      45.738  27.910  34.326  1.00  0.00     0.012 A 
ATOM     85  C   UNL A   1      44.489  25.934  35.007  1.00  0.00     0.148 A 
ATOM     86  C   UNL A   1      46.833  27.484  35.075  1.00  0.00     0.002 A 
ATOM     87  C   UNL A   1      45.570  25.537  35.785  1.00  0.00     0.091 A 
ATOM     88  F   UNL A   1      43.365  25.206  34.931  1.00  0.00    -0.205 F 
ATOM     89  C   UNL A   1      46.746  26.306  35.813  1.00  0.00     0.022 A 
BRANCH  87  90
ATOM     90  S   UNL A   1      45.515  24.082  36.837  1.00  0.00     0.127 S 
ATOM     91  O   UNL A   1      44.827  23.119  35.979  1.00  0.00    -0.237 OA
ATOM     92  O   UNL A   1      46.934  23.801  37.055  1.00  0.00    -0.237 OA
ATOM     93  O   UNL A   1      44.790  24.482  38.036  1.00  0.00    -0.744 OA
ENDBRANCH  87  90
ENDBRANCH  60  83
ENDBRANCH  34  35
ENDBRANCH  26  29
ENDBRANCH  24  25
ENDBRANCH  23  24
ENDBRANCH   1  23
TORSDOF 19
ENDMDL
