MODEL 1
REMARK VINA RESULT:     -11.6      0.000      0.000
REMARK SMILES C/C(C(=O)NCCCCNC(=O)c1ccc(-c2c3nc(c(-c4cccc(S(=O)(=O)[O-])c4F)c4ccc([nH]4)c(-c4cccc(S(=O)(=O)[O-])c4F)c4nc(c(-c5cccc(S(=O)(=O)[O-])c5F)c5ccc2[nH]5)C=C4)C=C3)cc1)=C(\C)C(=O)N[C@H]1CCCC1(C)C
REMARK SMILES IDX 8 1 7 2 6 3 5 4 3 5 4 6 2 8 1 9 76 10 77 11 78 12 79 13
REMARK SMILES IDX 80 14 81 16 82 17 85 18 83 19 84 20 86 21 87 22 9 23 10 24
REMARK SMILES IDX 11 25 12 27 13 28 14 29 75 30 15 31 74 32 16 33 17 34 18 35
REMARK SMILES IDX 68 36 19 37 73 38 67 39 69 40 20 41 72 42 66 43 65 44 21 46
REMARK SMILES IDX 53 47 33 48 52 49 34 50 37 51 51 52 70 53 35 54 36 55 50 57
REMARK SMILES IDX 71 58 38 59 22 60 23 61 31 62 24 63 26 64 32 65 25 66 27 67
REMARK SMILES IDX 28 68 29 69 30 70 54 71 55 72 63 73 56 74 58 75 64 76 57 77
REMARK SMILES IDX 59 78 60 79 61 80 62 81 39 82 40 83 48 84 41 85 43 86 49 87
REMARK SMILES IDX 42 88 44 89 45 90 46 91 47 92
REMARK H PARENT 5 7 80 15 10 26 69 45 37 56
REMARK Flexibility Score: inf
ROOT
ATOM      1  C   UNL A   1      31.778  28.811  26.474  1.00  0.00     0.023 C 
ENDROOT
BRANCH   1   2
ATOM      2  C   UNL A   1      32.412  27.442  26.725  1.00  0.00     0.023 C 
BRANCH   2   3
ATOM      3  C   UNL A   1      31.455  26.250  26.651  1.00  0.00     0.116 C 
BRANCH   3   4
ATOM      4  N   UNL A   1      30.362  26.435  25.709  1.00  0.00    -0.352 N 
ATOM      5  C   UNL A   1      30.253  26.412  24.348  1.00  0.00     0.247 C 
ATOM      6  O   UNL A   1      29.128  26.132  23.929  1.00  0.00    -0.270 OA
ATOM      7  H   UNL A   1      29.504  26.620  26.156  1.00  0.00     0.163 HD
BRANCH   5   8
ATOM      8  C   UNL A   1      31.423  26.574  23.394  1.00  0.00     0.022 C 
ATOM      9  C   UNL A   1      31.589  27.891  22.689  1.00  0.00     0.051 C 
ATOM     10  C   UNL A   1      32.338  25.575  23.193  1.00  0.00     0.022 C 
ATOM     11  C   UNL A   1      33.620  25.814  22.445  1.00  0.00     0.051 C 
BRANCH  10  12
ATOM     12  C   UNL A   1      32.057  24.132  23.563  1.00  0.00     0.247 C 
ATOM     13  O   UNL A   1      31.298  23.450  22.870  1.00  0.00    -0.270 OA
ATOM     14  N   UNL A   1      32.730  23.464  24.551  1.00  0.00    -0.349 N 
ATOM     15  H   UNL A   1      32.338  22.585  24.761  1.00  0.00     0.164 HD
BRANCH  14  16
ATOM     16  C   UNL A   1      33.906  23.778  25.359  1.00  0.00     0.088 C 
ATOM     17  C   UNL A   1      33.703  23.396  26.828  1.00  0.00     0.025 C 
ATOM     18  C   UNL A   1      35.213  23.047  24.949  1.00  0.00    -0.015 C 
ATOM     19  C   UNL A   1      34.426  22.065  27.037  1.00  0.00     0.003 C 
ATOM     20  C   UNL A   1      35.127  21.727  25.724  1.00  0.00     0.008 C 
ATOM     21  C   UNL A   1      35.371  22.812  23.442  1.00  0.00     0.013 C 
ATOM     22  C   UNL A   1      36.432  23.876  25.422  1.00  0.00     0.013 C 
ENDBRANCH  14  16
ENDBRANCH  10  12
ENDBRANCH   5   8
ENDBRANCH   3   4
ENDBRANCH   2   3
ENDBRANCH   1   2
BRANCH   1  23
ATOM     23  C   UNL A   1      32.700  29.872  25.880  1.00  0.00     0.116 C 
BRANCH  23  24
ATOM     24  N   UNL A   1      32.419  31.223  26.342  1.00  0.00    -0.352 N 
ATOM     25  C   UNL A   1      33.143  32.003  27.216  1.00  0.00     0.251 C 
ATOM     26  H   UNL A   1      31.600  31.635  25.981  1.00  0.00     0.163 HD
ATOM     27  O   UNL A   1      32.716  33.089  27.565  1.00  0.00    -0.269 OA
BRANCH  25  28
ATOM     28  C   UNL A   1      34.421  31.488  27.759  1.00  0.00     0.039 A 
ATOM     29  C   UNL A   1      35.470  32.388  27.963  1.00  0.00     0.014 A 
ATOM     30  C   UNL A   1      34.575  30.139  28.089  1.00  0.00     0.014 A 
ATOM     31  C   UNL A   1      36.650  31.945  28.561  1.00  0.00     0.010 A 
ATOM     32  C   UNL A   1      35.724  29.716  28.751  1.00  0.00     0.010 A 
ATOM     33  C   UNL A   1      36.774  30.613  28.994  1.00  0.00    -0.014 A 
BRANCH  33  34
ATOM     34  C   UNL A   1      37.979  30.170  29.737  1.00  0.00     0.031 A 
ATOM     35  C   UNL A   1      38.243  30.650  31.137  1.00  0.00     0.074 A 
ATOM     36  C   UNL A   1      38.879  29.383  29.115  1.00  0.00     0.049 A 
ATOM     37  N   UNL A   1      39.224  30.335  31.942  1.00  0.00    -0.248 NA
ATOM     38  C   UNL A   1      37.298  31.630  31.699  1.00  0.00     0.031 C 
ATOM     39  C   UNL A   1      38.793  28.942  27.720  1.00  0.00     0.029 A 
ATOM     40  N   UNL A   1      40.051  28.829  29.565  1.00  0.00    -0.354 N 
ATOM     41  C   UNL A   1      39.035  31.095  33.090  1.00  0.00     0.074 A 
ATOM     42  C   UNL A   1      37.864  31.915  32.864  1.00  0.00     0.031 C 
ATOM     43  C   UNL A   1      39.856  28.175  27.434  1.00  0.00     0.029 A 
ATOM     44  C   UNL A   1      40.708  28.083  28.615  1.00  0.00     0.049 A 
ATOM     45  H   UNL A   1      40.388  28.953  30.481  1.00  0.00     0.167 HD
ATOM     46  C   UNL A   1      39.750  31.088  34.240  1.00  0.00     0.034 A 
ATOM     47  C   UNL A   1      41.865  27.397  28.689  1.00  0.00     0.034 A 
ATOM     48  C   UNL A   1      40.890  30.242  34.473  1.00  0.00     0.049 A 
ATOM     49  C   UNL A   1      42.601  27.348  29.999  1.00  0.00     0.074 A 
ATOM     50  C   UNL A   1      41.616  30.076  35.639  1.00  0.00     0.029 A 
ATOM     51  N   UNL A   1      41.479  29.426  33.518  1.00  0.00    -0.354 N 
ATOM     52  N   UNL A   1      42.294  27.917  31.139  1.00  0.00    -0.248 NA
ATOM     53  C   UNL A   1      43.820  26.528  30.046  1.00  0.00     0.031 C 
ATOM     54  C   UNL A   1      42.659  29.180  35.381  1.00  0.00     0.029 A 
ATOM     55  C   UNL A   1      42.568  28.768  34.062  1.00  0.00     0.049 A 
ATOM     56  H   UNL A   1      41.167  29.330  32.589  1.00  0.00     0.167 HD
ATOM     57  C   UNL A   1      43.264  27.506  32.045  1.00  0.00     0.074 A 
ATOM     58  C   UNL A   1      44.151  26.613  31.326  1.00  0.00     0.031 C 
ATOM     59  C   UNL A   1      43.420  27.852  33.347  1.00  0.00     0.034 A 
BRANCH  46  60
ATOM     60  C   UNL A   1      39.284  31.982  35.359  1.00  0.00     0.023 A 
ATOM     61  C   UNL A   1      38.375  31.482  36.315  1.00  0.00     0.012 A 
ATOM     62  C   UNL A   1      39.783  33.291  35.503  1.00  0.00     0.148 A 
ATOM     63  C   UNL A   1      37.944  32.279  37.374  1.00  0.00     0.002 A 
ATOM     64  C   UNL A   1      39.383  34.066  36.586  1.00  0.00     0.091 A 
ATOM     65  F   UNL A   1      40.630  33.759  34.574  1.00  0.00    -0.205 F 
ATOM     66  C   UNL A   1      38.455  33.566  37.515  1.00  0.00     0.022 A 
BRANCH  64  67
ATOM     67  S   UNL A   1      40.043  35.707  36.901  1.00  0.00     0.127 S 
ATOM     68  O   UNL A   1      39.374  36.057  38.154  1.00  0.00    -0.237 OA
ATOM     69  O   UNL A   1      41.477  35.443  37.030  1.00  0.00    -0.237 OA
ATOM     70  O   UNL A   1      39.677  36.515  35.747  1.00  0.00    -0.744 OA
ENDBRANCH  64  67
ENDBRANCH  46  60
BRANCH  47  71
ATOM     71  C   UNL A   1      42.350  26.635  27.504  1.00  0.00     0.023 A 
ATOM     72  C   UNL A   1      43.153  27.283  26.544  1.00  0.00     0.012 A 
ATOM     73  C   UNL A   1      42.060  25.266  27.344  1.00  0.00     0.148 A 
ATOM     74  C   UNL A   1      43.632  26.591  25.432  1.00  0.00     0.002 A 
ATOM     75  C   UNL A   1      42.588  24.568  26.264  1.00  0.00     0.091 A 
ATOM     76  F   UNL A   1      41.286  24.670  28.261  1.00  0.00    -0.205 F 
ATOM     77  C   UNL A   1      43.359  25.233  25.297  1.00  0.00     0.022 A 
BRANCH  75  78
ATOM     78  S   UNL A   1      42.404  22.791  26.085  1.00  0.00     0.127 S 
ATOM     79  O   UNL A   1      40.953  22.634  26.124  1.00  0.00    -0.237 OA
ATOM     80  O   UNL A   1      43.015  22.554  24.776  1.00  0.00    -0.237 OA
ATOM     81  O   UNL A   1      43.137  22.208  27.201  1.00  0.00    -0.744 OA
ENDBRANCH  75  78
ENDBRANCH  47  71
BRANCH  59  82
ATOM     82  C   UNL A   1      44.590  27.255  34.087  1.00  0.00     0.023 A 
ATOM     83  C   UNL A   1      45.842  27.899  34.046  1.00  0.00     0.012 A 
ATOM     84  C   UNL A   1      44.436  26.091  34.865  1.00  0.00     0.148 A 
ATOM     85  C   UNL A   1      46.934  27.372  34.736  1.00  0.00     0.002 A 
ATOM     86  C   UNL A   1      45.516  25.600  35.589  1.00  0.00     0.091 A 
ATOM     87  F   UNL A   1      43.242  25.480  34.877  1.00  0.00    -0.205 F 
ATOM     88  C   UNL A   1      46.768  26.230  35.515  1.00  0.00     0.022 A 
BRANCH  86  89
ATOM     89  S   UNL A   1      45.367  24.190  36.694  1.00  0.00     0.127 S 
ATOM     90  O   UNL A   1      44.378  24.668  37.657  1.00  0.00    -0.237 OA
ATOM     91  O   UNL A   1      44.886  23.139  35.796  1.00  0.00    -0.237 OA
ATOM     92  O   UNL A   1      46.704  23.959  37.226  1.00  0.00    -0.744 OA
ENDBRANCH  86  89
ENDBRANCH  59  82
ENDBRANCH  33  34
ENDBRANCH  25  28
ENDBRANCH  23  24
ENDBRANCH   1  23
TORSDOF 16
ENDMDL
MODEL 2
REMARK VINA RESULT:     -11.5      1.576      2.176
REMARK SMILES C/C(C(=O)NCCCCNC(=O)c1ccc(-c2c3nc(c(-c4cccc(S(=O)(=O)[O-])c4F)c4ccc([nH]4)c(-c4cccc(S(=O)(=O)[O-])c4F)c4nc(c(-c5cccc(S(=O)(=O)[O-])c5F)c5ccc2[nH]5)C=C4)C=C3)cc1)=C(\C)C(=O)N[C@H]1CCCC1(C)C
REMARK SMILES IDX 8 1 7 2 6 3 5 4 3 5 4 6 2 8 1 9 76 10 77 11 78 12 79 13
REMARK SMILES IDX 80 14 81 16 82 17 85 18 83 19 84 20 86 21 87 22 9 23 10 24
REMARK SMILES IDX 11 25 12 27 13 28 14 29 75 30 15 31 74 32 16 33 17 34 18 35
REMARK SMILES IDX 68 36 19 37 73 38 67 39 69 40 20 41 72 42 66 43 65 44 21 46
REMARK SMILES IDX 53 47 33 48 52 49 34 50 37 51 51 52 70 53 35 54 36 55 50 57
REMARK SMILES IDX 71 58 38 59 22 60 23 61 31 62 24 63 26 64 32 65 25 66 27 67
REMARK SMILES IDX 28 68 29 69 30 70 54 71 55 72 63 73 56 74 58 75 64 76 57 77
REMARK SMILES IDX 59 78 60 79 61 80 62 81 39 82 40 83 48 84 41 85 43 86 49 87
REMARK SMILES IDX 42 88 44 89 45 90 46 91 47 92
REMARK H PARENT 5 7 80 15 10 26 69 45 37 56
REMARK Flexibility Score: inf
ROOT
ATOM      1  C   UNL A   1      32.078  29.420  25.686  1.00  0.00     0.023 C 
ENDROOT
BRANCH   1   2
ATOM      2  C   UNL A   1      32.936  29.294  24.426  1.00  0.00     0.023 C 
BRANCH   2   3
ATOM      3  C   UNL A   1      32.189  28.871  23.160  1.00  0.00     0.116 C 
BRANCH   3   4
ATOM      4  N   UNL A   1      32.619  27.587  22.628  1.00  0.00    -0.352 N 
ATOM      5  C   UNL A   1      32.242  26.289  22.829  1.00  0.00     0.247 C 
ATOM      6  O   UNL A   1      32.479  25.536  21.882  1.00  0.00    -0.270 OA
ATOM      7  H   UNL A   1      33.351  27.673  21.975  1.00  0.00     0.163 HD
BRANCH   5   8
ATOM      8  C   UNL A   1      31.468  25.802  24.040  1.00  0.00     0.022 C 
ATOM      9  C   UNL A   1      29.968  25.878  24.002  1.00  0.00     0.051 C 
ATOM     10  C   UNL A   1      32.094  25.270  25.135  1.00  0.00     0.022 C 
ATOM     11  C   UNL A   1      31.328  24.568  26.221  1.00  0.00     0.051 C 
BRANCH  10  12
ATOM     12  C   UNL A   1      33.569  25.486  25.410  1.00  0.00     0.247 C 
ATOM     13  O   UNL A   1      33.936  26.412  26.135  1.00  0.00    -0.270 OA
ATOM     14  N   UNL A   1      34.544  24.602  25.026  1.00  0.00    -0.349 N 
ATOM     15  H   UNL A   1      35.456  24.951  25.155  1.00  0.00     0.164 HD
BRANCH  14  16
ATOM     16  C   UNL A   1      34.516  23.252  24.469  1.00  0.00     0.088 C 
ATOM     17  C   UNL A   1      35.452  23.118  23.264  1.00  0.00     0.025 C 
ATOM     18  C   UNL A   1      34.967  22.121  25.433  1.00  0.00    -0.015 C 
ATOM     19  C   UNL A   1      36.723  22.438  23.771  1.00  0.00     0.003 C 
ATOM     20  C   UNL A   1      36.487  22.089  25.238  1.00  0.00     0.008 C 
ATOM     21  C   UNL A   1      34.586  22.341  26.901  1.00  0.00     0.013 C 
ATOM     22  C   UNL A   1      34.334  20.782  24.981  1.00  0.00     0.013 C 
ENDBRANCH  14  16
ENDBRANCH  10  12
ENDBRANCH   5   8
ENDBRANCH   3   4
ENDBRANCH   2   3
ENDBRANCH   1   2
BRANCH   1  23
ATOM     23  C   UNL A   1      32.807  29.891  26.942  1.00  0.00     0.116 C 
BRANCH  23  24
ATOM     24  N   UNL A   1      32.805  31.336  27.117  1.00  0.00    -0.352 N 
ATOM     25  C   UNL A   1      33.771  32.136  27.685  1.00  0.00     0.251 C 
ATOM     26  H   UNL A   1      32.005  31.804  26.784  1.00  0.00     0.163 HD
ATOM     27  O   UNL A   1      33.570  33.329  27.831  1.00  0.00    -0.269 OA
BRANCH  25  28
ATOM     28  C   UNL A   1      35.035  31.524  28.156  1.00  0.00     0.039 A 
ATOM     29  C   UNL A   1      36.182  32.319  28.210  1.00  0.00     0.014 A 
ATOM     30  C   UNL A   1      35.082  30.189  28.567  1.00  0.00     0.014 A 
ATOM     31  C   UNL A   1      37.361  31.792  28.738  1.00  0.00     0.010 A 
ATOM     32  C   UNL A   1      36.238  29.688  29.159  1.00  0.00     0.010 A 
ATOM     33  C   UNL A   1      37.389  30.483  29.251  1.00  0.00    -0.014 A 
BRANCH  33  34
ATOM     34  C   UNL A   1      38.606  29.962  29.922  1.00  0.00     0.031 A 
ATOM     35  C   UNL A   1      39.015  30.466  31.278  1.00  0.00     0.074 A 
ATOM     36  C   UNL A   1      39.385  29.078  29.269  1.00  0.00     0.049 A 
ATOM     37  N   UNL A   1      40.025  30.094  32.021  1.00  0.00    -0.248 NA
ATOM     38  C   UNL A   1      38.203  31.543  31.867  1.00  0.00     0.031 C 
ATOM     39  C   UNL A   1      39.156  28.598  27.904  1.00  0.00     0.029 A 
ATOM     40  N   UNL A   1      40.537  28.439  29.654  1.00  0.00    -0.354 N 
ATOM     41  C   UNL A   1      39.989  30.907  33.148  1.00  0.00     0.074 A 
ATOM     42  C   UNL A   1      38.879  31.818  32.974  1.00  0.00     0.031 C 
ATOM     43  C   UNL A   1      40.126  27.732  27.572  1.00  0.00     0.029 A 
ATOM     44  C   UNL A   1      41.054  27.606  28.690  1.00  0.00     0.049 A 
ATOM     45  H   UNL A   1      40.952  28.565  30.538  1.00  0.00     0.167 HD
ATOM     46  C   UNL A   1      40.787  30.876  34.241  1.00  0.00     0.034 A 
ATOM     47  C   UNL A   1      42.151  26.824  28.708  1.00  0.00     0.034 A 
ATOM     48  C   UNL A   1      41.865  29.942  34.426  1.00  0.00     0.049 A 
ATOM     49  C   UNL A   1      42.978  26.756  29.962  1.00  0.00     0.074 A 
ATOM     50  C   UNL A   1      42.661  29.754  35.541  1.00  0.00     0.029 A 
ATOM     51  N   UNL A   1      42.308  29.046  33.464  1.00  0.00    -0.354 N 
ATOM     52  N   UNL A   1      42.808  27.389  31.096  1.00  0.00    -0.248 NA
ATOM     53  C   UNL A   1      44.123  25.834  29.953  1.00  0.00     0.031 C 
ATOM     54  C   UNL A   1      43.602  28.761  35.245  1.00  0.00     0.029 A 
ATOM     55  C   UNL A   1      43.376  28.313  33.954  1.00  0.00     0.049 A 
ATOM     56  H   UNL A   1      41.920  28.945  32.566  1.00  0.00     0.167 HD
ATOM     57  C   UNL A   1      43.806  26.926  31.945  1.00  0.00     0.074 A 
ATOM     58  C   UNL A   1      44.556  25.934  31.201  1.00  0.00     0.031 C 
ATOM     59  C   UNL A   1      44.090  27.302  33.217  1.00  0.00     0.034 A 
BRANCH  46  60
ATOM     60  C   UNL A   1      40.486  31.847  35.354  1.00  0.00     0.023 A 
ATOM     61  C   UNL A   1      41.288  32.998  35.507  1.00  0.00     0.012 A 
ATOM     62  C   UNL A   1      39.384  31.656  36.210  1.00  0.00     0.148 A 
ATOM     63  C   UNL A   1      41.019  33.924  36.514  1.00  0.00     0.002 A 
ATOM     64  C   UNL A   1      39.096  32.607  37.183  1.00  0.00     0.091 A 
ATOM     65  F   UNL A   1      38.646  30.547  36.066  1.00  0.00    -0.205 F 
ATOM     66  C   UNL A   1      39.918  33.734  37.344  1.00  0.00     0.022 A 
BRANCH  64  67
ATOM     67  S   UNL A   1      37.656  32.494  38.252  1.00  0.00     0.127 S 
ATOM     68  O   UNL A   1      37.968  33.494  39.272  1.00  0.00    -0.237 OA
ATOM     69  O   UNL A   1      36.569  32.868  37.345  1.00  0.00    -0.237 OA
ATOM     70  O   UNL A   1      37.609  31.116  38.718  1.00  0.00    -0.744 OA
ENDBRANCH  64  67
ENDBRANCH  46  60
BRANCH  47  71
ATOM     71  C   UNL A   1      42.477  25.982  27.523  1.00  0.00     0.023 A 
ATOM     72  C   UNL A   1      43.243  26.528  26.474  1.00  0.00     0.012 A 
ATOM     73  C   UNL A   1      42.075  24.634  27.448  1.00  0.00     0.148 A 
ATOM     74  C   UNL A   1      43.575  25.759  25.359  1.00  0.00     0.002 A 
ATOM     75  C   UNL A   1      42.457  23.856  26.361  1.00  0.00     0.091 A 
ATOM     76  F   UNL A   1      41.338  24.136  28.450  1.00  0.00    -0.205 F 
ATOM     77  C   UNL A   1      43.192  24.421  25.307  1.00  0.00     0.022 A 
BRANCH  75  78
ATOM     78  S   UNL A   1      42.128  22.093  26.278  1.00  0.00     0.127 S 
ATOM     79  O   UNL A   1      42.629  21.633  27.571  1.00  0.00    -0.237 OA
ATOM     80  O   UNL A   1      40.671  22.064  26.136  1.00  0.00    -0.237 OA
ATOM     81  O   UNL A   1      42.853  21.614  25.109  1.00  0.00    -0.744 OA
ENDBRANCH  75  78
ENDBRANCH  47  71
BRANCH  59  82
ATOM     82  C   UNL A   1      45.258  26.631  33.894  1.00  0.00     0.023 A 
ATOM     83  C   UNL A   1      46.539  27.210  33.809  1.00  0.00     0.012 A 
ATOM     84  C   UNL A   1      45.078  25.460  34.657  1.00  0.00     0.148 A 
ATOM     85  C   UNL A   1      47.631  26.614  34.440  1.00  0.00     0.002 A 
ATOM     86  C   UNL A   1      46.160  24.900  35.323  1.00  0.00     0.091 A 
ATOM     87  F   UNL A   1      43.855  24.912  34.710  1.00  0.00    -0.205 F 
ATOM     88  C   UNL A   1      47.439  25.466  35.205  1.00  0.00     0.022 A 
BRANCH  86  89
ATOM     89  S   UNL A   1      45.986  23.477  36.408  1.00  0.00     0.127 S 
ATOM     90  O   UNL A   1      45.271  24.054  37.544  1.00  0.00    -0.237 OA
ATOM     91  O   UNL A   1      45.194  22.557  35.591  1.00  0.00    -0.237 OA
ATOM     92  O   UNL A   1      47.342  23.019  36.684  1.00  0.00    -0.744 OA
ENDBRANCH  86  89
ENDBRANCH  59  82
ENDBRANCH  33  34
ENDBRANCH  25  28
ENDBRANCH  23  24
ENDBRANCH   1  23
TORSDOF 16
ENDMDL
MODEL 3
REMARK VINA RESULT:     -11.4      4.778     10.091
REMARK SMILES C/C(C(=O)NCCCCNC(=O)c1ccc(-c2c3nc(c(-c4cccc(S(=O)(=O)[O-])c4F)c4ccc([nH]4)c(-c4cccc(S(=O)(=O)[O-])c4F)c4nc(c(-c5cccc(S(=O)(=O)[O-])c5F)c5ccc2[nH]5)C=C4)C=C3)cc1)=C(\C)C(=O)N[C@H]1CCCC1(C)C
REMARK SMILES IDX 8 1 7 2 6 3 5 4 3 5 4 6 2 8 1 9 76 10 77 11 78 12 79 13
REMARK SMILES IDX 80 14 81 16 82 17 85 18 83 19 84 20 86 21 87 22 9 23 10 24
REMARK SMILES IDX 11 25 12 27 13 28 14 29 75 30 15 31 74 32 16 33 17 34 18 35
REMARK SMILES IDX 68 36 19 37 73 38 67 39 69 40 20 41 72 42 66 43 65 44 21 46
REMARK SMILES IDX 53 47 33 48 52 49 34 50 37 51 51 52 70 53 35 54 36 55 50 57
REMARK SMILES IDX 71 58 38 59 22 60 23 61 31 62 24 63 26 64 32 65 25 66 27 67
REMARK SMILES IDX 28 68 29 69 30 70 54 71 55 72 63 73 56 74 58 75 64 76 57 77
REMARK SMILES IDX 59 78 60 79 61 80 62 81 39 82 40 83 48 84 41 85 43 86 49 87
REMARK SMILES IDX 42 88 44 89 45 90 46 91 47 92
REMARK H PARENT 5 7 80 15 10 26 69 45 37 56
REMARK Flexibility Score: inf
ROOT
ATOM      1  C   UNL A   1      35.835  20.940  25.530  1.00  0.00     0.023 C 
ENDROOT
BRANCH   1   2
ATOM      2  C   UNL A   1      34.779  22.001  25.841  1.00  0.00     0.023 C 
BRANCH   2   3
ATOM      3  C   UNL A   1      33.678  21.570  26.812  1.00  0.00     0.116 C 
BRANCH   3   4
ATOM      4  N   UNL A   1      32.811  22.660  27.233  1.00  0.00    -0.352 N 
ATOM      5  C   UNL A   1      31.944  23.499  26.593  1.00  0.00     0.247 C 
ATOM      6  O   UNL A   1      31.049  23.954  27.309  1.00  0.00    -0.270 OA
ATOM      7  H   UNL A   1      32.861  22.832  28.201  1.00  0.00     0.163 HD
BRANCH   5   8
ATOM      8  C   UNL A   1      31.959  23.767  25.099  1.00  0.00     0.022 C 
ATOM      9  C   UNL A   1      31.277  22.779  24.194  1.00  0.00     0.051 C 
ATOM     10  C   UNL A   1      32.539  24.887  24.568  1.00  0.00     0.022 C 
ATOM     11  C   UNL A   1      32.345  25.273  23.129  1.00  0.00     0.051 C 
BRANCH  10  12
ATOM     12  C   UNL A   1      33.539  25.725  25.340  1.00  0.00     0.247 C 
ATOM     13  O   UNL A   1      34.730  25.404  25.365  1.00  0.00    -0.270 OA
ATOM     14  N   UNL A   1      33.234  26.938  25.898  1.00  0.00    -0.349 N 
ATOM     15  H   UNL A   1      33.947  27.288  26.480  1.00  0.00     0.164 HD
BRANCH  14  16
ATOM     16  C   UNL A   1      32.074  27.822  25.812  1.00  0.00     0.088 C 
ATOM     17  C   UNL A   1      31.663  28.353  27.189  1.00  0.00     0.025 C 
ATOM     18  C   UNL A   1      32.271  29.100  24.952  1.00  0.00    -0.015 C 
ATOM     19  C   UNL A   1      32.220  29.772  27.295  1.00  0.00     0.003 C 
ATOM     20  C   UNL A   1      32.864  30.100  25.951  1.00  0.00     0.008 C 
ATOM     21  C   UNL A   1      33.174  28.916  23.727  1.00  0.00     0.013 C 
ATOM     22  C   UNL A   1      30.892  29.592  24.446  1.00  0.00     0.013 C 
ENDBRANCH  14  16
ENDBRANCH  10  12
ENDBRANCH   5   8
ENDBRANCH   3   4
ENDBRANCH   2   3
ENDBRANCH   1   2
BRANCH   1  23
ATOM     23  C   UNL A   1      37.258  21.456  25.331  1.00  0.00     0.116 C 
BRANCH  23  24
ATOM     24  N   UNL A   1      38.286  20.455  25.573  1.00  0.00    -0.352 N 
ATOM     25  C   UNL A   1      39.541  20.623  26.115  1.00  0.00     0.251 C 
ATOM     26  H   UNL A   1      38.054  19.534  25.313  1.00  0.00     0.163 HD
ATOM     27  O   UNL A   1      40.316  19.684  26.167  1.00  0.00    -0.269 OA
BRANCH  25  28
ATOM     28  C   UNL A   1      39.952  21.964  26.592  1.00  0.00     0.039 A 
ATOM     29  C   UNL A   1      40.892  22.047  27.621  1.00  0.00     0.014 A 
ATOM     30  C   UNL A   1      39.437  23.126  26.011  1.00  0.00     0.014 A 
ATOM     31  C   UNL A   1      41.364  23.297  28.023  1.00  0.00     0.010 A 
ATOM     32  C   UNL A   1      39.962  24.366  26.363  1.00  0.00     0.010 A 
ATOM     33  C   UNL A   1      40.931  24.465  27.372  1.00  0.00    -0.014 A 
BRANCH  33  34
ATOM     34  C   UNL A   1      41.520  25.783  27.715  1.00  0.00     0.031 A 
ATOM     35  C   UNL A   1      42.937  26.116  27.338  1.00  0.00     0.074 A 
ATOM     36  C   UNL A   1      40.792  26.658  28.435  1.00  0.00     0.049 A 
ATOM     37  N   UNL A   1      43.597  27.230  27.527  1.00  0.00    -0.248 NA
ATOM     38  C   UNL A   1      43.725  25.056  26.689  1.00  0.00     0.031 C 
ATOM     39  C   UNL A   1      39.446  26.408  28.957  1.00  0.00     0.029 A 
ATOM     40  N   UNL A   1      41.084  27.926  28.870  1.00  0.00    -0.354 N 
ATOM     41  C   UNL A   1      44.880  26.998  27.049  1.00  0.00     0.074 A 
ATOM     42  C   UNL A   1      44.920  25.625  26.594  1.00  0.00     0.031 C 
ATOM     43  C   UNL A   1      39.025  27.491  29.628  1.00  0.00     0.029 A 
ATOM     44  C   UNL A   1      40.072  28.505  29.600  1.00  0.00     0.049 A 
ATOM     45  H   UNL A   1      41.936  28.379  28.676  1.00  0.00     0.167 HD
ATOM     46  C   UNL A   1      45.923  27.859  26.966  1.00  0.00     0.034 A 
ATOM     47  C   UNL A   1      39.995  29.721  30.176  1.00  0.00     0.034 A 
ATOM     48  C   UNL A   1      45.866  29.234  27.384  1.00  0.00     0.049 A 
ATOM     49  C   UNL A   1      41.139  30.682  30.007  1.00  0.00     0.074 A 
ATOM     50  C   UNL A   1      46.828  30.219  27.241  1.00  0.00     0.029 A 
ATOM     51  N   UNL A   1      44.792  29.819  28.039  1.00  0.00    -0.354 N 
ATOM     52  N   UNL A   1      42.274  30.509  29.373  1.00  0.00    -0.248 NA
ATOM     53  C   UNL A   1      40.976  32.019  30.595  1.00  0.00     0.031 C 
ATOM     54  C   UNL A   1      46.344  31.391  27.832  1.00  0.00     0.029 A 
ATOM     55  C   UNL A   1      45.072  31.145  28.321  1.00  0.00     0.049 A 
ATOM     56  H   UNL A   1      43.954  29.357  28.269  1.00  0.00     0.167 HD
ATOM     57  C   UNL A   1      42.949  31.721  29.463  1.00  0.00     0.074 A 
ATOM     58  C   UNL A   1      42.080  32.628  30.185  1.00  0.00     0.031 C 
ATOM     59  C   UNL A   1      44.184  32.047  29.007  1.00  0.00     0.034 A 
BRANCH  46  60
ATOM     60  C   UNL A   1      47.200  27.354  26.345  1.00  0.00     0.023 A 
ATOM     61  C   UNL A   1      47.467  27.628  24.987  1.00  0.00     0.012 A 
ATOM     62  C   UNL A   1      48.158  26.661  27.109  1.00  0.00     0.148 A 
ATOM     63  C   UNL A   1      48.650  27.193  24.392  1.00  0.00     0.002 A 
ATOM     64  C   UNL A   1      49.355  26.268  26.521  1.00  0.00     0.091 A 
ATOM     65  F   UNL A   1      47.880  26.389  28.392  1.00  0.00    -0.205 F 
ATOM     66  C   UNL A   1      49.597  26.523  25.160  1.00  0.00     0.022 A 
BRANCH  64  67
ATOM     67  S   UNL A   1      50.673  25.469  27.443  1.00  0.00     0.127 S 
ATOM     68  O   UNL A   1      50.028  24.224  27.860  1.00  0.00    -0.237 OA
ATOM     69  O   UNL A   1      51.709  25.306  26.422  1.00  0.00    -0.237 OA
ATOM     70  O   UNL A   1      51.022  26.386  28.519  1.00  0.00    -0.744 OA
ENDBRANCH  64  67
ENDBRANCH  46  60
BRANCH  47  71
ATOM     71  C   UNL A   1      38.754  30.120  30.897  1.00  0.00     0.023 A 
ATOM     72  C   UNL A   1      38.611  29.799  32.261  1.00  0.00     0.012 A 
ATOM     73  C   UNL A   1      37.737  30.852  30.254  1.00  0.00     0.148 A 
ATOM     74  C   UNL A   1      37.465  30.173  32.964  1.00  0.00     0.002 A 
ATOM     75  C   UNL A   1      36.624  31.271  30.974  1.00  0.00     0.091 A 
ATOM     76  F   UNL A   1      37.887  31.138  28.953  1.00  0.00    -0.205 F 
ATOM     77  C   UNL A   1      36.478  30.917  32.325  1.00  0.00     0.022 A 
BRANCH  75  78
ATOM     78  S   UNL A   1      35.373  32.349  30.269  1.00  0.00     0.127 S 
ATOM     79  O   UNL A   1      36.154  33.538  29.938  1.00  0.00    -0.237 OA
ATOM     80  O   UNL A   1      34.917  31.570  29.116  1.00  0.00    -0.237 OA
ATOM     81  O   UNL A   1      34.370  32.518  31.311  1.00  0.00    -0.744 OA
ENDBRANCH  75  78
ENDBRANCH  47  71
BRANCH  59  82
ATOM     82  C   UNL A   1      44.670  33.451  29.267  1.00  0.00     0.023 A 
ATOM     83  C   UNL A   1      45.310  33.751  30.486  1.00  0.00     0.012 A 
ATOM     84  C   UNL A   1      44.541  34.455  28.288  1.00  0.00     0.148 A 
ATOM     85  C   UNL A   1      45.781  35.039  30.741  1.00  0.00     0.002 A 
ATOM     86  C   UNL A   1      45.057  35.722  28.530  1.00  0.00     0.091 A 
ATOM     87  F   UNL A   1      43.911  34.156  27.142  1.00  0.00    -0.205 F 
ATOM     88  C   UNL A   1      45.664  36.020  29.760  1.00  0.00     0.022 A 
BRANCH  86  89
ATOM     89  S   UNL A   1      45.034  37.019  27.286  1.00  0.00     0.127 S 
ATOM     90  O   UNL A   1      45.604  38.147  28.021  1.00  0.00    -0.237 OA
ATOM     91  O   UNL A   1      45.902  36.468  26.245  1.00  0.00    -0.237 OA
ATOM     92  O   UNL A   1      43.640  37.166  26.890  1.00  0.00    -0.744 OA
ENDBRANCH  86  89
ENDBRANCH  59  82
ENDBRANCH  33  34
ENDBRANCH  25  28
ENDBRANCH  23  24
ENDBRANCH   1  23
TORSDOF 16
ENDMDL
