MODEL 1
REMARK VINA RESULT:     -11.1      0.000      0.000
REMARK SMILES C[C@H](CSc1ccc(C(=O)N(C)C)cn1)C(=O)NCCCCNC(=O)c1ccc(-c2c3nc(c(-c4cccc(S(=O)(=O)[O-])c4F)c4ccc([nH]4)c(-c4cccc(S(=O)(=O)[O-])c4F)c4nc(c(-c5cccc(S(=O)(=O)[O-])c5F)c5ccc2[nH]5)C=C4)C=C3)cc1
REMARK SMILES IDX 20 1 19 2 18 3 16 4 17 5 2 7 1 8 3 9 4 10 5 11 6 12 15 13
REMARK SMILES IDX 7 14 14 15 8 16 9 17 10 18 11 19 12 20 13 21 21 22 22 23
REMARK SMILES IDX 23 24 24 25 25 27 26 28 27 29 88 30 28 31 87 32 29 33 30 34
REMARK SMILES IDX 31 35 81 36 32 37 86 38 80 39 82 40 33 41 85 42 79 43 78 44
REMARK SMILES IDX 34 46 66 47 46 48 65 49 47 50 50 51 64 52 83 53 48 54 49 55
REMARK SMILES IDX 63 57 84 58 51 59 35 60 36 61 44 62 37 63 39 64 45 65 38 66
REMARK SMILES IDX 40 67 41 68 42 69 43 70 67 71 68 72 76 73 69 74 71 75 77 76
REMARK SMILES IDX 70 77 72 78 73 79 74 80 75 81 52 82 53 83 61 84 54 85 56 86
REMARK SMILES IDX 62 87 55 88 57 89 58 90 59 91 60 92
REMARK H PARENT 18 6 23 26 82 45 50 56
REMARK Flexibility Score: inf
ROOT
ATOM      1  C   UNL A   1      31.692  27.626  26.845  1.00  0.00     0.023 C 
ENDROOT
BRANCH   1   2
ATOM      2  C   UNL A   1      32.522  26.348  26.808  1.00  0.00     0.116 C 
BRANCH   2   3
ATOM      3  N   UNL A   1      31.740  25.140  26.622  1.00  0.00    -0.356 N 
ATOM      4  C   UNL A   1      31.283  24.510  25.514  1.00  0.00     0.223 C 
ATOM      5  O   UNL A   1      30.827  23.371  25.664  1.00  0.00    -0.275 OA
ATOM      6  H   UNL A   1      31.495  24.693  27.463  1.00  0.00     0.163 HD
BRANCH   4   7
ATOM      7  C   UNL A   1      31.374  25.098  24.117  1.00  0.00     0.085 C 
ATOM      8  C   UNL A   1      30.297  24.425  23.252  1.00  0.00     0.019 C 
BRANCH   7   9
ATOM      9  C   UNL A   1      32.740  25.085  23.419  1.00  0.00     0.089 C 
BRANCH   9  10
ATOM     10  S   UNL A   1      33.259  23.767  22.237  1.00  0.00    -0.106 SA
BRANCH  10  11
ATOM     11  C   UNL A   1      33.167  22.231  23.124  1.00  0.00     0.096 A 
ATOM     12  C   UNL A   1      34.201  21.867  23.967  1.00  0.00     0.036 A 
ATOM     13  N   UNL A   1      32.161  21.383  22.830  1.00  0.00    -0.249 NA
ATOM     14  C   UNL A   1      34.160  20.636  24.627  1.00  0.00     0.018 A 
ATOM     15  C   UNL A   1      32.166  20.166  23.460  1.00  0.00     0.126 A 
ATOM     16  C   UNL A   1      33.100  19.764  24.417  1.00  0.00     0.058 A 
BRANCH  16  17
ATOM     17  C   UNL A   1      32.927  18.427  25.054  1.00  0.00     0.254 C 
ATOM     18  O   UNL A   1      32.527  18.429  26.220  1.00  0.00    -0.269 OA
ATOM     19  N   UNL A   1      33.180  17.221  24.391  1.00  0.00    -0.345 N 
ATOM     20  C   UNL A   1      34.025  17.008  23.230  1.00  0.00     0.146 C 
ATOM     21  C   UNL A   1      32.641  16.020  25.019  1.00  0.00     0.146 C 
ENDBRANCH  16  17
ENDBRANCH  10  11
ENDBRANCH   9  10
ENDBRANCH   7   9
ENDBRANCH   4   7
ENDBRANCH   2   3
ENDBRANCH   1   2
BRANCH   1  22
ATOM     22  C   UNL A   1      31.742  28.468  25.575  1.00  0.00     0.023 C 
BRANCH  22  23
ATOM     23  C   UNL A   1      32.896  29.445  25.460  1.00  0.00     0.116 C 
BRANCH  23  24
ATOM     24  N   UNL A   1      32.558  30.774  25.930  1.00  0.00    -0.352 N 
ATOM     25  C   UNL A   1      33.115  31.509  26.943  1.00  0.00     0.251 C 
ATOM     26  H   UNL A   1      31.819  31.214  25.449  1.00  0.00     0.163 HD
ATOM     27  O   UNL A   1      32.569  32.559  27.296  1.00  0.00    -0.269 OA
BRANCH  25  28
ATOM     28  C   UNL A   1      34.347  31.050  27.624  1.00  0.00     0.039 A 
ATOM     29  C   UNL A   1      35.360  31.978  27.881  1.00  0.00     0.014 A 
ATOM     30  C   UNL A   1      34.517  29.714  27.995  1.00  0.00     0.014 A 
ATOM     31  C   UNL A   1      36.518  31.574  28.551  1.00  0.00     0.010 A 
ATOM     32  C   UNL A   1      35.624  29.338  28.753  1.00  0.00     0.010 A 
ATOM     33  C   UNL A   1      36.648  30.257  29.019  1.00  0.00    -0.014 A 
BRANCH  33  34
ATOM     34  C   UNL A   1      37.854  29.817  29.766  1.00  0.00     0.031 A 
ATOM     35  C   UNL A   1      38.115  30.336  31.157  1.00  0.00     0.074 A 
ATOM     36  C   UNL A   1      38.753  29.008  29.170  1.00  0.00     0.049 A 
ATOM     37  N   UNL A   1      39.130  30.104  31.949  1.00  0.00    -0.248 NA
ATOM     38  C   UNL A   1      37.118  31.262  31.723  1.00  0.00     0.031 C 
ATOM     39  C   UNL A   1      38.657  28.502  27.798  1.00  0.00     0.029 A 
ATOM     40  N   UNL A   1      39.936  28.487  29.632  1.00  0.00    -0.354 N 
ATOM     41  C   UNL A   1      38.917  30.884  33.080  1.00  0.00     0.074 A 
ATOM     42  C   UNL A   1      37.696  31.625  32.860  1.00  0.00     0.031 C 
ATOM     43  C   UNL A   1      39.726  27.734  27.535  1.00  0.00     0.029 A 
ATOM     44  C   UNL A   1      40.602  27.721  28.703  1.00  0.00     0.049 A 
ATOM     45  H   UNL A   1      40.277  28.648  30.541  1.00  0.00     0.167 HD
ATOM     46  C   UNL A   1      39.656  30.957  34.213  1.00  0.00     0.034 A 
ATOM     47  C   UNL A   1      41.788  27.087  28.780  1.00  0.00     0.034 A 
ATOM     48  C   UNL A   1      40.844  30.183  34.446  1.00  0.00     0.049 A 
ATOM     49  C   UNL A   1      42.568  27.153  30.065  1.00  0.00     0.074 A 
ATOM     50  C   UNL A   1      41.610  30.110  35.596  1.00  0.00     0.029 A 
ATOM     51  N   UNL A   1      41.445  29.355  33.511  1.00  0.00    -0.354 N 
ATOM     52  N   UNL A   1      42.268  27.770  31.183  1.00  0.00    -0.248 NA
ATOM     53  C   UNL A   1      43.835  26.408  30.113  1.00  0.00     0.031 C 
ATOM     54  C   UNL A   1      42.696  29.265  35.344  1.00  0.00     0.029 A 
ATOM     55  C   UNL A   1      42.582  28.779  34.051  1.00  0.00     0.049 A 
ATOM     56  H   UNL A   1      41.112  29.199  32.598  1.00  0.00     0.167 HD
ATOM     57  C   UNL A   1      43.285  27.455  32.077  1.00  0.00     0.074 A 
ATOM     58  C   UNL A   1      44.199  26.576  31.376  1.00  0.00     0.031 C 
ATOM     59  C   UNL A   1      43.454  27.865  33.359  1.00  0.00     0.034 A 
BRANCH  46  60
ATOM     60  C   UNL A   1      39.177  31.878  35.306  1.00  0.00     0.023 A 
ATOM     61  C   UNL A   1      38.215  31.424  36.233  1.00  0.00     0.012 A 
ATOM     62  C   UNL A   1      39.722  33.168  35.455  1.00  0.00     0.148 A 
ATOM     63  C   UNL A   1      37.776  32.252  37.265  1.00  0.00     0.002 A 
ATOM     64  C   UNL A   1      39.316  33.969  36.516  1.00  0.00     0.091 A 
ATOM     65  F   UNL A   1      40.621  33.590  34.555  1.00  0.00    -0.205 F 
ATOM     66  C   UNL A   1      38.334  33.518  37.413  1.00  0.00     0.022 A 
BRANCH  64  67
ATOM     67  S   UNL A   1      40.031  35.584  36.842  1.00  0.00     0.127 S 
ATOM     68  O   UNL A   1      39.655  36.322  35.636  1.00  0.00    -0.237 OA
ATOM     69  O   UNL A   1      39.321  35.996  38.053  1.00  0.00    -0.237 OA
ATOM     70  O   UNL A   1      41.459  35.365  37.018  1.00  0.00    -0.744 OA
ENDBRANCH  64  67
ENDBRANCH  46  60
BRANCH  47  71
ATOM     71  C   UNL A   1      42.283  26.278  27.628  1.00  0.00     0.023 A 
ATOM     72  C   UNL A   1      43.124  26.882  26.672  1.00  0.00     0.012 A 
ATOM     73  C   UNL A   1      41.938  24.920  27.479  1.00  0.00     0.148 A 
ATOM     74  C   UNL A   1      43.584  26.159  25.571  1.00  0.00     0.002 A 
ATOM     75  C   UNL A   1      42.444  24.192  26.408  1.00  0.00     0.091 A 
ATOM     76  F   UNL A   1      41.128  24.368  28.393  1.00  0.00    -0.205 F 
ATOM     77  C   UNL A   1      43.252  24.814  25.444  1.00  0.00     0.022 A 
BRANCH  75  78
ATOM     78  S   UNL A   1      42.166  22.428  26.218  1.00  0.00     0.127 S 
ATOM     79  O   UNL A   1      42.728  21.903  27.461  1.00  0.00    -0.237 OA
ATOM     80  O   UNL A   1      40.707  22.363  26.128  1.00  0.00    -0.237 OA
ATOM     81  O   UNL A   1      42.865  22.046  25.001  1.00  0.00    -0.744 OA
ENDBRANCH  75  78
ENDBRANCH  47  71
BRANCH  59  82
ATOM     82  C   UNL A   1      44.648  27.337  34.111  1.00  0.00     0.023 A 
ATOM     83  C   UNL A   1      45.865  28.047  34.093  1.00  0.00     0.012 A 
ATOM     84  C   UNL A   1      44.536  26.174  34.899  1.00  0.00     0.148 A 
ATOM     85  C   UNL A   1      46.964  27.587  34.818  1.00  0.00     0.002 A 
ATOM     86  C   UNL A   1      45.618  25.753  35.662  1.00  0.00     0.091 A 
ATOM     87  F   UNL A   1      43.375  25.505  34.891  1.00  0.00    -0.205 F 
ATOM     88  C   UNL A   1      46.836  26.449  35.612  1.00  0.00     0.022 A 
BRANCH  86  89
ATOM     89  S   UNL A   1      45.516  24.360  36.791  1.00  0.00     0.127 S 
ATOM     90  O   UNL A   1      44.495  24.814  37.733  1.00  0.00    -0.237 OA
ATOM     91  O   UNL A   1      45.091  23.274  35.906  1.00  0.00    -0.237 OA
ATOM     92  O   UNL A   1      46.851  24.196  37.350  1.00  0.00    -0.744 OA
ENDBRANCH  86  89
ENDBRANCH  59  82
ENDBRANCH  33  34
ENDBRANCH  25  28
ENDBRANCH  23  24
ENDBRANCH  22  23
ENDBRANCH   1  22
TORSDOF 18
ENDMDL
MODEL 2
REMARK VINA RESULT:     -10.9      3.668      9.131
REMARK SMILES C[C@H](CSc1ccc(C(=O)N(C)C)cn1)C(=O)NCCCCNC(=O)c1ccc(-c2c3nc(c(-c4cccc(S(=O)(=O)[O-])c4F)c4ccc([nH]4)c(-c4cccc(S(=O)(=O)[O-])c4F)c4nc(c(-c5cccc(S(=O)(=O)[O-])c5F)c5ccc2[nH]5)C=C4)C=C3)cc1
REMARK SMILES IDX 20 1 19 2 18 3 16 4 17 5 2 7 1 8 3 9 4 10 5 11 6 12 15 13
REMARK SMILES IDX 7 14 14 15 8 16 9 17 10 18 11 19 12 20 13 21 21 22 22 23
REMARK SMILES IDX 23 24 24 25 25 27 26 28 27 29 88 30 28 31 87 32 29 33 30 34
REMARK SMILES IDX 31 35 81 36 32 37 86 38 80 39 82 40 33 41 85 42 79 43 78 44
REMARK SMILES IDX 34 46 66 47 46 48 65 49 47 50 50 51 64 52 83 53 48 54 49 55
REMARK SMILES IDX 63 57 84 58 51 59 35 60 36 61 44 62 37 63 39 64 45 65 38 66
REMARK SMILES IDX 40 67 41 68 42 69 43 70 67 71 68 72 76 73 69 74 71 75 77 76
REMARK SMILES IDX 70 77 72 78 73 79 74 80 75 81 52 82 53 83 61 84 54 85 56 86
REMARK SMILES IDX 62 87 55 88 57 89 58 90 59 91 60 92
REMARK H PARENT 18 6 23 26 82 45 50 56
REMARK Flexibility Score: inf
ROOT
ATOM      1  C   UNL A   1      31.763  30.578  26.822  1.00  0.00     0.023 C 
ENDROOT
BRANCH   1   2
ATOM      2  C   UNL A   1      31.436  29.885  25.504  1.00  0.00     0.116 C 
BRANCH   2   3
ATOM      3  N   UNL A   1      32.603  29.496  24.735  1.00  0.00    -0.356 N 
ATOM      4  C   UNL A   1      33.184  28.295  24.502  1.00  0.00     0.223 C 
ATOM      5  O   UNL A   1      34.048  28.251  23.621  1.00  0.00    -0.275 OA
ATOM      6  H   UNL A   1      33.060  30.249  24.298  1.00  0.00     0.163 HD
BRANCH   4   7
ATOM      7  C   UNL A   1      32.775  27.014  25.210  1.00  0.00     0.085 C 
ATOM      8  C   UNL A   1      34.037  26.397  25.831  1.00  0.00     0.019 C 
BRANCH   7   9
ATOM      9  C   UNL A   1      31.979  25.975  24.411  1.00  0.00     0.089 C 
BRANCH   9  10
ATOM     10  S   UNL A   1      30.135  25.900  24.403  1.00  0.00    -0.106 SA
BRANCH  10  11
ATOM     11  C   UNL A   1      29.577  27.352  23.546  1.00  0.00     0.096 A 
ATOM     12  C   UNL A   1      28.257  27.750  23.664  1.00  0.00     0.036 A 
ATOM     13  N   UNL A   1      30.418  27.943  22.673  1.00  0.00    -0.249 NA
ATOM     14  C   UNL A   1      27.797  28.860  22.951  1.00  0.00     0.018 A 
ATOM     15  C   UNL A   1      29.931  29.005  21.957  1.00  0.00     0.126 A 
ATOM     16  C   UNL A   1      28.653  29.549  22.102  1.00  0.00     0.058 A 
BRANCH  16  17
ATOM     17  C   UNL A   1      28.299  30.747  21.288  1.00  0.00     0.254 C 
ATOM     18  O   UNL A   1      27.964  30.531  20.122  1.00  0.00    -0.269 OA
ATOM     19  N   UNL A   1      28.319  32.052  21.791  1.00  0.00    -0.345 N 
ATOM     20  C   UNL A   1      29.059  32.548  22.939  1.00  0.00     0.146 C 
ATOM     21  C   UNL A   1      27.626  33.057  20.994  1.00  0.00     0.146 C 
ENDBRANCH  16  17
ENDBRANCH  10  11
ENDBRANCH   9  10
ENDBRANCH   7   9
ENDBRANCH   4   7
ENDBRANCH   2   3
ENDBRANCH   1   2
BRANCH   1  22
ATOM     22  C   UNL A   1      31.573  32.091  26.822  1.00  0.00     0.023 C 
BRANCH  22  23
ATOM     23  C   UNL A   1      32.827  32.926  26.996  1.00  0.00     0.116 C 
BRANCH  23  24
ATOM     24  N   UNL A   1      32.576  34.183  27.675  1.00  0.00    -0.352 N 
ATOM     25  C   UNL A   1      33.145  34.687  28.815  1.00  0.00     0.251 C 
ATOM     26  H   UNL A   1      31.898  34.760  27.254  1.00  0.00     0.163 HD
ATOM     27  O   UNL A   1      32.670  35.706  29.325  1.00  0.00    -0.269 OA
BRANCH  25  28
ATOM     28  C   UNL A   1      34.303  34.014  29.445  1.00  0.00     0.039 A 
ATOM     29  C   UNL A   1      35.592  34.443  29.114  1.00  0.00     0.014 A 
ATOM     30  C   UNL A   1      34.131  32.958  30.344  1.00  0.00     0.014 A 
ATOM     31  C   UNL A   1      36.700  33.844  29.720  1.00  0.00     0.010 A 
ATOM     32  C   UNL A   1      35.229  32.436  31.023  1.00  0.00     0.010 A 
ATOM     33  C   UNL A   1      36.528  32.855  30.702  1.00  0.00    -0.014 A 
BRANCH  33  34
ATOM     34  C   UNL A   1      37.691  32.232  31.386  1.00  0.00     0.031 A 
ATOM     35  C   UNL A   1      38.442  31.104  30.726  1.00  0.00     0.074 A 
ATOM     36  C   UNL A   1      38.027  32.630  32.629  1.00  0.00     0.049 A 
ATOM     37  N   UNL A   1      39.450  30.407  31.181  1.00  0.00    -0.248 NA
ATOM     38  C   UNL A   1      37.982  30.684  29.391  1.00  0.00     0.031 C 
ATOM     39  C   UNL A   1      37.329  33.656  33.408  1.00  0.00     0.029 A 
ATOM     40  N   UNL A   1      39.028  32.204  33.467  1.00  0.00    -0.354 N 
ATOM     41  C   UNL A   1      39.715  29.443  30.214  1.00  0.00     0.074 A 
ATOM     42  C   UNL A   1      38.739  29.621  29.162  1.00  0.00     0.031 C 
ATOM     43  C   UNL A   1      37.929  33.789  34.601  1.00  0.00     0.029 A 
ATOM     44  C   UNL A   1      39.031  32.836  34.689  1.00  0.00     0.049 A 
ATOM     45  H   UNL A   1      39.681  31.511  33.217  1.00  0.00     0.167 HD
ATOM     46  C   UNL A   1      40.698  28.512  30.188  1.00  0.00     0.034 A 
ATOM     47  C   UNL A   1      39.826  32.662  35.762  1.00  0.00     0.034 A 
ATOM     48  C   UNL A   1      41.695  28.371  31.214  1.00  0.00     0.049 A 
ATOM     49  C   UNL A   1      40.936  31.647  35.690  1.00  0.00     0.074 A 
ATOM     50  C   UNL A   1      42.790  27.527  31.237  1.00  0.00     0.029 A 
ATOM     51  N   UNL A   1      41.714  29.085  32.402  1.00  0.00    -0.354 N 
ATOM     52  N   UNL A   1      41.268  30.855  34.699  1.00  0.00    -0.248 NA
ATOM     53  C   UNL A   1      41.803  31.526  36.871  1.00  0.00     0.031 C 
ATOM     54  C   UNL A   1      43.452  27.704  32.456  1.00  0.00     0.029 A 
ATOM     55  C   UNL A   1      42.792  28.689  33.174  1.00  0.00     0.049 A 
ATOM     56  H   UNL A   1      41.058  29.772  32.659  1.00  0.00     0.167 HD
ATOM     57  C   UNL A   1      42.403  30.172  35.121  1.00  0.00     0.074 A 
ATOM     58  C   UNL A   1      42.713  30.659  36.450  1.00  0.00     0.031 C 
ATOM     59  C   UNL A   1      43.119  29.219  34.473  1.00  0.00     0.034 A 
BRANCH  46  60
ATOM     60  C   UNL A   1      40.771  27.599  28.991  1.00  0.00     0.023 A 
ATOM     61  C   UNL A   1      39.839  26.549  28.853  1.00  0.00     0.012 A 
ATOM     62  C   UNL A   1      41.720  27.816  27.974  1.00  0.00     0.148 A 
ATOM     63  C   UNL A   1      39.875  25.707  27.742  1.00  0.00     0.002 A 
ATOM     64  C   UNL A   1      41.718  27.003  26.846  1.00  0.00     0.091 A 
ATOM     65  F   UNL A   1      42.610  28.806  28.130  1.00  0.00    -0.205 F 
ATOM     66  C   UNL A   1      40.806  25.941  26.735  1.00  0.00     0.022 A 
BRANCH  64  67
ATOM     67  S   UNL A   1      42.823  27.272  25.455  1.00  0.00     0.127 S 
ATOM     68  O   UNL A   1      42.162  28.378  24.762  1.00  0.00    -0.237 OA
ATOM     69  O   UNL A   1      44.074  27.634  26.123  1.00  0.00    -0.237 OA
ATOM     70  O   UNL A   1      42.865  26.015  24.724  1.00  0.00    -0.744 OA
ENDBRANCH  64  67
ENDBRANCH  46  60
BRANCH  47  71
ATOM     71  C   UNL A   1      39.646  33.511  36.976  1.00  0.00     0.023 A 
ATOM     72  C   UNL A   1      40.157  34.824  36.980  1.00  0.00     0.012 A 
ATOM     73  C   UNL A   1      38.967  33.035  38.114  1.00  0.00     0.148 A 
ATOM     74  C   UNL A   1      40.025  35.635  38.108  1.00  0.00     0.002 A 
ATOM     75  C   UNL A   1      38.793  33.867  39.214  1.00  0.00     0.091 A 
ATOM     76  F   UNL A   1      38.499  31.779  38.094  1.00  0.00    -0.205 F 
ATOM     77  C   UNL A   1      39.337  35.160  39.220  1.00  0.00     0.022 A 
BRANCH  75  78
ATOM     78  S   UNL A   1      37.826  33.387  40.649  1.00  0.00     0.127 S 
ATOM     79  O   UNL A   1      37.994  34.547  41.522  1.00  0.00    -0.237 OA
ATOM     80  O   UNL A   1      36.489  33.240  40.073  1.00  0.00    -0.237 OA
ATOM     81  O   UNL A   1      38.417  32.148  41.129  1.00  0.00    -0.744 OA
ENDBRANCH  75  78
ENDBRANCH  47  71
BRANCH  59  82
ATOM     82  C   UNL A   1      44.336  28.666  35.165  1.00  0.00     0.023 A 
ATOM     83  C   UNL A   1      45.569  29.344  35.077  1.00  0.00     0.012 A 
ATOM     84  C   UNL A   1      44.237  27.512  35.968  1.00  0.00     0.148 A 
ATOM     85  C   UNL A   1      46.692  28.860  35.748  1.00  0.00     0.002 A 
ATOM     86  C   UNL A   1      45.346  27.068  36.677  1.00  0.00     0.091 A 
ATOM     87  F   UNL A   1      43.060  26.873  36.027  1.00  0.00    -0.205 F 
ATOM     88  C   UNL A   1      46.577  27.732  36.557  1.00  0.00     0.022 A 
BRANCH  86  89
ATOM     89  S   UNL A   1      45.269  25.686  37.822  1.00  0.00     0.127 S 
ATOM     90  O   UNL A   1      46.648  25.620  38.302  1.00  0.00    -0.237 OA
ATOM     91  O   UNL A   1      44.300  26.158  38.812  1.00  0.00    -0.237 OA
ATOM     92  O   UNL A   1      44.825  24.540  37.041  1.00  0.00    -0.744 OA
ENDBRANCH  86  89
ENDBRANCH  59  82
ENDBRANCH  33  34
ENDBRANCH  25  28
ENDBRANCH  23  24
ENDBRANCH  22  23
ENDBRANCH   1  22
TORSDOF 18
ENDMDL
MODEL 3
REMARK VINA RESULT:     -10.7      5.472     10.684
REMARK SMILES C[C@H](CSc1ccc(C(=O)N(C)C)cn1)C(=O)NCCCCNC(=O)c1ccc(-c2c3nc(c(-c4cccc(S(=O)(=O)[O-])c4F)c4ccc([nH]4)c(-c4cccc(S(=O)(=O)[O-])c4F)c4nc(c(-c5cccc(S(=O)(=O)[O-])c5F)c5ccc2[nH]5)C=C4)C=C3)cc1
REMARK SMILES IDX 20 1 19 2 18 3 16 4 17 5 2 7 1 8 3 9 4 10 5 11 6 12 15 13
REMARK SMILES IDX 7 14 14 15 8 16 9 17 10 18 11 19 12 20 13 21 21 22 22 23
REMARK SMILES IDX 23 24 24 25 25 27 26 28 27 29 88 30 28 31 87 32 29 33 30 34
REMARK SMILES IDX 31 35 81 36 32 37 86 38 80 39 82 40 33 41 85 42 79 43 78 44
REMARK SMILES IDX 34 46 66 47 46 48 65 49 47 50 50 51 64 52 83 53 48 54 49 55
REMARK SMILES IDX 63 57 84 58 51 59 35 60 36 61 44 62 37 63 39 64 45 65 38 66
REMARK SMILES IDX 40 67 41 68 42 69 43 70 67 71 68 72 76 73 69 74 71 75 77 76
REMARK SMILES IDX 70 77 72 78 73 79 74 80 75 81 52 82 53 83 61 84 54 85 56 86
REMARK SMILES IDX 62 87 55 88 57 89 58 90 59 91 60 92
REMARK H PARENT 18 6 23 26 82 45 50 56
REMARK Flexibility Score: inf
ROOT
ATOM      1  C   UNL A   1      36.654  20.438  24.931  1.00  0.00     0.023 C 
ENDROOT
BRANCH   1   2
ATOM      2  C   UNL A   1      36.678  21.838  25.534  1.00  0.00     0.116 C 
BRANCH   2   3
ATOM      3  N   UNL A   1      35.707  22.043  26.593  1.00  0.00    -0.356 N 
ATOM      4  C   UNL A   1      34.499  22.654  26.619  1.00  0.00     0.223 C 
ATOM      5  O   UNL A   1      33.801  22.475  27.622  1.00  0.00    -0.275 OA
ATOM      6  H   UNL A   1      35.979  21.664  27.460  1.00  0.00     0.163 HD
BRANCH   4   7
ATOM      7  C   UNL A   1      33.947  23.468  25.461  1.00  0.00     0.085 C 
ATOM      8  C   UNL A   1      34.539  24.883  25.558  1.00  0.00     0.019 C 
BRANCH   7   9
ATOM      9  C   UNL A   1      32.425  23.510  25.273  1.00  0.00     0.089 C 
BRANCH   9  10
ATOM     10  S   UNL A   1      31.317  24.626  26.238  1.00  0.00    -0.106 SA
BRANCH  10  11
ATOM     11  C   UNL A   1      30.905  25.978  25.161  1.00  0.00     0.096 A 
ATOM     12  C   UNL A   1      31.447  27.229  25.398  1.00  0.00     0.036 A 
ATOM     13  N   UNL A   1      29.948  25.786  24.231  1.00  0.00    -0.249 NA
ATOM     14  C   UNL A   1      31.086  28.309  24.588  1.00  0.00     0.018 A 
ATOM     15  C   UNL A   1      29.583  26.870  23.477  1.00  0.00     0.126 A 
ATOM     16  C   UNL A   1      30.164  28.137  23.564  1.00  0.00     0.058 A 
BRANCH  16  17
ATOM     17  C   UNL A   1      29.693  29.196  22.626  1.00  0.00     0.254 C 
ATOM     18  O   UNL A   1      30.571  29.841  22.049  1.00  0.00    -0.269 OA
ATOM     19  N   UNL A   1      28.341  29.457  22.377  1.00  0.00    -0.345 N 
ATOM     20  C   UNL A   1      27.206  29.134  23.224  1.00  0.00     0.146 C 
ATOM     21  C   UNL A   1      28.050  30.265  21.199  1.00  0.00     0.146 C 
ENDBRANCH  16  17
ENDBRANCH  10  11
ENDBRANCH   9  10
ENDBRANCH   7   9
ENDBRANCH   4   7
ENDBRANCH   2   3
ENDBRANCH   1   2
BRANCH   1  22
ATOM     22  C   UNL A   1      38.004  19.733  24.879  1.00  0.00     0.023 C 
BRANCH  22  23
ATOM     23  C   UNL A   1      39.044  20.194  25.882  1.00  0.00     0.116 C 
BRANCH  23  24
ATOM     24  N   UNL A   1      40.206  19.328  25.928  1.00  0.00    -0.352 N 
ATOM     25  C   UNL A   1      41.526  19.649  26.107  1.00  0.00     0.251 C 
ATOM     26  H   UNL A   1      40.019  18.368  25.813  1.00  0.00     0.163 HD
ATOM     27  O   UNL A   1      42.385  18.777  25.945  1.00  0.00    -0.269 OA
BRANCH  25  28
ATOM     28  C   UNL A   1      41.929  21.026  26.473  1.00  0.00     0.039 A 
ATOM     29  C   UNL A   1      42.169  21.950  25.452  1.00  0.00     0.014 A 
ATOM     30  C   UNL A   1      42.086  21.407  27.808  1.00  0.00     0.014 A 
ATOM     31  C   UNL A   1      42.520  23.264  25.774  1.00  0.00     0.010 A 
ATOM     32  C   UNL A   1      42.332  22.741  28.127  1.00  0.00     0.010 A 
ATOM     33  C   UNL A   1      42.576  23.679  27.114  1.00  0.00    -0.014 A 
BRANCH  33  34
ATOM     34  C   UNL A   1      42.909  25.081  27.477  1.00  0.00     0.031 A 
ATOM     35  C   UNL A   1      44.325  25.582  27.342  1.00  0.00     0.074 A 
ATOM     36  C   UNL A   1      41.958  25.882  27.996  1.00  0.00     0.049 A 
ATOM     37  N   UNL A   1      44.819  26.753  27.649  1.00  0.00    -0.248 NA
ATOM     38  C   UNL A   1      45.324  24.632  26.822  1.00  0.00     0.031 C 
ATOM     39  C   UNL A   1      40.569  25.492  28.252  1.00  0.00     0.029 A 
ATOM     40  N   UNL A   1      42.018  27.186  28.423  1.00  0.00    -0.354 N 
ATOM     41  C   UNL A   1      46.185  26.668  27.401  1.00  0.00     0.074 A 
ATOM     42  C   UNL A   1      46.450  25.319  26.954  1.00  0.00     0.031 C 
ATOM     43  C   UNL A   1      39.907  26.534  28.777  1.00  0.00     0.029 A 
ATOM     44  C   UNL A   1      40.828  27.656  28.930  1.00  0.00     0.049 A 
ATOM     45  H   UNL A   1      42.835  27.732  28.371  1.00  0.00     0.167 HD
ATOM     46  C   UNL A   1      47.130  27.632  27.510  1.00  0.00     0.034 A 
ATOM     47  C   UNL A   1      40.517  28.852  29.465  1.00  0.00     0.034 A 
ATOM     48  C   UNL A   1      46.853  28.984  27.909  1.00  0.00     0.049 A 
ATOM     49  C   UNL A   1      41.578  29.918  29.536  1.00  0.00     0.074 A 
ATOM     50  C   UNL A   1      47.720  30.061  27.956  1.00  0.00     0.029 A 
ATOM     51  N   UNL A   1      45.618  29.445  28.339  1.00  0.00    -0.354 N 
ATOM     52  N   UNL A   1      42.829  29.865  29.146  1.00  0.00    -0.248 NA
ATOM     53  C   UNL A   1      41.176  31.220  30.088  1.00  0.00     0.031 C 
ATOM     54  C   UNL A   1      47.018  31.165  28.450  1.00  0.00     0.029 A 
ATOM     55  C   UNL A   1      45.703  30.787  28.670  1.00  0.00     0.049 A 
ATOM     56  H   UNL A   1      44.802  28.900  28.400  1.00  0.00     0.167 HD
ATOM     57  C   UNL A   1      43.351  31.134  29.368  1.00  0.00     0.074 A 
ATOM     58  C   UNL A   1      42.275  31.939  29.908  1.00  0.00     0.031 C 
ATOM     59  C   UNL A   1      44.611  31.589  29.156  1.00  0.00     0.034 A 
BRANCH  46  60
ATOM     60  C   UNL A   1      48.548  27.269  27.150  1.00  0.00     0.023 A 
ATOM     61  C   UNL A   1      49.355  26.584  28.082  1.00  0.00     0.012 A 
ATOM     62  C   UNL A   1      49.063  27.552  25.870  1.00  0.00     0.148 A 
ATOM     63  C   UNL A   1      50.662  26.220  27.761  1.00  0.00     0.002 A 
ATOM     64  C   UNL A   1      50.350  27.142  25.539  1.00  0.00     0.091 A 
ATOM     65  F   UNL A   1      48.289  28.220  25.003  1.00  0.00    -0.205 F 
ATOM     66  C   UNL A   1      51.154  26.489  26.487  1.00  0.00     0.022 A 
BRANCH  64  67
ATOM     67  S   UNL A   1      51.048  27.368  23.900  1.00  0.00     0.127 S 
ATOM     68  O   UNL A   1      50.021  26.757  23.055  1.00  0.00    -0.237 OA
ATOM     69  O   UNL A   1      51.131  28.825  23.800  1.00  0.00    -0.237 OA
ATOM     70  O   UNL A   1      52.333  26.684  23.911  1.00  0.00    -0.744 OA
ENDBRANCH  64  67
ENDBRANCH  46  60
BRANCH  47  71
ATOM     71  C   UNL A   1      39.123  29.132  29.918  1.00  0.00     0.023 A 
ATOM     72  C   UNL A   1      38.730  28.750  31.216  1.00  0.00     0.012 A 
ATOM     73  C   UNL A   1      38.193  29.781  29.082  1.00  0.00     0.148 A 
ATOM     74  C   UNL A   1      37.426  28.976  31.660  1.00  0.00     0.002 A 
ATOM     75  C   UNL A   1      36.912  30.051  29.551  1.00  0.00     0.091 A 
ATOM     76  F   UNL A   1      38.584  30.127  27.847  1.00  0.00    -0.205 F 
ATOM     77  C   UNL A   1      36.522  29.634  30.832  1.00  0.00     0.022 A 
BRANCH  75  78
ATOM     78  S   UNL A   1      35.712  30.992  28.603  1.00  0.00     0.127 S 
ATOM     79  O   UNL A   1      34.882  31.567  29.661  1.00  0.00    -0.237 OA
ATOM     80  O   UNL A   1      36.568  31.952  27.904  1.00  0.00    -0.237 OA
ATOM     81  O   UNL A   1      35.049  30.030  27.737  1.00  0.00    -0.744 OA
ENDBRANCH  75  78
ENDBRANCH  47  71
BRANCH  59  82
ATOM     82  C   UNL A   1      44.893  33.037  29.463  1.00  0.00     0.023 A 
ATOM     83  C   UNL A   1      45.439  33.401  30.710  1.00  0.00     0.012 A 
ATOM     84  C   UNL A   1      44.686  34.027  28.482  1.00  0.00     0.148 A 
ATOM     85  C   UNL A   1      45.740  34.734  30.989  1.00  0.00     0.002 A 
ATOM     86  C   UNL A   1      45.040  35.344  28.747  1.00  0.00     0.091 A 
ATOM     87  F   UNL A   1      44.152  33.662  27.308  1.00  0.00    -0.205 F 
ATOM     88  C   UNL A   1      45.554  35.701  30.004  1.00  0.00     0.022 A 
BRANCH  86  89
ATOM     89  S   UNL A   1      44.931  36.639  27.507  1.00  0.00     0.127 S 
ATOM     90  O   UNL A   1      46.066  36.319  26.642  1.00  0.00    -0.237 OA
ATOM     91  O   UNL A   1      43.619  36.387  26.910  1.00  0.00    -0.237 OA
ATOM     92  O   UNL A   1      45.035  37.899  28.231  1.00  0.00    -0.744 OA
ENDBRANCH  86  89
ENDBRANCH  59  82
ENDBRANCH  33  34
ENDBRANCH  25  28
ENDBRANCH  23  24
ENDBRANCH  22  23
ENDBRANCH   1  22
TORSDOF 18
ENDMDL
