MODEL 1
REMARK VINA RESULT:     -13.0      0.000      0.000
REMARK SMILES Cn1c(C(=O)NCCCCNC(=O)c2ccc(-c3c4nc(c(-c5cccc(S(=O)(=O)[O-])c5F)c5ccc([nH]5)c(-c5cccc(S(=O)(=O)[O-])c5F)c5nc(c(-c6cccc(S(=O)(=O)[O-])c6F)c6ccc3[nH]6)C=C5)C=C4)cc2)cc2cc(OCc3ccccc3)ccc21
REMARK SMILES IDX 8 1 7 2 6 3 4 4 5 5 3 7 1 8 2 9 91 10 77 11 78 12 90 13
REMARK SMILES IDX 79 14 89 15 80 16 81 17 82 18 83 19 84 20 88 21 85 22 87 23
REMARK SMILES IDX 86 24 9 25 10 26 11 27 12 28 13 30 14 31 15 32 76 33 16 34
REMARK SMILES IDX 75 35 17 36 18 37 19 38 69 39 20 40 74 41 68 42 70 43 21 44
REMARK SMILES IDX 73 45 67 46 66 47 22 49 54 50 34 51 53 52 35 53 38 54 52 55
REMARK SMILES IDX 71 56 36 57 37 58 51 60 72 61 39 62 23 63 24 64 32 65 25 66
REMARK SMILES IDX 27 67 33 68 26 69 28 70 29 71 30 72 31 73 55 74 56 75 64 76
REMARK SMILES IDX 57 77 59 78 65 79 58 80 60 81 61 82 62 83 63 84 40 85 41 86
REMARK SMILES IDX 49 87 42 88 44 89 50 90 43 91 45 92 46 93 47 94 48 95
REMARK H PARENT 6 6 11 29 70 48 38 59
REMARK Flexibility Score: inf
ROOT
ATOM      1  C   UNL A   1      34.479  21.154  24.606  1.00  0.00     0.023 C 
ENDROOT
BRANCH   1   2
ATOM      2  C   UNL A   1      33.025  21.004  25.040  1.00  0.00     0.116 C 
BRANCH   2   3
ATOM      3  N   UNL A   1      32.721  21.482  26.370  1.00  0.00    -0.351 N 
ATOM      4  C   UNL A   1      32.333  22.734  26.796  1.00  0.00     0.267 C 
ATOM      5  O   UNL A   1      32.172  22.884  28.005  1.00  0.00    -0.268 OA
ATOM      6  H   UNL A   1      32.804  20.808  27.083  1.00  0.00     0.163 HD
BRANCH   4   7
ATOM      7  C   UNL A   1      32.194  23.838  25.861  1.00  0.00     0.107 A 
ATOM      8  C   UNL A   1      34.574  24.646  25.540  1.00  0.00     0.150 C 
ATOM      9  N   UNL A   1      33.136  24.741  25.411  1.00  0.00    -0.340 N 
ATOM     10  C   UNL A   1      32.539  25.729  24.652  1.00  0.00     0.049 A 
ATOM     11  C   UNL A   1      31.043  24.120  25.127  1.00  0.00     0.042 A 
ATOM     12  C   UNL A   1      31.238  25.316  24.388  1.00  0.00     0.004 A 
ATOM     13  C   UNL A   1      33.062  26.919  24.137  1.00  0.00     0.031 A 
ATOM     14  C   UNL A   1      30.437  26.098  23.528  1.00  0.00     0.056 A 
ATOM     15  C   UNL A   1      32.248  27.680  23.296  1.00  0.00     0.048 A 
ATOM     16  C   UNL A   1      30.950  27.287  22.983  1.00  0.00     0.120 A 
BRANCH  16  17
ATOM     17  O   UNL A   1      30.081  27.981  22.179  1.00  0.00    -0.489 OA
BRANCH  17  18
ATOM     18  C   UNL A   1      28.895  28.532  22.768  1.00  0.00     0.265 C 
BRANCH  18  19
ATOM     19  C   UNL A   1      28.751  30.018  22.514  1.00  0.00    -0.011 A 
ATOM     20  C   UNL A   1      28.287  30.482  21.276  1.00  0.00     0.007 A 
ATOM     21  C   UNL A   1      29.040  30.950  23.523  1.00  0.00     0.007 A 
ATOM     22  C   UNL A   1      28.071  31.844  21.068  1.00  0.00     0.000 A 
ATOM     23  C   UNL A   1      28.804  32.310  23.319  1.00  0.00     0.000 A 
ATOM     24  C   UNL A   1      28.317  32.756  22.094  1.00  0.00     0.000 A 
ENDBRANCH  18  19
ENDBRANCH  17  18
ENDBRANCH  16  17
ENDBRANCH   4   7
ENDBRANCH   2   3
ENDBRANCH   1   2
BRANCH   1  25
ATOM     25  C   UNL A   1      35.533  21.086  25.712  1.00  0.00     0.023 C 
BRANCH  25  26
ATOM     26  C   UNL A   1      36.899  21.691  25.400  1.00  0.00     0.116 C 
BRANCH  26  27
ATOM     27  N   UNL A   1      38.014  20.768  25.573  1.00  0.00    -0.352 N 
ATOM     28  C   UNL A   1      39.274  20.982  26.089  1.00  0.00     0.251 C 
ATOM     29  H   UNL A   1      37.839  19.846  25.275  1.00  0.00     0.163 HD
ATOM     30  O   UNL A   1      40.094  20.070  26.086  1.00  0.00    -0.269 OA
BRANCH  28  31
ATOM     31  C   UNL A   1      39.654  22.317  26.605  1.00  0.00     0.039 A 
ATOM     32  C   UNL A   1      40.654  22.404  27.579  1.00  0.00     0.014 A 
ATOM     33  C   UNL A   1      39.060  23.479  26.110  1.00  0.00     0.014 A 
ATOM     34  C   UNL A   1      41.131  23.659  27.972  1.00  0.00     0.010 A 
ATOM     35  C   UNL A   1      39.597  24.721  26.436  1.00  0.00     0.010 A 
ATOM     36  C   UNL A   1      40.647  24.828  27.362  1.00  0.00    -0.014 A 
BRANCH  36  37
ATOM     37  C   UNL A   1      41.239  26.162  27.649  1.00  0.00     0.031 A 
ATOM     38  C   UNL A   1      42.653  26.475  27.232  1.00  0.00     0.074 A 
ATOM     39  C   UNL A   1      40.545  27.058  28.384  1.00  0.00     0.049 A 
ATOM     40  N   UNL A   1      43.366  27.544  27.472  1.00  0.00    -0.248 NA
ATOM     41  C   UNL A   1      43.371  25.437  26.474  1.00  0.00     0.031 C 
ATOM     42  C   UNL A   1      39.201  26.848  28.928  1.00  0.00     0.029 A 
ATOM     43  N   UNL A   1      40.886  28.313  28.828  1.00  0.00    -0.354 N 
ATOM     44  C   UNL A   1      44.624  27.292  26.938  1.00  0.00     0.074 A 
ATOM     45  C   UNL A   1      44.587  25.955  26.387  1.00  0.00     0.031 C 
ATOM     46  C   UNL A   1      38.831  27.935  29.625  1.00  0.00     0.029 A 
ATOM     47  C   UNL A   1      39.919  28.907  29.607  1.00  0.00     0.049 A 
ATOM     48  H   UNL A   1      41.742  28.746  28.609  1.00  0.00     0.167 HD
ATOM     49  C   UNL A   1      45.703  28.108  26.881  1.00  0.00     0.034 A 
ATOM     50  C   UNL A   1      39.911  30.096  30.243  1.00  0.00     0.034 A 
ATOM     51  C   UNL A   1      45.720  29.458  27.373  1.00  0.00     0.049 A 
ATOM     52  C   UNL A   1      41.104  31.004  30.113  1.00  0.00     0.074 A 
ATOM     53  C   UNL A   1      46.730  30.399  27.267  1.00  0.00     0.029 A 
ATOM     54  N   UNL A   1      44.683  30.062  28.064  1.00  0.00    -0.354 N 
ATOM     55  N   UNL A   1      42.221  30.811  29.454  1.00  0.00    -0.248 NA
ATOM     56  C   UNL A   1      41.023  32.311  30.783  1.00  0.00     0.031 C 
ATOM     57  C   UNL A   1      46.311  31.566  27.913  1.00  0.00     0.029 A 
ATOM     58  C   UNL A   1      45.030  31.360  28.398  1.00  0.00     0.049 A 
ATOM     59  H   UNL A   1      43.826  29.633  28.286  1.00  0.00     0.167 HD
ATOM     60  C   UNL A   1      42.955  31.982  29.596  1.00  0.00     0.074 A 
ATOM     61  C   UNL A   1      42.148  32.889  30.386  1.00  0.00     0.031 C 
ATOM     62  C   UNL A   1      44.193  32.276  29.128  1.00  0.00     0.034 A 
BRANCH  49  63
ATOM     63  C   UNL A   1      46.945  27.587  26.206  1.00  0.00     0.023 A 
ATOM     64  C   UNL A   1      47.817  26.738  26.916  1.00  0.00     0.012 A 
ATOM     65  C   UNL A   1      47.209  27.872  24.852  1.00  0.00     0.148 A 
ATOM     66  C   UNL A   1      48.948  26.204  26.301  1.00  0.00     0.002 A 
ATOM     67  C   UNL A   1      48.314  27.300  24.232  1.00  0.00     0.091 A 
ATOM     68  F   UNL A   1      46.378  28.697  24.198  1.00  0.00    -0.205 F 
ATOM     69  C   UNL A   1      49.189  26.476  24.957  1.00  0.00     0.022 A 
BRANCH  67  70
ATOM     70  S   UNL A   1      48.670  27.521  22.484  1.00  0.00     0.127 S 
ATOM     71  O   UNL A   1      48.699  26.137  22.013  1.00  0.00    -0.237 OA
ATOM     72  O   UNL A   1      47.515  28.295  22.031  1.00  0.00    -0.237 OA
ATOM     73  O   UNL A   1      49.941  28.229  22.418  1.00  0.00    -0.744 OA
ENDBRANCH  67  70
ENDBRANCH  49  63
BRANCH  50  74
ATOM     74  C   UNL A   1      38.705  30.533  31.005  1.00  0.00     0.023 A 
ATOM     75  C   UNL A   1      38.624  30.256  32.385  1.00  0.00     0.012 A 
ATOM     76  C   UNL A   1      37.646  31.221  30.382  1.00  0.00     0.148 A 
ATOM     77  C   UNL A   1      37.495  30.620  33.120  1.00  0.00     0.002 A 
ATOM     78  C   UNL A   1      36.550  31.631  31.132  1.00  0.00     0.091 A 
ATOM     79  F   UNL A   1      37.733  31.463  29.066  1.00  0.00    -0.205 F 
ATOM     80  C   UNL A   1      36.463  31.315  32.497  1.00  0.00     0.022 A 
BRANCH  78  81
ATOM     81  S   UNL A   1      35.237  32.643  30.439  1.00  0.00     0.127 S 
ATOM     82  O   UNL A   1      35.960  33.853  30.057  1.00  0.00    -0.237 OA
ATOM     83  O   UNL A   1      34.777  31.819  29.320  1.00  0.00    -0.237 OA
ATOM     84  O   UNL A   1      34.259  32.795  31.508  1.00  0.00    -0.744 OA
ENDBRANCH  78  81
ENDBRANCH  50  74
BRANCH  62  85
ATOM     85  C   UNL A   1      44.744  33.648  29.412  1.00  0.00     0.023 A 
ATOM     86  C   UNL A   1      45.409  33.900  30.628  1.00  0.00     0.012 A 
ATOM     87  C   UNL A   1      44.673  34.665  28.439  1.00  0.00     0.148 A 
ATOM     88  C   UNL A   1      45.968  35.152  30.883  1.00  0.00     0.002 A 
ATOM     89  C   UNL A   1      45.276  35.893  28.679  1.00  0.00     0.091 A 
ATOM     90  F   UNL A   1      44.020  34.411  27.295  1.00  0.00    -0.205 F 
ATOM     91  C   UNL A   1      45.913  36.142  29.905  1.00  0.00     0.022 A 
BRANCH  89  92
ATOM     92  S   UNL A   1      45.340  37.192  27.441  1.00  0.00     0.127 S 
ATOM     93  O   UNL A   1      43.922  37.475  27.232  1.00  0.00    -0.237 OA
ATOM     94  O   UNL A   1      46.078  38.249  28.135  1.00  0.00    -0.237 OA
ATOM     95  O   UNL A   1      46.040  36.621  26.297  1.00  0.00    -0.744 OA
ENDBRANCH  89  92
ENDBRANCH  62  85
ENDBRANCH  36  37
ENDBRANCH  28  31
ENDBRANCH  26  27
ENDBRANCH  25  26
ENDBRANCH   1  25
TORSDOF 17
ENDMDL
MODEL 2
REMARK VINA RESULT:     -13.0      5.080     10.229
REMARK SMILES Cn1c(C(=O)NCCCCNC(=O)c2ccc(-c3c4nc(c(-c5cccc(S(=O)(=O)[O-])c5F)c5ccc([nH]5)c(-c5cccc(S(=O)(=O)[O-])c5F)c5nc(c(-c6cccc(S(=O)(=O)[O-])c6F)c6ccc3[nH]6)C=C5)C=C4)cc2)cc2cc(OCc3ccccc3)ccc21
REMARK SMILES IDX 8 1 7 2 6 3 4 4 5 5 3 7 1 8 2 9 91 10 77 11 78 12 90 13
REMARK SMILES IDX 79 14 89 15 80 16 81 17 82 18 83 19 84 20 88 21 85 22 87 23
REMARK SMILES IDX 86 24 9 25 10 26 11 27 12 28 13 30 14 31 15 32 76 33 16 34
REMARK SMILES IDX 75 35 17 36 18 37 19 38 69 39 20 40 74 41 68 42 70 43 21 44
REMARK SMILES IDX 73 45 67 46 66 47 22 49 54 50 34 51 53 52 35 53 38 54 52 55
REMARK SMILES IDX 71 56 36 57 37 58 51 60 72 61 39 62 23 63 24 64 32 65 25 66
REMARK SMILES IDX 27 67 33 68 26 69 28 70 29 71 30 72 31 73 55 74 56 75 64 76
REMARK SMILES IDX 57 77 59 78 65 79 58 80 60 81 61 82 62 83 63 84 40 85 41 86
REMARK SMILES IDX 49 87 42 88 44 89 50 90 43 91 45 92 46 93 47 94 48 95
REMARK H PARENT 6 6 11 29 70 48 38 59
REMARK Flexibility Score: inf
ROOT
ATOM      1  C   UNL A   1      32.866  29.550  24.856  1.00  0.00     0.023 C 
ENDROOT
BRANCH   1   2
ATOM      2  C   UNL A   1      31.346  29.456  24.916  1.00  0.00     0.116 C 
BRANCH   2   3
ATOM      3  N   UNL A   1      30.668  29.549  23.642  1.00  0.00    -0.351 N 
ATOM      4  C   UNL A   1      30.479  28.596  22.665  1.00  0.00     0.267 C 
ATOM      5  O   UNL A   1      29.890  28.953  21.648  1.00  0.00    -0.268 OA
ATOM      6  H   UNL A   1      30.279  30.432  23.443  1.00  0.00     0.163 HD
BRANCH   4   7
ATOM      7  C   UNL A   1      31.017  27.253  22.808  1.00  0.00     0.107 A 
ATOM      8  C   UNL A   1      33.431  27.504  22.079  1.00  0.00     0.150 C 
ATOM      9  N   UNL A   1      32.250  26.751  22.443  1.00  0.00    -0.340 N 
ATOM     10  C   UNL A   1      32.287  25.381  22.613  1.00  0.00     0.049 A 
ATOM     11  C   UNL A   1      30.387  26.210  23.483  1.00  0.00     0.042 A 
ATOM     12  C   UNL A   1      31.158  25.026  23.343  1.00  0.00     0.004 A 
ATOM     13  C   UNL A   1      33.251  24.444  22.230  1.00  0.00     0.031 A 
ATOM     14  C   UNL A   1      31.009  23.684  23.756  1.00  0.00     0.056 A 
ATOM     15  C   UNL A   1      33.077  23.122  22.641  1.00  0.00     0.048 A 
ATOM     16  C   UNL A   1      31.975  22.731  23.398  1.00  0.00     0.120 A 
BRANCH  16  17
ATOM     17  O   UNL A   1      31.722  21.454  23.831  1.00  0.00    -0.489 OA
BRANCH  17  18
ATOM     18  C   UNL A   1      32.670  20.828  24.707  1.00  0.00     0.265 C 
BRANCH  18  19
ATOM     19  C   UNL A   1      33.107  19.463  24.218  1.00  0.00    -0.011 A 
ATOM     20  C   UNL A   1      32.395  18.815  23.200  1.00  0.00     0.007 A 
ATOM     21  C   UNL A   1      34.251  18.844  24.746  1.00  0.00     0.007 A 
ATOM     22  C   UNL A   1      32.844  17.598  22.688  1.00  0.00     0.000 A 
ATOM     23  C   UNL A   1      34.710  17.636  24.218  1.00  0.00     0.000 A 
ATOM     24  C   UNL A   1      34.009  17.016  23.187  1.00  0.00     0.000 A 
ENDBRANCH  18  19
ENDBRANCH  17  18
ENDBRANCH  16  17
ENDBRANCH   4   7
ENDBRANCH   2   3
ENDBRANCH   1   2
BRANCH   1  25
ATOM     25  C   UNL A   1      33.643  28.729  25.885  1.00  0.00     0.023 C 
BRANCH  25  26
ATOM     26  C   UNL A   1      33.393  29.051  27.357  1.00  0.00     0.116 C 
BRANCH  26  27
ATOM     27  N   UNL A   1      33.592  30.453  27.702  1.00  0.00    -0.352 N 
ATOM     28  C   UNL A   1      34.685  31.088  28.251  1.00  0.00     0.251 C 
ATOM     29  H   UNL A   1      32.824  31.040  27.512  1.00  0.00     0.163 HD
ATOM     30  O   UNL A   1      34.620  32.282  28.524  1.00  0.00    -0.269 OA
BRANCH  28  31
ATOM     31  C   UNL A   1      35.919  30.326  28.552  1.00  0.00     0.039 A 
ATOM     32  C   UNL A   1      36.983  30.381  27.647  1.00  0.00     0.014 A 
ATOM     33  C   UNL A   1      36.045  29.592  29.732  1.00  0.00     0.014 A 
ATOM     34  C   UNL A   1      38.208  29.792  27.979  1.00  0.00     0.010 A 
ATOM     35  C   UNL A   1      37.289  29.086  30.099  1.00  0.00     0.010 A 
ATOM     36  C   UNL A   1      38.389  29.188  29.234  1.00  0.00    -0.014 A 
BRANCH  36  37
ATOM     37  C   UNL A   1      39.719  28.688  29.675  1.00  0.00     0.031 A 
ATOM     38  C   UNL A   1      40.481  29.403  30.760  1.00  0.00     0.074 A 
ATOM     39  C   UNL A   1      40.295  27.654  29.024  1.00  0.00     0.049 A 
ATOM     40  N   UNL A   1      41.685  29.169  31.214  1.00  0.00    -0.248 NA
ATOM     41  C   UNL A   1      39.817  30.552  31.398  1.00  0.00     0.031 C 
ATOM     42  C   UNL A   1      39.705  26.929  27.895  1.00  0.00     0.029 A 
ATOM     43  N   UNL A   1      41.518  27.053  29.195  1.00  0.00    -0.354 N 
ATOM     44  C   UNL A   1      41.940  30.163  32.151  1.00  0.00     0.074 A 
ATOM     45  C   UNL A   1      40.776  31.022  32.181  1.00  0.00     0.031 C 
ATOM     46  C   UNL A   1      40.562  25.981  27.482  1.00  0.00     0.029 A 
ATOM     47  C   UNL A   1      41.775  26.048  28.291  1.00  0.00     0.049 A 
ATOM     48  H   UNL A   1      42.152  27.317  29.900  1.00  0.00     0.167 HD
ATOM     49  C   UNL A   1      43.028  30.330  32.940  1.00  0.00     0.034 A 
ATOM     50  C   UNL A   1      42.865  25.273  28.123  1.00  0.00     0.034 A 
ATOM     51  C   UNL A   1      44.157  29.441  32.955  1.00  0.00     0.049 A 
ATOM     52  C   UNL A   1      44.036  25.445  29.054  1.00  0.00     0.074 A 
ATOM     53  C   UNL A   1      45.259  29.466  33.792  1.00  0.00     0.029 A 
ATOM     54  N   UNL A   1      44.333  28.370  32.094  1.00  0.00    -0.354 N 
ATOM     55  N   UNL A   1      44.182  26.284  30.050  1.00  0.00    -0.248 NA
ATOM     56  C   UNL A   1      45.179  24.539  28.861  1.00  0.00     0.031 C 
ATOM     57  C   UNL A   1      46.112  28.421  33.424  1.00  0.00     0.029 A 
ATOM     58  C   UNL A   1      45.529  27.731  32.374  1.00  0.00     0.049 A 
ATOM     59  H   UNL A   1      43.702  28.103  31.388  1.00  0.00     0.167 HD
ATOM     60  C   UNL A   1      45.409  25.982  30.626  1.00  0.00     0.074 A 
ATOM     61  C   UNL A   1      45.959  24.868  29.881  1.00  0.00     0.031 C 
ATOM     62  C   UNL A   1      46.034  26.582  31.668  1.00  0.00     0.034 A 
BRANCH  49  63
ATOM     63  C   UNL A   1      43.027  31.487  33.906  1.00  0.00     0.023 A 
ATOM     64  C   UNL A   1      43.493  32.746  33.480  1.00  0.00     0.012 A 
ATOM     65  C   UNL A   1      42.497  31.348  35.203  1.00  0.00     0.148 A 
ATOM     66  C   UNL A   1      43.459  33.845  34.338  1.00  0.00     0.002 A 
ATOM     67  C   UNL A   1      42.425  32.457  36.038  1.00  0.00     0.091 A 
ATOM     68  F   UNL A   1      42.076  30.137  35.597  1.00  0.00    -0.205 F 
ATOM     69  C   UNL A   1      42.915  33.702  35.611  1.00  0.00     0.022 A 
BRANCH  67  70
ATOM     70  S   UNL A   1      41.669  32.401  37.667  1.00  0.00     0.127 S 
ATOM     71  O   UNL A   1      41.856  33.777  38.126  1.00  0.00    -0.237 OA
ATOM     72  O   UNL A   1      40.285  32.047  37.351  1.00  0.00    -0.237 OA
ATOM     73  O   UNL A   1      42.401  31.389  38.416  1.00  0.00    -0.744 OA
ENDBRANCH  67  70
ENDBRANCH  49  63
BRANCH  50  74
ATOM     74  C   UNL A   1      42.879  24.211  27.075  1.00  0.00     0.023 A 
ATOM     75  C   UNL A   1      43.560  24.447  25.864  1.00  0.00     0.012 A 
ATOM     76  C   UNL A   1      42.234  22.974  27.268  1.00  0.00     0.148 A 
ATOM     77  C   UNL A   1      43.563  23.489  24.849  1.00  0.00     0.002 A 
ATOM     78  C   UNL A   1      42.289  22.002  26.276  1.00  0.00     0.091 A 
ATOM     79  F   UNL A   1      41.579  22.771  28.420  1.00  0.00    -0.205 F 
ATOM     80  C   UNL A   1      42.937  22.264  25.058  1.00  0.00     0.022 A 
BRANCH  78  81
ATOM     81  S   UNL A   1      41.623  20.351  26.512  1.00  0.00     0.127 S 
ATOM     82  O   UNL A   1      42.164  19.640  25.357  1.00  0.00    -0.237 OA
ATOM     83  O   UNL A   1      42.204  19.969  27.800  1.00  0.00    -0.237 OA
ATOM     84  O   UNL A   1      40.175  20.517  26.538  1.00  0.00    -0.744 OA
ENDBRANCH  78  81
ENDBRANCH  50  74
BRANCH  62  85
ATOM     85  C   UNL A   1      47.364  26.026  32.105  1.00  0.00     0.023 A 
ATOM     86  C   UNL A   1      48.549  26.471  31.486  1.00  0.00     0.012 A 
ATOM     87  C   UNL A   1      47.444  25.124  33.185  1.00  0.00     0.148 A 
ATOM     88  C   UNL A   1      49.790  26.002  31.914  1.00  0.00     0.002 A 
ATOM     89  C   UNL A   1      48.687  24.701  33.639  1.00  0.00     0.091 A 
ATOM     90  F   UNL A   1      46.304  24.699  33.750  1.00  0.00    -0.205 F 
ATOM     91  C   UNL A   1      49.860  25.128  32.998  1.00  0.00     0.022 A 
BRANCH  89  92
ATOM     92  S   UNL A   1      48.876  23.655  35.087  1.00  0.00     0.127 S 
ATOM     93  O   UNL A   1      48.208  24.448  36.117  1.00  0.00    -0.237 OA
ATOM     94  O   UNL A   1      48.161  22.441  34.692  1.00  0.00    -0.237 OA
ATOM     95  O   UNL A   1      50.311  23.476  35.267  1.00  0.00    -0.744 OA
ENDBRANCH  89  92
ENDBRANCH  62  85
ENDBRANCH  36  37
ENDBRANCH  28  31
ENDBRANCH  26  27
ENDBRANCH  25  26
ENDBRANCH   1  25
TORSDOF 17
ENDMDL
MODEL 3
REMARK VINA RESULT:     -12.9      5.239     11.005
REMARK SMILES Cn1c(C(=O)NCCCCNC(=O)c2ccc(-c3c4nc(c(-c5cccc(S(=O)(=O)[O-])c5F)c5ccc([nH]5)c(-c5cccc(S(=O)(=O)[O-])c5F)c5nc(c(-c6cccc(S(=O)(=O)[O-])c6F)c6ccc3[nH]6)C=C5)C=C4)cc2)cc2cc(OCc3ccccc3)ccc21
REMARK SMILES IDX 8 1 7 2 6 3 4 4 5 5 3 7 1 8 2 9 91 10 77 11 78 12 90 13
REMARK SMILES IDX 79 14 89 15 80 16 81 17 82 18 83 19 84 20 88 21 85 22 87 23
REMARK SMILES IDX 86 24 9 25 10 26 11 27 12 28 13 30 14 31 15 32 76 33 16 34
REMARK SMILES IDX 75 35 17 36 18 37 19 38 69 39 20 40 74 41 68 42 70 43 21 44
REMARK SMILES IDX 73 45 67 46 66 47 22 49 54 50 34 51 53 52 35 53 38 54 52 55
REMARK SMILES IDX 71 56 36 57 37 58 51 60 72 61 39 62 23 63 24 64 32 65 25 66
REMARK SMILES IDX 27 67 33 68 26 69 28 70 29 71 30 72 31 73 55 74 56 75 64 76
REMARK SMILES IDX 57 77 59 78 65 79 58 80 60 81 61 82 62 83 63 84 40 85 41 86
REMARK SMILES IDX 49 87 42 88 44 89 50 90 43 91 45 92 46 93 47 94 48 95
REMARK H PARENT 6 6 11 29 70 48 38 59
REMARK Flexibility Score: inf
ROOT
ATOM      1  C   UNL A   1      31.028  28.442  24.920  1.00  0.00     0.023 C 
ENDROOT
BRANCH   1   2
ATOM      2  C   UNL A   1      30.907  27.961  23.479  1.00  0.00     0.116 C 
BRANCH   2   3
ATOM      3  N   UNL A   1      32.027  28.279  22.622  1.00  0.00    -0.351 N 
ATOM      4  C   UNL A   1      33.217  27.610  22.433  1.00  0.00     0.267 C 
ATOM      5  O   UNL A   1      34.025  28.123  21.663  1.00  0.00    -0.268 OA
ATOM      6  H   UNL A   1      31.922  29.100  22.089  1.00  0.00     0.163 HD
BRANCH   4   7
ATOM      7  C   UNL A   1      33.524  26.395  23.170  1.00  0.00     0.107 A 
ATOM      8  C   UNL A   1      34.114  27.240  25.485  1.00  0.00     0.150 C 
ATOM      9  N   UNL A   1      34.027  26.237  24.445  1.00  0.00    -0.340 N 
ATOM     10  C   UNL A   1      34.321  24.909  24.691  1.00  0.00     0.049 A 
ATOM     11  C   UNL A   1      33.238  25.104  22.731  1.00  0.00     0.042 A 
ATOM     12  C   UNL A   1      33.756  24.165  23.661  1.00  0.00     0.004 A 
ATOM     13  C   UNL A   1      34.987  24.311  25.764  1.00  0.00     0.031 A 
ATOM     14  C   UNL A   1      33.813  22.756  23.730  1.00  0.00     0.056 A 
ATOM     15  C   UNL A   1      35.039  22.917  25.805  1.00  0.00     0.048 A 
ATOM     16  C   UNL A   1      34.461  22.134  24.809  1.00  0.00     0.120 A 
BRANCH  16  17
ATOM     17  O   UNL A   1      34.477  20.763  24.766  1.00  0.00    -0.489 OA
BRANCH  17  18
ATOM     18  C   UNL A   1      33.233  20.060  24.896  1.00  0.00     0.265 C 
BRANCH  18  19
ATOM     19  C   UNL A   1      33.414  18.557  24.963  1.00  0.00    -0.011 A 
ATOM     20  C   UNL A   1      32.524  17.771  25.706  1.00  0.00     0.007 A 
ATOM     21  C   UNL A   1      34.447  17.926  24.253  1.00  0.00     0.007 A 
ATOM     22  C   UNL A   1      32.635  16.381  25.700  1.00  0.00     0.000 A 
ATOM     23  C   UNL A   1      34.544  16.534  24.232  1.00  0.00     0.000 A 
ATOM     24  C   UNL A   1      33.636  15.763  24.952  1.00  0.00     0.000 A 
ENDBRANCH  18  19
ENDBRANCH  17  18
ENDBRANCH  16  17
ENDBRANCH   4   7
ENDBRANCH   2   3
ENDBRANCH   1   2
BRANCH   1  25
ATOM     25  C   UNL A   1      31.385  29.915  25.121  1.00  0.00     0.023 C 
BRANCH  25  26
ATOM     26  C   UNL A   1      32.244  30.258  26.336  1.00  0.00     0.116 C 
BRANCH  26  27
ATOM     27  N   UNL A   1      32.241  31.672  26.690  1.00  0.00    -0.352 N 
ATOM     28  C   UNL A   1      33.176  32.421  27.372  1.00  0.00     0.251 C 
ATOM     29  H   UNL A   1      31.446  32.171  26.394  1.00  0.00     0.163 HD
ATOM     30  O   UNL A   1      32.946  33.599  27.621  1.00  0.00    -0.269 OA
BRANCH  28  31
ATOM     31  C   UNL A   1      34.434  31.797  27.841  1.00  0.00     0.039 A 
ATOM     32  C   UNL A   1      35.563  32.603  28.014  1.00  0.00     0.014 A 
ATOM     33  C   UNL A   1      34.496  30.436  28.147  1.00  0.00     0.014 A 
ATOM     34  C   UNL A   1      36.717  32.066  28.595  1.00  0.00     0.010 A 
ATOM     35  C   UNL A   1      35.611  29.927  28.806  1.00  0.00     0.010 A 
ATOM     36  C   UNL A   1      36.732  30.737  29.050  1.00  0.00    -0.014 A 
BRANCH  36  37
ATOM     37  C   UNL A   1      37.888  30.183  29.807  1.00  0.00     0.031 A 
ATOM     38  C   UNL A   1      38.157  30.626  31.221  1.00  0.00     0.074 A 
ATOM     39  C   UNL A   1      38.762  29.363  29.185  1.00  0.00     0.049 A 
ATOM     40  N   UNL A   1      39.159  30.323  32.004  1.00  0.00    -0.248 NA
ATOM     41  C   UNL A   1      37.190  31.559  31.824  1.00  0.00     0.031 C 
ATOM     42  C   UNL A   1      38.670  28.926  27.789  1.00  0.00     0.029 A 
ATOM     43  N   UNL A   1      39.920  28.775  29.636  1.00  0.00    -0.354 N 
ATOM     44  C   UNL A   1      38.971  31.058  33.168  1.00  0.00     0.074 A 
ATOM     45  C   UNL A   1      37.772  31.846  32.978  1.00  0.00     0.031 C 
ATOM     46  C   UNL A   1      39.719  28.137  27.502  1.00  0.00     0.029 A 
ATOM     47  C   UNL A   1      40.577  28.037  28.678  1.00  0.00     0.049 A 
ATOM     48  H   UNL A   1      40.248  28.874  30.559  1.00  0.00     0.167 HD
ATOM     49  C   UNL A   1      39.707  31.055  34.304  1.00  0.00     0.034 A 
ATOM     50  C   UNL A   1      41.742  27.361  28.735  1.00  0.00     0.034 A 
ATOM     51  C   UNL A   1      40.861  30.225  34.516  1.00  0.00     0.049 A 
ATOM     52  C   UNL A   1      42.508  27.331  30.031  1.00  0.00     0.074 A 
ATOM     53  C   UNL A   1      41.610  30.073  35.669  1.00  0.00     0.029 A 
ATOM     54  N   UNL A   1      41.436  29.410  33.555  1.00  0.00    -0.354 N 
ATOM     55  N   UNL A   1      42.216  27.898  31.176  1.00  0.00    -0.248 NA
ATOM     56  C   UNL A   1      43.747  26.537  30.054  1.00  0.00     0.031 C 
ATOM     57  C   UNL A   1      42.652  29.180  35.400  1.00  0.00     0.029 A 
ATOM     58  C   UNL A   1      42.535  28.757  34.086  1.00  0.00     0.049 A 
ATOM     59  H   UNL A   1      41.112  29.309  32.631  1.00  0.00     0.167 HD
ATOM     60  C   UNL A   1      43.208  27.498  32.063  1.00  0.00     0.074 A 
ATOM     61  C   UNL A   1      44.099  26.624  31.329  1.00  0.00     0.031 C 
ATOM     62  C   UNL A   1      43.376  27.838  33.365  1.00  0.00     0.034 A 
BRANCH  49  63
ATOM     63  C   UNL A   1      39.251  31.933  35.441  1.00  0.00     0.023 A 
ATOM     64  C   UNL A   1      39.502  33.318  35.391  1.00  0.00     0.012 A 
ATOM     65  C   UNL A   1      38.511  31.402  36.516  1.00  0.00     0.148 A 
ATOM     66  C   UNL A   1      39.050  34.160  36.406  1.00  0.00     0.002 A 
ATOM     67  C   UNL A   1      38.024  32.253  37.501  1.00  0.00     0.091 A 
ATOM     68  F   UNL A   1      38.298  30.079  36.555  1.00  0.00    -0.205 F 
ATOM     69  C   UNL A   1      38.302  33.629  37.454  1.00  0.00     0.022 A 
BRANCH  67  70
ATOM     70  S   UNL A   1      36.983  31.684  38.850  1.00  0.00     0.127 S 
ATOM     71  O   UNL A   1      37.886  31.812  39.994  1.00  0.00    -0.237 OA
ATOM     72  O   UNL A   1      35.890  32.656  38.825  1.00  0.00    -0.237 OA
ATOM     73  O   UNL A   1      36.594  30.322  38.512  1.00  0.00    -0.744 OA
ENDBRANCH  67  70
ENDBRANCH  49  63
BRANCH  50  74
ATOM     74  C   UNL A   1      42.227  26.596  27.549  1.00  0.00     0.023 A 
ATOM     75  C   UNL A   1      42.960  27.267  26.550  1.00  0.00     0.012 A 
ATOM     76  C   UNL A   1      41.976  25.218  27.407  1.00  0.00     0.148 A 
ATOM     77  C   UNL A   1      43.398  26.588  25.411  1.00  0.00     0.002 A 
ATOM     78  C   UNL A   1      42.464  24.537  26.298  1.00  0.00     0.091 A 
ATOM     79  F   UNL A   1      41.266  24.599  28.360  1.00  0.00    -0.205 F 
ATOM     80  C   UNL A   1      43.159  25.223  25.289  1.00  0.00     0.022 A 
BRANCH  78  81
ATOM     81  S   UNL A   1      42.315  22.755  26.124  1.00  0.00     0.127 S 
ATOM     82  O   UNL A   1      40.867  22.573  26.121  1.00  0.00    -0.237 OA
ATOM     83  O   UNL A   1      42.970  22.519  24.837  1.00  0.00    -0.237 OA
ATOM     84  O   UNL A   1      43.026  22.193  27.265  1.00  0.00    -0.744 OA
ENDBRANCH  78  81
ENDBRANCH  50  74
BRANCH  62  85
ATOM     85  C   UNL A   1      44.539  27.231  34.104  1.00  0.00     0.023 A 
ATOM     86  C   UNL A   1      45.783  27.892  34.122  1.00  0.00     0.012 A 
ATOM     87  C   UNL A   1      44.375  26.045  34.849  1.00  0.00     0.148 A 
ATOM     88  C   UNL A   1      46.854  27.367  34.844  1.00  0.00     0.002 A 
ATOM     89  C   UNL A   1      45.431  25.555  35.606  1.00  0.00     0.091 A 
ATOM     90  F   UNL A   1      43.189  25.421  34.805  1.00  0.00    -0.205 F 
ATOM     91  C   UNL A   1      46.674  26.207  35.596  1.00  0.00     0.022 A 
BRANCH  89  92
ATOM     92  S   UNL A   1      45.263  24.126  36.681  1.00  0.00     0.127 S 
ATOM     93  O   UNL A   1      44.207  24.561  37.593  1.00  0.00    -0.237 OA
ATOM     94  O   UNL A   1      44.864  23.076  35.743  1.00  0.00    -0.237 OA
ATOM     95  O   UNL A   1      46.572  23.924  37.289  1.00  0.00    -0.744 OA
ENDBRANCH  89  92
ENDBRANCH  62  85
ENDBRANCH  36  37
ENDBRANCH  28  31
ENDBRANCH  26  27
ENDBRANCH  25  26
ENDBRANCH   1  25
TORSDOF 17
ENDMDL
