MODEL 1
REMARK VINA RESULT:     -15.2      0.000      0.000
REMARK SMILES COCCCC(=O)N[C@H]1CC[C@@H](C(=O)NCCCCNC(=O)c2ccc(-c3c4nc(c(-c5cccc(S(=O)(=O)[O-])c5F)c5ccc([nH]5)c(-c5cccc(S(=O)(=O)[O-])c5F)c5nc(c(-c6cccc(S(=O)(=O)[O-])c6F)c6ccc3[nH]6)C=C5)C=C4)cc2)CC1
REMARK SMILES IDX 16 1 15 2 13 3 14 4 12 6 9 7 10 8 87 9 11 10 86 11 8 12 6 13
REMARK SMILES IDX 7 14 5 16 4 17 3 18 2 19 1 20 17 21 18 22 19 23 20 24 21 25
REMARK SMILES IDX 22 27 23 28 24 29 85 30 25 31 84 32 26 33 27 34 28 35 78 36
REMARK SMILES IDX 29 37 83 38 77 39 79 40 30 41 82 42 76 43 75 44 31 46 63 47
REMARK SMILES IDX 43 48 62 49 44 50 47 51 61 52 80 53 45 54 46 55 60 57 81 58
REMARK SMILES IDX 48 59 32 60 33 61 41 62 34 63 36 64 42 65 35 66 37 67 38 68
REMARK SMILES IDX 39 69 40 70 64 71 65 72 73 73 66 74 68 75 74 76 67 77 69 78
REMARK SMILES IDX 70 79 71 80 72 81 49 82 50 83 58 84 51 85 53 86 59 87 52 88
REMARK SMILES IDX 54 89 55 90 56 91 57 92
REMARK H PARENT 15 5 8 15 20 26 79 45 47 56
REMARK Flexibility Score: inf
ROOT
ATOM      1  C   UNL A   1      34.405  25.007  25.343  1.00  0.00     0.116 C 
ENDROOT
BRANCH   1   2
ATOM      2  N   UNL A   1      34.230  25.154  23.464  1.00  0.00    -0.356 N 
ATOM      3  C   UNL A   1      32.973  24.651  22.541  1.00  0.00     0.223 C 
ATOM      4  O   UNL A   1      33.123  24.756  21.316  1.00  0.00    -0.275 OA
ATOM      5  H   UNL A   1      34.978  25.581  22.987  1.00  0.00     0.163 HD
BRANCH   3   6
ATOM      6  C   UNL A   1      31.288  24.109  23.241  1.00  0.00     0.078 C 
ATOM      7  C   UNL A   1      30.629  25.656  26.038  1.00  0.00     0.082 C 
ATOM      8  C   UNL A   1      29.655  25.887  24.767  1.00  0.00     0.026 C 
ATOM      9  C   UNL A   1      30.864  24.077  26.005  1.00  0.00     0.026 C 
ATOM     10  C   UNL A   1      29.942  25.044  23.384  1.00  0.00     0.015 C 
ATOM     11  C   UNL A   1      31.160  23.286  24.603  1.00  0.00     0.015 C 
BRANCH   7  12
ATOM     12  N   UNL A   1      31.620  26.959  26.741  1.00  0.00    -0.353 N 
ATOM     13  C   UNL A   1      32.544  28.173  26.679  1.00  0.00     0.220 C 
ATOM     14  O   UNL A   1      32.922  28.520  27.815  1.00  0.00    -0.275 OA
ATOM     15  H   UNL A   1      31.511  26.817  27.709  1.00  0.00     0.163 HD
BRANCH  13  16
ATOM     16  C   UNL A   1      33.246  29.247  25.267  1.00  0.00     0.102 C 
BRANCH  16  17
ATOM     17  C   UNL A   1      33.256  28.960  23.335  1.00  0.00     0.038 C 
BRANCH  17  18
ATOM     18  C   UNL A   1      31.772  28.028  22.511  1.00  0.00     0.160 C 
BRANCH  18  19
ATOM     19  O   UNL A   1      30.319  29.114  22.031  1.00  0.00    -0.385 OA
ATOM     20  C   UNL A   1      28.558  29.030  22.671  1.00  0.00     0.194 C 
ENDBRANCH  18  19
ENDBRANCH  17  18
ENDBRANCH  16  17
ENDBRANCH  13  16
ENDBRANCH   7  12
ENDBRANCH   3   6
ENDBRANCH   1   2
BRANCH   1  21
ATOM     21  C   UNL A   1      34.842  23.261  26.325  1.00  0.00     0.023 C 
BRANCH  21  22
ATOM     22  C   UNL A   1      35.776  21.858  25.965  1.00  0.00     0.023 C 
BRANCH  22  23
ATOM     23  C   UNL A   1      36.986  21.769  24.975  1.00  0.00     0.116 C 
BRANCH  23  24
ATOM     24  N   UNL A   1      37.982  20.746  25.285  1.00  0.00    -0.352 N 
ATOM     25  C   UNL A   1      39.167  20.884  25.982  1.00  0.00     0.251 C 
ATOM     26  H   UNL A   1      37.782  19.840  24.954  1.00  0.00     0.163 HD
ATOM     27  O   UNL A   1      39.922  19.917  26.131  1.00  0.00    -0.269 OA
BRANCH  25  28
ATOM     28  C   UNL A   1      39.588  22.206  26.495  1.00  0.00     0.039 A 
ATOM     29  C   UNL A   1      40.590  22.230  27.465  1.00  0.00     0.014 A 
ATOM     30  C   UNL A   1      39.024  23.405  26.045  1.00  0.00     0.014 A 
ATOM     31  C   UNL A   1      41.095  23.451  27.910  1.00  0.00     0.010 A 
ATOM     32  C   UNL A   1      39.576  24.625  26.438  1.00  0.00     0.010 A 
ATOM     33  C   UNL A   1      40.628  24.658  27.363  1.00  0.00    -0.014 A 
BRANCH  33  34
ATOM     34  C   UNL A   1      41.278  25.940  27.735  1.00  0.00     0.031 A 
ATOM     35  C   UNL A   1      42.685  26.243  27.304  1.00  0.00     0.074 A 
ATOM     36  C   UNL A   1      40.590  26.820  28.491  1.00  0.00     0.049 A 
ATOM     37  N   UNL A   1      43.380  27.336  27.484  1.00  0.00    -0.248 NA
ATOM     38  C   UNL A   1      43.413  25.178  26.596  1.00  0.00     0.031 C 
ATOM     39  C   UNL A   1      39.248  26.593  29.034  1.00  0.00     0.029 A 
ATOM     40  N   UNL A   1      40.918  28.074  28.936  1.00  0.00    -0.354 N 
ATOM     41  C   UNL A   1      44.629  27.087  26.929  1.00  0.00     0.074 A 
ATOM     42  C   UNL A   1      44.612  25.723  26.446  1.00  0.00     0.031 C 
ATOM     43  C   UNL A   1      38.855  27.683  29.712  1.00  0.00     0.029 A 
ATOM     44  C   UNL A   1      39.926  28.673  29.679  1.00  0.00     0.049 A 
ATOM     45  H   UNL A   1      41.781  28.507  28.742  1.00  0.00     0.167 HD
ATOM     46  C   UNL A   1      45.683  27.928  26.807  1.00  0.00     0.034 A 
ATOM     47  C   UNL A   1      39.885  29.886  30.265  1.00  0.00     0.034 A 
ATOM     48  C   UNL A   1      45.679  29.288  27.275  1.00  0.00     0.049 A 
ATOM     49  C   UNL A   1      41.060  30.809  30.090  1.00  0.00     0.074 A 
ATOM     50  C   UNL A   1      46.665  30.247  27.143  1.00  0.00     0.029 A 
ATOM     51  N   UNL A   1      44.639  29.877  27.980  1.00  0.00    -0.354 N 
ATOM     52  N   UNL A   1      42.173  30.609  29.427  1.00  0.00    -0.248 NA
ATOM     53  C   UNL A   1      40.957  32.138  30.708  1.00  0.00     0.031 C 
ATOM     54  C   UNL A   1      46.238  31.406  27.800  1.00  0.00     0.029 A 
ATOM     55  C   UNL A   1      44.966  31.182  28.303  1.00  0.00     0.049 A 
ATOM     56  H   UNL A   1      43.794  29.432  28.216  1.00  0.00     0.167 HD
ATOM     57  C   UNL A   1      42.889  31.796  29.518  1.00  0.00     0.074 A 
ATOM     58  C   UNL A   1      42.070  32.718  30.280  1.00  0.00     0.031 C 
ATOM     59  C   UNL A   1      44.117  32.095  29.026  1.00  0.00     0.034 A 
BRANCH  46  60
ATOM     60  C   UNL A   1      46.914  27.410  26.108  1.00  0.00     0.023 A 
ATOM     61  C   UNL A   1      47.081  27.635  24.726  1.00  0.00     0.012 A 
ATOM     62  C   UNL A   1      47.926  26.740  26.823  1.00  0.00     0.148 A 
ATOM     63  C   UNL A   1      48.214  27.168  24.059  1.00  0.00     0.002 A 
ATOM     64  C   UNL A   1      49.074  26.319  26.162  1.00  0.00     0.091 A 
ATOM     65  F   UNL A   1      47.742  26.516  28.132  1.00  0.00    -0.205 F 
ATOM     66  C   UNL A   1      49.213  26.519  24.778  1.00  0.00     0.022 A 
BRANCH  64  67
ATOM     67  S   UNL A   1      50.454  25.544  27.010  1.00  0.00     0.127 S 
ATOM     68  O   UNL A   1      51.388  25.318  25.908  1.00  0.00    -0.237 OA
ATOM     69  O   UNL A   1      50.861  26.589  27.950  1.00  0.00    -0.237 OA
ATOM     70  O   UNL A   1      49.921  24.339  27.631  1.00  0.00    -0.744 OA
ENDBRANCH  64  67
ENDBRANCH  46  60
BRANCH  47  71
ATOM     71  C   UNL A   1      38.670  30.317  31.014  1.00  0.00     0.023 A 
ATOM     72  C   UNL A   1      38.552  30.019  32.387  1.00  0.00     0.012 A 
ATOM     73  C   UNL A   1      37.639  31.037  30.379  1.00  0.00     0.148 A 
ATOM     74  C   UNL A   1      37.415  30.397  33.102  1.00  0.00     0.002 A 
ATOM     75  C   UNL A   1      36.535  31.460  31.110  1.00  0.00     0.091 A 
ATOM     76  F   UNL A   1      37.765  31.304  29.072  1.00  0.00    -0.205 F 
ATOM     77  C   UNL A   1      36.411  31.124  32.467  1.00  0.00     0.022 A 
BRANCH  75  78
ATOM     78  S   UNL A   1      35.261  32.512  30.408  1.00  0.00     0.127 S 
ATOM     79  O   UNL A   1      34.320  32.624  31.519  1.00  0.00    -0.237 OA
ATOM     80  O   UNL A   1      36.010  33.733  30.107  1.00  0.00    -0.237 OA
ATOM     81  O   UNL A   1      34.771  31.805  29.232  1.00  0.00    -0.744 OA
ENDBRANCH  75  78
ENDBRANCH  47  71
BRANCH  59  82
ATOM     82  C   UNL A   1      44.637  33.489  29.260  1.00  0.00     0.023 A 
ATOM     83  C   UNL A   1      45.498  33.749  30.345  1.00  0.00     0.012 A 
ATOM     84  C   UNL A   1      44.324  34.526  28.360  1.00  0.00     0.148 A 
ATOM     85  C   UNL A   1      46.009  35.030  30.552  1.00  0.00     0.002 A 
ATOM     86  C   UNL A   1      44.882  35.785  28.540  1.00  0.00     0.091 A 
ATOM     87  F   UNL A   1      43.489  34.262  27.345  1.00  0.00    -0.205 F 
ATOM     88  C   UNL A   1      45.711  36.044  29.643  1.00  0.00     0.022 A 
BRANCH  86  89
ATOM     89  S   UNL A   1      44.638  37.122  27.366  1.00  0.00     0.127 S 
ATOM     90  O   UNL A   1      44.562  38.285  28.249  1.00  0.00    -0.237 OA
ATOM     91  O   UNL A   1      45.856  37.048  26.558  1.00  0.00    -0.237 OA
ATOM     92  O   UNL A   1      43.413  36.806  26.643  1.00  0.00    -0.744 OA
ENDBRANCH  86  89
ENDBRANCH  59  82
ENDBRANCH  33  34
ENDBRANCH  25  28
ENDBRANCH  23  24
ENDBRANCH  22  23
ENDBRANCH  21  22
ENDBRANCH   1  21
TORSDOF 19
ENDMDL
MODEL 2
REMARK VINA RESULT:     -15.0      1.595      2.951
REMARK SMILES COCCCC(=O)N[C@H]1CC[C@@H](C(=O)NCCCCNC(=O)c2ccc(-c3c4nc(c(-c5cccc(S(=O)(=O)[O-])c5F)c5ccc([nH]5)c(-c5cccc(S(=O)(=O)[O-])c5F)c5nc(c(-c6cccc(S(=O)(=O)[O-])c6F)c6ccc3[nH]6)C=C5)C=C4)cc2)CC1
REMARK SMILES IDX 16 1 15 2 13 3 14 4 12 6 9 7 10 8 87 9 11 10 86 11 8 12 6 13
REMARK SMILES IDX 7 14 5 16 4 17 3 18 2 19 1 20 17 21 18 22 19 23 20 24 21 25
REMARK SMILES IDX 22 27 23 28 24 29 85 30 25 31 84 32 26 33 27 34 28 35 78 36
REMARK SMILES IDX 29 37 83 38 77 39 79 40 30 41 82 42 76 43 75 44 31 46 63 47
REMARK SMILES IDX 43 48 62 49 44 50 47 51 61 52 80 53 45 54 46 55 60 57 81 58
REMARK SMILES IDX 48 59 32 60 33 61 41 62 34 63 36 64 42 65 35 66 37 67 38 68
REMARK SMILES IDX 39 69 40 70 64 71 65 72 73 73 66 74 68 75 74 76 67 77 69 78
REMARK SMILES IDX 70 79 71 80 72 81 49 82 50 83 58 84 51 85 53 86 59 87 52 88
REMARK SMILES IDX 54 89 55 90 56 91 57 92
REMARK H PARENT 15 5 8 15 20 26 79 45 47 56
REMARK Flexibility Score: inf
ROOT
ATOM      1  C   UNL A   1      33.763  24.938  25.674  1.00  0.00     0.116 C 
ENDROOT
BRANCH   1   2
ATOM      2  N   UNL A   1      34.443  26.674  26.002  1.00  0.00    -0.356 N 
ATOM      3  C   UNL A   1      33.629  28.092  25.915  1.00  0.00     0.223 C 
ATOM      4  O   UNL A   1      34.307  29.118  26.069  1.00  0.00    -0.275 OA
ATOM      5  H   UNL A   1      35.393  26.730  26.255  1.00  0.00     0.163 HD
BRANCH   3   6
ATOM      6  C   UNL A   1      31.735  28.226  25.778  1.00  0.00     0.078 C 
ATOM      7  C   UNL A   1      30.690  27.150  22.880  1.00  0.00     0.082 C 
ATOM      8  C   UNL A   1      30.208  26.382  24.221  1.00  0.00     0.026 C 
ATOM      9  C   UNL A   1      30.538  28.686  23.293  1.00  0.00     0.026 C 
ATOM     10  C   UNL A   1      30.670  26.975  25.684  1.00  0.00     0.015 C 
ATOM     11  C   UNL A   1      31.026  29.229  24.758  1.00  0.00     0.015 C 
BRANCH   7  12
ATOM     12  N   UNL A   1      31.718  26.381  21.646  1.00  0.00    -0.353 N 
ATOM     13  C   UNL A   1      32.650  25.295  21.111  1.00  0.00     0.220 C 
ATOM     14  O   UNL A   1      33.074  25.576  19.974  1.00  0.00    -0.275 OA
ATOM     15  H   UNL A   1      31.646  27.000  20.885  1.00  0.00     0.163 HD
BRANCH  13  16
ATOM     16  C   UNL A   1      33.304  23.640  21.797  1.00  0.00     0.102 C 
BRANCH  16  17
ATOM     17  C   UNL A   1      32.604  22.480  23.204  1.00  0.00     0.038 C 
BRANCH  17  18
ATOM     18  C   UNL A   1      31.026  23.029  24.182  1.00  0.00     0.160 C 
BRANCH  18  19
ATOM     19  O   UNL A   1      31.026  22.583  26.005  1.00  0.00    -0.385 OA
ATOM     20  C   UNL A   1      29.594  22.674  27.213  1.00  0.00     0.194 C 
ENDBRANCH  18  19
ENDBRANCH  17  18
ENDBRANCH  16  17
ENDBRANCH  13  16
ENDBRANCH   7  12
ENDBRANCH   3   6
ENDBRANCH   1   2
BRANCH   1  21
ATOM     21  C   UNL A   1      34.575  23.220  26.443  1.00  0.00     0.023 C 
BRANCH  21  22
ATOM     22  C   UNL A   1      35.600  21.974  25.837  1.00  0.00     0.023 C 
BRANCH  22  23
ATOM     23  C   UNL A   1      36.969  22.166  25.099  1.00  0.00     0.116 C 
BRANCH  23  24
ATOM     24  N   UNL A   1      37.992  21.167  25.396  1.00  0.00    -0.352 N 
ATOM     25  C   UNL A   1      39.177  21.331  26.086  1.00  0.00     0.251 C 
ATOM     26  H   UNL A   1      37.813  20.259  25.061  1.00  0.00     0.163 HD
ATOM     27  O   UNL A   1      39.958  20.382  26.225  1.00  0.00    -0.269 OA
BRANCH  25  28
ATOM     28  C   UNL A   1      39.568  22.659  26.606  1.00  0.00     0.039 A 
ATOM     29  C   UNL A   1      40.529  22.698  27.617  1.00  0.00     0.014 A 
ATOM     30  C   UNL A   1      39.015  23.851  26.123  1.00  0.00     0.014 A 
ATOM     31  C   UNL A   1      41.007  23.926  28.072  1.00  0.00     0.010 A 
ATOM     32  C   UNL A   1      39.543  25.078  26.528  1.00  0.00     0.010 A 
ATOM     33  C   UNL A   1      40.555  25.125  27.495  1.00  0.00    -0.014 A 
BRANCH  33  34
ATOM     34  C   UNL A   1      41.181  26.414  27.884  1.00  0.00     0.031 A 
ATOM     35  C   UNL A   1      42.619  26.700  27.560  1.00  0.00     0.074 A 
ATOM     36  C   UNL A   1      40.439  27.318  28.557  1.00  0.00     0.049 A 
ATOM     37  N   UNL A   1      43.304  27.795  27.765  1.00  0.00    -0.248 NA
ATOM     38  C   UNL A   1      43.396  25.614  26.942  1.00  0.00     0.031 C 
ATOM     39  C   UNL A   1      39.056  27.111  28.997  1.00  0.00     0.029 A 
ATOM     40  N   UNL A   1      40.737  28.583  28.993  1.00  0.00    -0.354 N 
ATOM     41  C   UNL A   1      44.592  27.526  27.320  1.00  0.00     0.074 A 
ATOM     42  C   UNL A   1      44.606  26.150  26.874  1.00  0.00     0.031 C 
ATOM     43  C   UNL A   1      38.617  28.221  29.611  1.00  0.00     0.029 A 
ATOM     44  C   UNL A   1      39.693  29.205  29.638  1.00  0.00     0.049 A 
ATOM     45  H   UNL A   1      41.616  29.006  28.858  1.00  0.00     0.167 HD
ATOM     46  C   UNL A   1      45.658  28.360  27.261  1.00  0.00     0.034 A 
ATOM     47  C   UNL A   1      39.612  30.434  30.185  1.00  0.00     0.034 A 
ATOM     48  C   UNL A   1      45.624  29.732  27.689  1.00  0.00     0.049 A 
ATOM     49  C   UNL A   1      40.802  31.348  30.080  1.00  0.00     0.074 A 
ATOM     50  C   UNL A   1      46.624  30.684  27.612  1.00  0.00     0.029 A 
ATOM     51  N   UNL A   1      44.535  30.344  28.292  1.00  0.00    -0.354 N 
ATOM     52  N   UNL A   1      41.965  31.126  29.514  1.00  0.00    -0.248 NA
ATOM     53  C   UNL A   1      40.659  32.694  30.651  1.00  0.00     0.031 C 
ATOM     54  C   UNL A   1      46.151  31.861  28.200  1.00  0.00     0.029 A 
ATOM     55  C   UNL A   1      44.842  31.657  28.604  1.00  0.00     0.049 A 
ATOM     56  H   UNL A   1      43.671  29.909  28.471  1.00  0.00     0.167 HD
ATOM     57  C   UNL A   1      42.678  32.312  29.630  1.00  0.00     0.074 A 
ATOM     58  C   UNL A   1      41.806  33.257  30.298  1.00  0.00     0.031 C 
ATOM     59  C   UNL A   1      43.943  32.592  29.231  1.00  0.00     0.034 A 
BRANCH  46  60
ATOM     60  C   UNL A   1      46.938  27.818  26.677  1.00  0.00     0.023 A 
ATOM     61  C   UNL A   1      47.912  27.255  27.528  1.00  0.00     0.012 A 
ATOM     62  C   UNL A   1      47.159  27.823  25.286  1.00  0.00     0.148 A 
ATOM     63  C   UNL A   1      49.102  26.745  27.009  1.00  0.00     0.002 A 
ATOM     64  C   UNL A   1      48.326  27.269  24.772  1.00  0.00     0.091 A 
ATOM     65  F   UNL A   1      46.232  28.378  24.493  1.00  0.00    -0.205 F 
ATOM     66  C   UNL A   1      49.304  26.743  25.632  1.00  0.00     0.022 A 
BRANCH  64  67
ATOM     67  S   UNL A   1      48.648  27.146  23.009  1.00  0.00     0.127 S 
ATOM     68  O   UNL A   1      50.084  27.417  22.952  1.00  0.00    -0.237 OA
ATOM     69  O   UNL A   1      48.278  25.759  22.727  1.00  0.00    -0.237 OA
ATOM     70  O   UNL A   1      47.801  28.145  22.373  1.00  0.00    -0.744 OA
ENDBRANCH  64  67
ENDBRANCH  46  60
BRANCH  47  71
ATOM     71  C   UNL A   1      38.343  30.890  30.821  1.00  0.00     0.023 A 
ATOM     72  C   UNL A   1      38.141  30.688  32.202  1.00  0.00     0.012 A 
ATOM     73  C   UNL A   1      37.344  31.541  30.071  1.00  0.00     0.148 A 
ATOM     74  C   UNL A   1      36.953  31.091  32.814  1.00  0.00     0.002 A 
ATOM     75  C   UNL A   1      36.187  31.990  30.698  1.00  0.00     0.091 A 
ATOM     76  F   UNL A   1      37.551  31.717  28.759  1.00  0.00    -0.205 F 
ATOM     77  C   UNL A   1      35.981  31.749  32.064  1.00  0.00     0.022 A 
BRANCH  75  78
ATOM     78  S   UNL A   1      34.944  32.961  29.841  1.00  0.00     0.127 S 
ATOM     79  O   UNL A   1      34.030  33.303  30.928  1.00  0.00    -0.237 OA
ATOM     80  O   UNL A   1      35.736  34.079  29.326  1.00  0.00    -0.237 OA
ATOM     81  O   UNL A   1      34.402  32.086  28.810  1.00  0.00    -0.744 OA
ENDBRANCH  75  78
ENDBRANCH  47  71
BRANCH  59  82
ATOM     82  C   UNL A   1      44.451  33.990  29.468  1.00  0.00     0.023 A 
ATOM     83  C   UNL A   1      45.176  34.290  30.639  1.00  0.00     0.012 A 
ATOM     84  C   UNL A   1      44.266  34.990  28.493  1.00  0.00     0.148 A 
ATOM     85  C   UNL A   1      45.676  35.574  30.853  1.00  0.00     0.002 A 
ATOM     86  C   UNL A   1      44.817  36.250  28.687  1.00  0.00     0.091 A 
ATOM     87  F   UNL A   1      43.559  34.689  27.395  1.00  0.00    -0.205 F 
ATOM     88  C   UNL A   1      45.507  36.549  29.873  1.00  0.00     0.022 A 
BRANCH  86  89
ATOM     89  S   UNL A   1      44.739  37.536  27.436  1.00  0.00     0.127 S 
ATOM     90  O   UNL A   1      43.395  37.344  26.894  1.00  0.00    -0.237 OA
ATOM     91  O   UNL A   1      44.909  38.752  28.232  1.00  0.00    -0.237 OA
ATOM     92  O   UNL A   1      45.830  37.263  26.509  1.00  0.00    -0.744 OA
ENDBRANCH  86  89
ENDBRANCH  59  82
ENDBRANCH  33  34
ENDBRANCH  25  28
ENDBRANCH  23  24
ENDBRANCH  22  23
ENDBRANCH  21  22
ENDBRANCH   1  21
TORSDOF 19
ENDMDL
MODEL 3
REMARK VINA RESULT:     -14.8      1.641      2.973
REMARK SMILES COCCCC(=O)N[C@H]1CC[C@@H](C(=O)NCCCCNC(=O)c2ccc(-c3c4nc(c(-c5cccc(S(=O)(=O)[O-])c5F)c5ccc([nH]5)c(-c5cccc(S(=O)(=O)[O-])c5F)c5nc(c(-c6cccc(S(=O)(=O)[O-])c6F)c6ccc3[nH]6)C=C5)C=C4)cc2)CC1
REMARK SMILES IDX 16 1 15 2 13 3 14 4 12 6 9 7 10 8 87 9 11 10 86 11 8 12 6 13
REMARK SMILES IDX 7 14 5 16 4 17 3 18 2 19 1 20 17 21 18 22 19 23 20 24 21 25
REMARK SMILES IDX 22 27 23 28 24 29 85 30 25 31 84 32 26 33 27 34 28 35 78 36
REMARK SMILES IDX 29 37 83 38 77 39 79 40 30 41 82 42 76 43 75 44 31 46 63 47
REMARK SMILES IDX 43 48 62 49 44 50 47 51 61 52 80 53 45 54 46 55 60 57 81 58
REMARK SMILES IDX 48 59 32 60 33 61 41 62 34 63 36 64 42 65 35 66 37 67 38 68
REMARK SMILES IDX 39 69 40 70 64 71 65 72 73 73 66 74 68 75 74 76 67 77 69 78
REMARK SMILES IDX 70 79 71 80 72 81 49 82 50 83 58 84 51 85 53 86 59 87 52 88
REMARK SMILES IDX 54 89 55 90 56 91 57 92
REMARK H PARENT 15 5 8 15 20 26 79 45 47 56
REMARK Flexibility Score: inf
ROOT
ATOM      1  C   UNL A   1      33.744  24.899  25.689  1.00  0.00     0.116 C 
ENDROOT
BRANCH   1   2
ATOM      2  N   UNL A   1      34.410  26.650  25.962  1.00  0.00    -0.356 N 
ATOM      3  C   UNL A   1      33.588  28.059  25.818  1.00  0.00     0.223 C 
ATOM      4  O   UNL A   1      34.258  29.093  25.942  1.00  0.00    -0.275 OA
ATOM      5  H   UNL A   1      35.357  26.721  26.221  1.00  0.00     0.163 HD
BRANCH   3   6
ATOM      6  C   UNL A   1      31.694  28.175  25.662  1.00  0.00     0.078 C 
ATOM      7  C   UNL A   1      30.691  27.109  22.746  1.00  0.00     0.082 C 
ATOM      8  C   UNL A   1      30.202  26.327  24.076  1.00  0.00     0.026 C 
ATOM      9  C   UNL A   1      30.519  28.640  23.168  1.00  0.00     0.026 C 
ATOM     10  C   UNL A   1      30.643  26.914  25.548  1.00  0.00     0.015 C 
ATOM     11  C   UNL A   1      30.986  29.177  24.642  1.00  0.00     0.015 C 
BRANCH   7  12
ATOM     12  N   UNL A   1      31.740  26.358  21.518  1.00  0.00    -0.353 N 
ATOM     13  C   UNL A   1      32.683  25.281  20.983  1.00  0.00     0.220 C 
ATOM     14  O   UNL A   1      33.124  25.578  19.856  1.00  0.00    -0.275 OA
ATOM     15  H   UNL A   1      31.678  26.987  20.764  1.00  0.00     0.163 HD
BRANCH  13  16
ATOM     16  C   UNL A   1      33.330  23.618  21.657  1.00  0.00     0.102 C 
BRANCH  16  17
ATOM     17  C   UNL A   1      32.694  22.510  23.134  1.00  0.00     0.038 C 
BRANCH  17  18
ATOM     18  C   UNL A   1      31.041  22.982  24.025  1.00  0.00     0.160 C 
BRANCH  18  19
ATOM     19  O   UNL A   1      30.843  22.280  25.754  1.00  0.00    -0.385 OA
ATOM     20  C   UNL A   1      29.792  22.952  27.155  1.00  0.00     0.194 C 
ENDBRANCH  18  19
ENDBRANCH  17  18
ENDBRANCH  16  17
ENDBRANCH  13  16
ENDBRANCH   7  12
ENDBRANCH   3   6
ENDBRANCH   1   2
BRANCH   1  21
ATOM     21  C   UNL A   1      34.560  23.214  26.526  1.00  0.00     0.023 C 
BRANCH  21  22
ATOM     22  C   UNL A   1      35.475  21.878  25.938  1.00  0.00     0.023 C 
BRANCH  22  23
ATOM     23  C   UNL A   1      36.782  21.947  25.076  1.00  0.00     0.116 C 
BRANCH  23  24
ATOM     24  N   UNL A   1      37.775  20.911  25.351  1.00  0.00    -0.352 N 
ATOM     25  C   UNL A   1      38.985  21.034  26.007  1.00  0.00     0.251 C 
ATOM     26  H   UNL A   1      37.552  20.009  25.026  1.00  0.00     0.163 HD
ATOM     27  O   UNL A   1      39.733  20.057  26.129  1.00  0.00    -0.269 OA
BRANCH  25  28
ATOM     28  C   UNL A   1      39.439  22.349  26.508  1.00  0.00     0.039 A 
ATOM     29  C   UNL A   1      40.454  22.358  27.465  1.00  0.00     0.014 A 
ATOM     30  C   UNL A   1      38.894  23.557  26.058  1.00  0.00     0.014 A 
ATOM     31  C   UNL A   1      40.990  23.571  27.896  1.00  0.00     0.010 A 
ATOM     32  C   UNL A   1      39.476  24.768  26.437  1.00  0.00     0.010 A 
ATOM     33  C   UNL A   1      40.540  24.784  27.348  1.00  0.00    -0.014 A 
BRANCH  33  34
ATOM     34  C   UNL A   1      41.221  26.054  27.704  1.00  0.00     0.031 A 
ATOM     35  C   UNL A   1      42.633  26.320  27.266  1.00  0.00     0.074 A 
ATOM     36  C   UNL A   1      40.556  26.958  28.453  1.00  0.00     0.049 A 
ATOM     37  N   UNL A   1      43.354  27.398  27.432  1.00  0.00    -0.248 NA
ATOM     38  C   UNL A   1      43.334  25.231  26.567  1.00  0.00     0.031 C 
ATOM     39  C   UNL A   1      39.211  26.768  29.003  1.00  0.00     0.029 A 
ATOM     40  N   UNL A   1      40.914  28.209  28.884  1.00  0.00    -0.354 N 
ATOM     41  C   UNL A   1      44.595  27.115  26.877  1.00  0.00     0.074 A 
ATOM     42  C   UNL A   1      44.545  25.747  26.407  1.00  0.00     0.031 C 
ATOM     43  C   UNL A   1      38.846  27.874  29.670  1.00  0.00     0.029 A 
ATOM     44  C   UNL A   1      39.939  28.838  29.624  1.00  0.00     0.049 A 
ATOM     45  H   UNL A   1      41.786  28.619  28.682  1.00  0.00     0.167 HD
ATOM     46  C   UNL A   1      45.668  27.929  26.742  1.00  0.00     0.034 A 
ATOM     47  C   UNL A   1      39.928  30.058  30.196  1.00  0.00     0.034 A 
ATOM     48  C   UNL A   1      45.697  29.294  27.195  1.00  0.00     0.049 A 
ATOM     49  C   UNL A   1      41.123  30.952  30.008  1.00  0.00     0.074 A 
ATOM     50  C   UNL A   1      46.705  30.229  27.051  1.00  0.00     0.029 A 
ATOM     51  N   UNL A   1      44.674  29.914  27.897  1.00  0.00    -0.354 N 
ATOM     52  N   UNL A   1      42.230  30.719  29.344  1.00  0.00    -0.248 NA
ATOM     53  C   UNL A   1      41.054  32.289  30.612  1.00  0.00     0.031 C 
ATOM     54  C   UNL A   1      46.306  31.404  27.697  1.00  0.00     0.029 A 
ATOM     55  C   UNL A   1      45.031  31.215  28.205  1.00  0.00     0.049 A 
ATOM     56  H   UNL A   1      43.819  29.491  28.140  1.00  0.00     0.167 HD
ATOM     57  C   UNL A   1      42.974  31.890  29.420  1.00  0.00     0.074 A 
ATOM     58  C   UNL A   1      42.179  32.839  30.174  1.00  0.00     0.031 C 
ATOM     59  C   UNL A   1      44.206  32.155  28.921  1.00  0.00     0.034 A 
BRANCH  46  60
ATOM     60  C   UNL A   1      46.884  27.375  26.045  1.00  0.00     0.023 A 
ATOM     61  C   UNL A   1      47.007  27.501  24.645  1.00  0.00     0.012 A 
ATOM     62  C   UNL A   1      47.926  26.771  26.775  1.00  0.00     0.148 A 
ATOM     63  C   UNL A   1      48.125  26.999  23.980  1.00  0.00     0.002 A 
ATOM     64  C   UNL A   1      49.059  26.316  26.111  1.00  0.00     0.091 A 
ATOM     65  F   UNL A   1      47.785  26.642  28.102  1.00  0.00    -0.205 F 
ATOM     66  C   UNL A   1      49.154  26.416  24.713  1.00  0.00     0.022 A 
BRANCH  64  67
ATOM     67  S   UNL A   1      50.475  25.620  26.971  1.00  0.00     0.127 S 
ATOM     68  O   UNL A   1      49.880  24.454  27.621  1.00  0.00    -0.237 OA
ATOM     69  O   UNL A   1      51.380  25.306  25.865  1.00  0.00    -0.237 OA
ATOM     70  O   UNL A   1      50.951  26.660  27.872  1.00  0.00    -0.744 OA
ENDBRANCH  64  67
ENDBRANCH  46  60
BRANCH  47  71
ATOM     71  C   UNL A   1      38.726  30.525  30.944  1.00  0.00     0.023 A 
ATOM     72  C   UNL A   1      38.641  30.312  32.335  1.00  0.00     0.012 A 
ATOM     73  C   UNL A   1      37.675  31.197  30.289  1.00  0.00     0.148 A 
ATOM     74  C   UNL A   1      37.516  30.725  33.051  1.00  0.00     0.002 A 
ATOM     75  C   UNL A   1      36.584  31.656  31.018  1.00  0.00     0.091 A 
ATOM     76  F   UNL A   1      37.770  31.383  28.966  1.00  0.00    -0.205 F 
ATOM     77  C   UNL A   1      36.493  31.404  32.395  1.00  0.00     0.022 A 
BRANCH  75  78
ATOM     78  S   UNL A   1      35.285  32.652  30.281  1.00  0.00     0.127 S 
ATOM     79  O   UNL A   1      34.392  32.868  31.416  1.00  0.00    -0.237 OA
ATOM     80  O   UNL A   1      36.025  33.837  29.843  1.00  0.00    -0.237 OA
ATOM     81  O   UNL A   1      34.742  31.850  29.193  1.00  0.00    -0.744 OA
ENDBRANCH  75  78
ENDBRANCH  47  71
BRANCH  59  82
ATOM     82  C   UNL A   1      44.760  33.539  29.139  1.00  0.00     0.023 A 
ATOM     83  C   UNL A   1      44.504  34.558  28.200  1.00  0.00     0.012 A 
ATOM     84  C   UNL A   1      45.476  33.842  30.313  1.00  0.00     0.148 A 
ATOM     85  C   UNL A   1      44.987  35.849  28.408  1.00  0.00     0.002 A 
ATOM     86  C   UNL A   1      45.904  35.144  30.541  1.00  0.00     0.091 A 
ATOM     87  F   UNL A   1      45.723  32.854  31.185  1.00  0.00    -0.205 F 
ATOM     88  C   UNL A   1      45.676  36.145  29.583  1.00  0.00     0.022 A 
BRANCH  86  89
ATOM     89  S   UNL A   1      46.705  35.639  32.070  1.00  0.00     0.127 S 
ATOM     90  O   UNL A   1      48.018  35.008  31.936  1.00  0.00    -0.237 OA
ATOM     91  O   UNL A   1      46.715  37.098  31.955  1.00  0.00    -0.237 OA
ATOM     92  O   UNL A   1      45.872  35.122  33.148  1.00  0.00    -0.744 OA
ENDBRANCH  86  89
ENDBRANCH  59  82
ENDBRANCH  33  34
ENDBRANCH  25  28
ENDBRANCH  23  24
ENDBRANCH  22  23
ENDBRANCH  21  22
ENDBRANCH   1  21
TORSDOF 19
ENDMDL
