MODEL 1
REMARK VINA RESULT:     -10.3      0.000      0.000
REMARK SMILES C[C@H]([N@H+](C)CCC(=O)NCCCCNC(=O)c1ccc(-c2c3nc(c(-c4cccc(S(=O)(=O)[O-])c4F)c4ccc([nH]4)c(-c4cccc(S(=O)(=O)[O-])c4F)c4nc(c(-c5cccc(S(=O)(=O)[O-])c5F)c5ccc2[nH]5)C=C4)C=C3)cc1)C1(C)CC1
REMARK SMILES IDX 11 1 10 2 9 3 7 4 8 5 6 7 5 8 3 9 4 10 2 12 1 13 80 14 81 15
REMARK SMILES IDX 82 16 83 17 12 18 13 19 14 20 15 21 16 23 17 24 18 25 79 26
REMARK SMILES IDX 19 27 78 28 20 29 21 30 22 31 72 32 23 33 77 34 71 35 73 36
REMARK SMILES IDX 24 37 76 38 70 39 69 40 25 42 57 43 37 44 56 45 38 46 41 47
REMARK SMILES IDX 55 48 74 49 39 50 40 51 54 53 75 54 42 55 26 56 27 57 35 58
REMARK SMILES IDX 28 59 30 60 36 61 29 62 31 63 32 64 33 65 34 66 58 67 59 68
REMARK SMILES IDX 67 69 60 70 62 71 68 72 61 73 63 74 64 75 65 76 66 77 43 78
REMARK SMILES IDX 44 79 52 80 45 81 47 82 53 83 46 84 48 85 49 86 50 87 51 88
REMARK H PARENT 9 6 3 11 14 22 73 41 41 52
REMARK Flexibility Score: inf
ROOT
ATOM      1  C   UNL A   1      34.912  30.518  27.921  1.00  0.00     0.023 C 
ENDROOT
BRANCH   1   2
ATOM      2  C   UNL A   1      34.530  29.228  27.198  1.00  0.00     0.116 C 
BRANCH   2   3
ATOM      3  N   UNL A   1      33.359  28.600  27.782  1.00  0.00    -0.356 N 
ATOM      4  C   UNL A   1      32.067  28.580  27.340  1.00  0.00     0.225 C 
ATOM      5  O   UNL A   1      31.212  28.041  28.047  1.00  0.00    -0.275 OA
ATOM      6  H   UNL A   1      33.520  28.115  28.624  1.00  0.00     0.163 HD
BRANCH   4   7
ATOM      7  C   UNL A   1      31.684  29.175  25.997  1.00  0.00     0.161 C 
BRANCH   7   8
ATOM      8  C   UNL A   1      32.026  28.274  24.794  1.00  0.00     0.272 C 
BRANCH   8   9
ATOM      9  N   UNL A   1      32.031  28.996  23.518  1.00  0.00    -0.334 N 
ATOM     10  C   UNL A   1      33.379  29.083  22.943  1.00  0.00     0.332 C 
ATOM     11  H   UNL A   1      31.724  29.931  23.782  1.00  0.00     0.348 HD
BRANCH   9  12
ATOM     12  C   UNL A   1      31.017  28.597  22.512  1.00  0.00     0.186 C 
ATOM     13  C   UNL A   1      31.094  27.108  22.128  1.00  0.00     0.076 C 
BRANCH  12  14
ATOM     14  C   UNL A   1      29.564  29.091  22.785  1.00  0.00     0.019 C 
ATOM     15  C   UNL A   1      28.546  28.029  23.148  1.00  0.00     0.018 C 
ATOM     16  C   UNL A   1      29.255  30.496  23.298  1.00  0.00     0.013 C 
ATOM     17  C   UNL A   1      29.044  30.187  21.855  1.00  0.00     0.013 C 
ENDBRANCH  12  14
ENDBRANCH   9  12
ENDBRANCH   8   9
ENDBRANCH   7   8
ENDBRANCH   4   7
ENDBRANCH   2   3
ENDBRANCH   1   2
BRANCH   1  18
ATOM     18  C   UNL A   1      33.784  31.522  28.118  1.00  0.00     0.023 C 
BRANCH  18  19
ATOM     19  C   UNL A   1      33.941  32.779  27.284  1.00  0.00     0.116 C 
BRANCH  19  20
ATOM     20  N   UNL A   1      33.106  33.887  27.741  1.00  0.00    -0.352 N 
ATOM     21  C   UNL A   1      33.280  34.664  28.868  1.00  0.00     0.251 C 
ATOM     22  H   UNL A   1      32.329  34.105  27.180  1.00  0.00     0.163 HD
ATOM     23  O   UNL A   1      32.469  35.518  29.181  1.00  0.00    -0.269 OA
BRANCH  21  24
ATOM     24  C   UNL A   1      34.458  34.385  29.716  1.00  0.00     0.039 A 
ATOM     25  C   UNL A   1      34.271  33.746  30.945  1.00  0.00     0.014 A 
ATOM     26  C   UNL A   1      35.739  34.630  29.222  1.00  0.00     0.014 A 
ATOM     27  C   UNL A   1      35.382  33.265  31.640  1.00  0.00     0.010 A 
ATOM     28  C   UNL A   1      36.832  34.074  29.870  1.00  0.00     0.010 A 
ATOM     29  C   UNL A   1      36.665  33.382  31.081  1.00  0.00    -0.014 A 
BRANCH  29  30
ATOM     30  C   UNL A   1      37.864  32.785  31.719  1.00  0.00     0.031 A 
ATOM     31  C   UNL A   1      38.566  31.643  31.041  1.00  0.00     0.074 A 
ATOM     32  C   UNL A   1      38.214  33.155  32.967  1.00  0.00     0.049 A 
ATOM     33  N   UNL A   1      39.506  30.862  31.501  1.00  0.00    -0.248 NA
ATOM     34  C   UNL A   1      38.111  31.302  29.682  1.00  0.00     0.031 C 
ATOM     35  C   UNL A   1      37.540  34.179  33.768  1.00  0.00     0.029 A 
ATOM     36  N   UNL A   1      39.192  32.672  33.799  1.00  0.00    -0.354 N 
ATOM     37  C   UNL A   1      39.706  29.899  30.521  1.00  0.00     0.074 A 
ATOM     38  C   UNL A   1      38.774  30.178  29.452  1.00  0.00     0.031 C 
ATOM     39  C   UNL A   1      38.115  34.237  34.981  1.00  0.00     0.029 A 
ATOM     40  C   UNL A   1      39.177  33.237  35.053  1.00  0.00     0.049 A 
ATOM     41  H   UNL A   1      39.844  31.986  33.525  1.00  0.00     0.167 HD
ATOM     42  C   UNL A   1      40.608  28.890  30.499  1.00  0.00     0.034 A 
ATOM     43  C   UNL A   1      39.923  32.969  36.144  1.00  0.00     0.034 A 
ATOM     44  C   UNL A   1      41.590  28.674  31.522  1.00  0.00     0.049 A 
ATOM     45  C   UNL A   1      40.994  31.917  36.054  1.00  0.00     0.074 A 
ATOM     46  C   UNL A   1      42.639  27.774  31.533  1.00  0.00     0.029 A 
ATOM     47  N   UNL A   1      41.647  29.374  32.718  1.00  0.00    -0.354 N 
ATOM     48  N   UNL A   1      41.295  31.135  35.046  1.00  0.00    -0.248 NA
ATOM     49  C   UNL A   1      41.854  31.735  37.232  1.00  0.00     0.031 C 
ATOM     50  C   UNL A   1      43.331  27.927  32.739  1.00  0.00     0.029 A 
ATOM     51  C   UNL A   1      42.715  28.927  33.476  1.00  0.00     0.049 A 
ATOM     52  H   UNL A   1      41.021  30.085  32.987  1.00  0.00     0.167 HD
ATOM     53  C   UNL A   1      42.394  30.389  35.455  1.00  0.00     0.074 A 
ATOM     54  C   UNL A   1      42.719  30.825  36.798  1.00  0.00     0.031 C 
ATOM     55  C   UNL A   1      43.064  29.419  34.784  1.00  0.00     0.034 A 
BRANCH  42  56
ATOM     56  C   UNL A   1      40.613  27.991  29.292  1.00  0.00     0.023 A 
ATOM     57  C   UNL A   1      39.704  26.915  29.225  1.00  0.00     0.012 A 
ATOM     58  C   UNL A   1      41.490  28.221  28.215  1.00  0.00     0.148 A 
ATOM     59  C   UNL A   1      39.698  26.058  28.127  1.00  0.00     0.002 A 
ATOM     60  C   UNL A   1      41.449  27.387  27.104  1.00  0.00     0.091 A 
ATOM     61  F   UNL A   1      42.369  29.231  28.306  1.00  0.00    -0.205 F 
ATOM     62  C   UNL A   1      40.562  26.298  27.064  1.00  0.00     0.022 A 
BRANCH  60  63
ATOM     63  S   UNL A   1      42.477  27.673  25.660  1.00  0.00     0.127 S 
ATOM     64  O   UNL A   1      42.145  26.519  24.826  1.00  0.00    -0.237 OA
ATOM     65  O   UNL A   1      41.967  28.951  25.159  1.00  0.00    -0.237 OA
ATOM     66  O   UNL A   1      43.844  27.727  26.157  1.00  0.00    -0.744 OA
ENDBRANCH  60  63
ENDBRANCH  42  56
BRANCH  43  67
ATOM     67  C   UNL A   1      39.724  33.771  37.384  1.00  0.00     0.023 A 
ATOM     68  C   UNL A   1      40.257  35.072  37.454  1.00  0.00     0.012 A 
ATOM     69  C   UNL A   1      38.956  33.283  38.460  1.00  0.00     0.148 A 
ATOM     70  C   UNL A   1      40.047  35.868  38.581  1.00  0.00     0.002 A 
ATOM     71  C   UNL A   1      38.709  34.100  39.559  1.00  0.00     0.091 A 
ATOM     72  F   UNL A   1      38.467  32.038  38.378  1.00  0.00    -0.205 F 
ATOM     73  C   UNL A   1      39.264  35.387  39.627  1.00  0.00     0.022 A 
BRANCH  71  74
ATOM     74  S   UNL A   1      37.602  33.616  40.889  1.00  0.00     0.127 S 
ATOM     75  O   UNL A   1      36.480  33.042  40.151  1.00  0.00    -0.237 OA
ATOM     76  O   UNL A   1      38.417  32.648  41.624  1.00  0.00    -0.237 OA
ATOM     77  O   UNL A   1      37.317  34.841  41.625  1.00  0.00    -0.744 OA
ENDBRANCH  71  74
ENDBRANCH  43  67
BRANCH  55  78
ATOM     78  C   UNL A   1      44.237  28.772  35.466  1.00  0.00     0.023 A 
ATOM     79  C   UNL A   1      45.527  29.306  35.286  1.00  0.00     0.012 A 
ATOM     80  C   UNL A   1      44.044  27.716  36.380  1.00  0.00     0.148 A 
ATOM     81  C   UNL A   1      46.611  28.791  35.994  1.00  0.00     0.002 A 
ATOM     82  C   UNL A   1      45.121  27.236  37.114  1.00  0.00     0.091 A 
ATOM     83  F   UNL A   1      42.809  27.212  36.522  1.00  0.00    -0.205 F 
ATOM     84  C   UNL A   1      46.406  27.768  36.916  1.00  0.00     0.022 A 
BRANCH  82  85
ATOM     85  S   UNL A   1      44.935  25.986  38.391  1.00  0.00     0.127 S 
ATOM     86  O   UNL A   1      43.974  26.621  39.291  1.00  0.00    -0.237 OA
ATOM     87  O   UNL A   1      44.406  24.848  37.637  1.00  0.00    -0.237 OA
ATOM     88  O   UNL A   1      46.266  25.776  38.943  1.00  0.00    -0.744 OA
ENDBRANCH  82  85
ENDBRANCH  55  78
ENDBRANCH  29  30
ENDBRANCH  21  24
ENDBRANCH  19  20
ENDBRANCH  18  19
ENDBRANCH   1  18
TORSDOF 18
ENDMDL
MODEL 2
REMARK VINA RESULT:     -10.1      3.204      4.464
REMARK SMILES C[C@H]([N@H+](C)CCC(=O)NCCCCNC(=O)c1ccc(-c2c3nc(c(-c4cccc(S(=O)(=O)[O-])c4F)c4ccc([nH]4)c(-c4cccc(S(=O)(=O)[O-])c4F)c4nc(c(-c5cccc(S(=O)(=O)[O-])c5F)c5ccc2[nH]5)C=C4)C=C3)cc1)C1(C)CC1
REMARK SMILES IDX 11 1 10 2 9 3 7 4 8 5 6 7 5 8 3 9 4 10 2 12 1 13 80 14 81 15
REMARK SMILES IDX 82 16 83 17 12 18 13 19 14 20 15 21 16 23 17 24 18 25 79 26
REMARK SMILES IDX 19 27 78 28 20 29 21 30 22 31 72 32 23 33 77 34 71 35 73 36
REMARK SMILES IDX 24 37 76 38 70 39 69 40 25 42 57 43 37 44 56 45 38 46 41 47
REMARK SMILES IDX 55 48 74 49 39 50 40 51 54 53 75 54 42 55 26 56 27 57 35 58
REMARK SMILES IDX 28 59 30 60 36 61 29 62 31 63 32 64 33 65 34 66 58 67 59 68
REMARK SMILES IDX 67 69 60 70 62 71 68 72 61 73 63 74 64 75 65 76 66 77 43 78
REMARK SMILES IDX 44 79 52 80 45 81 47 82 53 83 46 84 48 85 49 86 50 87 51 88
REMARK H PARENT 9 6 3 11 14 22 73 41 41 52
REMARK Flexibility Score: inf
ROOT
ATOM      1  C   UNL A   1      31.493  27.404  26.130  1.00  0.00     0.023 C 
ENDROOT
BRANCH   1   2
ATOM      2  C   UNL A   1      30.406  26.481  25.582  1.00  0.00     0.116 C 
BRANCH   2   3
ATOM      3  N   UNL A   1      30.088  25.403  26.502  1.00  0.00    -0.356 N 
ATOM      4  C   UNL A   1      30.331  24.064  26.395  1.00  0.00     0.225 C 
ATOM      5  O   UNL A   1      29.899  23.316  27.276  1.00  0.00    -0.275 OA
ATOM      6  H   UNL A   1      29.627  25.680  27.327  1.00  0.00     0.163 HD
BRANCH   4   7
ATOM      7  C   UNL A   1      31.141  23.499  25.243  1.00  0.00     0.161 C 
BRANCH   7   8
ATOM      8  C   UNL A   1      32.320  22.609  25.686  1.00  0.00     0.272 C 
BRANCH   8   9
ATOM      9  N   UNL A   1      33.629  23.183  25.359  1.00  0.00    -0.334 N 
ATOM     10  C   UNL A   1      33.641  24.642  25.515  1.00  0.00     0.332 C 
ATOM     11  H   UNL A   1      33.738  22.955  24.372  1.00  0.00     0.348 HD
BRANCH   9  12
ATOM     12  C   UNL A   1      34.818  22.543  25.970  1.00  0.00     0.186 C 
ATOM     13  C   UNL A   1      34.463  21.503  27.050  1.00  0.00     0.076 C 
BRANCH  12  14
ATOM     14  C   UNL A   1      35.908  22.048  24.971  1.00  0.00     0.019 C 
ATOM     15  C   UNL A   1      36.212  20.564  24.983  1.00  0.00     0.018 C 
ATOM     16  C   UNL A   1      36.206  22.766  23.656  1.00  0.00     0.013 C 
ATOM     17  C   UNL A   1      37.130  22.952  24.812  1.00  0.00     0.013 C 
ENDBRANCH  12  14
ENDBRANCH   9  12
ENDBRANCH   8   9
ENDBRANCH   7   8
ENDBRANCH   4   7
ENDBRANCH   2   3
ENDBRANCH   1   2
BRANCH   1  18
ATOM     18  C   UNL A   1      31.676  28.720  25.387  1.00  0.00     0.023 C 
BRANCH  18  19
ATOM     19  C   UNL A   1      32.791  29.581  25.949  1.00  0.00     0.116 C 
BRANCH  19  20
ATOM     20  N   UNL A   1      32.332  30.881  26.433  1.00  0.00    -0.352 N 
ATOM     21  C   UNL A   1      33.021  31.778  27.223  1.00  0.00     0.251 C 
ATOM     22  H   UNL A   1      31.424  31.149  26.164  1.00  0.00     0.163 HD
ATOM     23  O   UNL A   1      32.499  32.804  27.621  1.00  0.00    -0.269 OA
BRANCH  21  24
ATOM     24  C   UNL A   1      34.401  31.423  27.617  1.00  0.00     0.039 A 
ATOM     25  C   UNL A   1      35.366  32.430  27.682  1.00  0.00     0.014 A 
ATOM     26  C   UNL A   1      34.684  30.129  28.055  1.00  0.00     0.014 A 
ATOM     27  C   UNL A   1      36.599  32.157  28.277  1.00  0.00     0.010 A 
ATOM     28  C   UNL A   1      35.873  29.886  28.724  1.00  0.00     0.010 A 
ATOM     29  C   UNL A   1      36.840  30.897  28.847  1.00  0.00    -0.014 A 
BRANCH  29  30
ATOM     30  C   UNL A   1      38.084  30.591  29.595  1.00  0.00     0.031 A 
ATOM     31  C   UNL A   1      39.073  29.621  29.013  1.00  0.00     0.074 A 
ATOM     32  C   UNL A   1      38.242  31.051  30.852  1.00  0.00     0.049 A 
ATOM     33  N   UNL A   1      40.120  29.075  29.571  1.00  0.00    -0.248 NA
ATOM     34  C   UNL A   1      38.816  29.163  27.636  1.00  0.00     0.031 C 
ATOM     35  C   UNL A   1      37.297  31.916  31.563  1.00  0.00     0.029 A 
ATOM     36  N   UNL A   1      39.230  30.812  31.773  1.00  0.00    -0.354 N 
ATOM     37  C   UNL A   1      40.606  28.163  28.644  1.00  0.00     0.074 A 
ATOM     38  C   UNL A   1      39.725  28.209  27.498  1.00  0.00     0.031 C 
ATOM     39  C   UNL A   1      37.744  32.121  32.813  1.00  0.00     0.029 A 
ATOM     40  C   UNL A   1      38.989  31.382  33.001  1.00  0.00     0.049 A 
ATOM     41  H   UNL A   1      40.036  30.282  31.574  1.00  0.00     0.167 HD
ATOM     42  C   UNL A   1      41.705  27.378  28.726  1.00  0.00     0.034 A 
ATOM     43  C   UNL A   1      39.683  31.305  34.155  1.00  0.00     0.034 A 
ATOM     44  C   UNL A   1      42.624  27.403  29.828  1.00  0.00     0.049 A 
ATOM     45  C   UNL A   1      40.963  30.514  34.183  1.00  0.00     0.074 A 
ATOM     46  C   UNL A   1      43.839  26.758  29.950  1.00  0.00     0.029 A 
ATOM     47  N   UNL A   1      42.428  28.119  30.999  1.00  0.00    -0.354 N 
ATOM     48  N   UNL A   1      41.509  29.800  33.229  1.00  0.00    -0.248 NA
ATOM     49  C   UNL A   1      41.742  30.548  35.429  1.00  0.00     0.031 C 
ATOM     50  C   UNL A   1      44.380  27.081  31.199  1.00  0.00     0.029 A 
ATOM     51  C   UNL A   1      43.501  27.933  31.851  1.00  0.00     0.049 A 
ATOM     52  H   UNL A   1      41.641  28.679  31.195  1.00  0.00     0.167 HD
ATOM     53  C   UNL A   1      42.708  29.324  33.747  1.00  0.00     0.074 A 
ATOM     54  C   UNL A   1      42.818  29.844  35.094  1.00  0.00     0.031 C 
ATOM     55  C   UNL A   1      43.626  28.514  33.163  1.00  0.00     0.034 A 
BRANCH  42  56
ATOM     56  C   UNL A   1      42.005  26.481  27.555  1.00  0.00     0.023 A 
ATOM     57  C   UNL A   1      42.658  27.012  26.424  1.00  0.00     0.012 A 
ATOM     58  C   UNL A   1      41.669  25.113  27.580  1.00  0.00     0.148 A 
ATOM     59  C   UNL A   1      42.934  26.208  25.320  1.00  0.00     0.002 A 
ATOM     60  C   UNL A   1      41.986  24.308  26.492  1.00  0.00     0.091 A 
ATOM     61  F   UNL A   1      41.022  24.629  28.650  1.00  0.00    -0.205 F 
ATOM     62  C   UNL A   1      42.607  24.856  25.357  1.00  0.00     0.022 A 
BRANCH  60  63
ATOM     63  S   UNL A   1      41.667  22.541  26.490  1.00  0.00     0.127 S 
ATOM     64  O   UNL A   1      42.326  22.120  27.725  1.00  0.00    -0.237 OA
ATOM     65  O   UNL A   1      40.204  22.486  26.532  1.00  0.00    -0.237 OA
ATOM     66  O   UNL A   1      42.251  22.039  25.254  1.00  0.00    -0.744 OA
ENDBRANCH  60  63
ENDBRANCH  42  56
BRANCH  43  67
ATOM     67  C   UNL A   1      39.213  32.065  35.347  1.00  0.00     0.023 A 
ATOM     68  C   UNL A   1      38.372  31.428  36.279  1.00  0.00     0.012 A 
ATOM     69  C   UNL A   1      39.647  33.381  35.598  1.00  0.00     0.148 A 
ATOM     70  C   UNL A   1      37.954  32.095  37.432  1.00  0.00     0.002 A 
ATOM     71  C   UNL A   1      39.267  34.021  36.773  1.00  0.00     0.091 A 
ATOM     72  F   UNL A   1      40.439  33.972  34.693  1.00  0.00    -0.205 F 
ATOM     73  C   UNL A   1      38.410  33.386  37.684  1.00  0.00     0.022 A 
BRANCH  71  74
ATOM     74  S   UNL A   1      39.915  35.630  37.247  1.00  0.00     0.127 S 
ATOM     75  O   UNL A   1      41.341  35.348  37.387  1.00  0.00    -0.237 OA
ATOM     76  O   UNL A   1      39.560  36.452  36.089  1.00  0.00    -0.237 OA
ATOM     77  O   UNL A   1      39.215  35.987  38.474  1.00  0.00    -0.744 OA
ENDBRANCH  71  74
ENDBRANCH  43  67
BRANCH  55  78
ATOM     78  C   UNL A   1      44.853  28.154  33.956  1.00  0.00     0.023 A 
ATOM     79  C   UNL A   1      45.960  29.023  33.953  1.00  0.00     0.012 A 
ATOM     80  C   UNL A   1      44.859  27.023  34.796  1.00  0.00     0.148 A 
ATOM     81  C   UNL A   1      47.064  28.765  34.765  1.00  0.00     0.002 A 
ATOM     82  C   UNL A   1      45.943  26.795  35.634  1.00  0.00     0.091 A 
ATOM     83  F   UNL A   1      43.799  26.201  34.769  1.00  0.00    -0.205 F 
ATOM     84  C   UNL A   1      47.048  27.661  35.615  1.00  0.00     0.022 A 
BRANCH  82  85
ATOM     85  S   UNL A   1      45.970  25.453  36.829  1.00  0.00     0.127 S 
ATOM     86  O   UNL A   1      45.959  24.280  35.959  1.00  0.00    -0.237 OA
ATOM     87  O   UNL A   1      47.236  25.684  37.527  1.00  0.00    -0.237 OA
ATOM     88  O   UNL A   1      44.785  25.630  37.657  1.00  0.00    -0.744 OA
ENDBRANCH  82  85
ENDBRANCH  55  78
ENDBRANCH  29  30
ENDBRANCH  21  24
ENDBRANCH  19  20
ENDBRANCH  18  19
ENDBRANCH   1  18
TORSDOF 18
ENDMDL
MODEL 3
REMARK VINA RESULT:     -10.0      3.978      9.320
REMARK SMILES C[C@H]([N@H+](C)CCC(=O)NCCCCNC(=O)c1ccc(-c2c3nc(c(-c4cccc(S(=O)(=O)[O-])c4F)c4ccc([nH]4)c(-c4cccc(S(=O)(=O)[O-])c4F)c4nc(c(-c5cccc(S(=O)(=O)[O-])c5F)c5ccc2[nH]5)C=C4)C=C3)cc1)C1(C)CC1
REMARK SMILES IDX 11 1 10 2 9 3 7 4 8 5 6 7 5 8 3 9 4 10 2 12 1 13 80 14 81 15
REMARK SMILES IDX 82 16 83 17 12 18 13 19 14 20 15 21 16 23 17 24 18 25 79 26
REMARK SMILES IDX 19 27 78 28 20 29 21 30 22 31 72 32 23 33 77 34 71 35 73 36
REMARK SMILES IDX 24 37 76 38 70 39 69 40 25 42 57 43 37 44 56 45 38 46 41 47
REMARK SMILES IDX 55 48 74 49 39 50 40 51 54 53 75 54 42 55 26 56 27 57 35 58
REMARK SMILES IDX 28 59 30 60 36 61 29 62 31 63 32 64 33 65 34 66 58 67 59 68
REMARK SMILES IDX 67 69 60 70 62 71 68 72 61 73 63 74 64 75 65 76 66 77 43 78
REMARK SMILES IDX 44 79 52 80 45 81 47 82 53 83 46 84 48 85 49 86 50 87 51 88
REMARK H PARENT 9 6 3 11 14 22 73 41 41 52
REMARK Flexibility Score: inf
ROOT
ATOM      1  C   UNL A   1      31.801  29.276  24.922  1.00  0.00     0.023 C 
ENDROOT
BRANCH   1   2
ATOM      2  C   UNL A   1      31.221  28.010  24.293  1.00  0.00     0.116 C 
BRANCH   2   3
ATOM      3  N   UNL A   1      32.226  27.246  23.574  1.00  0.00    -0.356 N 
ATOM      4  C   UNL A   1      32.958  26.168  23.980  1.00  0.00     0.225 C 
ATOM      5  O   UNL A   1      33.819  25.721  23.217  1.00  0.00    -0.275 OA
ATOM      6  H   UNL A   1      32.406  27.553  22.656  1.00  0.00     0.163 HD
BRANCH   4   7
ATOM      7  C   UNL A   1      32.706  25.503  25.320  1.00  0.00     0.161 C 
BRANCH   7   8
ATOM      8  C   UNL A   1      33.985  24.993  26.015  1.00  0.00     0.272 C 
BRANCH   8   9
ATOM      9  N   UNL A   1      34.567  23.819  25.358  1.00  0.00    -0.334 N 
ATOM     10  C   UNL A   1      36.034  23.874  25.336  1.00  0.00     0.332 C 
ATOM     11  H   UNL A   1      34.220  23.896  24.402  1.00  0.00     0.348 HD
BRANCH   9  12
ATOM     12  C   UNL A   1      34.061  22.490  25.777  1.00  0.00     0.186 C 
ATOM     13  C   UNL A   1      33.878  22.362  27.301  1.00  0.00     0.076 C 
BRANCH  12  14
ATOM     14  C   UNL A   1      32.853  21.938  24.961  1.00  0.00     0.019 C 
ATOM     15  C   UNL A   1      31.510  21.934  25.661  1.00  0.00     0.018 C 
ATOM     16  C   UNL A   1      32.796  21.995  23.436  1.00  0.00     0.013 C 
ATOM     17  C   UNL A   1      33.133  20.705  24.103  1.00  0.00     0.013 C 
ENDBRANCH  12  14
ENDBRANCH   9  12
ENDBRANCH   8   9
ENDBRANCH   7   8
ENDBRANCH   4   7
ENDBRANCH   2   3
ENDBRANCH   1   2
BRANCH   1  18
ATOM     18  C   UNL A   1      33.254  29.183  25.368  1.00  0.00     0.023 C 
BRANCH  18  19
ATOM     19  C   UNL A   1      33.443  29.395  26.858  1.00  0.00     0.116 C 
BRANCH  19  20
ATOM     20  N   UNL A   1      33.642  30.795  27.225  1.00  0.00    -0.352 N 
ATOM     21  C   UNL A   1      34.732  31.352  27.863  1.00  0.00     0.251 C 
ATOM     22  H   UNL A   1      32.915  31.413  26.989  1.00  0.00     0.163 HD
ATOM     23  O   UNL A   1      34.748  32.529  28.179  1.00  0.00    -0.269 OA
BRANCH  21  24
ATOM     24  C   UNL A   1      35.858  30.457  28.201  1.00  0.00     0.039 A 
ATOM     25  C   UNL A   1      36.983  30.444  27.373  1.00  0.00     0.014 A 
ATOM     26  C   UNL A   1      35.846  29.754  29.405  1.00  0.00     0.014 A 
ATOM     27  C   UNL A   1      38.140  29.792  27.803  1.00  0.00     0.010 A 
ATOM     28  C   UNL A   1      37.022  29.185  29.869  1.00  0.00     0.010 A 
ATOM     29  C   UNL A   1      38.181  29.202  29.077  1.00  0.00    -0.014 A 
BRANCH  29  30
ATOM     30  C   UNL A   1      39.419  28.601  29.631  1.00  0.00     0.031 A 
ATOM     31  C   UNL A   1      40.140  29.302  30.747  1.00  0.00     0.074 A 
ATOM     32  C   UNL A   1      39.974  27.531  29.028  1.00  0.00     0.049 A 
ATOM     33  N   UNL A   1      41.321  29.057  31.249  1.00  0.00    -0.248 NA
ATOM     34  C   UNL A   1      39.464  30.468  31.342  1.00  0.00     0.031 C 
ATOM     35  C   UNL A   1      39.420  26.829  27.868  1.00  0.00     0.029 A 
ATOM     36  N   UNL A   1      41.156  26.880  29.277  1.00  0.00    -0.354 N 
ATOM     37  C   UNL A   1      41.557  30.073  32.165  1.00  0.00     0.074 A 
ATOM     38  C   UNL A   1      40.410  30.952  32.132  1.00  0.00     0.031 C 
ATOM     39  C   UNL A   1      40.268  25.856  27.497  1.00  0.00     0.029 A 
ATOM     40  C   UNL A   1      41.437  25.883  28.371  1.00  0.00     0.049 A 
ATOM     41  H   UNL A   1      41.748  27.105  30.031  1.00  0.00     0.167 HD
ATOM     42  C   UNL A   1      42.621  30.243  32.984  1.00  0.00     0.034 A 
ATOM     43  C   UNL A   1      42.521  25.090  28.249  1.00  0.00     0.034 A 
ATOM     44  C   UNL A   1      43.714  29.318  33.075  1.00  0.00     0.049 A 
ATOM     45  C   UNL A   1      43.640  25.228  29.244  1.00  0.00     0.074 A 
ATOM     46  C   UNL A   1      44.770  29.317  33.968  1.00  0.00     0.029 A 
ATOM     47  N   UNL A   1      43.889  28.221  32.245  1.00  0.00    -0.354 N 
ATOM     48  N   UNL A   1      43.763  26.084  30.230  1.00  0.00    -0.248 NA
ATOM     49  C   UNL A   1      44.751  24.271  29.139  1.00  0.00     0.031 C 
ATOM     50  C   UNL A   1      45.586  28.220  33.675  1.00  0.00     0.029 A 
ATOM     51  C   UNL A   1      45.035  27.535  32.603  1.00  0.00     0.049 A 
ATOM     52  H   UNL A   1      43.285  27.968  31.509  1.00  0.00     0.167 HD
ATOM     53  C   UNL A   1      44.946  25.752  30.880  1.00  0.00     0.074 A 
ATOM     54  C   UNL A   1      45.496  24.605  30.186  1.00  0.00     0.031 C 
ATOM     55  C   UNL A   1      45.532  26.355  31.944  1.00  0.00     0.034 A 
BRANCH  42  56
ATOM     56  C   UNL A   1      42.611  31.442  33.894  1.00  0.00     0.023 A 
ATOM     57  C   UNL A   1      43.117  32.672  33.426  1.00  0.00     0.012 A 
ATOM     58  C   UNL A   1      42.081  31.363  35.196  1.00  0.00     0.148 A 
ATOM     59  C   UNL A   1      43.135  33.793  34.252  1.00  0.00     0.002 A 
ATOM     60  C   UNL A   1      42.064  32.497  36.000  1.00  0.00     0.091 A 
ATOM     61  F   UNL A   1      41.632  30.179  35.638  1.00  0.00    -0.205 F 
ATOM     62  C   UNL A   1      42.601  33.709  35.535  1.00  0.00     0.022 A 
BRANCH  60  63
ATOM     63  S   UNL A   1      41.325  32.492  37.637  1.00  0.00     0.127 S 
ATOM     64  O   UNL A   1      41.403  33.905  38.002  1.00  0.00    -0.237 OA
ATOM     65  O   UNL A   1      39.970  32.007  37.369  1.00  0.00    -0.237 OA
ATOM     66  O   UNL A   1      42.140  31.584  38.431  1.00  0.00    -0.744 OA
ENDBRANCH  60  63
ENDBRANCH  42  56
BRANCH  43  67
ATOM     67  C   UNL A   1      42.551  24.047  27.185  1.00  0.00     0.023 A 
ATOM     68  C   UNL A   1      43.237  24.311  25.985  1.00  0.00     0.012 A 
ATOM     69  C   UNL A   1      41.970  22.779  27.381  1.00  0.00     0.148 A 
ATOM     70  C   UNL A   1      43.328  23.338  24.988  1.00  0.00     0.002 A 
ATOM     71  C   UNL A   1      42.107  21.798  26.406  1.00  0.00     0.091 A 
ATOM     72  F   UNL A   1      41.312  22.553  28.528  1.00  0.00    -0.205 F 
ATOM     73  C   UNL A   1      42.773  22.079  25.203  1.00  0.00     0.022 A 
BRANCH  71  74
ATOM     74  S   UNL A   1      41.544  20.109  26.652  1.00  0.00     0.127 S 
ATOM     75  O   UNL A   1      42.332  19.697  27.811  1.00  0.00    -0.237 OA
ATOM     76  O   UNL A   1      40.117  20.301  26.914  1.00  0.00    -0.237 OA
ATOM     77  O   UNL A   1      41.836  19.414  25.405  1.00  0.00    -0.744 OA
ENDBRANCH  71  74
ENDBRANCH  43  67
BRANCH  55  78
ATOM     78  C   UNL A   1      46.823  25.778  32.457  1.00  0.00     0.023 A 
ATOM     79  C   UNL A   1      48.046  26.258  31.953  1.00  0.00     0.012 A 
ATOM     80  C   UNL A   1      46.824  24.855  33.522  1.00  0.00     0.148 A 
ATOM     81  C   UNL A   1      49.254  25.818  32.491  1.00  0.00     0.002 A 
ATOM     82  C   UNL A   1      48.030  24.453  34.082  1.00  0.00     0.091 A 
ATOM     83  F   UNL A   1      45.646  24.399  33.974  1.00  0.00    -0.205 F 
ATOM     84  C   UNL A   1      49.246  24.928  33.563  1.00  0.00     0.022 A 
BRANCH  82  85
ATOM     85  S   UNL A   1      48.112  23.384  35.524  1.00  0.00     0.127 S 
ATOM     86  O   UNL A   1      47.471  24.210  36.544  1.00  0.00    -0.237 OA
ATOM     87  O   UNL A   1      47.330  22.223  35.096  1.00  0.00    -0.237 OA
ATOM     88  O   UNL A   1      49.527  23.110  35.739  1.00  0.00    -0.744 OA
ENDBRANCH  82  85
ENDBRANCH  55  78
ENDBRANCH  29  30
ENDBRANCH  21  24
ENDBRANCH  19  20
ENDBRANCH  18  19
ENDBRANCH   1  18
TORSDOF 18
ENDMDL
