MODEL 1
REMARK VINA RESULT:     -12.9      0.000      0.000
REMARK SMILES Nc1cc(C(=O)NCCCCNC(=O)c2ccc(-c3c4nc(c(-c5cccc(S(=O)(=O)[O-])c5F)c5ccc([nH]5)c(-c5cccc(S(=O)(=O)[O-])c5F)c5nc(c(-c6cccc(S(=O)(=O)[O-])c6F)c6ccc3[nH]6)C=C5)C=C4)cc2)ccc1N1CC2(CCOCC2)C1
REMARK SMILES IDX 10 1 9 2 8 3 7 4 5 5 6 6 4 8 2 9 3 10 80 11 79 12 78 13 1 14
REMARK SMILES IDX 81 17 82 18 89 19 83 20 84 21 88 22 85 23 87 24 86 25 11 26
REMARK SMILES IDX 12 27 13 28 14 30 15 31 16 32 77 33 17 34 76 35 18 36 19 37
REMARK SMILES IDX 20 38 70 39 21 40 75 41 69 42 71 43 22 44 74 45 68 46 67 47
REMARK SMILES IDX 23 49 55 50 35 51 54 52 36 53 39 54 53 55 72 56 37 57 38 58
REMARK SMILES IDX 52 60 73 61 40 62 24 63 25 64 33 65 26 66 28 67 34 68 27 69
REMARK SMILES IDX 29 70 30 71 31 72 32 73 56 74 57 75 65 76 58 77 60 78 66 79
REMARK SMILES IDX 59 80 61 81 62 82 63 83 64 84 41 85 42 86 50 87 43 88 45 89
REMARK SMILES IDX 51 90 44 91 46 92 47 93 48 94 49 95
REMARK H PARENT 7 7 1 15 1 16 12 29 71 48 39 59
REMARK Flexibility Score: inf
ROOT
ATOM      1  C   UNL A   1      31.777  28.910  26.196  1.00  0.00     0.023 C 
ENDROOT
BRANCH   1   2
ATOM      2  C   UNL A   1      31.921  27.552  25.501  1.00  0.00     0.023 C 
BRANCH   2   3
ATOM      3  C   UNL A   1      33.360  27.191  25.128  1.00  0.00     0.116 C 
BRANCH   3   4
ATOM      4  N   UNL A   1      33.499  27.089  23.693  1.00  0.00    -0.352 N 
ATOM      5  C   UNL A   1      33.680  26.033  22.842  1.00  0.00     0.251 C 
ATOM      6  O   UNL A   1      33.798  26.309  21.645  1.00  0.00    -0.269 OA
ATOM      7  H   UNL A   1      33.453  27.958  23.233  1.00  0.00     0.163 HD
BRANCH   5   8
ATOM      8  C   UNL A   1      33.702  24.593  23.250  1.00  0.00     0.041 A 
ATOM      9  C   UNL A   1      32.861  22.353  22.703  1.00  0.00     0.056 A 
ATOM     10  C   UNL A   1      32.959  23.723  22.434  1.00  0.00     0.041 A 
ATOM     11  C   UNL A   1      33.466  21.830  23.864  1.00  0.00     0.060 A 
ATOM     12  C   UNL A   1      34.224  22.685  24.669  1.00  0.00     0.029 A 
ATOM     13  C   UNL A   1      34.373  24.042  24.343  1.00  0.00     0.016 A 
BRANCH   9  14
ATOM     14  N   UNL A   1      32.010  21.581  21.911  1.00  0.00    -0.397 N 
ATOM     15  H   UNL A   1      31.363  20.971  22.333  1.00  0.00     0.156 HD
ATOM     16  H   UNL A   1      32.058  21.645  20.930  1.00  0.00     0.156 HD
ENDBRANCH   9  14
BRANCH  11  17
ATOM     17  N   UNL A   1      33.276  20.489  24.217  1.00  0.00    -0.369 N 
ATOM     18  C   UNL A   1      34.204  19.502  24.661  1.00  0.00     0.125 C 
ATOM     19  C   UNL A   1      32.133  19.773  24.679  1.00  0.00     0.125 C 
ATOM     20  C   UNL A   1      33.019  18.501  24.565  1.00  0.00     0.010 C 
ATOM     21  C   UNL A   1      32.888  17.480  25.689  1.00  0.00     0.039 C 
ATOM     22  C   UNL A   1      32.907  17.795  23.201  1.00  0.00     0.039 C 
ATOM     23  C   UNL A   1      33.935  16.388  25.482  1.00  0.00     0.161 C 
ATOM     24  C   UNL A   1      33.960  16.696  23.132  1.00  0.00     0.161 C 
ATOM     25  O   UNL A   1      33.774  15.767  24.203  1.00  0.00    -0.381 OA
ENDBRANCH  11  17
ENDBRANCH   5   8
ENDBRANCH   3   4
ENDBRANCH   2   3
ENDBRANCH   1   2
BRANCH   1  26
ATOM     26  C   UNL A   1      32.873  29.923  25.872  1.00  0.00     0.116 C 
BRANCH  26  27
ATOM     27  N   UNL A   1      32.579  31.263  26.359  1.00  0.00    -0.352 N 
ATOM     28  C   UNL A   1      33.276  32.012  27.279  1.00  0.00     0.251 C 
ATOM     29  H   UNL A   1      31.776  31.690  25.980  1.00  0.00     0.163 HD
ATOM     30  O   UNL A   1      32.842  33.088  27.656  1.00  0.00    -0.269 OA
BRANCH  28  31
ATOM     31  C   UNL A   1      34.534  31.470  27.834  1.00  0.00     0.039 A 
ATOM     32  C   UNL A   1      35.618  32.334  28.004  1.00  0.00     0.014 A 
ATOM     33  C   UNL A   1      34.626  30.131  28.219  1.00  0.00     0.014 A 
ATOM     34  C   UNL A   1      36.778  31.868  28.626  1.00  0.00     0.010 A 
ATOM     35  C   UNL A   1      35.758  29.686  28.894  1.00  0.00     0.010 A 
ATOM     36  C   UNL A   1      36.843  30.550  29.105  1.00  0.00    -0.014 A 
BRANCH  36  37
ATOM     37  C   UNL A   1      38.028  30.061  29.852  1.00  0.00     0.031 A 
ATOM     38  C   UNL A   1      38.301  30.553  31.246  1.00  0.00     0.074 A 
ATOM     39  C   UNL A   1      38.910  29.250  29.235  1.00  0.00     0.049 A 
ATOM     40  N   UNL A   1      39.313  30.285  32.030  1.00  0.00    -0.248 NA
ATOM     41  C   UNL A   1      37.326  31.494  31.823  1.00  0.00     0.031 C 
ATOM     42  C   UNL A   1      38.800  28.777  27.854  1.00  0.00     0.029 A 
ATOM     43  N   UNL A   1      40.087  28.704  29.680  1.00  0.00    -0.354 N 
ATOM     44  C   UNL A   1      39.118  31.048  33.175  1.00  0.00     0.074 A 
ATOM     45  C   UNL A   1      37.908  31.816  32.970  1.00  0.00     0.031 C 
ATOM     46  C   UNL A   1      39.865  28.013  27.564  1.00  0.00     0.029 A 
ATOM     47  C   UNL A   1      40.744  27.957  28.729  1.00  0.00     0.049 A 
ATOM     48  H   UNL A   1      40.432  28.835  30.593  1.00  0.00     0.167 HD
ATOM     49  C   UNL A   1      39.859  31.083  34.307  1.00  0.00     0.034 A 
ATOM     50  C   UNL A   1      41.919  27.300  28.791  1.00  0.00     0.034 A 
ATOM     51  C   UNL A   1      41.029  30.277  34.527  1.00  0.00     0.049 A 
ATOM     52  C   UNL A   1      42.691  27.306  30.082  1.00  0.00     0.074 A 
ATOM     53  C   UNL A   1      41.792  30.162  35.675  1.00  0.00     0.029 A 
ATOM     54  N   UNL A   1      41.608  29.449  33.577  1.00  0.00    -0.354 N 
ATOM     55  N   UNL A   1      42.397  27.895  31.216  1.00  0.00    -0.248 NA
ATOM     56  C   UNL A   1      43.937  26.526  30.115  1.00  0.00     0.031 C 
ATOM     57  C   UNL A   1      42.839  29.272  35.416  1.00  0.00     0.029 A 
ATOM     58  C   UNL A   1      42.721  28.824  34.110  1.00  0.00     0.049 A 
ATOM     59  H   UNL A   1      41.276  29.325  32.659  1.00  0.00     0.167 HD
ATOM     60  C   UNL A   1      43.401  27.532  32.106  1.00  0.00     0.074 A 
ATOM     61  C   UNL A   1      44.300  26.653  31.385  1.00  0.00     0.031 C 
ATOM     62  C   UNL A   1      43.573  27.906  33.398  1.00  0.00     0.034 A 
BRANCH  49  63
ATOM     63  C   UNL A   1      39.383  31.973  35.424  1.00  0.00     0.023 A 
ATOM     64  C   UNL A   1      38.492  31.457  36.386  1.00  0.00     0.012 A 
ATOM     65  C   UNL A   1      39.850  33.296  35.553  1.00  0.00     0.148 A 
ATOM     66  C   UNL A   1      38.045  32.252  37.440  1.00  0.00     0.002 A 
ATOM     67  C   UNL A   1      39.432  34.069  36.630  1.00  0.00     0.091 A 
ATOM     68  F   UNL A   1      40.679  33.778  34.616  1.00  0.00    -0.205 F 
ATOM     69  C   UNL A   1      38.522  33.553  37.568  1.00  0.00     0.022 A 
BRANCH  67  70
ATOM     70  S   UNL A   1      40.046  35.732  36.921  1.00  0.00     0.127 S 
ATOM     71  O   UNL A   1      39.630  36.420  35.700  1.00  0.00    -0.237 OA
ATOM     72  O   UNL A   1      39.312  36.128  38.124  1.00  0.00    -0.237 OA
ATOM     73  O   UNL A   1      41.484  35.598  37.110  1.00  0.00    -0.744 OA
ENDBRANCH  67  70
ENDBRANCH  49  63
BRANCH  50  74
ATOM     74  C   UNL A   1      42.390  26.512  27.617  1.00  0.00     0.023 A 
ATOM     75  C   UNL A   1      43.265  27.115  26.693  1.00  0.00     0.012 A 
ATOM     76  C   UNL A   1      42.013  25.168  27.430  1.00  0.00     0.148 A 
ATOM     77  C   UNL A   1      43.733  26.404  25.588  1.00  0.00     0.002 A 
ATOM     78  C   UNL A   1      42.525  24.449  26.356  1.00  0.00     0.091 A 
ATOM     79  F   UNL A   1      41.169  24.616  28.314  1.00  0.00    -0.205 F 
ATOM     80  C   UNL A   1      43.372  25.069  25.425  1.00  0.00     0.022 A 
BRANCH  78  81
ATOM     81  S   UNL A   1      42.218  22.692  26.143  1.00  0.00     0.127 S 
ATOM     82  O   UNL A   1      42.889  22.422  24.875  1.00  0.00    -0.237 OA
ATOM     83  O   UNL A   1      42.875  22.124  27.321  1.00  0.00    -0.237 OA
ATOM     84  O   UNL A   1      40.769  22.547  26.141  1.00  0.00    -0.744 OA
ENDBRANCH  78  81
ENDBRANCH  50  74
BRANCH  62  85
ATOM     85  C   UNL A   1      44.766  27.352  34.131  1.00  0.00     0.023 A 
ATOM     86  C   UNL A   1      45.953  28.106  34.200  1.00  0.00     0.012 A 
ATOM     87  C   UNL A   1      44.684  26.124  34.818  1.00  0.00     0.148 A 
ATOM     88  C   UNL A   1      47.050  27.636  34.920  1.00  0.00     0.002 A 
ATOM     89  C   UNL A   1      45.765  25.683  35.570  1.00  0.00     0.091 A 
ATOM     90  F   UNL A   1      43.552  25.411  34.723  1.00  0.00    -0.205 F 
ATOM     91  C   UNL A   1      46.953  26.431  35.614  1.00  0.00     0.022 A 
BRANCH  89  92
ATOM     92  S   UNL A   1      45.693  24.192  36.570  1.00  0.00     0.127 S 
ATOM     93  O   UNL A   1      47.080  23.733  36.522  1.00  0.00    -0.237 OA
ATOM     94  O   UNL A   1      45.265  24.707  37.871  1.00  0.00    -0.237 OA
ATOM     95  O   UNL A   1      44.721  23.324  35.918  1.00  0.00    -0.744 OA
ENDBRANCH  89  92
ENDBRANCH  62  85
ENDBRANCH  36  37
ENDBRANCH  28  31
ENDBRANCH  26  27
ENDBRANCH   1  26
TORSDOF 16
ENDMDL
MODEL 2
REMARK VINA RESULT:     -12.7      5.012     10.413
REMARK SMILES Nc1cc(C(=O)NCCCCNC(=O)c2ccc(-c3c4nc(c(-c5cccc(S(=O)(=O)[O-])c5F)c5ccc([nH]5)c(-c5cccc(S(=O)(=O)[O-])c5F)c5nc(c(-c6cccc(S(=O)(=O)[O-])c6F)c6ccc3[nH]6)C=C5)C=C4)cc2)ccc1N1CC2(CCOCC2)C1
REMARK SMILES IDX 10 1 9 2 8 3 7 4 5 5 6 6 4 8 2 9 3 10 80 11 79 12 78 13 1 14
REMARK SMILES IDX 81 17 82 18 89 19 83 20 84 21 88 22 85 23 87 24 86 25 11 26
REMARK SMILES IDX 12 27 13 28 14 30 15 31 16 32 77 33 17 34 76 35 18 36 19 37
REMARK SMILES IDX 20 38 70 39 21 40 75 41 69 42 71 43 22 44 74 45 68 46 67 47
REMARK SMILES IDX 23 49 55 50 35 51 54 52 36 53 39 54 53 55 72 56 37 57 38 58
REMARK SMILES IDX 52 60 73 61 40 62 24 63 25 64 33 65 26 66 28 67 34 68 27 69
REMARK SMILES IDX 29 70 30 71 31 72 32 73 56 74 57 75 65 76 58 77 60 78 66 79
REMARK SMILES IDX 59 80 61 81 62 82 63 83 64 84 41 85 42 86 50 87 43 88 45 89
REMARK SMILES IDX 51 90 44 91 46 92 47 93 48 94 49 95
REMARK H PARENT 7 7 1 15 1 16 12 29 71 48 39 59
REMARK Flexibility Score: inf
ROOT
ATOM      1  C   UNL A   1      36.181  22.960  24.298  1.00  0.00     0.023 C 
ENDROOT
BRANCH   1   2
ATOM      2  C   UNL A   1      34.673  23.235  24.312  1.00  0.00     0.023 C 
BRANCH   2   3
ATOM      3  C   UNL A   1      34.283  24.536  25.014  1.00  0.00     0.116 C 
BRANCH   3   4
ATOM      4  N   UNL A   1      33.273  24.286  26.017  1.00  0.00    -0.352 N 
ATOM      5  C   UNL A   1      32.019  24.790  26.231  1.00  0.00     0.251 C 
ATOM      6  O   UNL A   1      31.424  24.373  27.228  1.00  0.00    -0.269 OA
ATOM      7  H   UNL A   1      33.542  23.613  26.684  1.00  0.00     0.163 HD
BRANCH   5   8
ATOM      8  C   UNL A   1      31.318  25.761  25.333  1.00  0.00     0.041 A 
ATOM      9  C   UNL A   1      31.038  28.141  24.804  1.00  0.00     0.056 A 
ATOM     10  C   UNL A   1      31.633  27.114  25.545  1.00  0.00     0.041 A 
ATOM     11  C   UNL A   1      30.040  27.825  23.859  1.00  0.00     0.060 A 
ATOM     12  C   UNL A   1      29.737  26.480  23.627  1.00  0.00     0.029 A 
ATOM     13  C   UNL A   1      30.398  25.459  24.328  1.00  0.00     0.016 A 
BRANCH   9  14
ATOM     14  N   UNL A   1      31.318  29.462  25.156  1.00  0.00    -0.397 N 
ATOM     15  H   UNL A   1      32.215  29.706  25.479  1.00  0.00     0.156 HD
ATOM     16  H   UNL A   1      30.618  30.150  25.082  1.00  0.00     0.156 HD
ENDBRANCH   9  14
BRANCH  11  17
ATOM     17  N   UNL A   1      29.345  28.844  23.197  1.00  0.00    -0.369 N 
ATOM     18  C   UNL A   1      29.809  29.878  22.333  1.00  0.00     0.125 C 
ATOM     19  C   UNL A   1      27.986  28.963  22.784  1.00  0.00     0.125 C 
ATOM     20  C   UNL A   1      28.352  30.418  22.377  1.00  0.00     0.010 C 
ATOM     21  C   UNL A   1      27.765  30.924  21.063  1.00  0.00     0.039 C 
ATOM     22  C   UNL A   1      28.102  31.450  23.492  1.00  0.00     0.039 C 
ATOM     23  C   UNL A   1      28.354  32.300  20.763  1.00  0.00     0.161 C 
ATOM     24  C   UNL A   1      28.682  32.790  23.058  1.00  0.00     0.161 C 
ATOM     25  O   UNL A   1      28.082  33.212  21.831  1.00  0.00    -0.381 OA
ENDBRANCH  11  17
ENDBRANCH   5   8
ENDBRANCH   3   4
ENDBRANCH   2   3
ENDBRANCH   1   2
BRANCH   1  26
ATOM     26  C   UNL A   1      36.917  23.316  25.588  1.00  0.00     0.116 C 
BRANCH  26  27
ATOM     27  N   UNL A   1      38.012  22.408  25.895  1.00  0.00    -0.352 N 
ATOM     28  C   UNL A   1      39.223  22.694  26.482  1.00  0.00     0.251 C 
ATOM     29  H   UNL A   1      37.867  21.465  25.650  1.00  0.00     0.163 HD
ATOM     30  O   UNL A   1      40.080  21.832  26.582  1.00  0.00    -0.269 OA
BRANCH  28  31
ATOM     31  C   UNL A   1      39.482  24.073  26.948  1.00  0.00     0.039 A 
ATOM     32  C   UNL A   1      39.200  24.396  28.277  1.00  0.00     0.014 A 
ATOM     33  C   UNL A   1      40.036  25.024  26.088  1.00  0.00     0.014 A 
ATOM     34  C   UNL A   1      39.537  25.659  28.764  1.00  0.00     0.010 A 
ATOM     35  C   UNL A   1      40.428  26.260  26.592  1.00  0.00     0.010 A 
ATOM     36  C   UNL A   1      40.185  26.588  27.934  1.00  0.00    -0.014 A 
BRANCH  36  37
ATOM     37  C   UNL A   1      40.637  27.901  28.456  1.00  0.00     0.031 A 
ATOM     38  C   UNL A   1      42.104  28.186  28.618  1.00  0.00     0.074 A 
ATOM     39  C   UNL A   1      39.723  28.797  28.876  1.00  0.00     0.049 A 
ATOM     40  N   UNL A   1      42.687  29.249  29.110  1.00  0.00    -0.248 NA
ATOM     41  C   UNL A   1      43.039  27.127  28.202  1.00  0.00     0.031 C 
ATOM     42  C   UNL A   1      38.272  28.598  28.853  1.00  0.00     0.029 A 
ATOM     43  N   UNL A   1      39.878  30.042  29.431  1.00  0.00    -0.354 N 
ATOM     44  C   UNL A   1      44.049  28.975  29.098  1.00  0.00     0.074 A 
ATOM     45  C   UNL A   1      44.205  27.632  28.580  1.00  0.00     0.031 C 
ATOM     46  C   UNL A   1      37.671  29.681  29.371  1.00  0.00     0.029 A 
ATOM     47  C   UNL A   1      38.690  30.643  29.780  1.00  0.00     0.049 A 
ATOM     48  H   UNL A   1      40.756  30.466  29.568  1.00  0.00     0.167 HD
ATOM     49  C   UNL A   1      45.079  29.778  29.453  1.00  0.00     0.034 A 
ATOM     50  C   UNL A   1      38.451  31.834  30.363  1.00  0.00     0.034 A 
ATOM     51  C   UNL A   1      44.921  31.131  29.915  1.00  0.00     0.049 A 
ATOM     52  C   UNL A   1      39.613  32.732  30.691  1.00  0.00     0.074 A 
ATOM     53  C   UNL A   1      45.903  32.062  30.203  1.00  0.00     0.029 A 
ATOM     54  N   UNL A   1      43.702  31.745  30.158  1.00  0.00    -0.354 N 
ATOM     55  N   UNL A   1      40.894  32.523  30.507  1.00  0.00    -0.248 NA
ATOM     56  C   UNL A   1      39.295  34.045  31.272  1.00  0.00     0.031 C 
ATOM     57  C   UNL A   1      45.276  33.237  30.631  1.00  0.00     0.029 A 
ATOM     58  C   UNL A   1      43.905  33.041  30.598  1.00  0.00     0.049 A 
ATOM     59  H   UNL A   1      42.822  31.321  30.036  1.00  0.00     0.167 HD
ATOM     60  C   UNL A   1      41.533  33.688  30.917  1.00  0.00     0.074 A 
ATOM     61  C   UNL A   1      40.495  34.607  31.338  1.00  0.00     0.031 C 
ATOM     62  C   UNL A   1      42.860  33.965  30.958  1.00  0.00     0.034 A 
BRANCH  49  63
ATOM     63  C   UNL A   1      46.474  29.237  29.289  1.00  0.00     0.023 A 
ATOM     64  C   UNL A   1      47.103  28.604  30.381  1.00  0.00     0.012 A 
ATOM     65  C   UNL A   1      47.143  29.307  28.052  1.00  0.00     0.148 A 
ATOM     66  C   UNL A   1      48.388  28.080  30.255  1.00  0.00     0.002 A 
ATOM     67  C   UNL A   1      48.409  28.746  27.923  1.00  0.00     0.091 A 
ATOM     68  F   UNL A   1      46.540  29.934  27.031  1.00  0.00    -0.205 F 
ATOM     69  C   UNL A   1      49.037  28.142  29.025  1.00  0.00     0.022 A 
BRANCH  67  70
ATOM     70  S   UNL A   1      49.295  28.710  26.360  1.00  0.00     0.127 S 
ATOM     71  O   UNL A   1      49.805  30.078  26.279  1.00  0.00    -0.237 OA
ATOM     72  O   UNL A   1      50.317  27.692  26.607  1.00  0.00    -0.237 OA
ATOM     73  O   UNL A   1      48.310  28.344  25.352  1.00  0.00    -0.744 OA
ENDBRANCH  67  70
ENDBRANCH  49  63
BRANCH  50  74
ATOM     74  C   UNL A   1      37.047  32.278  30.593  1.00  0.00     0.023 A 
ATOM     75  C   UNL A   1      36.485  32.140  31.876  1.00  0.00     0.012 A 
ATOM     76  C   UNL A   1      36.283  32.869  29.568  1.00  0.00     0.148 A 
ATOM     77  C   UNL A   1      35.177  32.554  32.129  1.00  0.00     0.002 A 
ATOM     78  C   UNL A   1      34.998  33.328  29.840  1.00  0.00     0.091 A 
ATOM     79  F   UNL A   1      36.830  32.981  28.349  1.00  0.00    -0.205 F 
ATOM     80  C   UNL A   1      34.438  33.157  31.115  1.00  0.00     0.022 A 
BRANCH  78  81
ATOM     81  S   UNL A   1      34.026  34.233  28.630  1.00  0.00     0.127 S 
ATOM     82  O   UNL A   1      33.803  33.218  27.605  1.00  0.00    -0.237 OA
ATOM     83  O   UNL A   1      32.839  34.596  29.406  1.00  0.00    -0.237 OA
ATOM     84  O   UNL A   1      34.851  35.366  28.237  1.00  0.00    -0.744 OA
ENDBRANCH  78  81
ENDBRANCH  50  74
BRANCH  62  85
ATOM     85  C   UNL A   1      43.273  35.325  31.454  1.00  0.00     0.023 A 
ATOM     86  C   UNL A   1      43.511  35.523  32.828  1.00  0.00     0.012 A 
ATOM     87  C   UNL A   1      43.504  36.382  30.551  1.00  0.00     0.148 A 
ATOM     88  C   UNL A   1      43.946  36.759  33.301  1.00  0.00     0.002 A 
ATOM     89  C   UNL A   1      43.982  37.598  31.024  1.00  0.00     0.091 A 
ATOM     90  F   UNL A   1      43.252  36.180  29.250  1.00  0.00    -0.205 F 
ATOM     91  C   UNL A   1      44.193  37.793  32.399  1.00  0.00     0.022 A 
BRANCH  89  92
ATOM     92  S   UNL A   1      44.415  38.951  29.924  1.00  0.00     0.127 S 
ATOM     93  O   UNL A   1      45.226  38.270  28.917  1.00  0.00    -0.237 OA
ATOM     94  O   UNL A   1      43.106  39.402  29.451  1.00  0.00    -0.237 OA
ATOM     95  O   UNL A   1      45.122  39.922  30.749  1.00  0.00    -0.744 OA
ENDBRANCH  89  92
ENDBRANCH  62  85
ENDBRANCH  36  37
ENDBRANCH  28  31
ENDBRANCH  26  27
ENDBRANCH   1  26
TORSDOF 16
ENDMDL
MODEL 3
REMARK VINA RESULT:     -12.7      5.348      8.694
REMARK SMILES Nc1cc(C(=O)NCCCCNC(=O)c2ccc(-c3c4nc(c(-c5cccc(S(=O)(=O)[O-])c5F)c5ccc([nH]5)c(-c5cccc(S(=O)(=O)[O-])c5F)c5nc(c(-c6cccc(S(=O)(=O)[O-])c6F)c6ccc3[nH]6)C=C5)C=C4)cc2)ccc1N1CC2(CCOCC2)C1
REMARK SMILES IDX 10 1 9 2 8 3 7 4 5 5 6 6 4 8 2 9 3 10 80 11 79 12 78 13 1 14
REMARK SMILES IDX 81 17 82 18 89 19 83 20 84 21 88 22 85 23 87 24 86 25 11 26
REMARK SMILES IDX 12 27 13 28 14 30 15 31 16 32 77 33 17 34 76 35 18 36 19 37
REMARK SMILES IDX 20 38 70 39 21 40 75 41 69 42 71 43 22 44 74 45 68 46 67 47
REMARK SMILES IDX 23 49 55 50 35 51 54 52 36 53 39 54 53 55 72 56 37 57 38 58
REMARK SMILES IDX 52 60 73 61 40 62 24 63 25 64 33 65 26 66 28 67 34 68 27 69
REMARK SMILES IDX 29 70 30 71 31 72 32 73 56 74 57 75 65 76 58 77 60 78 66 79
REMARK SMILES IDX 59 80 61 81 62 82 63 83 64 84 41 85 42 86 50 87 43 88 45 89
REMARK SMILES IDX 51 90 44 91 46 92 47 93 48 94 49 95
REMARK H PARENT 7 7 1 15 1 16 12 29 71 48 39 59
REMARK Flexibility Score: inf
ROOT
ATOM      1  C   UNL A   1      35.672  22.376  24.265  1.00  0.00     0.023 C 
ENDROOT
BRANCH   1   2
ATOM      2  C   UNL A   1      34.862  23.676  24.213  1.00  0.00     0.023 C 
BRANCH   2   3
ATOM      3  C   UNL A   1      33.348  23.467  24.190  1.00  0.00     0.116 C 
BRANCH   3   4
ATOM      4  N   UNL A   1      32.783  23.724  25.495  1.00  0.00    -0.352 N 
ATOM      5  C   UNL A   1      31.900  24.658  25.967  1.00  0.00     0.251 C 
ATOM      6  O   UNL A   1      31.652  24.615  27.175  1.00  0.00    -0.269 OA
ATOM      7  H   UNL A   1      33.096  23.099  26.188  1.00  0.00     0.163 HD
BRANCH   5   8
ATOM      8  C   UNL A   1      31.197  25.678  25.127  1.00  0.00     0.041 A 
ATOM      9  C   UNL A   1      31.010  28.078  24.647  1.00  0.00     0.056 A 
ATOM     10  C   UNL A   1      31.595  27.009  25.336  1.00  0.00     0.041 A 
ATOM     11  C   UNL A   1      29.941  27.829  23.763  1.00  0.00     0.060 A 
ATOM     12  C   UNL A   1      29.553  26.506  23.534  1.00  0.00     0.029 A 
ATOM     13  C   UNL A   1      30.201  25.441  24.178  1.00  0.00     0.016 A 
BRANCH   9  14
ATOM     14  N   UNL A   1      31.381  29.376  24.998  1.00  0.00    -0.397 N 
ATOM     15  H   UNL A   1      31.372  30.091  24.321  1.00  0.00     0.156 HD
ATOM     16  H   UNL A   1      31.654  29.578  25.921  1.00  0.00     0.156 HD
ENDBRANCH   9  14
BRANCH  11  17
ATOM     17  N   UNL A   1      29.261  28.893  23.158  1.00  0.00    -0.369 N 
ATOM     18  C   UNL A   1      29.726  29.921  22.288  1.00  0.00     0.125 C 
ATOM     19  C   UNL A   1      27.888  29.086  22.825  1.00  0.00     0.125 C 
ATOM     20  C   UNL A   1      28.302  30.529  22.423  1.00  0.00     0.010 C 
ATOM     21  C   UNL A   1      27.668  31.088  21.154  1.00  0.00     0.039 C 
ATOM     22  C   UNL A   1      28.165  31.550  23.569  1.00  0.00     0.039 C 
ATOM     23  C   UNL A   1      28.306  32.440  20.844  1.00  0.00     0.161 C 
ATOM     24  C   UNL A   1      28.786  32.869  23.126  1.00  0.00     0.161 C 
ATOM     25  O   UNL A   1      28.140  33.343  21.941  1.00  0.00    -0.381 OA
ENDBRANCH  11  17
ENDBRANCH   5   8
ENDBRANCH   3   4
ENDBRANCH   2   3
ENDBRANCH   1   2
BRANCH   1  26
ATOM     26  C   UNL A   1      36.361  22.095  25.599  1.00  0.00     0.116 C 
BRANCH  26  27
ATOM     27  N   UNL A   1      37.310  20.993  25.535  1.00  0.00    -0.352 N 
ATOM     28  C   UNL A   1      38.648  20.995  25.856  1.00  0.00     0.251 C 
ATOM     29  H   UNL A   1      36.947  20.133  25.221  1.00  0.00     0.163 HD
ATOM     30  O   UNL A   1      39.334  20.008  25.653  1.00  0.00    -0.269 OA
BRANCH  28  31
ATOM     31  C   UNL A   1      39.247  22.229  26.409  1.00  0.00     0.039 A 
ATOM     32  C   UNL A   1      40.335  22.115  27.276  1.00  0.00     0.014 A 
ATOM     33  C   UNL A   1      38.762  23.485  26.039  1.00  0.00     0.014 A 
ATOM     34  C   UNL A   1      40.982  23.268  27.723  1.00  0.00     0.010 A 
ATOM     35  C   UNL A   1      39.446  24.630  26.434  1.00  0.00     0.010 A 
ATOM     36  C   UNL A   1      40.563  24.532  27.278  1.00  0.00    -0.014 A 
BRANCH  36  37
ATOM     37  C   UNL A   1      41.293  25.765  27.663  1.00  0.00     0.031 A 
ATOM     38  C   UNL A   1      40.598  26.841  28.450  1.00  0.00     0.074 A 
ATOM     39  C   UNL A   1      42.550  25.956  27.217  1.00  0.00     0.049 A 
ATOM     40  N   UNL A   1      41.053  28.009  28.826  1.00  0.00    -0.248 NA
ATOM     41  C   UNL A   1      39.201  26.587  28.838  1.00  0.00     0.031 C 
ATOM     42  C   UNL A   1      43.297  25.023  26.370  1.00  0.00     0.029 A 
ATOM     43  N   UNL A   1      43.411  27.010  27.389  1.00  0.00    -0.354 N 
ATOM     44  C   UNL A   1      39.992  28.641  29.462  1.00  0.00     0.074 A 
ATOM     45  C   UNL A   1      38.860  27.742  29.391  1.00  0.00     0.031 C 
ATOM     46  C   UNL A   1      44.503  25.547  26.097  1.00  0.00     0.029 A 
ATOM     47  C   UNL A   1      44.609  26.858  26.730  1.00  0.00     0.049 A 
ATOM     48  H   UNL A   1      43.192  27.802  27.932  1.00  0.00     0.167 HD
ATOM     49  C   UNL A   1      39.969  29.847  30.077  1.00  0.00     0.034 A 
ATOM     50  C   UNL A   1      45.672  27.682  26.647  1.00  0.00     0.034 A 
ATOM     51  C   UNL A   1      41.111  30.712  30.193  1.00  0.00     0.049 A 
ATOM     52  C   UNL A   1      45.642  28.989  27.392  1.00  0.00     0.074 A 
ATOM     53  C   UNL A   1      41.220  31.906  30.883  1.00  0.00     0.029 A 
ATOM     54  N   UNL A   1      42.343  30.478  29.600  1.00  0.00    -0.354 N 
ATOM     55  N   UNL A   1      44.688  29.492  28.137  1.00  0.00    -0.248 NA
ATOM     56  C   UNL A   1      46.850  29.825  27.318  1.00  0.00     0.031 C 
ATOM     57  C   UNL A   1      42.517  32.399  30.699  1.00  0.00     0.029 A 
ATOM     58  C   UNL A   1      43.218  31.506  29.904  1.00  0.00     0.049 A 
ATOM     59  H   UNL A   1      42.562  29.695  29.046  1.00  0.00     0.167 HD
ATOM     60  C   UNL A   1      45.189  30.684  28.646  1.00  0.00     0.074 A 
ATOM     61  C   UNL A   1      46.541  30.817  28.142  1.00  0.00     0.031 C 
ATOM     62  C   UNL A   1      44.579  31.595  29.443  1.00  0.00     0.034 A 
BRANCH  49  63
ATOM     63  C   UNL A   1      38.682  30.269  30.736  1.00  0.00     0.023 A 
ATOM     64  C   UNL A   1      38.464  29.951  32.092  1.00  0.00     0.012 A 
ATOM     65  C   UNL A   1      37.715  31.017  30.036  1.00  0.00     0.148 A 
ATOM     66  C   UNL A   1      37.290  30.341  32.733  1.00  0.00     0.002 A 
ATOM     67  C   UNL A   1      36.565  31.437  30.695  1.00  0.00     0.091 A 
ATOM     68  F   UNL A   1      37.928  31.289  28.741  1.00  0.00    -0.205 F 
ATOM     69  C   UNL A   1      36.345  31.091  32.039  1.00  0.00     0.022 A 
BRANCH  67  70
ATOM     70  S   UNL A   1      35.324  32.469  29.906  1.00  0.00     0.127 S 
ATOM     71  O   UNL A   1      34.366  32.664  30.994  1.00  0.00    -0.237 OA
ATOM     72  O   UNL A   1      36.093  33.663  29.551  1.00  0.00    -0.237 OA
ATOM     73  O   UNL A   1      34.836  31.706  28.767  1.00  0.00    -0.744 OA
ENDBRANCH  67  70
ENDBRANCH  49  63
BRANCH  50  74
ATOM     74  C   UNL A   1      46.886  27.252  25.897  1.00  0.00     0.023 A 
ATOM     75  C   UNL A   1      47.802  26.380  26.517  1.00  0.00     0.012 A 
ATOM     76  C   UNL A   1      47.121  27.665  24.572  1.00  0.00     0.148 A 
ATOM     77  C   UNL A   1      48.944  25.949  25.842  1.00  0.00     0.002 A 
ATOM     78  C   UNL A   1      48.233  27.191  23.885  1.00  0.00     0.091 A 
ATOM     79  F   UNL A   1      46.244  28.506  24.003  1.00  0.00    -0.205 F 
ATOM     80  C   UNL A   1      49.154  26.346  24.524  1.00  0.00     0.022 A 
BRANCH  78  81
ATOM     81  S   UNL A   1      48.512  27.545  22.147  1.00  0.00     0.127 S 
ATOM     82  O   UNL A   1      49.726  28.354  22.197  1.00  0.00    -0.237 OA
ATOM     83  O   UNL A   1      48.688  26.204  21.588  1.00  0.00    -0.237 OA
ATOM     84  O   UNL A   1      47.309  28.228  21.691  1.00  0.00    -0.744 OA
ENDBRANCH  78  81
ENDBRANCH  50  74
BRANCH  62  85
ATOM     85  C   UNL A   1      45.372  32.811  29.845  1.00  0.00     0.023 A 
ATOM     86  C   UNL A   1      46.137  32.783  31.027  1.00  0.00     0.012 A 
ATOM     87  C   UNL A   1      45.424  33.946  29.013  1.00  0.00     0.148 A 
ATOM     88  C   UNL A   1      46.921  33.877  31.390  1.00  0.00     0.002 A 
ATOM     89  C   UNL A   1      46.242  35.015  29.357  1.00  0.00     0.091 A 
ATOM     90  F   UNL A   1      44.672  33.961  27.902  1.00  0.00    -0.205 F 
ATOM     91  C   UNL A   1      46.983  34.988  30.550  1.00  0.00     0.022 A 
BRANCH  89  92
ATOM     92  S   UNL A   1      46.454  36.443  28.288  1.00  0.00     0.127 S 
ATOM     93  O   UNL A   1      45.112  37.023  28.294  1.00  0.00    -0.237 OA
ATOM     94  O   UNL A   1      47.461  37.226  29.007  1.00  0.00    -0.237 OA
ATOM     95  O   UNL A   1      46.906  35.917  27.006  1.00  0.00    -0.744 OA
ENDBRANCH  89  92
ENDBRANCH  62  85
ENDBRANCH  36  37
ENDBRANCH  28  31
ENDBRANCH  26  27
ENDBRANCH   1  26
TORSDOF 16
ENDMDL
