MODEL 1
REMARK VINA RESULT:     -11.8      0.000      0.000
REMARK SMILES C[C@@H]1C[N@@H+](Cc2cccc(C(=O)NCCCCNC(=O)c3ccc(-c4c5nc(c(-c6cccc(S(=O)(=O)[O-])c6F)c6ccc([nH]6)c(-c6cccc(S(=O)(=O)[O-])c6F)c6nc(c(-c7cccc(S(=O)(=O)[O-])c7F)c7ccc4[nH]7)C=C6)C=C5)cc3)c2)CCN1C(=O)OC(C)(C)C
REMARK SMILES IDX 14 1 13 2 11 3 12 4 10 6 6 7 7 8 84 9 8 10 9 11 5 12 4 13
REMARK SMILES IDX 1 14 2 15 3 16 87 17 86 18 85 19 88 21 89 22 90 23 91 24
REMARK SMILES IDX 92 25 93 26 94 27 15 28 16 29 17 30 18 31 19 32 20 34 21 35
REMARK SMILES IDX 22 36 83 37 23 38 82 39 24 40 25 41 26 42 76 43 27 44 81 45
REMARK SMILES IDX 75 46 77 47 28 48 80 49 74 50 73 51 29 53 61 54 41 55 60 56
REMARK SMILES IDX 42 57 45 58 59 59 78 60 43 61 44 62 58 64 79 65 46 66 30 67
REMARK SMILES IDX 31 68 39 69 32 70 34 71 40 72 33 73 35 74 36 75 37 76 38 77
REMARK SMILES IDX 62 78 63 79 71 80 64 81 66 82 72 83 65 84 67 85 68 86 69 87
REMARK SMILES IDX 70 88 47 89 48 90 56 91 49 92 51 93 57 94 50 95 52 96 53 97
REMARK SMILES IDX 54 98 55 99
REMARK H PARENT 13 5 4 20 18 33 77 52 45 63
REMARK Flexibility Score: inf
ROOT
ATOM      1  C   UNL A   1      36.853  22.549  25.327  1.00  0.00     0.116 C 
ENDROOT
BRANCH   1   2
ATOM      2  N   UNL A   1      36.016  22.253  26.468  1.00  0.00    -0.352 N 
ATOM      3  C   UNL A   1      34.744  21.745  26.574  1.00  0.00     0.251 C 
ATOM      4  O   UNL A   1      34.324  21.513  27.709  1.00  0.00    -0.269 OA
ATOM      5  H   UNL A   1      36.437  22.455  27.334  1.00  0.00     0.163 HD
BRANCH   3   6
ATOM      6  C   UNL A   1      33.880  21.390  25.403  1.00  0.00     0.040 A 
ATOM      7  C   UNL A   1      32.817  21.838  23.237  1.00  0.00     0.007 A 
ATOM      8  C   UNL A   1      32.473  20.484  23.136  1.00  0.00     0.009 A 
ATOM      9  C   UNL A   1      33.417  22.288  24.434  1.00  0.00     0.023 A 
ATOM     10  C   UNL A   1      32.797  19.597  24.163  1.00  0.00     0.001 A 
ATOM     11  C   UNL A   1      33.528  20.040  25.267  1.00  0.00     0.014 A 
BRANCH   7  12
ATOM     12  C   UNL A   1      32.605  22.783  22.051  1.00  0.00     0.299 C 
BRANCH  12  13
ATOM     13  N   UNL A   1      31.871  24.057  22.312  1.00  0.00    -0.328 N 
ATOM     14  C   UNL A   1      31.485  27.389  22.125  1.00  0.00     0.037 C 
ATOM     15  C   UNL A   1      32.067  26.481  23.215  1.00  0.00     0.140 C 
ATOM     16  C   UNL A   1      32.764  25.184  22.670  1.00  0.00     0.287 C 
ATOM     17  N   UNL A   1      31.017  26.145  24.190  1.00  0.00    -0.294 N 
ATOM     18  C   UNL A   1      30.072  25.129  23.745  1.00  0.00     0.185 C 
ATOM     19  C   UNL A   1      30.847  23.875  23.352  1.00  0.00     0.284 C 
ATOM     20  H   UNL A   1      31.418  24.301  21.431  1.00  0.00     0.348 HD
BRANCH  17  21
ATOM     21  C   UNL A   1      30.914  26.664  25.466  1.00  0.00     0.410 C 
ATOM     22  O   UNL A   1      30.635  25.987  26.443  1.00  0.00    -0.224 OA
BRANCH  21  23
ATOM     23  O   UNL A   1      31.148  28.002  25.498  1.00  0.00    -0.444 OA
BRANCH  23  24
ATOM     24  C   UNL A   1      32.308  28.533  26.194  1.00  0.00     0.106 C 
ATOM     25  C   UNL A   1      31.909  29.120  27.554  1.00  0.00     0.056 C 
ATOM     26  C   UNL A   1      33.429  27.495  26.324  1.00  0.00     0.056 C 
ATOM     27  C   UNL A   1      32.807  29.676  25.296  1.00  0.00     0.056 C 
ENDBRANCH  23  24
ENDBRANCH  21  23
ENDBRANCH  17  21
ENDBRANCH  12  13
ENDBRANCH   7  12
ENDBRANCH   3   6
ENDBRANCH   1   2
BRANCH   1  28
ATOM     28  C   UNL A   1      37.098  21.302  24.476  1.00  0.00     0.023 C 
BRANCH  28  29
ATOM     29  C   UNL A   1      37.813  20.187  25.237  1.00  0.00     0.023 C 
BRANCH  29  30
ATOM     30  C   UNL A   1      39.192  20.570  25.759  1.00  0.00     0.116 C 
BRANCH  30  31
ATOM     31  N   UNL A   1      40.102  19.440  25.881  1.00  0.00    -0.352 N 
ATOM     32  C   UNL A   1      41.456  19.472  26.123  1.00  0.00     0.251 C 
ATOM     33  H   UNL A   1      39.700  18.546  25.779  1.00  0.00     0.163 HD
ATOM     34  O   UNL A   1      42.117  18.439  26.089  1.00  0.00    -0.269 OA
BRANCH  32  35
ATOM     35  C   UNL A   1      42.101  20.776  26.379  1.00  0.00     0.039 A 
ATOM     36  C   UNL A   1      42.428  21.597  25.299  1.00  0.00     0.014 A 
ATOM     37  C   UNL A   1      42.318  21.210  27.690  1.00  0.00     0.014 A 
ATOM     38  C   UNL A   1      42.933  22.876  25.538  1.00  0.00     0.010 A 
ATOM     39  C   UNL A   1      42.724  22.518  27.923  1.00  0.00     0.010 A 
ATOM     40  C   UNL A   1      43.062  23.356  26.851  1.00  0.00    -0.014 A 
BRANCH  40  41
ATOM     41  C   UNL A   1      43.589  24.719  27.125  1.00  0.00     0.031 A 
ATOM     42  C   UNL A   1      42.664  25.788  27.646  1.00  0.00     0.074 A 
ATOM     43  C   UNL A   1      44.876  25.011  26.852  1.00  0.00     0.049 A 
ATOM     44  N   UNL A   1      42.925  27.039  27.925  1.00  0.00    -0.248 NA
ATOM     45  C   UNL A   1      41.255  25.413  27.852  1.00  0.00     0.031 C 
ATOM     46  C   UNL A   1      45.851  24.088  26.268  1.00  0.00     0.029 A 
ATOM     47  N   UNL A   1      45.581  26.178  27.013  1.00  0.00    -0.354 N 
ATOM     48  C   UNL A   1      41.713  27.604  28.303  1.00  0.00     0.074 A 
ATOM     49  C   UNL A   1      40.706  26.576  28.169  1.00  0.00     0.031 C 
ATOM     50  C   UNL A   1      47.030  24.717  26.135  1.00  0.00     0.029 A 
ATOM     51  C   UNL A   1      46.889  26.095  26.596  1.00  0.00     0.049 A 
ATOM     52  H   UNL A   1      45.187  26.996  27.392  1.00  0.00     0.167 HD
ATOM     53  C   UNL A   1      41.461  28.853  28.758  1.00  0.00     0.034 A 
ATOM     54  C   UNL A   1      47.864  27.026  26.584  1.00  0.00     0.034 A 
ATOM     55  C   UNL A   1      42.470  29.862  28.927  1.00  0.00     0.049 A 
ATOM     56  C   UNL A   1      47.568  28.397  27.133  1.00  0.00     0.074 A 
ATOM     57  C   UNL A   1      42.335  31.136  29.448  1.00  0.00     0.029 A 
ATOM     58  N   UNL A   1      43.801  29.715  28.570  1.00  0.00    -0.354 N 
ATOM     59  N   UNL A   1      46.446  28.868  27.620  1.00  0.00    -0.248 NA
ATOM     60  C   UNL A   1      48.687  29.349  27.175  1.00  0.00     0.031 C 
ATOM     61  C   UNL A   1      43.580  31.771  29.376  1.00  0.00     0.029 A 
ATOM     62  C   UNL A   1      44.500  30.874  28.858  1.00  0.00     0.049 A 
ATOM     63  H   UNL A   1      44.193  28.903  28.172  1.00  0.00     0.167 HD
ATOM     64  C   UNL A   1      46.736  30.151  28.072  1.00  0.00     0.074 A 
ATOM     65  C   UNL A   1      48.142  30.375  27.812  1.00  0.00     0.031 C 
ATOM     66  C   UNL A   1      45.911  31.063  28.646  1.00  0.00     0.034 A 
BRANCH  53  67
ATOM     67  C   UNL A   1      40.041  29.182  29.146  1.00  0.00     0.023 A 
ATOM     68  C   UNL A   1      39.096  29.491  28.146  1.00  0.00     0.012 A 
ATOM     69  C   UNL A   1      39.631  29.144  30.492  1.00  0.00     0.148 A 
ATOM     70  C   UNL A   1      37.778  29.800  28.482  1.00  0.00     0.002 A 
ATOM     71  C   UNL A   1      38.304  29.400  30.815  1.00  0.00     0.091 A 
ATOM     72  F   UNL A   1      40.547  28.868  31.432  1.00  0.00    -0.205 F 
ATOM     73  C   UNL A   1      37.380  29.744  29.814  1.00  0.00     0.022 A 
BRANCH  71  74
ATOM     74  S   UNL A   1      37.670  29.268  32.491  1.00  0.00     0.127 S 
ATOM     75  O   UNL A   1      38.566  30.167  33.217  1.00  0.00    -0.237 OA
ATOM     76  O   UNL A   1      36.302  29.762  32.339  1.00  0.00    -0.237 OA
ATOM     77  O   UNL A   1      37.774  27.862  32.852  1.00  0.00    -0.744 OA
ENDBRANCH  71  74
ENDBRANCH  53  67
BRANCH  54  78
ATOM     78  C   UNL A   1      49.228  26.677  26.097  1.00  0.00     0.023 A 
ATOM     79  C   UNL A   1      50.073  25.885  26.901  1.00  0.00     0.012 A 
ATOM     80  C   UNL A   1      49.691  27.118  24.843  1.00  0.00     0.148 A 
ATOM     81  C   UNL A   1      51.367  25.574  26.483  1.00  0.00     0.002 A 
ATOM     82  C   UNL A   1      50.960  26.756  24.408  1.00  0.00     0.091 A 
ATOM     83  F   UNL A   1      48.875  27.875  24.096  1.00  0.00    -0.205 F 
ATOM     84  C   UNL A   1      51.808  26.002  25.234  1.00  0.00     0.022 A 
BRANCH  82  85
ATOM     85  S   UNL A   1      51.566  27.154  22.765  1.00  0.00     0.127 S 
ATOM     86  O   UNL A   1      51.766  28.598  22.861  1.00  0.00    -0.237 OA
ATOM     87  O   UNL A   1      52.797  26.364  22.700  1.00  0.00    -0.237 OA
ATOM     88  O   UNL A   1      50.524  26.721  21.844  1.00  0.00    -0.744 OA
ENDBRANCH  82  85
ENDBRANCH  54  78
BRANCH  66  89
ATOM     89  C   UNL A   1      46.518  32.363  29.105  1.00  0.00     0.023 A 
ATOM     90  C   UNL A   1      47.079  32.474  30.392  1.00  0.00     0.012 A 
ATOM     91  C   UNL A   1      46.581  33.462  28.227  1.00  0.00     0.148 A 
ATOM     92  C   UNL A   1      47.650  33.675  30.815  1.00  0.00     0.002 A 
ATOM     93  C   UNL A   1      47.202  34.637  28.634  1.00  0.00     0.091 A 
ATOM     94  F   UNL A   1      46.026  33.345  27.012  1.00  0.00    -0.205 F 
ATOM     95  C   UNL A   1      47.722  34.750  29.932  1.00  0.00     0.022 A 
BRANCH  93  96
ATOM     96  S   UNL A   1      47.433  36.032  27.528  1.00  0.00     0.127 S 
ATOM     97  O   UNL A   1      48.162  36.970  28.380  1.00  0.00    -0.237 OA
ATOM     98  O   UNL A   1      48.226  35.445  26.448  1.00  0.00    -0.237 OA
ATOM     99  O   UNL A   1      46.096  36.456  27.132  1.00  0.00    -0.744 OA
ENDBRANCH  93  96
ENDBRANCH  66  89
ENDBRANCH  40  41
ENDBRANCH  32  35
ENDBRANCH  30  31
ENDBRANCH  29  30
ENDBRANCH  28  29
ENDBRANCH   1  28
TORSDOF 19
ENDMDL
MODEL 2
REMARK VINA RESULT:     -11.5      2.066      2.720
REMARK SMILES C[C@@H]1C[N@@H+](Cc2cccc(C(=O)NCCCCNC(=O)c3ccc(-c4c5nc(c(-c6cccc(S(=O)(=O)[O-])c6F)c6ccc([nH]6)c(-c6cccc(S(=O)(=O)[O-])c6F)c6nc(c(-c7cccc(S(=O)(=O)[O-])c7F)c7ccc4[nH]7)C=C6)C=C5)cc3)c2)CCN1C(=O)OC(C)(C)C
REMARK SMILES IDX 14 1 13 2 11 3 12 4 10 6 6 7 7 8 84 9 8 10 9 11 5 12 4 13
REMARK SMILES IDX 1 14 2 15 3 16 87 17 86 18 85 19 88 21 89 22 90 23 91 24
REMARK SMILES IDX 92 25 93 26 94 27 15 28 16 29 17 30 18 31 19 32 20 34 21 35
REMARK SMILES IDX 22 36 83 37 23 38 82 39 24 40 25 41 26 42 76 43 27 44 81 45
REMARK SMILES IDX 75 46 77 47 28 48 80 49 74 50 73 51 29 53 61 54 41 55 60 56
REMARK SMILES IDX 42 57 45 58 59 59 78 60 43 61 44 62 58 64 79 65 46 66 30 67
REMARK SMILES IDX 31 68 39 69 32 70 34 71 40 72 33 73 35 74 36 75 37 76 38 77
REMARK SMILES IDX 62 78 63 79 71 80 64 81 66 82 72 83 65 84 67 85 68 86 69 87
REMARK SMILES IDX 70 88 47 89 48 90 56 91 49 92 51 93 57 94 50 95 52 96 53 97
REMARK SMILES IDX 54 98 55 99
REMARK H PARENT 13 5 4 20 18 33 77 52 45 63
REMARK Flexibility Score: inf
ROOT
ATOM      1  C   UNL A   1      36.869  21.617  25.396  1.00  0.00     0.116 C 
ENDROOT
BRANCH   1   2
ATOM      2  N   UNL A   1      35.916  21.623  26.483  1.00  0.00    -0.352 N 
ATOM      3  C   UNL A   1      34.542  21.607  26.507  1.00  0.00     0.251 C 
ATOM      4  O   UNL A   1      34.000  21.521  27.611  1.00  0.00    -0.269 OA
ATOM      5  H   UNL A   1      36.329  21.644  27.376  1.00  0.00     0.163 HD
BRANCH   3   6
ATOM      6  C   UNL A   1      33.679  21.609  25.282  1.00  0.00     0.040 A 
ATOM      7  C   UNL A   1      32.688  22.644  23.290  1.00  0.00     0.007 A 
ATOM      8  C   UNL A   1      32.260  21.382  22.859  1.00  0.00     0.009 A 
ATOM      9  C   UNL A   1      33.293  22.745  24.562  1.00  0.00     0.023 A 
ATOM     10  C   UNL A   1      32.507  20.250  23.636  1.00  0.00     0.001 A 
ATOM     11  C   UNL A   1      33.243  20.359  24.818  1.00  0.00     0.014 A 
BRANCH   7  12
ATOM     12  C   UNL A   1      32.561  23.862  22.372  1.00  0.00     0.299 C 
BRANCH  12  13
ATOM     13  N   UNL A   1      32.384  25.195  23.022  1.00  0.00    -0.328 N 
ATOM     14  C   UNL A   1      30.977  27.286  25.243  1.00  0.00     0.037 C 
ATOM     15  C   UNL A   1      30.664  26.986  23.772  1.00  0.00     0.140 C 
ATOM     16  C   UNL A   1      30.971  25.509  23.335  1.00  0.00     0.287 C 
ATOM     17  N   UNL A   1      31.371  27.948  22.911  1.00  0.00    -0.294 N 
ATOM     18  C   UNL A   1      32.794  27.683  22.739  1.00  0.00     0.185 C 
ATOM     19  C   UNL A   1      32.969  26.266  22.201  1.00  0.00     0.284 C 
ATOM     20  H   UNL A   1      32.883  25.140  23.910  1.00  0.00     0.348 HD
BRANCH  17  21
ATOM     21  C   UNL A   1      30.784  29.001  22.237  1.00  0.00     0.410 C 
ATOM     22  O   UNL A   1      31.398  29.994  21.881  1.00  0.00    -0.224 OA
BRANCH  21  23
ATOM     23  O   UNL A   1      29.455  28.803  22.031  1.00  0.00    -0.444 OA
BRANCH  23  24
ATOM     24  C   UNL A   1      28.483  29.772  22.506  1.00  0.00     0.106 C 
ATOM     25  C   UNL A   1      27.255  29.070  23.101  1.00  0.00     0.056 C 
ATOM     26  C   UNL A   1      29.098  30.778  23.486  1.00  0.00     0.056 C 
ATOM     27  C   UNL A   1      28.046  30.532  21.244  1.00  0.00     0.056 C 
ENDBRANCH  23  24
ENDBRANCH  21  23
ENDBRANCH  17  21
ENDBRANCH  12  13
ENDBRANCH   7  12
ENDBRANCH   3   6
ENDBRANCH   1   2
BRANCH   1  28
ATOM     28  C   UNL A   1      36.849  20.286  24.643  1.00  0.00     0.023 C 
BRANCH  28  29
ATOM     29  C   UNL A   1      38.159  19.509  24.764  1.00  0.00     0.023 C 
BRANCH  29  30
ATOM     30  C   UNL A   1      39.142  20.092  25.771  1.00  0.00     0.116 C 
BRANCH  30  31
ATOM     31  N   UNL A   1      40.256  19.206  26.075  1.00  0.00    -0.352 N 
ATOM     32  C   UNL A   1      41.524  19.557  26.478  1.00  0.00     0.251 C 
ATOM     33  H   UNL A   1      40.082  18.241  25.981  1.00  0.00     0.163 HD
ATOM     34  O   UNL A   1      42.398  18.704  26.592  1.00  0.00    -0.269 OA
BRANCH  32  35
ATOM     35  C   UNL A   1      41.821  20.982  26.729  1.00  0.00     0.039 A 
ATOM     36  C   UNL A   1      42.247  21.375  27.999  1.00  0.00     0.014 A 
ATOM     37  C   UNL A   1      41.740  21.913  25.690  1.00  0.00     0.014 A 
ATOM     38  C   UNL A   1      42.636  22.698  28.212  1.00  0.00     0.010 A 
ATOM     39  C   UNL A   1      42.224  23.201  25.880  1.00  0.00     0.010 A 
ATOM     40  C   UNL A   1      42.652  23.616  27.149  1.00  0.00    -0.014 A 
BRANCH  40  41
ATOM     41  C   UNL A   1      43.072  25.027  27.355  1.00  0.00     0.031 A 
ATOM     42  C   UNL A   1      42.122  26.004  27.996  1.00  0.00     0.074 A 
ATOM     43  C   UNL A   1      44.277  25.443  26.918  1.00  0.00     0.049 A 
ATOM     44  N   UNL A   1      42.291  27.277  28.243  1.00  0.00    -0.248 NA
ATOM     45  C   UNL A   1      40.795  25.493  28.384  1.00  0.00     0.031 C 
ATOM     46  C   UNL A   1      45.255  24.615  26.208  1.00  0.00     0.029 A 
ATOM     47  N   UNL A   1      44.877  26.675  26.989  1.00  0.00    -0.354 N 
ATOM     48  C   UNL A   1      41.087  27.723  28.778  1.00  0.00     0.074 A 
ATOM     49  C   UNL A   1      40.179  26.599  28.773  1.00  0.00     0.031 C 
ATOM     50  C   UNL A   1      46.338  25.357  25.925  1.00  0.00     0.029 A 
ATOM     51  C   UNL A   1      46.122  26.719  26.405  1.00  0.00     0.049 A 
ATOM     52  H   UNL A   1      44.457  27.454  27.419  1.00  0.00     0.167 HD
ATOM     53  C   UNL A   1      40.774  28.946  29.266  1.00  0.00     0.034 A 
ATOM     54  C   UNL A   1      46.989  27.741  26.268  1.00  0.00     0.034 A 
ATOM     55  C   UNL A   1      41.691  30.051  29.304  1.00  0.00     0.049 A 
ATOM     56  C   UNL A   1      46.632  29.081  26.856  1.00  0.00     0.074 A 
ATOM     57  C   UNL A   1      41.498  31.311  29.842  1.00  0.00     0.029 A 
ATOM     58  N   UNL A   1      42.972  30.033  28.776  1.00  0.00    -0.354 N 
ATOM     59  N   UNL A   1      45.542  29.444  27.487  1.00  0.00    -0.248 NA
ATOM     60  C   UNL A   1      47.646  30.140  26.754  1.00  0.00     0.031 C 
ATOM     61  C   UNL A   1      42.654  32.065  29.611  1.00  0.00     0.029 A 
ATOM     62  C   UNL A   1      43.583  31.259  28.974  1.00  0.00     0.049 A 
ATOM     63  H   UNL A   1      43.388  29.261  28.328  1.00  0.00     0.167 HD
ATOM     64  C   UNL A   1      45.759  30.753  27.901  1.00  0.00     0.074 A 
ATOM     65  C   UNL A   1      47.090  31.113  27.460  1.00  0.00     0.031 C 
ATOM     66  C   UNL A   1      44.929  31.584  28.580  1.00  0.00     0.034 A 
BRANCH  53  67
ATOM     67  C   UNL A   1      39.391  29.136  29.837  1.00  0.00     0.023 A 
ATOM     68  C   UNL A   1      39.109  28.696  31.147  1.00  0.00     0.012 A 
ATOM     69  C   UNL A   1      38.386  29.788  29.098  1.00  0.00     0.148 A 
ATOM     70  C   UNL A   1      37.837  28.861  31.695  1.00  0.00     0.002 A 
ATOM     71  C   UNL A   1      37.137  29.998  29.670  1.00  0.00     0.091 A 
ATOM     72  F   UNL A   1      38.665  30.183  27.847  1.00  0.00    -0.205 F 
ATOM     73  C   UNL A   1      36.855  29.521  30.961  1.00  0.00     0.022 A 
BRANCH  71  74
ATOM     74  S   UNL A   1      35.832  30.913  28.843  1.00  0.00     0.127 S 
ATOM     75  O   UNL A   1      35.148  31.541  29.973  1.00  0.00    -0.237 OA
ATOM     76  O   UNL A   1      36.593  31.837  28.002  1.00  0.00    -0.237 OA
ATOM     77  O   UNL A   1      35.049  29.928  28.112  1.00  0.00    -0.744 OA
ENDBRANCH  71  74
ENDBRANCH  53  67
BRANCH  54  78
ATOM     78  C   UNL A   1      48.306  27.524  25.606  1.00  0.00     0.023 A 
ATOM     79  C   UNL A   1      49.436  27.216  26.389  1.00  0.00     0.012 A 
ATOM     80  C   UNL A   1      48.445  27.614  24.208  1.00  0.00     0.148 A 
ATOM     81  C   UNL A   1      50.688  27.043  25.797  1.00  0.00     0.002 A 
ATOM     82  C   UNL A   1      49.682  27.384  23.619  1.00  0.00     0.091 A 
ATOM     83  F   UNL A   1      47.359  27.914  23.481  1.00  0.00    -0.205 F 
ATOM     84  C   UNL A   1      50.809  27.119  24.412  1.00  0.00     0.022 A 
BRANCH  82  85
ATOM     85  S   UNL A   1      49.908  27.336  21.838  1.00  0.00     0.127 S 
ATOM     86  O   UNL A   1      51.306  26.926  21.725  1.00  0.00    -0.237 OA
ATOM     87  O   UNL A   1      48.933  26.319  21.440  1.00  0.00    -0.237 OA
ATOM     88  O   UNL A   1      49.604  28.679  21.366  1.00  0.00    -0.744 OA
ENDBRANCH  82  85
ENDBRANCH  54  78
BRANCH  66  89
ATOM     89  C   UNL A   1      45.459  32.943  28.960  1.00  0.00     0.023 A 
ATOM     90  C   UNL A   1      45.270  34.048  28.108  1.00  0.00     0.012 A 
ATOM     91  C   UNL A   1      46.097  33.129  30.202  1.00  0.00     0.148 A 
ATOM     92  C   UNL A   1      45.753  35.307  28.463  1.00  0.00     0.002 A 
ATOM     93  C   UNL A   1      46.525  34.397  30.576  1.00  0.00     0.091 A 
ATOM     94  F   UNL A   1      46.284  32.063  30.994  1.00  0.00    -0.205 F 
ATOM     95  C   UNL A   1      46.369  35.484  29.701  1.00  0.00     0.022 A 
BRANCH  93  96
ATOM     96  S   UNL A   1      47.230  34.734  32.192  1.00  0.00     0.127 S 
ATOM     97  O   UNL A   1      48.601  34.257  32.024  1.00  0.00    -0.237 OA
ATOM     98  O   UNL A   1      47.098  36.188  32.292  1.00  0.00    -0.237 OA
ATOM     99  O   UNL A   1      46.420  33.989  33.147  1.00  0.00    -0.744 OA
ENDBRANCH  93  96
ENDBRANCH  66  89
ENDBRANCH  40  41
ENDBRANCH  32  35
ENDBRANCH  30  31
ENDBRANCH  29  30
ENDBRANCH  28  29
ENDBRANCH   1  28
TORSDOF 19
ENDMDL
MODEL 3
REMARK VINA RESULT:     -11.4      2.051      7.760
REMARK SMILES C[C@@H]1C[N@@H+](Cc2cccc(C(=O)NCCCCNC(=O)c3ccc(-c4c5nc(c(-c6cccc(S(=O)(=O)[O-])c6F)c6ccc([nH]6)c(-c6cccc(S(=O)(=O)[O-])c6F)c6nc(c(-c7cccc(S(=O)(=O)[O-])c7F)c7ccc4[nH]7)C=C6)C=C5)cc3)c2)CCN1C(=O)OC(C)(C)C
REMARK SMILES IDX 14 1 13 2 11 3 12 4 10 6 6 7 7 8 84 9 8 10 9 11 5 12 4 13
REMARK SMILES IDX 1 14 2 15 3 16 87 17 86 18 85 19 88 21 89 22 90 23 91 24
REMARK SMILES IDX 92 25 93 26 94 27 15 28 16 29 17 30 18 31 19 32 20 34 21 35
REMARK SMILES IDX 22 36 83 37 23 38 82 39 24 40 25 41 26 42 76 43 27 44 81 45
REMARK SMILES IDX 75 46 77 47 28 48 80 49 74 50 73 51 29 53 61 54 41 55 60 56
REMARK SMILES IDX 42 57 45 58 59 59 78 60 43 61 44 62 58 64 79 65 46 66 30 67
REMARK SMILES IDX 31 68 39 69 32 70 34 71 40 72 33 73 35 74 36 75 37 76 38 77
REMARK SMILES IDX 62 78 63 79 71 80 64 81 66 82 72 83 65 84 67 85 68 86 69 87
REMARK SMILES IDX 70 88 47 89 48 90 56 91 49 92 51 93 57 94 50 95 52 96 53 97
REMARK SMILES IDX 54 98 55 99
REMARK H PARENT 13 5 4 20 18 33 77 52 45 63
REMARK Flexibility Score: inf
ROOT
ATOM      1  C   UNL A   1      36.938  21.618  25.467  1.00  0.00     0.116 C 
ENDROOT
BRANCH   1   2
ATOM      2  N   UNL A   1      35.927  21.642  26.499  1.00  0.00    -0.352 N 
ATOM      3  C   UNL A   1      34.587  21.949  26.474  1.00  0.00     0.251 C 
ATOM      4  O   UNL A   1      33.953  21.784  27.518  1.00  0.00    -0.269 OA
ATOM      5  H   UNL A   1      36.260  21.391  27.390  1.00  0.00     0.163 HD
BRANCH   3   6
ATOM      6  C   UNL A   1      33.849  22.393  25.249  1.00  0.00     0.040 A 
ATOM      7  C   UNL A   1      33.310  23.984  23.459  1.00  0.00     0.007 A 
ATOM      8  C   UNL A   1      32.607  22.976  22.788  1.00  0.00     0.009 A 
ATOM      9  C   UNL A   1      33.823  23.698  24.744  1.00  0.00     0.023 A 
ATOM     10  C   UNL A   1      32.497  21.703  23.345  1.00  0.00     0.001 A 
ATOM     11  C   UNL A   1      33.145  21.405  24.546  1.00  0.00     0.014 A 
BRANCH   7  12
ATOM     12  C   UNL A   1      33.570  25.333  22.784  1.00  0.00     0.299 C 
BRANCH  12  13
ATOM     13  N   UNL A   1      33.021  26.551  23.451  1.00  0.00    -0.328 N 
ATOM     14  C   UNL A   1      31.637  28.189  26.038  1.00  0.00     0.037 C 
ATOM     15  C   UNL A   1      31.029  27.528  24.795  1.00  0.00     0.140 C 
ATOM     16  C   UNL A   1      31.822  26.276  24.276  1.00  0.00     0.287 C 
ATOM     17  N   UNL A   1      30.871  28.531  23.730  1.00  0.00    -0.294 N 
ATOM     18  C   UNL A   1      32.103  28.880  23.032  1.00  0.00     0.185 C 
ATOM     19  C   UNL A   1      32.726  27.606  22.469  1.00  0.00     0.284 C 
ATOM     20  H   UNL A   1      33.753  26.875  24.084  1.00  0.00     0.348 HD
BRANCH  17  21
ATOM     21  C   UNL A   1      29.674  29.090  23.327  1.00  0.00     0.410 C 
ATOM     22  O   UNL A   1      28.786  28.451  22.785  1.00  0.00    -0.224 OA
BRANCH  21  23
ATOM     23  O   UNL A   1      29.611  30.420  23.595  1.00  0.00    -0.444 OA
BRANCH  23  24
ATOM     24  C   UNL A   1      28.681  31.275  22.877  1.00  0.00     0.106 C 
ATOM     25  C   UNL A   1      29.146  32.736  22.907  1.00  0.00     0.056 C 
ATOM     26  C   UNL A   1      28.429  30.782  21.447  1.00  0.00     0.056 C 
ATOM     27  C   UNL A   1      27.367  31.164  23.666  1.00  0.00     0.056 C 
ENDBRANCH  23  24
ENDBRANCH  21  23
ENDBRANCH  17  21
ENDBRANCH  12  13
ENDBRANCH   7  12
ENDBRANCH   3   6
ENDBRANCH   1   2
BRANCH   1  28
ATOM     28  C   UNL A   1      36.903  20.307  24.680  1.00  0.00     0.023 C 
BRANCH  28  29
ATOM     29  C   UNL A   1      38.101  19.403  24.965  1.00  0.00     0.023 C 
BRANCH  29  30
ATOM     30  C   UNL A   1      39.176  20.046  25.833  1.00  0.00     0.116 C 
BRANCH  30  31
ATOM     31  N   UNL A   1      40.393  19.253  25.932  1.00  0.00    -0.352 N 
ATOM     32  C   UNL A   1      41.655  19.686  26.267  1.00  0.00     0.251 C 
ATOM     33  H   UNL A   1      40.302  18.292  25.737  1.00  0.00     0.163 HD
ATOM     34  O   UNL A   1      42.612  18.923  26.202  1.00  0.00    -0.269 OA
BRANCH  32  35
ATOM     35  C   UNL A   1      41.839  21.098  26.663  1.00  0.00     0.039 A 
ATOM     36  C   UNL A   1      42.028  21.407  28.011  1.00  0.00     0.014 A 
ATOM     37  C   UNL A   1      41.890  22.102  25.692  1.00  0.00     0.014 A 
ATOM     38  C   UNL A   1      42.314  22.722  28.379  1.00  0.00     0.010 A 
ATOM     39  C   UNL A   1      42.275  23.387  26.052  1.00  0.00     0.010 A 
ATOM     40  C   UNL A   1      42.465  23.719  27.401  1.00  0.00    -0.014 A 
BRANCH  40  41
ATOM     41  C   UNL A   1      42.778  25.123  27.774  1.00  0.00     0.031 A 
ATOM     42  C   UNL A   1      44.194  25.627  27.667  1.00  0.00     0.074 A 
ATOM     43  C   UNL A   1      41.810  25.924  28.260  1.00  0.00     0.049 A 
ATOM     44  N   UNL A   1      44.674  26.807  27.963  1.00  0.00    -0.248 NA
ATOM     45  C   UNL A   1      45.212  24.672  27.195  1.00  0.00     0.031 C 
ATOM     46  C   UNL A   1      40.418  25.531  28.489  1.00  0.00     0.029 A 
ATOM     47  N   UNL A   1      41.855  27.234  28.668  1.00  0.00    -0.354 N 
ATOM     48  C   UNL A   1      46.045  26.724  27.748  1.00  0.00     0.074 A 
ATOM     49  C   UNL A   1      46.329  25.365  27.347  1.00  0.00     0.031 C 
ATOM     50  C   UNL A   1      39.738  26.580  28.980  1.00  0.00     0.029 A 
ATOM     51  C   UNL A   1      40.650  27.711  29.129  1.00  0.00     0.049 A 
ATOM     52  H   UNL A   1      42.672  27.781  28.633  1.00  0.00     0.167 HD
ATOM     53  C   UNL A   1      46.981  27.697  27.839  1.00  0.00     0.034 A 
ATOM     54  C   UNL A   1      40.318  28.921  29.620  1.00  0.00     0.034 A 
ATOM     55  C   UNL A   1      46.689  29.057  28.202  1.00  0.00     0.049 A 
ATOM     56  C   UNL A   1      41.369  29.999  29.671  1.00  0.00     0.074 A 
ATOM     57  C   UNL A   1      47.551  30.138  28.254  1.00  0.00     0.029 A 
ATOM     58  N   UNL A   1      45.441  29.521  28.584  1.00  0.00    -0.354 N 
ATOM     59  N   UNL A   1      42.632  29.939  29.327  1.00  0.00    -0.248 NA
ATOM     60  C   UNL A   1      40.936  31.324  30.135  1.00  0.00     0.031 C 
ATOM     61  C   UNL A   1      46.829  31.251  28.698  1.00  0.00     0.029 A 
ATOM     62  C   UNL A   1      45.507  30.873  28.874  1.00  0.00     0.049 A 
ATOM     63  H   UNL A   1      44.625  28.972  28.639  1.00  0.00     0.167 HD
ATOM     64  C   UNL A   1      43.131  31.227  29.483  1.00  0.00     0.074 A 
ATOM     65  C   UNL A   1      42.029  32.047  29.941  1.00  0.00     0.031 C 
ATOM     66  C   UNL A   1      44.390  31.688  29.273  1.00  0.00     0.034 A 
BRANCH  53  67
ATOM     67  C   UNL A   1      48.404  27.332  27.497  1.00  0.00     0.023 A 
ATOM     68  C   UNL A   1      49.221  26.718  28.469  1.00  0.00     0.012 A 
ATOM     69  C   UNL A   1      48.918  27.555  26.206  1.00  0.00     0.148 A 
ATOM     70  C   UNL A   1      50.540  26.374  28.176  1.00  0.00     0.002 A 
ATOM     71  C   UNL A   1      50.215  27.159  25.904  1.00  0.00     0.091 A 
ATOM     72  F   UNL A   1      48.134  28.157  25.300  1.00  0.00    -0.205 F 
ATOM     73  C   UNL A   1      51.033  26.584  26.891  1.00  0.00     0.022 A 
BRANCH  71  74
ATOM     74  S   UNL A   1      50.916  27.306  24.257  1.00  0.00     0.127 S 
ATOM     75  O   UNL A   1      50.985  28.758  24.093  1.00  0.00    -0.237 OA
ATOM     76  O   UNL A   1      52.213  26.649  24.417  1.00  0.00    -0.237 OA
ATOM     77  O   UNL A   1      49.993  26.622  23.363  1.00  0.00    -0.744 OA
ENDBRANCH  71  74
ENDBRANCH  53  67
BRANCH  54  78
ATOM     78  C   UNL A   1      38.915  29.203  30.037  1.00  0.00     0.023 A 
ATOM     79  C   UNL A   1      38.500  28.878  31.344  1.00  0.00     0.012 A 
ATOM     80  C   UNL A   1      37.994  29.796  29.153  1.00  0.00     0.148 A 
ATOM     81  C   UNL A   1      37.183  29.099  31.749  1.00  0.00     0.002 A 
ATOM     82  C   UNL A   1      36.700  30.066  29.581  1.00  0.00     0.091 A 
ATOM     83  F   UNL A   1      38.408  30.092  27.912  1.00  0.00    -0.205 F 
ATOM     84  C   UNL A   1      36.286  29.700  30.870  1.00  0.00     0.022 A 
BRANCH  82  85
ATOM     85  S   UNL A   1      35.514  30.951  28.563  1.00  0.00     0.127 S 
ATOM     86  O   UNL A   1      34.838  31.789  29.550  1.00  0.00    -0.237 OA
ATOM     87  O   UNL A   1      36.392  31.673  27.639  1.00  0.00    -0.237 OA
ATOM     88  O   UNL A   1      34.692  29.927  27.934  1.00  0.00    -0.744 OA
ENDBRANCH  82  85
ENDBRANCH  54  78
BRANCH  66  89
ATOM     89  C   UNL A   1      44.633  33.164  29.458  1.00  0.00     0.023 A 
ATOM     90  C   UNL A   1      45.057  33.667  30.704  1.00  0.00     0.012 A 
ATOM     91  C   UNL A   1      44.493  34.045  28.369  1.00  0.00     0.148 A 
ATOM     92  C   UNL A   1      45.290  35.032  30.874  1.00  0.00     0.002 A 
ATOM     93  C   UNL A   1      44.783  35.394  28.529  1.00  0.00     0.091 A 
ATOM     94  F   UNL A   1      44.071  33.552  27.195  1.00  0.00    -0.205 F 
ATOM     95  C   UNL A   1      45.165  35.892  29.784  1.00  0.00     0.022 A 
BRANCH  93  96
ATOM     96  S   UNL A   1      44.750  36.553  27.157  1.00  0.00     0.127 S 
ATOM     97  O   UNL A   1      45.231  37.778  27.791  1.00  0.00    -0.237 OA
ATOM     98  O   UNL A   1      45.689  35.944  26.215  1.00  0.00    -0.237 OA
ATOM     99  O   UNL A   1      43.369  36.587  26.694  1.00  0.00    -0.744 OA
ENDBRANCH  93  96
ENDBRANCH  66  89
ENDBRANCH  40  41
ENDBRANCH  32  35
ENDBRANCH  30  31
ENDBRANCH  29  30
ENDBRANCH  28  29
ENDBRANCH   1  28
TORSDOF 19
ENDMDL
