MODEL 1
REMARK VINA RESULT:     -12.2      0.000      0.000
REMARK SMILES O=C(NCCCCNC(=O)[C@@H]1CN(c2nc(-c3ccccc3)no2)CC[NH2+]1)c1ccc(-c2c3nc(c(-c4cccc(S(=O)(=O)[O-])c4F)c4ccc([nH]4)c(-c4cccc(S(=O)(=O)[O-])c4F)c4nc(c(-c5cccc(S(=O)(=O)[O-])c5F)c5ccc2[nH]5)C=C4)C=C3)cc1
REMARK SMILES IDX 5 1 4 2 3 3 1 4 2 5 28 7 29 8 90 9 30 10 89 11 31 12 32 13
REMARK SMILES IDX 33 14 83 15 34 16 88 17 82 18 84 19 35 20 87 21 81 22 80 23
REMARK SMILES IDX 36 25 68 26 48 27 67 28 49 29 52 30 66 31 85 32 50 33 51 34
REMARK SMILES IDX 65 36 86 37 53 38 37 39 38 40 46 41 39 42 41 43 47 44 40 45
REMARK SMILES IDX 42 46 43 47 44 48 45 49 69 50 70 51 78 52 71 53 73 54 79 55
REMARK SMILES IDX 72 56 74 57 75 58 76 59 77 60 54 61 55 62 63 63 56 64 58 65
REMARK SMILES IDX 64 66 57 67 59 68 60 69 61 70 62 71 6 72 7 73 8 74 9 75
REMARK SMILES IDX 10 77 11 78 12 79 27 80 13 81 26 82 25 85 14 86 15 87 24 88
REMARK SMILES IDX 16 89 23 90 17 91 18 92 22 93 19 94 21 95 20 96
REMARK H PARENT 3 6 84 24 52 35 8 76 27 83 27 84
REMARK Flexibility Score: inf
ROOT
ATOM      1  C   UNL A   1      37.753  19.501  24.997  1.00  0.00     0.023 C 
ENDROOT
BRANCH   1   2
ATOM      2  C   UNL A   1      38.904  20.131  25.776  1.00  0.00     0.116 C 
BRANCH   2   3
ATOM      3  N   UNL A   1      40.076  19.273  25.860  1.00  0.00    -0.352 N 
ATOM      4  O   UNL A   1      42.265  18.771  26.042  1.00  0.00    -0.269 OA
ATOM      5  C   UNL A   1      41.378  19.616  26.126  1.00  0.00     0.251 C 
ATOM      6  H   UNL A   1      39.912  18.315  25.705  1.00  0.00     0.163 HD
BRANCH   5   7
ATOM      7  C   UNL A   1      41.694  21.013  26.476  1.00  0.00     0.039 A 
ATOM      8  C   UNL A   1      41.804  21.985  25.476  1.00  0.00     0.014 A 
ATOM      9  C   UNL A   1      41.921  21.336  27.814  1.00  0.00     0.014 A 
ATOM     10  C   UNL A   1      42.264  23.256  25.802  1.00  0.00     0.010 A 
ATOM     11  C   UNL A   1      42.319  22.630  28.146  1.00  0.00     0.010 A 
ATOM     12  C   UNL A   1      42.524  23.588  27.140  1.00  0.00    -0.014 A 
BRANCH  12  13
ATOM     13  C   UNL A   1      42.960  24.958  27.498  1.00  0.00     0.031 A 
ATOM     14  C   UNL A   1      41.997  25.936  28.107  1.00  0.00     0.074 A 
ATOM     15  C   UNL A   1      44.220  25.332  27.207  1.00  0.00     0.049 A 
ATOM     16  N   UNL A   1      42.177  27.199  28.390  1.00  0.00    -0.248 NA
ATOM     17  C   UNL A   1      40.652  25.433  28.430  1.00  0.00     0.031 C 
ATOM     18  C   UNL A   1      45.225  24.471  26.581  1.00  0.00     0.029 A 
ATOM     19  N   UNL A   1      44.858  26.535  27.362  1.00  0.00    -0.354 N 
ATOM     20  C   UNL A   1      40.960  27.657  28.877  1.00  0.00     0.074 A 
ATOM     21  C   UNL A   1      40.047  26.534  28.853  1.00  0.00     0.031 C 
ATOM     22  C   UNL A   1      46.347  25.179  26.386  1.00  0.00     0.029 A 
ATOM     23  C   UNL A   1      46.123  26.552  26.827  1.00  0.00     0.049 A 
ATOM     24  H   UNL A   1      44.450  27.310  27.813  1.00  0.00     0.167 HD
ATOM     25  C   UNL A   1      40.639  28.899  29.314  1.00  0.00     0.034 A 
ATOM     26  C   UNL A   1      46.995  27.565  26.670  1.00  0.00     0.034 A 
ATOM     27  C   UNL A   1      41.568  29.997  29.367  1.00  0.00     0.049 A 
ATOM     28  C   UNL A   1      46.625  28.926  27.181  1.00  0.00     0.074 A 
ATOM     29  C   UNL A   1      41.365  31.271  29.866  1.00  0.00     0.029 A 
ATOM     30  N   UNL A   1      42.870  29.954  28.893  1.00  0.00    -0.354 N 
ATOM     31  N   UNL A   1      45.514  29.311  27.761  1.00  0.00    -0.248 NA
ATOM     32  C   UNL A   1      47.634  29.986  27.047  1.00  0.00     0.031 C 
ATOM     33  C   UNL A   1      42.542  32.005  29.676  1.00  0.00     0.029 A 
ATOM     34  C   UNL A   1      43.483  31.181  29.077  1.00  0.00     0.049 A 
ATOM     35  H   UNL A   1      43.298  29.165  28.486  1.00  0.00     0.167 HD
ATOM     36  C   UNL A   1      45.697  30.648  28.090  1.00  0.00     0.074 A 
ATOM     37  C   UNL A   1      47.034  31.004  27.653  1.00  0.00     0.031 C 
ATOM     38  C   UNL A   1      44.833  31.503  28.688  1.00  0.00     0.034 A 
BRANCH  25  39
ATOM     39  C   UNL A   1      39.232  29.128  29.800  1.00  0.00     0.023 A 
ATOM     40  C   UNL A   1      38.889  28.797  31.126  1.00  0.00     0.012 A 
ATOM     41  C   UNL A   1      38.262  29.714  28.963  1.00  0.00     0.148 A 
ATOM     42  C   UNL A   1      37.596  29.013  31.603  1.00  0.00     0.002 A 
ATOM     43  C   UNL A   1      36.985  29.961  29.456  1.00  0.00     0.091 A 
ATOM     44  F   UNL A   1      38.594  29.998  27.696  1.00  0.00    -0.205 F 
ATOM     45  C   UNL A   1      36.647  29.603  30.771  1.00  0.00     0.022 A 
BRANCH  43  46
ATOM     46  S   UNL A   1      35.728  30.785  28.472  1.00  0.00     0.127 S 
ATOM     47  O   UNL A   1      35.157  29.667  27.724  1.00  0.00    -0.237 OA
ATOM     48  O   UNL A   1      34.843  31.346  29.495  1.00  0.00    -0.237 OA
ATOM     49  O   UNL A   1      36.439  31.781  27.684  1.00  0.00    -0.744 OA
ENDBRANCH  43  46
ENDBRANCH  25  39
BRANCH  26  50
ATOM     50  C   UNL A   1      48.311  27.291  26.032  1.00  0.00     0.023 A 
ATOM     51  C   UNL A   1      49.332  26.682  26.785  1.00  0.00     0.012 A 
ATOM     52  C   UNL A   1      48.511  27.523  24.656  1.00  0.00     0.148 A 
ATOM     53  C   UNL A   1      50.535  26.318  26.180  1.00  0.00     0.002 A 
ATOM     54  C   UNL A   1      49.689  27.106  24.049  1.00  0.00     0.091 A 
ATOM     55  F   UNL A   1      47.525  28.109  23.961  1.00  0.00    -0.205 F 
ATOM     56  C   UNL A   1      50.708  26.515  24.812  1.00  0.00     0.022 A 
BRANCH  54  57
ATOM     57  S   UNL A   1      49.939  27.181  22.271  1.00  0.00     0.127 S 
ATOM     58  O   UNL A   1      48.748  26.497  21.773  1.00  0.00    -0.237 OA
ATOM     59  O   UNL A   1      49.965  28.625  22.032  1.00  0.00    -0.237 OA
ATOM     60  O   UNL A   1      51.205  26.507  22.022  1.00  0.00    -0.744 OA
ENDBRANCH  54  57
ENDBRANCH  26  50
BRANCH  38  61
ATOM     61  C   UNL A   1      45.305  32.908  28.948  1.00  0.00     0.023 A 
ATOM     62  C   UNL A   1      45.977  33.207  30.149  1.00  0.00     0.012 A 
ATOM     63  C   UNL A   1      45.178  33.900  27.956  1.00  0.00     0.148 A 
ATOM     64  C   UNL A   1      46.505  34.479  30.364  1.00  0.00     0.002 A 
ATOM     65  C   UNL A   1      45.744  35.152  28.160  1.00  0.00     0.091 A 
ATOM     66  F   UNL A   1      44.517  33.596  26.829  1.00  0.00    -0.205 F 
ATOM     67  C   UNL A   1      46.401  35.446  29.366  1.00  0.00     0.022 A 
BRANCH  65  68
ATOM     68  S   UNL A   1      45.742  36.428  26.895  1.00  0.00     0.127 S 
ATOM     69  O   UNL A   1      44.334  36.824  26.874  1.00  0.00    -0.237 OA
ATOM     70  O   UNL A   1      46.647  37.428  27.461  1.00  0.00    -0.237 OA
ATOM     71  O   UNL A   1      46.228  35.791  25.679  1.00  0.00    -0.744 OA
ENDBRANCH  65  68
ENDBRANCH  38  61
ENDBRANCH  12  13
ENDBRANCH   5   7
ENDBRANCH   2   3
ENDBRANCH   1   2
BRANCH   1  72
ATOM     72  C   UNL A   1      36.465  20.322  24.961  1.00  0.00     0.023 C 
BRANCH  72  73
ATOM     73  C   UNL A   1      36.569  21.684  25.640  1.00  0.00     0.116 C 
BRANCH  73  74
ATOM     74  N   UNL A   1      35.470  21.910  26.562  1.00  0.00    -0.351 N 
ATOM     75  C   UNL A   1      34.258  22.515  26.472  1.00  0.00     0.280 C 
ATOM     76  H   UNL A   1      35.643  21.538  27.457  1.00  0.00     0.163 HD
ATOM     77  O   UNL A   1      33.638  22.605  27.542  1.00  0.00    -0.268 OA
BRANCH  75  78
ATOM     78  C   UNL A   1      33.570  22.996  25.177  1.00  0.00     0.292 C 
ATOM     79  C   UNL A   1      32.239  23.669  25.607  1.00  0.00     0.197 C 
ATOM     80  N   UNL A   1      33.363  21.942  24.143  1.00  0.00    -0.333 N 
ATOM     81  N   UNL A   1      31.406  24.042  24.454  1.00  0.00    -0.312 N 
ATOM     82  C   UNL A   1      32.661  22.532  22.985  1.00  0.00     0.283 C 
ATOM     83  H   UNL A   1      32.801  21.186  24.533  1.00  0.00     0.347 HD
ATOM     84  H   UNL A   1      34.265  21.571  23.844  1.00  0.00     0.347 HD
ATOM     85  C   UNL A   1      31.264  23.052  23.390  1.00  0.00     0.183 C 
BRANCH  81  86
ATOM     86  C   UNL A   1      31.192  25.341  24.169  1.00  0.00     0.324 A 
ATOM     87  N   UNL A   1      30.104  25.939  23.752  1.00  0.00    -0.171 NA
ATOM     88  O   UNL A   1      32.239  26.207  24.343  1.00  0.00    -0.315 OA
ATOM     89  C   UNL A   1      30.487  27.256  23.713  1.00  0.00     0.204 A 
ATOM     90  N   UNL A   1      31.770  27.479  24.028  1.00  0.00    -0.055 NA
BRANCH  89  91
ATOM     91  C   UNL A   1      29.550  28.330  23.472  1.00  0.00     0.023 A 
ATOM     92  C   UNL A   1      29.959  29.665  23.544  1.00  0.00     0.012 A 
ATOM     93  C   UNL A   1      28.208  28.024  23.207  1.00  0.00     0.012 A 
ATOM     94  C   UNL A   1      29.028  30.688  23.357  1.00  0.00     0.001 A 
ATOM     95  C   UNL A   1      27.280  29.049  23.028  1.00  0.00     0.001 A 
ATOM     96  C   UNL A   1      27.690  30.380  23.105  1.00  0.00     0.000 A 
ENDBRANCH  89  91
ENDBRANCH  81  86
ENDBRANCH  75  78
ENDBRANCH  73  74
ENDBRANCH  72  73
ENDBRANCH   1  72
TORSDOF 16
ENDMDL
MODEL 2
REMARK VINA RESULT:     -12.2      6.452     11.649
REMARK SMILES O=C(NCCCCNC(=O)[C@@H]1CN(c2nc(-c3ccccc3)no2)CC[NH2+]1)c1ccc(-c2c3nc(c(-c4cccc(S(=O)(=O)[O-])c4F)c4ccc([nH]4)c(-c4cccc(S(=O)(=O)[O-])c4F)c4nc(c(-c5cccc(S(=O)(=O)[O-])c5F)c5ccc2[nH]5)C=C4)C=C3)cc1
REMARK SMILES IDX 5 1 4 2 3 3 1 4 2 5 28 7 29 8 90 9 30 10 89 11 31 12 32 13
REMARK SMILES IDX 33 14 83 15 34 16 88 17 82 18 84 19 35 20 87 21 81 22 80 23
REMARK SMILES IDX 36 25 68 26 48 27 67 28 49 29 52 30 66 31 85 32 50 33 51 34
REMARK SMILES IDX 65 36 86 37 53 38 37 39 38 40 46 41 39 42 41 43 47 44 40 45
REMARK SMILES IDX 42 46 43 47 44 48 45 49 69 50 70 51 78 52 71 53 73 54 79 55
REMARK SMILES IDX 72 56 74 57 75 58 76 59 77 60 54 61 55 62 63 63 56 64 58 65
REMARK SMILES IDX 64 66 57 67 59 68 60 69 61 70 62 71 6 72 7 73 8 74 9 75
REMARK SMILES IDX 10 77 11 78 12 79 27 80 13 81 26 82 25 85 14 86 15 87 24 88
REMARK SMILES IDX 16 89 23 90 17 91 18 92 22 93 19 94 21 95 20 96
REMARK H PARENT 3 6 84 24 52 35 8 76 27 83 27 84
REMARK Flexibility Score: inf
ROOT
ATOM      1  C   UNL A   1      33.346  31.880  27.969  1.00  0.00     0.023 C 
ENDROOT
BRANCH   1   2
ATOM      2  C   UNL A   1      33.463  33.230  27.267  1.00  0.00     0.116 C 
BRANCH   2   3
ATOM      3  N   UNL A   1      32.842  34.317  28.009  1.00  0.00    -0.352 N 
ATOM      4  O   UNL A   1      32.479  35.681  29.766  1.00  0.00    -0.269 OA
ATOM      5  C   UNL A   1      33.190  34.835  29.232  1.00  0.00     0.251 C 
ATOM      6  H   UNL A   1      32.066  34.738  27.574  1.00  0.00     0.163 HD
BRANCH   5   7
ATOM      7  C   UNL A   1      34.404  34.335  29.903  1.00  0.00     0.039 A 
ATOM      8  C   UNL A   1      35.669  34.624  29.381  1.00  0.00     0.014 A 
ATOM      9  C   UNL A   1      34.266  33.538  31.039  1.00  0.00     0.014 A 
ATOM     10  C   UNL A   1      36.793  34.011  29.925  1.00  0.00     0.010 A 
ATOM     11  C   UNL A   1      35.400  32.977  31.622  1.00  0.00     0.010 A 
ATOM     12  C   UNL A   1      36.666  33.184  31.051  1.00  0.00    -0.014 A 
BRANCH  12  13
ATOM     13  C   UNL A   1      37.867  32.574  31.669  1.00  0.00     0.031 A 
ATOM     14  C   UNL A   1      38.577  31.432  31.001  1.00  0.00     0.074 A 
ATOM     15  C   UNL A   1      38.271  33.019  32.873  1.00  0.00     0.049 A 
ATOM     16  N   UNL A   1      39.578  30.716  31.442  1.00  0.00    -0.248 NA
ATOM     17  C   UNL A   1      38.094  31.035  29.669  1.00  0.00     0.031 C 
ATOM     18  C   UNL A   1      37.629  34.099  33.626  1.00  0.00     0.029 A 
ATOM     19  N   UNL A   1      39.288  32.600  33.690  1.00  0.00    -0.354 N 
ATOM     20  C   UNL A   1      39.815  29.754  30.470  1.00  0.00     0.074 A 
ATOM     21  C   UNL A   1      38.853  29.978  29.411  1.00  0.00     0.031 C 
ATOM     22  C   UNL A   1      38.254  34.243  34.802  1.00  0.00     0.029 A 
ATOM     23  C   UNL A   1      39.306  33.237  34.906  1.00  0.00     0.049 A 
ATOM     24  H   UNL A   1      39.943  31.910  33.430  1.00  0.00     0.167 HD
ATOM     25  C   UNL A   1      40.756  28.779  30.458  1.00  0.00     0.034 A 
ATOM     26  C   UNL A   1      40.056  33.014  36.002  1.00  0.00     0.034 A 
ATOM     27  C   UNL A   1      41.730  28.590  31.500  1.00  0.00     0.049 A 
ATOM     28  C   UNL A   1      41.106  31.943  35.958  1.00  0.00     0.074 A 
ATOM     29  C   UNL A   1      42.775  27.686  31.547  1.00  0.00     0.029 A 
ATOM     30  N   UNL A   1      41.771  29.312  32.684  1.00  0.00    -0.354 N 
ATOM     31  N   UNL A   1      41.404  31.127  34.976  1.00  0.00    -0.248 NA
ATOM     32  C   UNL A   1      41.943  31.780  37.153  1.00  0.00     0.031 C 
ATOM     33  C   UNL A   1      43.436  27.848  32.770  1.00  0.00     0.029 A 
ATOM     34  C   UNL A   1      42.815  28.867  33.475  1.00  0.00     0.049 A 
ATOM     35  H   UNL A   1      41.147  30.035  32.927  1.00  0.00     0.167 HD
ATOM     36  C   UNL A   1      42.482  30.373  35.420  1.00  0.00     0.074 A 
ATOM     37  C   UNL A   1      42.792  30.838  36.758  1.00  0.00     0.031 C 
ATOM     38  C   UNL A   1      43.146  29.379  34.781  1.00  0.00     0.034 A 
BRANCH  25  39
ATOM     39  C   UNL A   1      40.799  27.861  29.264  1.00  0.00     0.023 A 
ATOM     40  C   UNL A   1      39.954  26.733  29.222  1.00  0.00     0.012 A 
ATOM     41  C   UNL A   1      41.635  28.137  28.165  1.00  0.00     0.148 A 
ATOM     42  C   UNL A   1      39.966  25.876  28.121  1.00  0.00     0.002 A 
ATOM     43  C   UNL A   1      41.614  27.299  27.055  1.00  0.00     0.091 A 
ATOM     44  F   UNL A   1      42.452  29.197  28.231  1.00  0.00    -0.205 F 
ATOM     45  C   UNL A   1      40.788  26.164  27.036  1.00  0.00     0.022 A 
BRANCH  43  46
ATOM     46  S   UNL A   1      42.589  27.642  25.585  1.00  0.00     0.127 S 
ATOM     47  O   UNL A   1      43.943  27.693  26.133  1.00  0.00    -0.237 OA
ATOM     48  O   UNL A   1      42.317  26.474  24.746  1.00  0.00    -0.237 OA
ATOM     49  O   UNL A   1      42.070  28.895  25.055  1.00  0.00    -0.744 OA
ENDBRANCH  43  46
ENDBRANCH  25  39
BRANCH  26  50
ATOM     50  C   UNL A   1      39.843  33.864  37.205  1.00  0.00     0.023 A 
ATOM     51  C   UNL A   1      40.243  35.212  37.179  1.00  0.00     0.012 A 
ATOM     52  C   UNL A   1      39.144  33.371  38.326  1.00  0.00     0.148 A 
ATOM     53  C   UNL A   1      39.957  36.055  38.254  1.00  0.00     0.002 A 
ATOM     54  C   UNL A   1      38.814  34.230  39.367  1.00  0.00     0.091 A 
ATOM     55  F   UNL A   1      38.779  32.081  38.329  1.00  0.00    -0.205 F 
ATOM     56  C   UNL A   1      39.231  35.570  39.338  1.00  0.00     0.022 A 
BRANCH  54  57
ATOM     57  S   UNL A   1      37.754  33.733  40.730  1.00  0.00     0.127 S 
ATOM     58  O   UNL A   1      37.516  35.008  41.403  1.00  0.00    -0.237 OA
ATOM     59  O   UNL A   1      36.595  33.183  40.025  1.00  0.00    -0.237 OA
ATOM     60  O   UNL A   1      38.519  32.752  41.487  1.00  0.00    -0.744 OA
ENDBRANCH  54  57
ENDBRANCH  26  50
BRANCH  38  61
ATOM     61  C   UNL A   1      44.304  28.739  35.496  1.00  0.00     0.023 A 
ATOM     62  C   UNL A   1      45.609  29.226  35.284  1.00  0.00     0.012 A 
ATOM     63  C   UNL A   1      44.085  27.731  36.455  1.00  0.00     0.148 A 
ATOM     64  C   UNL A   1      46.682  28.708  36.010  1.00  0.00     0.002 A 
ATOM     65  C   UNL A   1      45.151  27.251  37.205  1.00  0.00     0.091 A 
ATOM     66  F   UNL A   1      42.836  27.271  36.624  1.00  0.00    -0.205 F 
ATOM     67  C   UNL A   1      46.451  27.732  36.978  1.00  0.00     0.022 A 
BRANCH  65  68
ATOM     68  S   UNL A   1      44.937  26.064  38.535  1.00  0.00     0.127 S 
ATOM     69  O   UNL A   1      44.594  24.848  37.798  1.00  0.00    -0.237 OA
ATOM     70  O   UNL A   1      46.262  26.048  39.154  1.00  0.00    -0.237 OA
ATOM     71  O   UNL A   1      43.879  26.596  39.384  1.00  0.00    -0.744 OA
ENDBRANCH  65  68
ENDBRANCH  38  61
ENDBRANCH  12  13
ENDBRANCH   5   7
ENDBRANCH   2   3
ENDBRANCH   1   2
BRANCH   1  72
ATOM     72  C   UNL A   1      34.629  31.051  28.003  1.00  0.00     0.023 C 
BRANCH  72  73
ATOM     73  C   UNL A   1      34.512  29.684  27.337  1.00  0.00     0.116 C 
BRANCH  73  74
ATOM     74  N   UNL A   1      33.335  28.965  27.791  1.00  0.00    -0.351 N 
ATOM     75  C   UNL A   1      32.325  28.300  27.173  1.00  0.00     0.280 C 
ATOM     76  H   UNL A   1      33.250  28.957  28.772  1.00  0.00     0.163 HD
ATOM     77  O   UNL A   1      31.419  27.909  27.923  1.00  0.00    -0.268 OA
BRANCH  75  78
ATOM     78  C   UNL A   1      32.262  27.920  25.678  1.00  0.00     0.292 C 
ATOM     79  C   UNL A   1      33.596  27.197  25.349  1.00  0.00     0.197 C 
ATOM     80  N   UNL A   1      31.988  29.054  24.749  1.00  0.00    -0.333 N 
ATOM     81  N   UNL A   1      33.734  26.912  23.914  1.00  0.00    -0.312 N 
ATOM     82  C   UNL A   1      32.000  28.553  23.359  1.00  0.00     0.283 C 
ATOM     83  H   UNL A   1      32.708  29.767  24.860  1.00  0.00     0.347 HD
ATOM     84  H   UNL A   1      31.077  29.459  24.960  1.00  0.00     0.347 HD
ATOM     85  C   UNL A   1      33.386  27.985  22.986  1.00  0.00     0.183 C 
BRANCH  81  86
ATOM     86  C   UNL A   1      33.714  25.638  23.474  1.00  0.00     0.324 A 
ATOM     87  N   UNL A   1      33.648  24.519  24.151  1.00  0.00    -0.171 NA
ATOM     88  O   UNL A   1      33.747  25.437  22.120  1.00  0.00    -0.315 OA
ATOM     89  C   UNL A   1      33.589  23.575  23.157  1.00  0.00     0.204 A 
ATOM     90  N   UNL A   1      33.676  24.063  21.911  1.00  0.00    -0.055 NA
BRANCH  89  91
ATOM     91  C   UNL A   1      33.330  22.179  23.427  1.00  0.00     0.023 A 
ATOM     92  C   UNL A   1      32.349  21.483  22.713  1.00  0.00     0.012 A 
ATOM     93  C   UNL A   1      34.042  21.533  24.446  1.00  0.00     0.012 A 
ATOM     94  C   UNL A   1      32.078  20.150  23.023  1.00  0.00     0.001 A 
ATOM     95  C   UNL A   1      33.764  20.202  24.758  1.00  0.00     0.001 A 
ATOM     96  C   UNL A   1      32.782  19.513  24.047  1.00  0.00     0.000 A 
ENDBRANCH  89  91
ENDBRANCH  81  86
ENDBRANCH  75  78
ENDBRANCH  73  74
ENDBRANCH  72  73
ENDBRANCH   1  72
TORSDOF 16
ENDMDL
MODEL 3
REMARK VINA RESULT:     -12.1      5.282      9.105
REMARK SMILES O=C(NCCCCNC(=O)[C@@H]1CN(c2nc(-c3ccccc3)no2)CC[NH2+]1)c1ccc(-c2c3nc(c(-c4cccc(S(=O)(=O)[O-])c4F)c4ccc([nH]4)c(-c4cccc(S(=O)(=O)[O-])c4F)c4nc(c(-c5cccc(S(=O)(=O)[O-])c5F)c5ccc2[nH]5)C=C4)C=C3)cc1
REMARK SMILES IDX 5 1 4 2 3 3 1 4 2 5 28 7 29 8 90 9 30 10 89 11 31 12 32 13
REMARK SMILES IDX 33 14 83 15 34 16 88 17 82 18 84 19 35 20 87 21 81 22 80 23
REMARK SMILES IDX 36 25 68 26 48 27 67 28 49 29 52 30 66 31 85 32 50 33 51 34
REMARK SMILES IDX 65 36 86 37 53 38 37 39 38 40 46 41 39 42 41 43 47 44 40 45
REMARK SMILES IDX 42 46 43 47 44 48 45 49 69 50 70 51 78 52 71 53 73 54 79 55
REMARK SMILES IDX 72 56 74 57 75 58 76 59 77 60 54 61 55 62 63 63 56 64 58 65
REMARK SMILES IDX 64 66 57 67 59 68 60 69 61 70 62 71 6 72 7 73 8 74 9 75
REMARK SMILES IDX 10 77 11 78 12 79 27 80 13 81 26 82 25 85 14 86 15 87 24 88
REMARK SMILES IDX 16 89 23 90 17 91 18 92 22 93 19 94 21 95 20 96
REMARK H PARENT 3 6 84 24 52 35 8 76 27 83 27 84
REMARK Flexibility Score: inf
ROOT
ATOM      1  C   UNL A   1      33.030  28.124  27.270  1.00  0.00     0.023 C 
ENDROOT
BRANCH   1   2
ATOM      2  C   UNL A   1      33.895  29.046  26.416  1.00  0.00     0.116 C 
BRANCH   2   3
ATOM      3  N   UNL A   1      33.837  30.438  26.837  1.00  0.00    -0.352 N 
ATOM      4  O   UNL A   1      34.428  32.274  28.003  1.00  0.00    -0.269 OA
ATOM      5  C   UNL A   1      34.695  31.126  27.658  1.00  0.00     0.251 C 
ATOM      6  H   UNL A   1      33.077  30.956  26.486  1.00  0.00     0.163 HD
BRANCH   5   7
ATOM      7  C   UNL A   1      35.917  30.457  28.141  1.00  0.00     0.039 A 
ATOM      8  C   UNL A   1      35.908  29.758  29.352  1.00  0.00     0.014 A 
ATOM      9  C   UNL A   1      37.087  30.568  27.389  1.00  0.00     0.014 A 
ATOM     10  C   UNL A   1      37.103  29.275  29.875  1.00  0.00     0.010 A 
ATOM     11  C   UNL A   1      38.271  30.025  27.885  1.00  0.00     0.010 A 
ATOM     12  C   UNL A   1      38.293  29.404  29.144  1.00  0.00    -0.014 A 
BRANCH  12  13
ATOM     13  C   UNL A   1      39.558  28.841  29.671  1.00  0.00     0.031 A 
ATOM     14  C   UNL A   1      40.298  29.526  30.783  1.00  0.00     0.074 A 
ATOM     15  C   UNL A   1      40.067  27.739  29.089  1.00  0.00     0.049 A 
ATOM     16  N   UNL A   1      41.463  29.231  31.299  1.00  0.00    -0.248 NA
ATOM     17  C   UNL A   1      39.652  30.701  31.388  1.00  0.00     0.031 C 
ATOM     18  C   UNL A   1      39.447  27.017  27.976  1.00  0.00     0.029 A 
ATOM     19  N   UNL A   1      41.232  27.056  29.324  1.00  0.00    -0.354 N 
ATOM     20  C   UNL A   1      41.715  30.209  32.253  1.00  0.00     0.074 A 
ATOM     21  C   UNL A   1      40.579  31.106  32.247  1.00  0.00     0.031 C 
ATOM     22  C   UNL A   1      40.247  26.005  27.611  1.00  0.00     0.029 A 
ATOM     23  C   UNL A   1      41.455  26.038  28.429  1.00  0.00     0.049 A 
ATOM     24  H   UNL A   1      41.848  27.274  30.061  1.00  0.00     0.167 HD
ATOM     25  C   UNL A   1      42.791  30.338  33.066  1.00  0.00     0.034 A 
ATOM     26  C   UNL A   1      42.526  25.242  28.256  1.00  0.00     0.034 A 
ATOM     27  C   UNL A   1      43.897  29.417  33.086  1.00  0.00     0.049 A 
ATOM     28  C   UNL A   1      43.697  25.390  29.182  1.00  0.00     0.074 A 
ATOM     29  C   UNL A   1      44.996  29.413  33.925  1.00  0.00     0.029 A 
ATOM     30  N   UNL A   1      44.049  28.345  32.221  1.00  0.00    -0.354 N 
ATOM     31  N   UNL A   1      43.861  26.238  30.168  1.00  0.00    -0.248 NA
ATOM     32  C   UNL A   1      44.816  24.456  28.997  1.00  0.00     0.031 C 
ATOM     33  C   UNL A   1      45.823  28.347  33.553  1.00  0.00     0.029 A 
ATOM     34  C   UNL A   1      45.228  27.676  32.496  1.00  0.00     0.049 A 
ATOM     35  H   UNL A   1      43.411  28.095  31.513  1.00  0.00     0.167 HD
ATOM     36  C   UNL A   1      45.086  25.924  30.743  1.00  0.00     0.074 A 
ATOM     37  C   UNL A   1      45.617  24.798  29.999  1.00  0.00     0.031 C 
ATOM     38  C   UNL A   1      45.717  26.522  31.783  1.00  0.00     0.034 A 
BRANCH  25  39
ATOM     39  C   UNL A   1      42.810  31.501  34.023  1.00  0.00     0.023 A 
ATOM     40  C   UNL A   1      43.381  32.725  33.622  1.00  0.00     0.012 A 
ATOM     41  C   UNL A   1      42.222  31.399  35.299  1.00  0.00     0.148 A 
ATOM     42  C   UNL A   1      43.398  33.820  34.486  1.00  0.00     0.002 A 
ATOM     43  C   UNL A   1      42.209  32.506  36.141  1.00  0.00     0.091 A 
ATOM     44  F   UNL A   1      41.707  30.222  35.677  1.00  0.00    -0.205 F 
ATOM     45  C   UNL A   1      42.805  33.713  35.741  1.00  0.00     0.022 A 
BRANCH  43  46
ATOM     46  S   UNL A   1      41.398  32.473  37.745  1.00  0.00     0.127 S 
ATOM     47  O   UNL A   1      41.464  33.879  38.139  1.00  0.00    -0.237 OA
ATOM     48  O   UNL A   1      40.054  31.999  37.410  1.00  0.00    -0.237 OA
ATOM     49  O   UNL A   1      42.176  31.548  38.557  1.00  0.00    -0.744 OA
ENDBRANCH  43  46
ENDBRANCH  25  39
BRANCH  26  50
ATOM     50  C   UNL A   1      42.495  24.217  27.178  1.00  0.00     0.023 A 
ATOM     51  C   UNL A   1      43.163  24.468  25.965  1.00  0.00     0.012 A 
ATOM     52  C   UNL A   1      41.906  22.955  27.394  1.00  0.00     0.148 A 
ATOM     53  C   UNL A   1      43.238  23.481  24.982  1.00  0.00     0.002 A 
ATOM     54  C   UNL A   1      42.034  21.959  26.434  1.00  0.00     0.091 A 
ATOM     55  F   UNL A   1      41.270  22.742  28.555  1.00  0.00    -0.205 F 
ATOM     56  C   UNL A   1      42.689  22.225  25.221  1.00  0.00     0.022 A 
BRANCH  54  57
ATOM     57  S   UNL A   1      41.492  20.269  26.717  1.00  0.00     0.127 S 
ATOM     58  O   UNL A   1      40.049  20.440  26.871  1.00  0.00    -0.237 OA
ATOM     59  O   UNL A   1      41.905  19.610  25.477  1.00  0.00    -0.237 OA
ATOM     60  O   UNL A   1      42.205  19.819  27.904  1.00  0.00    -0.744 OA
ENDBRANCH  54  57
ENDBRANCH  26  50
BRANCH  38  61
ATOM     61  C   UNL A   1      47.041  25.957  32.217  1.00  0.00     0.023 A 
ATOM     62  C   UNL A   1      48.230  26.442  31.638  1.00  0.00     0.012 A 
ATOM     63  C   UNL A   1      47.111  25.027  33.272  1.00  0.00     0.148 A 
ATOM     64  C   UNL A   1      49.470  25.999  32.096  1.00  0.00     0.002 A 
ATOM     65  C   UNL A   1      48.350  24.622  33.752  1.00  0.00     0.091 A 
ATOM     66  F   UNL A   1      45.964  24.566  33.794  1.00  0.00    -0.205 F 
ATOM     67  C   UNL A   1      49.530  25.101  33.161  1.00  0.00     0.022 A 
BRANCH  65  68
ATOM     68  S   UNL A   1      48.526  23.543  35.177  1.00  0.00     0.127 S 
ATOM     69  O   UNL A   1      47.868  24.323  36.225  1.00  0.00    -0.237 OA
ATOM     70  O   UNL A   1      47.794  22.349  34.755  1.00  0.00    -0.237 OA
ATOM     71  O   UNL A   1      49.958  23.343  35.357  1.00  0.00    -0.744 OA
ENDBRANCH  65  68
ENDBRANCH  38  61
ENDBRANCH  12  13
ENDBRANCH   5   7
ENDBRANCH   2   3
ENDBRANCH   1   2
BRANCH   1  72
ATOM     72  C   UNL A   1      31.538  28.143  26.942  1.00  0.00     0.023 C 
BRANCH  72  73
ATOM     73  C   UNL A   1      31.024  26.873  26.271  1.00  0.00     0.116 C 
BRANCH  73  74
ATOM     74  N   UNL A   1      31.189  26.923  24.830  1.00  0.00    -0.351 N 
ATOM     75  C   UNL A   1      32.051  26.354  23.947  1.00  0.00     0.280 C 
ATOM     76  H   UNL A   1      30.524  27.501  24.391  1.00  0.00     0.163 HD
ATOM     77  O   UNL A   1      31.936  26.746  22.777  1.00  0.00    -0.268 OA
BRANCH  75  78
ATOM     78  C   UNL A   1      33.062  25.229  24.254  1.00  0.00     0.292 C 
ATOM     79  C   UNL A   1      32.281  24.132  25.026  1.00  0.00     0.197 C 
ATOM     80  N   UNL A   1      34.291  25.663  24.977  1.00  0.00    -0.333 N 
ATOM     81  N   UNL A   1      33.162  23.061  25.515  1.00  0.00    -0.312 N 
ATOM     82  C   UNL A   1      35.140  24.483  25.239  1.00  0.00     0.283 C 
ATOM     83  H   UNL A   1      34.031  26.099  25.861  1.00  0.00     0.347 HD
ATOM     84  H   UNL A   1      34.805  26.336  24.408  1.00  0.00     0.347 HD
ATOM     85  C   UNL A   1      34.413  23.469  26.149  1.00  0.00     0.183 C 
BRANCH  81  86
ATOM     86  C   UNL A   1      33.067  21.821  24.999  1.00  0.00     0.324 A 
ATOM     87  N   UNL A   1      33.630  20.705  25.390  1.00  0.00    -0.171 NA
ATOM     88  O   UNL A   1      32.254  21.651  23.910  1.00  0.00    -0.315 OA
ATOM     89  C   UNL A   1      33.097  19.785  24.522  1.00  0.00     0.204 A 
ATOM     90  N   UNL A   1      32.285  20.297  23.587  1.00  0.00    -0.055 NA
BRANCH  89  91
ATOM     91  C   UNL A   1      33.298  18.362  24.680  1.00  0.00     0.023 A 
ATOM     92  C   UNL A   1      34.178  17.668  23.844  1.00  0.00     0.012 A 
ATOM     93  C   UNL A   1      32.568  17.669  25.654  1.00  0.00     0.012 A 
ATOM     94  C   UNL A   1      34.321  16.286  23.979  1.00  0.00     0.001 A 
ATOM     95  C   UNL A   1      32.708  16.287  25.782  1.00  0.00     0.001 A 
ATOM     96  C   UNL A   1      33.582  15.598  24.943  1.00  0.00     0.000 A 
ENDBRANCH  89  91
ENDBRANCH  81  86
ENDBRANCH  75  78
ENDBRANCH  73  74
ENDBRANCH  72  73
ENDBRANCH   1  72
TORSDOF 16
ENDMDL
