MODEL 1
REMARK VINA RESULT:     -12.1      0.000      0.000
REMARK SMILES Cc1cnn([C@H]2CC[C@@]([NH3+])(C(=O)NCCCCNC(=O)c3ccc(-c4c5nc(c(-c6cccc(S(=O)(=O)[O-])c6F)c6ccc([nH]6)c(-c6cccc(S(=O)(=O)[O-])c6F)c6nc(c(-c7cccc(S(=O)(=O)[O-])c7F)c7ccc4[nH]7)C=C6)C=C5)cc3)C2)c1
REMARK SMILES IDX 16 1 15 2 14 3 13 4 11 5 12 6 9 8 6 9 7 10 84 11 8 12 5 13
REMARK SMILES IDX 1 14 2 15 3 16 85 17 4 18 10 19 17 23 18 24 19 25 20 27
REMARK SMILES IDX 21 28 22 29 83 30 23 31 82 32 24 33 25 34 26 35 76 36 27 37
REMARK SMILES IDX 81 38 75 39 77 40 28 41 80 42 74 43 73 44 29 46 61 47 41 48
REMARK SMILES IDX 60 49 42 50 45 51 59 52 78 53 43 54 44 55 58 57 79 58 46 59
REMARK SMILES IDX 30 60 31 61 39 62 32 63 34 64 40 65 33 66 35 67 36 68 37 69
REMARK SMILES IDX 38 70 62 71 63 72 71 73 64 74 66 75 72 76 65 77 67 78 68 79
REMARK SMILES IDX 69 80 70 81 47 82 48 83 56 84 49 85 51 86 57 87 50 88 52 89
REMARK SMILES IDX 53 90 54 91 55 92
REMARK H PARENT 13 7 10 20 10 21 10 22 18 26 77 45 45 56
REMARK Flexibility Score: inf
ROOT
ATOM      1  C   UNL A   1      38.279  19.775  25.129  1.00  0.00     0.023 C 
ENDROOT
BRANCH   1   2
ATOM      2  C   UNL A   1      37.581  21.031  24.592  1.00  0.00     0.023 C 
BRANCH   2   3
ATOM      3  C   UNL A   1      36.051  21.049  24.688  1.00  0.00     0.116 C 
BRANCH   3   4
ATOM      4  N   UNL A   1      35.580  21.108  26.056  1.00  0.00    -0.351 N 
ATOM      5  C   UNL A   1      34.488  21.724  26.593  1.00  0.00     0.281 C 
ATOM      6  O   UNL A   1      34.229  21.446  27.765  1.00  0.00    -0.268 OA
ATOM      7  H   UNL A   1      36.141  20.624  26.705  1.00  0.00     0.163 HD
BRANCH   5   8
ATOM      8  C   UNL A   1      33.567  22.667  25.752  1.00  0.00     0.176 C 
ATOM      9  C   UNL A   1      32.280  21.232  24.223  1.00  0.00     0.114 C 
ATOM     10  C   UNL A   1      31.296  21.822  25.246  1.00  0.00     0.034 C 
ATOM     11  C   UNL A   1      33.456  22.224  24.277  1.00  0.00     0.106 C 
ATOM     12  C   UNL A   1      32.110  22.664  26.232  1.00  0.00     0.081 C 
BRANCH   9  13
ATOM     13  N   UNL A   1      32.576  19.825  24.441  1.00  0.00    -0.269 N 
ATOM     14  C   UNL A   1      33.880  16.502  23.736  1.00  0.00     0.048 C 
ATOM     15  C   UNL A   1      33.236  17.736  24.234  1.00  0.00    -0.013 A 
ATOM     16  C   UNL A   1      32.735  18.012  25.520  1.00  0.00     0.138 A 
ATOM     17  C   UNL A   1      33.001  18.898  23.534  1.00  0.00     0.112 A 
ATOM     18  N   UNL A   1      32.278  19.262  25.638  1.00  0.00    -0.181 NA
ENDBRANCH   9  13
BRANCH   8  19
ATOM     19  N   UNL A   1      34.156  24.025  25.820  1.00  0.00    -0.345 N 
ATOM     20  H   UNL A   1      34.883  24.115  25.111  1.00  0.00     0.345 HD
ATOM     21  H   UNL A   1      34.561  24.173  26.744  1.00  0.00     0.345 HD
ATOM     22  H   UNL A   1      33.427  24.719  25.653  1.00  0.00     0.345 HD
ENDBRANCH   8  19
ENDBRANCH   5   8
ENDBRANCH   3   4
ENDBRANCH   2   3
ENDBRANCH   1   2
BRANCH   1  23
ATOM     23  C   UNL A   1      39.403  20.051  26.117  1.00  0.00     0.116 C 
BRANCH  23  24
ATOM     24  N   UNL A   1      40.538  19.143  25.949  1.00  0.00    -0.352 N 
ATOM     25  C   UNL A   1      41.882  19.474  25.933  1.00  0.00     0.251 C 
ATOM     26  H   UNL A   1      40.321  18.190  25.836  1.00  0.00     0.163 HD
ATOM     27  O   UNL A   1      42.712  18.734  25.438  1.00  0.00    -0.269 OA
BRANCH  25  28
ATOM     28  C   UNL A   1      42.281  20.752  26.547  1.00  0.00     0.039 A 
ATOM     29  C   UNL A   1      42.798  21.797  25.775  1.00  0.00     0.014 A 
ATOM     30  C   UNL A   1      42.058  20.903  27.913  1.00  0.00     0.014 A 
ATOM     31  C   UNL A   1      43.007  23.035  26.379  1.00  0.00     0.010 A 
ATOM     32  C   UNL A   1      42.137  22.153  28.471  1.00  0.00     0.010 A 
ATOM     33  C   UNL A   1      42.652  23.212  27.724  1.00  0.00    -0.014 A 
BRANCH  33  34
ATOM     34  C   UNL A   1      42.652  24.542  28.332  1.00  0.00     0.031 A 
ATOM     35  C   UNL A   1      41.426  25.347  28.055  1.00  0.00     0.074 A 
ATOM     36  C   UNL A   1      43.549  24.886  29.282  1.00  0.00     0.049 A 
ATOM     37  N   UNL A   1      41.337  26.479  27.435  1.00  0.00    -0.248 NA
ATOM     38  C   UNL A   1      40.119  24.747  28.375  1.00  0.00     0.031 C 
ATOM     39  C   UNL A   1      44.603  24.036  29.856  1.00  0.00     0.029 A 
ATOM     40  N   UNL A   1      43.600  25.996  30.072  1.00  0.00    -0.354 N 
ATOM     41  C   UNL A   1      39.993  26.850  27.522  1.00  0.00     0.074 A 
ATOM     42  C   UNL A   1      39.278  25.660  27.886  1.00  0.00     0.031 C 
ATOM     43  C   UNL A   1      44.981  24.531  31.052  1.00  0.00     0.029 A 
ATOM     44  C   UNL A   1      44.336  25.815  31.243  1.00  0.00     0.049 A 
ATOM     45  H   UNL A   1      43.159  26.844  29.838  1.00  0.00     0.167 HD
ATOM     46  C   UNL A   1      39.630  28.163  27.583  1.00  0.00     0.034 A 
ATOM     47  C   UNL A   1      44.375  26.634  32.321  1.00  0.00     0.034 A 
ATOM     48  C   UNL A   1      40.720  29.014  27.164  1.00  0.00     0.049 A 
ATOM     49  C   UNL A   1      43.911  27.961  31.872  1.00  0.00     0.074 A 
ATOM     50  C   UNL A   1      41.478  29.165  26.021  1.00  0.00     0.029 A 
ATOM     51  N   UNL A   1      41.416  29.639  28.169  1.00  0.00    -0.354 N 
ATOM     52  N   UNL A   1      44.557  28.696  31.010  1.00  0.00    -0.248 NA
ATOM     53  C   UNL A   1      42.512  28.301  32.062  1.00  0.00     0.031 C 
ATOM     54  C   UNL A   1      42.789  29.483  26.487  1.00  0.00     0.029 A 
ATOM     55  C   UNL A   1      42.748  29.574  27.881  1.00  0.00     0.049 A 
ATOM     56  H   UNL A   1      41.019  30.063  28.964  1.00  0.00     0.167 HD
ATOM     57  C   UNL A   1      43.559  29.248  30.219  1.00  0.00     0.074 A 
ATOM     58  C   UNL A   1      42.333  29.092  31.000  1.00  0.00     0.031 C 
ATOM     59  C   UNL A   1      43.779  29.499  28.894  1.00  0.00     0.034 A 
BRANCH  46  60
ATOM     60  C   UNL A   1      38.500  28.729  28.440  1.00  0.00     0.023 A 
ATOM     61  C   UNL A   1      37.596  29.608  27.792  1.00  0.00     0.012 A 
ATOM     62  C   UNL A   1      38.455  28.718  29.853  1.00  0.00     0.148 A 
ATOM     63  C   UNL A   1      36.795  30.509  28.504  1.00  0.00     0.002 A 
ATOM     64  C   UNL A   1      37.613  29.573  30.559  1.00  0.00     0.091 A 
ATOM     65  F   UNL A   1      39.299  27.960  30.554  1.00  0.00    -0.205 F 
ATOM     66  C   UNL A   1      36.812  30.499  29.891  1.00  0.00     0.022 A 
BRANCH  64  67
ATOM     67  S   UNL A   1      37.567  29.582  32.358  1.00  0.00     0.127 S 
ATOM     68  O   UNL A   1      36.369  30.377  32.612  1.00  0.00    -0.237 OA
ATOM     69  O   UNL A   1      37.443  28.156  32.659  1.00  0.00    -0.237 OA
ATOM     70  O   UNL A   1      38.829  30.173  32.784  1.00  0.00    -0.744 OA
ENDBRANCH  64  67
ENDBRANCH  46  60
BRANCH  47  71
ATOM     71  C   UNL A   1      44.575  26.307  33.752  1.00  0.00     0.023 A 
ATOM     72  C   UNL A   1      45.871  26.341  34.306  1.00  0.00     0.012 A 
ATOM     73  C   UNL A   1      43.474  26.223  34.635  1.00  0.00     0.148 A 
ATOM     74  C   UNL A   1      46.062  26.321  35.693  1.00  0.00     0.002 A 
ATOM     75  C   UNL A   1      43.671  26.192  36.013  1.00  0.00     0.091 A 
ATOM     76  F   UNL A   1      42.236  26.261  34.125  1.00  0.00    -0.205 F 
ATOM     77  C   UNL A   1      44.964  26.255  36.546  1.00  0.00     0.022 A 
BRANCH  75  78
ATOM     78  S   UNL A   1      42.302  26.118  37.178  1.00  0.00     0.127 S 
ATOM     79  O   UNL A   1      41.754  24.785  36.916  1.00  0.00    -0.237 OA
ATOM     80  O   UNL A   1      42.986  26.255  38.459  1.00  0.00    -0.237 OA
ATOM     81  O   UNL A   1      41.407  27.210  36.816  1.00  0.00    -0.744 OA
ENDBRANCH  75  78
ENDBRANCH  47  71
BRANCH  59  82
ATOM     82  C   UNL A   1      45.201  29.446  28.390  1.00  0.00     0.023 A 
ATOM     83  C   UNL A   1      46.111  30.509  28.571  1.00  0.00     0.012 A 
ATOM     84  C   UNL A   1      45.675  28.226  27.881  1.00  0.00     0.148 A 
ATOM     85  C   UNL A   1      47.459  30.364  28.231  1.00  0.00     0.002 A 
ATOM     86  C   UNL A   1      47.024  28.070  27.588  1.00  0.00     0.091 A 
ATOM     87  F   UNL A   1      44.798  27.224  27.722  1.00  0.00    -0.205 F 
ATOM     88  C   UNL A   1      47.919  29.140  27.753  1.00  0.00     0.022 A 
BRANCH  86  89
ATOM     89  S   UNL A   1      47.700  26.485  27.092  1.00  0.00     0.127 S 
ATOM     90  O   UNL A   1      47.057  26.271  25.798  1.00  0.00    -0.237 OA
ATOM     91  O   UNL A   1      49.136  26.765  27.024  1.00  0.00    -0.237 OA
ATOM     92  O   UNL A   1      47.328  25.543  28.140  1.00  0.00    -0.744 OA
ENDBRANCH  86  89
ENDBRANCH  59  82
ENDBRANCH  33  34
ENDBRANCH  25  28
ENDBRANCH  23  24
ENDBRANCH   1  23
TORSDOF 16
ENDMDL
MODEL 2
REMARK VINA RESULT:     -12.1      1.707      2.843
REMARK SMILES Cc1cnn([C@H]2CC[C@@]([NH3+])(C(=O)NCCCCNC(=O)c3ccc(-c4c5nc(c(-c6cccc(S(=O)(=O)[O-])c6F)c6ccc([nH]6)c(-c6cccc(S(=O)(=O)[O-])c6F)c6nc(c(-c7cccc(S(=O)(=O)[O-])c7F)c7ccc4[nH]7)C=C6)C=C5)cc3)C2)c1
REMARK SMILES IDX 16 1 15 2 14 3 13 4 11 5 12 6 9 8 6 9 7 10 84 11 8 12 5 13
REMARK SMILES IDX 1 14 2 15 3 16 85 17 4 18 10 19 17 23 18 24 19 25 20 27
REMARK SMILES IDX 21 28 22 29 83 30 23 31 82 32 24 33 25 34 26 35 76 36 27 37
REMARK SMILES IDX 81 38 75 39 77 40 28 41 80 42 74 43 73 44 29 46 61 47 41 48
REMARK SMILES IDX 60 49 42 50 45 51 59 52 78 53 43 54 44 55 58 57 79 58 46 59
REMARK SMILES IDX 30 60 31 61 39 62 32 63 34 64 40 65 33 66 35 67 36 68 37 69
REMARK SMILES IDX 38 70 62 71 63 72 71 73 64 74 66 75 72 76 65 77 67 78 68 79
REMARK SMILES IDX 69 80 70 81 47 82 48 83 56 84 49 85 51 86 57 87 50 88 52 89
REMARK SMILES IDX 53 90 54 91 55 92
REMARK H PARENT 13 7 10 20 10 21 10 22 18 26 77 45 45 56
REMARK Flexibility Score: inf
ROOT
ATOM      1  C   UNL A   1      38.162  19.953  24.647  1.00  0.00     0.023 C 
ENDROOT
BRANCH   1   2
ATOM      2  C   UNL A   1      36.704  20.269  25.006  1.00  0.00     0.023 C 
BRANCH   2   3
ATOM      3  C   UNL A   1      36.215  21.682  24.667  1.00  0.00     0.116 C 
BRANCH   3   4
ATOM      4  N   UNL A   1      35.735  22.399  25.830  1.00  0.00    -0.351 N 
ATOM      5  C   UNL A   1      34.516  22.384  26.442  1.00  0.00     0.281 C 
ATOM      6  O   UNL A   1      34.447  22.952  27.533  1.00  0.00    -0.268 OA
ATOM      7  H   UNL A   1      36.398  22.995  26.248  1.00  0.00     0.163 HD
BRANCH   5   8
ATOM      8  C   UNL A   1      33.291  21.622  25.837  1.00  0.00     0.176 C 
ATOM      9  C   UNL A   1      31.809  23.319  24.848  1.00  0.00     0.114 C 
ATOM     10  C   UNL A   1      32.402  22.490  23.696  1.00  0.00     0.034 C 
ATOM     11  C   UNL A   1      31.960  22.374  26.053  1.00  0.00     0.106 C 
ATOM     12  C   UNL A   1      33.371  21.477  24.312  1.00  0.00     0.081 C 
BRANCH   9  13
ATOM     13  N   UNL A   1      32.380  24.652  24.961  1.00  0.00    -0.269 N 
ATOM     14  C   UNL A   1      33.543  27.698  26.577  1.00  0.00     0.048 C 
ATOM     15  C   UNL A   1      33.112  26.594  25.693  1.00  0.00    -0.013 A 
ATOM     16  C   UNL A   1      33.376  26.405  24.323  1.00  0.00     0.138 A 
ATOM     17  C   UNL A   1      32.360  25.492  26.036  1.00  0.00     0.112 A 
ATOM     18  N   UNL A   1      32.884  25.254  23.857  1.00  0.00    -0.181 NA
ENDBRANCH   9  13
BRANCH   8  19
ATOM     19  N   UNL A   1      33.229  20.300  26.504  1.00  0.00    -0.345 N 
ATOM     20  H   UNL A   1      32.306  19.891  26.361  1.00  0.00     0.345 HD
ATOM     21  H   UNL A   1      33.400  20.415  27.502  1.00  0.00     0.345 HD
ATOM     22  H   UNL A   1      33.940  19.686  26.106  1.00  0.00     0.345 HD
ENDBRANCH   8  19
ENDBRANCH   5   8
ENDBRANCH   3   4
ENDBRANCH   2   3
ENDBRANCH   1   2
BRANCH   1  23
ATOM     23  C   UNL A   1      39.158  20.210  25.768  1.00  0.00     0.116 C 
BRANCH  23  24
ATOM     24  N   UNL A   1      40.201  19.186  25.841  1.00  0.00    -0.352 N 
ATOM     25  C   UNL A   1      41.560  19.383  26.016  1.00  0.00     0.251 C 
ATOM     26  H   UNL A   1      39.902  18.252  25.759  1.00  0.00     0.163 HD
ATOM     27  O   UNL A   1      42.370  18.529  25.708  1.00  0.00    -0.269 OA
BRANCH  25  28
ATOM     28  C   UNL A   1      41.998  20.664  26.598  1.00  0.00     0.039 A 
ATOM     29  C   UNL A   1      42.487  21.697  25.794  1.00  0.00     0.014 A 
ATOM     30  C   UNL A   1      41.841  20.829  27.972  1.00  0.00     0.014 A 
ATOM     31  C   UNL A   1      42.734  22.938  26.376  1.00  0.00     0.010 A 
ATOM     32  C   UNL A   1      41.956  22.082  28.514  1.00  0.00     0.010 A 
ATOM     33  C   UNL A   1      42.445  23.131  27.734  1.00  0.00    -0.014 A 
BRANCH  33  34
ATOM     34  C   UNL A   1      42.484  24.466  28.329  1.00  0.00     0.031 A 
ATOM     35  C   UNL A   1      41.261  25.285  28.087  1.00  0.00     0.074 A 
ATOM     36  C   UNL A   1      43.419  24.806  29.244  1.00  0.00     0.049 A 
ATOM     37  N   UNL A   1      41.165  26.413  27.460  1.00  0.00    -0.248 NA
ATOM     38  C   UNL A   1      39.958  24.706  28.460  1.00  0.00     0.031 C 
ATOM     39  C   UNL A   1      44.482  23.946  29.788  1.00  0.00     0.029 A 
ATOM     40  N   UNL A   1      43.513  25.922  30.021  1.00  0.00    -0.354 N 
ATOM     41  C   UNL A   1      39.830  26.803  27.592  1.00  0.00     0.074 A 
ATOM     42  C   UNL A   1      39.112  25.626  27.992  1.00  0.00     0.031 C 
ATOM     43  C   UNL A   1      44.908  24.447  30.965  1.00  0.00     0.029 A 
ATOM     44  C   UNL A   1      44.287  25.741  31.166  1.00  0.00     0.049 A 
ATOM     45  H   UNL A   1      43.076  26.774  29.794  1.00  0.00     0.167 HD
ATOM     46  C   UNL A   1      39.488  28.122  27.653  1.00  0.00     0.034 A 
ATOM     47  C   UNL A   1      44.377  26.569  32.235  1.00  0.00     0.034 A 
ATOM     48  C   UNL A   1      40.574  28.954  27.187  1.00  0.00     0.049 A 
ATOM     49  C   UNL A   1      43.915  27.899  31.789  1.00  0.00     0.074 A 
ATOM     50  C   UNL A   1      41.292  29.083  26.017  1.00  0.00     0.029 A 
ATOM     51  N   UNL A   1      41.313  29.578  28.161  1.00  0.00    -0.354 N 
ATOM     52  N   UNL A   1      44.540  28.617  30.898  1.00  0.00    -0.248 NA
ATOM     53  C   UNL A   1      42.528  28.260  32.025  1.00  0.00     0.031 C 
ATOM     54  C   UNL A   1      42.623  29.388  26.433  1.00  0.00     0.029 A 
ATOM     55  C   UNL A   1      42.633  29.492  27.826  1.00  0.00     0.049 A 
ATOM     56  H   UNL A   1      40.951  30.014  28.966  1.00  0.00     0.167 HD
ATOM     57  C   UNL A   1      43.522  29.175  30.138  1.00  0.00     0.074 A 
ATOM     58  C   UNL A   1      42.323  29.043  30.963  1.00  0.00     0.031 C 
ATOM     59  C   UNL A   1      43.698  29.411  28.804  1.00  0.00     0.034 A 
BRANCH  46  60
ATOM     60  C   UNL A   1      38.396  28.712  28.544  1.00  0.00     0.023 A 
ATOM     61  C   UNL A   1      37.463  29.572  27.913  1.00  0.00     0.012 A 
ATOM     62  C   UNL A   1      38.415  28.738  29.957  1.00  0.00     0.148 A 
ATOM     63  C   UNL A   1      36.695  30.493  28.636  1.00  0.00     0.002 A 
ATOM     64  C   UNL A   1      37.604  29.613  30.677  1.00  0.00     0.091 A 
ATOM     65  F   UNL A   1      39.290  28.000  30.640  1.00  0.00    -0.205 F 
ATOM     66  C   UNL A   1      36.774  30.521  30.020  1.00  0.00     0.022 A 
BRANCH  64  67
ATOM     67  S   UNL A   1      37.639  29.671  32.475  1.00  0.00     0.127 S 
ATOM     68  O   UNL A   1      39.005  30.123  32.722  1.00  0.00    -0.237 OA
ATOM     69  O   UNL A   1      36.596  30.656  32.760  1.00  0.00    -0.237 OA
ATOM     70  O   UNL A   1      37.322  28.320  32.922  1.00  0.00    -0.744 OA
ENDBRANCH  64  67
ENDBRANCH  46  60
BRANCH  47  71
ATOM     71  C   UNL A   1      44.622  26.253  33.660  1.00  0.00     0.023 A 
ATOM     72  C   UNL A   1      45.940  26.243  34.161  1.00  0.00     0.012 A 
ATOM     73  C   UNL A   1      43.557  26.223  34.589  1.00  0.00     0.148 A 
ATOM     74  C   UNL A   1      46.188  26.232  35.539  1.00  0.00     0.002 A 
ATOM     75  C   UNL A   1      43.808  26.201  35.958  1.00  0.00     0.091 A 
ATOM     76  F   UNL A   1      42.301  26.303  34.129  1.00  0.00    -0.205 F 
ATOM     77  C   UNL A   1      45.124  26.220  36.437  1.00  0.00     0.022 A 
BRANCH  75  78
ATOM     78  S   UNL A   1      42.487  26.195  37.179  1.00  0.00     0.127 S 
ATOM     79  O   UNL A   1      43.236  26.273  38.434  1.00  0.00    -0.237 OA
ATOM     80  O   UNL A   1      41.749  27.406  36.832  1.00  0.00    -0.237 OA
ATOM     81  O   UNL A   1      41.771  24.940  36.989  1.00  0.00    -0.744 OA
ENDBRANCH  75  78
ENDBRANCH  47  71
BRANCH  59  82
ATOM     82  C   UNL A   1      45.100  29.334  28.250  1.00  0.00     0.023 A 
ATOM     83  C   UNL A   1      45.642  28.145  27.716  1.00  0.00     0.012 A 
ATOM     84  C   UNL A   1      45.820  30.531  28.105  1.00  0.00     0.148 A 
ATOM     85  C   UNL A   1      46.882  28.148  27.072  1.00  0.00     0.002 A 
ATOM     86  C   UNL A   1      47.030  30.540  27.423  1.00  0.00     0.091 A 
ATOM     87  F   UNL A   1      45.287  31.653  28.612  1.00  0.00    -0.205 F 
ATOM     88  C   UNL A   1      47.570  29.348  26.913  1.00  0.00     0.022 A 
BRANCH  86  89
ATOM     89  S   UNL A   1      47.901  32.068  27.075  1.00  0.00     0.127 S 
ATOM     90  O   UNL A   1      49.128  31.584  26.448  1.00  0.00    -0.237 OA
ATOM     91  O   UNL A   1      46.978  32.754  26.168  1.00  0.00    -0.237 OA
ATOM     92  O   UNL A   1      48.075  32.734  28.360  1.00  0.00    -0.744 OA
ENDBRANCH  86  89
ENDBRANCH  59  82
ENDBRANCH  33  34
ENDBRANCH  25  28
ENDBRANCH  23  24
ENDBRANCH   1  23
TORSDOF 16
ENDMDL
MODEL 3
REMARK VINA RESULT:     -12.0      1.066      2.289
REMARK SMILES Cc1cnn([C@H]2CC[C@@]([NH3+])(C(=O)NCCCCNC(=O)c3ccc(-c4c5nc(c(-c6cccc(S(=O)(=O)[O-])c6F)c6ccc([nH]6)c(-c6cccc(S(=O)(=O)[O-])c6F)c6nc(c(-c7cccc(S(=O)(=O)[O-])c7F)c7ccc4[nH]7)C=C6)C=C5)cc3)C2)c1
REMARK SMILES IDX 16 1 15 2 14 3 13 4 11 5 12 6 9 8 6 9 7 10 84 11 8 12 5 13
REMARK SMILES IDX 1 14 2 15 3 16 85 17 4 18 10 19 17 23 18 24 19 25 20 27
REMARK SMILES IDX 21 28 22 29 83 30 23 31 82 32 24 33 25 34 26 35 76 36 27 37
REMARK SMILES IDX 81 38 75 39 77 40 28 41 80 42 74 43 73 44 29 46 61 47 41 48
REMARK SMILES IDX 60 49 42 50 45 51 59 52 78 53 43 54 44 55 58 57 79 58 46 59
REMARK SMILES IDX 30 60 31 61 39 62 32 63 34 64 40 65 33 66 35 67 36 68 37 69
REMARK SMILES IDX 38 70 62 71 63 72 71 73 64 74 66 75 72 76 65 77 67 78 68 79
REMARK SMILES IDX 69 80 70 81 47 82 48 83 56 84 49 85 51 86 57 87 50 88 52 89
REMARK SMILES IDX 53 90 54 91 55 92
REMARK H PARENT 13 7 10 20 10 21 10 22 18 26 77 45 45 56
REMARK Flexibility Score: inf
ROOT
ATOM      1  C   UNL A   1      38.117  19.941  24.655  1.00  0.00     0.023 C 
ENDROOT
BRANCH   1   2
ATOM      2  C   UNL A   1      36.664  20.253  25.040  1.00  0.00     0.023 C 
BRANCH   2   3
ATOM      3  C   UNL A   1      36.172  21.672  24.729  1.00  0.00     0.116 C 
BRANCH   3   4
ATOM      4  N   UNL A   1      35.647  22.346  25.898  1.00  0.00    -0.351 N 
ATOM      5  C   UNL A   1      34.410  22.297  26.471  1.00  0.00     0.281 C 
ATOM      6  O   UNL A   1      34.301  22.831  27.576  1.00  0.00    -0.268 OA
ATOM      7  H   UNL A   1      36.288  22.939  26.354  1.00  0.00     0.163 HD
BRANCH   5   8
ATOM      8  C   UNL A   1      33.215  21.538  25.806  1.00  0.00     0.176 C 
ATOM      9  C   UNL A   1      31.636  23.247  25.007  1.00  0.00     0.114 C 
ATOM     10  C   UNL A   1      32.250  22.568  23.773  1.00  0.00     0.034 C 
ATOM     11  C   UNL A   1      31.853  22.196  26.111  1.00  0.00     0.106 C 
ATOM     12  C   UNL A   1      33.278  21.549  24.273  1.00  0.00     0.081 C 
BRANCH   9  13
ATOM     13  N   UNL A   1      32.141  24.590  25.248  1.00  0.00    -0.269 N 
ATOM     14  C   UNL A   1      33.819  27.741  24.543  1.00  0.00     0.048 C 
ATOM     15  C   UNL A   1      33.123  26.551  25.080  1.00  0.00    -0.013 A 
ATOM     16  C   UNL A   1      32.387  26.424  26.273  1.00  0.00     0.138 A 
ATOM     17  C   UNL A   1      33.038  25.302  24.507  1.00  0.00     0.112 A 
ATOM     18  N   UNL A   1      31.835  25.215  26.411  1.00  0.00    -0.181 NA
ENDBRANCH   9  13
BRANCH   8  19
ATOM     19  N   UNL A   1      33.229  20.155  26.337  1.00  0.00    -0.345 N 
ATOM     20  H   UNL A   1      32.559  20.078  27.102  1.00  0.00     0.345 HD
ATOM     21  H   UNL A   1      34.164  19.932  26.680  1.00  0.00     0.345 HD
ATOM     22  H   UNL A   1      32.976  19.503  25.594  1.00  0.00     0.345 HD
ENDBRANCH   8  19
ENDBRANCH   5   8
ENDBRANCH   3   4
ENDBRANCH   2   3
ENDBRANCH   1   2
BRANCH   1  23
ATOM     23  C   UNL A   1      39.132  20.210  25.756  1.00  0.00     0.116 C 
BRANCH  23  24
ATOM     24  N   UNL A   1      40.156  19.169  25.845  1.00  0.00    -0.352 N 
ATOM     25  C   UNL A   1      41.517  19.343  26.035  1.00  0.00     0.251 C 
ATOM     26  H   UNL A   1      39.842  18.239  25.763  1.00  0.00     0.163 HD
ATOM     27  O   UNL A   1      42.316  18.473  25.740  1.00  0.00    -0.269 OA
BRANCH  25  28
ATOM     28  C   UNL A   1      41.970  20.617  26.619  1.00  0.00     0.039 A 
ATOM     29  C   UNL A   1      42.513  21.628  25.820  1.00  0.00     0.014 A 
ATOM     30  C   UNL A   1      41.772  20.802  27.984  1.00  0.00     0.014 A 
ATOM     31  C   UNL A   1      42.775  22.868  26.397  1.00  0.00     0.010 A 
ATOM     32  C   UNL A   1      41.903  22.058  28.517  1.00  0.00     0.010 A 
ATOM     33  C   UNL A   1      42.446  23.084  27.743  1.00  0.00    -0.014 A 
BRANCH  33  34
ATOM     34  C   UNL A   1      42.502  24.425  28.325  1.00  0.00     0.031 A 
ATOM     35  C   UNL A   1      41.286  25.254  28.081  1.00  0.00     0.074 A 
ATOM     36  C   UNL A   1      43.444  24.763  29.233  1.00  0.00     0.049 A 
ATOM     37  N   UNL A   1      41.200  26.377  27.443  1.00  0.00    -0.248 NA
ATOM     38  C   UNL A   1      39.979  24.693  28.464  1.00  0.00     0.031 C 
ATOM     39  C   UNL A   1      44.500  23.897  29.780  1.00  0.00     0.029 A 
ATOM     40  N   UNL A   1      43.553  25.885  29.998  1.00  0.00    -0.354 N 
ATOM     41  C   UNL A   1      39.870  26.783  27.576  1.00  0.00     0.074 A 
ATOM     42  C   UNL A   1      39.141  25.617  27.991  1.00  0.00     0.031 C 
ATOM     43  C   UNL A   1      44.936  24.405  30.951  1.00  0.00     0.029 A 
ATOM     44  C   UNL A   1      44.330  25.707  31.143  1.00  0.00     0.049 A 
ATOM     45  H   UNL A   1      43.124  26.740  29.765  1.00  0.00     0.167 HD
ATOM     46  C   UNL A   1      39.542  28.105  27.627  1.00  0.00     0.034 A 
ATOM     47  C   UNL A   1      44.433  26.544  32.203  1.00  0.00     0.034 A 
ATOM     48  C   UNL A   1      40.634  28.921  27.148  1.00  0.00     0.049 A 
ATOM     49  C   UNL A   1      43.983  27.875  31.747  1.00  0.00     0.074 A 
ATOM     50  C   UNL A   1      41.349  29.032  25.974  1.00  0.00     0.029 A 
ATOM     51  N   UNL A   1      41.384  29.547  28.113  1.00  0.00    -0.354 N 
ATOM     52  N   UNL A   1      44.612  28.577  30.846  1.00  0.00    -0.248 NA
ATOM     53  C   UNL A   1      42.602  28.253  31.985  1.00  0.00     0.031 C 
ATOM     54  C   UNL A   1      42.685  29.327  26.382  1.00  0.00     0.029 A 
ATOM     55  C   UNL A   1      42.702  29.444  27.774  1.00  0.00     0.049 A 
ATOM     56  H   UNL A   1      41.030  29.995  28.915  1.00  0.00     0.167 HD
ATOM     57  C   UNL A   1      43.597  29.140  30.085  1.00  0.00     0.074 A 
ATOM     58  C   UNL A   1      42.400  29.028  30.916  1.00  0.00     0.031 C 
ATOM     59  C   UNL A   1      43.770  29.361  28.748  1.00  0.00     0.034 A 
BRANCH  46  60
ATOM     60  C   UNL A   1      38.460  28.715  28.516  1.00  0.00     0.023 A 
ATOM     61  C   UNL A   1      37.561  29.615  27.890  1.00  0.00     0.012 A 
ATOM     62  C   UNL A   1      38.465  28.719  29.930  1.00  0.00     0.148 A 
ATOM     63  C   UNL A   1      36.815  30.548  28.621  1.00  0.00     0.002 A 
ATOM     64  C   UNL A   1      37.675  29.607  30.656  1.00  0.00     0.091 A 
ATOM     65  F   UNL A   1      39.309  27.942  30.609  1.00  0.00    -0.205 F 
ATOM     66  C   UNL A   1      36.881  30.551  30.006  1.00  0.00     0.022 A 
BRANCH  64  67
ATOM     67  S   UNL A   1      37.693  29.635  32.455  1.00  0.00     0.127 S 
ATOM     68  O   UNL A   1      36.587  30.544  32.740  1.00  0.00    -0.237 OA
ATOM     69  O   UNL A   1      37.442  28.230  32.776  1.00  0.00    -0.237 OA
ATOM     70  O   UNL A   1      39.020  30.104  32.831  1.00  0.00    -0.744 OA
ENDBRANCH  64  67
ENDBRANCH  46  60
BRANCH  47  71
ATOM     71  C   UNL A   1      44.681  26.239  33.630  1.00  0.00     0.023 A 
ATOM     72  C   UNL A   1      46.001  26.220  34.126  1.00  0.00     0.012 A 
ATOM     73  C   UNL A   1      43.619  26.228  34.563  1.00  0.00     0.148 A 
ATOM     74  C   UNL A   1      46.254  26.220  35.503  1.00  0.00     0.002 A 
ATOM     75  C   UNL A   1      43.876  26.217  35.931  1.00  0.00     0.091 A 
ATOM     76  F   UNL A   1      42.362  26.316  34.108  1.00  0.00    -0.205 F 
ATOM     77  C   UNL A   1      45.194  26.227  36.405  1.00  0.00     0.022 A 
BRANCH  75  78
ATOM     78  S   UNL A   1      42.559  26.235  37.158  1.00  0.00     0.127 S 
ATOM     79  O   UNL A   1      43.314  26.301  38.410  1.00  0.00    -0.237 OA
ATOM     80  O   UNL A   1      41.841  27.458  36.813  1.00  0.00    -0.237 OA
ATOM     81  O   UNL A   1      41.821  24.992  36.972  1.00  0.00    -0.744 OA
ENDBRANCH  75  78
ENDBRANCH  47  71
BRANCH  59  82
ATOM     82  C   UNL A   1      45.169  29.263  28.189  1.00  0.00     0.023 A 
ATOM     83  C   UNL A   1      46.117  30.299  28.329  1.00  0.00     0.012 A 
ATOM     84  C   UNL A   1      45.587  28.028  27.668  1.00  0.00     0.148 A 
ATOM     85  C   UNL A   1      47.446  30.113  27.938  1.00  0.00     0.002 A 
ATOM     86  C   UNL A   1      46.918  27.830  27.324  1.00  0.00     0.091 A 
ATOM     87  F   UNL A   1      44.675  27.052  27.549  1.00  0.00    -0.205 F 
ATOM     88  C   UNL A   1      47.850  28.873  27.449  1.00  0.00     0.022 A 
BRANCH  86  89
ATOM     89  S   UNL A   1      47.527  26.224  26.810  1.00  0.00     0.127 S 
ATOM     90  O   UNL A   1      46.808  26.012  25.556  1.00  0.00    -0.237 OA
ATOM     91  O   UNL A   1      48.962  26.467  26.660  1.00  0.00    -0.237 OA
ATOM     92  O   UNL A   1      47.190  25.302  27.888  1.00  0.00    -0.744 OA
ENDBRANCH  86  89
ENDBRANCH  59  82
ENDBRANCH  33  34
ENDBRANCH  25  28
ENDBRANCH  23  24
ENDBRANCH   1  23
TORSDOF 16
ENDMDL
