MODEL 1
REMARK VINA RESULT:     -11.0      0.000      0.000
REMARK SMILES Cc1cc(C)c2c(OCCCC(=O)NCCCCNC(=O)c3ccc(-c4c5nc(c(-c6cccc(S(=O)(=O)[O-])c6F)c6ccc([nH]6)c(-c6cccc(S(=O)(=O)[O-])c6F)c6nc(c(-c7cccc(S(=O)(=O)[O-])c7F)c7ccc4[nH]7)C=C6)C=C5)cc3)nsc2n1
REMARK SMILES IDX 16 1 15 2 14 3 12 4 13 5 11 7 10 8 9 9 8 10 7 11 1 12 2 13
REMARK SMILES IDX 3 14 88 15 4 16 87 17 5 18 6 19 86 20 85 21 17 22 18 23
REMARK SMILES IDX 19 24 20 25 21 27 22 28 23 29 84 30 24 31 83 32 25 33 26 34
REMARK SMILES IDX 27 35 77 36 28 37 82 38 76 39 78 40 29 41 81 42 75 43 74 44
REMARK SMILES IDX 30 46 62 47 42 48 61 49 43 50 46 51 60 52 79 53 44 54 45 55
REMARK SMILES IDX 59 57 80 58 47 59 31 60 32 61 40 62 33 63 35 64 41 65 34 66
REMARK SMILES IDX 36 67 37 68 38 69 39 70 63 71 64 72 72 73 65 74 67 75 73 76
REMARK SMILES IDX 66 77 68 78 69 79 70 80 71 81 48 82 49 83 57 84 50 85 52 86
REMARK SMILES IDX 58 87 51 88 53 89 54 90 55 91 56 92
REMARK H PARENT 14 6 19 26 78 45 46 56
REMARK Flexibility Score: inf
ROOT
ATOM      1  C   UNL A   1      34.363  30.996  27.967  1.00  0.00     0.023 C 
ENDROOT
BRANCH   1   2
ATOM      2  C   UNL A   1      34.347  29.543  27.368  1.00  0.00     0.116 C 
BRANCH   2   3
ATOM      3  N   UNL A   1      33.002  28.809  27.559  1.00  0.00    -0.356 N 
ATOM      4  C   UNL A   1      32.081  27.853  27.234  1.00  0.00     0.220 C 
ATOM      5  O   UNL A   1      31.086  27.993  27.985  1.00  0.00    -0.275 OA
ATOM      6  H   UNL A   1      32.587  29.280  28.317  1.00  0.00     0.163 HD
BRANCH   4   7
ATOM      7  C   UNL A   1      32.000  26.526  26.286  1.00  0.00     0.103 C 
BRANCH   7   8
ATOM      8  C   UNL A   1      32.719  25.969  24.959  1.00  0.00     0.051 C 
BRANCH   8   9
ATOM      9  C   UNL A   1      34.187  25.431  24.653  1.00  0.00     0.232 C 
BRANCH   9  10
ATOM     10  O   UNL A   1      34.570  24.048  24.607  1.00  0.00    -0.477 OA
BRANCH  10  11
ATOM     11  C   UNL A   1      33.952  23.075  25.327  1.00  0.00     0.235 A 
ATOM     12  C   UNL A   1      32.890  17.955  23.695  1.00  0.00     0.067 C 
ATOM     13  C   UNL A   1      32.803  19.365  24.222  1.00  0.00     0.039 A 
ATOM     14  C   UNL A   1      32.326  20.373  23.387  1.00  0.00     0.027 A 
ATOM     15  N   UNL A   1      33.194  19.601  25.495  1.00  0.00    -0.240 NA
ATOM     16  C   UNL A   1      32.415  21.722  23.782  1.00  0.00    -0.034 A 
ATOM     17  C   UNL A   1      33.387  20.905  25.761  1.00  0.00     0.147 A 
ATOM     18  C   UNL A   1      31.781  22.898  23.161  1.00  0.00     0.045 C 
ATOM     19  C   UNL A   1      33.196  21.963  24.892  1.00  0.00     0.078 A 
ATOM     20  S   UNL A   1      33.873  21.572  27.249  1.00  0.00    -0.012 S 
ATOM     21  N   UNL A   1      34.247  23.089  26.628  1.00  0.00    -0.153 NA
ENDBRANCH  10  11
ENDBRANCH   9  10
ENDBRANCH   8   9
ENDBRANCH   7   8
ENDBRANCH   4   7
ENDBRANCH   2   3
ENDBRANCH   1   2
BRANCH   1  22
ATOM     22  C   UNL A   1      33.132  31.885  27.716  1.00  0.00     0.023 C 
BRANCH  22  23
ATOM     23  C   UNL A   1      33.450  33.344  27.382  1.00  0.00     0.116 C 
BRANCH  23  24
ATOM     24  N   UNL A   1      32.824  34.337  28.272  1.00  0.00    -0.352 N 
ATOM     25  C   UNL A   1      33.197  34.614  29.594  1.00  0.00     0.251 C 
ATOM     26  H   UNL A   1      32.072  34.856  27.903  1.00  0.00     0.163 HD
ATOM     27  O   UNL A   1      32.491  35.202  30.365  1.00  0.00    -0.269 OA
BRANCH  25  28
ATOM     28  C   UNL A   1      34.557  34.170  29.975  1.00  0.00     0.039 A 
ATOM     29  C   UNL A   1      34.783  33.173  30.925  1.00  0.00     0.014 A 
ATOM     30  C   UNL A   1      35.582  34.675  29.182  1.00  0.00     0.014 A 
ATOM     31  C   UNL A   1      36.056  32.608  30.993  1.00  0.00     0.010 A 
ATOM     32  C   UNL A   1      36.769  33.998  29.131  1.00  0.00     0.010 A 
ATOM     33  C   UNL A   1      37.036  33.002  30.066  1.00  0.00    -0.014 A 
BRANCH  33  34
ATOM     34  C   UNL A   1      38.324  32.325  29.989  1.00  0.00     0.031 A 
ATOM     35  C   UNL A   1      38.310  30.989  29.330  1.00  0.00     0.074 A 
ATOM     36  C   UNL A   1      39.484  32.926  30.331  1.00  0.00     0.049 A 
ATOM     37  N   UNL A   1      38.412  29.839  29.907  1.00  0.00    -0.248 NA
ATOM     38  C   UNL A   1      38.006  30.906  27.895  1.00  0.00     0.031 C 
ATOM     39  C   UNL A   1      39.730  34.324  30.714  1.00  0.00     0.029 A 
ATOM     40  N   UNL A   1      40.738  32.409  30.299  1.00  0.00    -0.354 N 
ATOM     41  C   UNL A   1      38.424  28.891  28.885  1.00  0.00     0.074 A 
ATOM     42  C   UNL A   1      37.975  29.584  27.706  1.00  0.00     0.031 C 
ATOM     43  C   UNL A   1      41.052  34.595  30.636  1.00  0.00     0.029 A 
ATOM     44  C   UNL A   1      41.755  33.350  30.408  1.00  0.00     0.049 A 
ATOM     45  H   UNL A   1      40.913  31.445  30.204  1.00  0.00     0.167 HD
ATOM     46  C   UNL A   1      39.023  27.677  29.061  1.00  0.00     0.034 A 
ATOM     47  C   UNL A   1      43.084  33.113  30.325  1.00  0.00     0.034 A 
ATOM     48  C   UNL A   1      39.298  27.439  30.459  1.00  0.00     0.049 A 
ATOM     49  C   UNL A   1      43.277  31.680  30.646  1.00  0.00     0.074 A 
ATOM     50  C   UNL A   1      38.531  27.353  31.604  1.00  0.00     0.029 A 
ATOM     51  N   UNL A   1      40.586  27.662  30.888  1.00  0.00    -0.354 N 
ATOM     52  N   UNL A   1      43.025  31.173  31.822  1.00  0.00    -0.248 NA
ATOM     53  C   UNL A   1      43.300  30.733  29.545  1.00  0.00     0.031 C 
ATOM     54  C   UNL A   1      39.297  28.028  32.603  1.00  0.00     0.029 A 
ATOM     55  C   UNL A   1      40.513  28.413  32.031  1.00  0.00     0.049 A 
ATOM     56  H   UNL A   1      41.409  27.340  30.452  1.00  0.00     0.167 HD
ATOM     57  C   UNL A   1      42.412  29.956  31.550  1.00  0.00     0.074 A 
ATOM     58  C   UNL A   1      42.705  29.694  30.140  1.00  0.00     0.031 C 
ATOM     59  C   UNL A   1      41.489  29.417  32.402  1.00  0.00     0.034 A 
BRANCH  46  60
ATOM     60  C   UNL A   1      39.694  26.842  27.986  1.00  0.00     0.023 A 
ATOM     61  C   UNL A   1      39.333  25.475  27.918  1.00  0.00     0.012 A 
ATOM     62  C   UNL A   1      40.828  27.233  27.240  1.00  0.00     0.148 A 
ATOM     63  C   UNL A   1      40.103  24.537  27.222  1.00  0.00     0.002 A 
ATOM     64  C   UNL A   1      41.552  26.309  26.490  1.00  0.00     0.091 A 
ATOM     65  F   UNL A   1      41.299  28.477  27.334  1.00  0.00    -0.205 F 
ATOM     66  C   UNL A   1      41.216  24.954  26.507  1.00  0.00     0.022 A 
BRANCH  64  67
ATOM     67  S   UNL A   1      42.974  26.802  25.506  1.00  0.00     0.127 S 
ATOM     68  O   UNL A   1      43.335  25.543  24.864  1.00  0.00    -0.237 OA
ATOM     69  O   UNL A   1      42.390  27.807  24.618  1.00  0.00    -0.237 OA
ATOM     70  O   UNL A   1      43.941  27.338  26.457  1.00  0.00    -0.744 OA
ENDBRANCH  64  67
ENDBRANCH  46  60
BRANCH  47  71
ATOM     71  C   UNL A   1      44.164  33.953  29.767  1.00  0.00     0.023 A 
ATOM     72  C   UNL A   1      45.114  34.533  30.631  1.00  0.00     0.012 A 
ATOM     73  C   UNL A   1      44.442  33.930  28.382  1.00  0.00     0.148 A 
ATOM     74  C   UNL A   1      46.322  35.039  30.137  1.00  0.00     0.002 A 
ATOM     75  C   UNL A   1      45.652  34.420  27.897  1.00  0.00     0.091 A 
ATOM     76  F   UNL A   1      43.557  33.352  27.559  1.00  0.00    -0.205 F 
ATOM     77  C   UNL A   1      46.598  34.967  28.775  1.00  0.00     0.022 A 
BRANCH  75  78
ATOM     78  S   UNL A   1      46.132  34.287  26.168  1.00  0.00     0.127 S 
ATOM     79  O   UNL A   1      44.920  34.737  25.485  1.00  0.00    -0.237 OA
ATOM     80  O   UNL A   1      47.258  35.213  26.093  1.00  0.00    -0.237 OA
ATOM     81  O   UNL A   1      46.471  32.887  25.951  1.00  0.00    -0.744 OA
ENDBRANCH  75  78
ENDBRANCH  47  71
BRANCH  59  82
ATOM     82  C   UNL A   1      41.274  30.081  33.746  1.00  0.00     0.023 A 
ATOM     83  C   UNL A   1      42.202  29.958  34.803  1.00  0.00     0.012 A 
ATOM     84  C   UNL A   1      40.232  31.016  33.873  1.00  0.00     0.148 A 
ATOM     85  C   UNL A   1      42.089  30.737  35.958  1.00  0.00     0.002 A 
ATOM     86  C   UNL A   1      40.151  31.825  35.001  1.00  0.00     0.091 A 
ATOM     87  F   UNL A   1      39.357  31.128  32.862  1.00  0.00    -0.205 F 
ATOM     88  C   UNL A   1      41.072  31.683  36.050  1.00  0.00     0.022 A 
BRANCH  86  89
ATOM     89  S   UNL A   1      38.955  33.157  35.120  1.00  0.00     0.127 S 
ATOM     90  O   UNL A   1      37.876  32.532  35.881  1.00  0.00    -0.237 OA
ATOM     91  O   UNL A   1      39.702  34.185  35.847  1.00  0.00    -0.237 OA
ATOM     92  O   UNL A   1      38.624  33.523  33.748  1.00  0.00    -0.744 OA
ENDBRANCH  86  89
ENDBRANCH  59  82
ENDBRANCH  33  34
ENDBRANCH  25  28
ENDBRANCH  23  24
ENDBRANCH  22  23
ENDBRANCH   1  22
TORSDOF 18
ENDMDL
MODEL 2
REMARK VINA RESULT:     -10.9      3.821      8.005
REMARK SMILES Cc1cc(C)c2c(OCCCC(=O)NCCCCNC(=O)c3ccc(-c4c5nc(c(-c6cccc(S(=O)(=O)[O-])c6F)c6ccc([nH]6)c(-c6cccc(S(=O)(=O)[O-])c6F)c6nc(c(-c7cccc(S(=O)(=O)[O-])c7F)c7ccc4[nH]7)C=C6)C=C5)cc3)nsc2n1
REMARK SMILES IDX 16 1 15 2 14 3 12 4 13 5 11 7 10 8 9 9 8 10 7 11 1 12 2 13
REMARK SMILES IDX 3 14 88 15 4 16 87 17 5 18 6 19 86 20 85 21 17 22 18 23
REMARK SMILES IDX 19 24 20 25 21 27 22 28 23 29 84 30 24 31 83 32 25 33 26 34
REMARK SMILES IDX 27 35 77 36 28 37 82 38 76 39 78 40 29 41 81 42 75 43 74 44
REMARK SMILES IDX 30 46 62 47 42 48 61 49 43 50 46 51 60 52 79 53 44 54 45 55
REMARK SMILES IDX 59 57 80 58 47 59 31 60 32 61 40 62 33 63 35 64 41 65 34 66
REMARK SMILES IDX 36 67 37 68 38 69 39 70 63 71 64 72 72 73 65 74 67 75 73 76
REMARK SMILES IDX 66 77 68 78 69 79 70 80 71 81 48 82 49 83 57 84 50 85 52 86
REMARK SMILES IDX 58 87 51 88 53 89 54 90 55 91 56 92
REMARK H PARENT 14 6 19 26 78 45 46 56
REMARK Flexibility Score: inf
ROOT
ATOM      1  C   UNL A   1      32.369  31.124  27.104  1.00  0.00     0.023 C 
ENDROOT
BRANCH   1   2
ATOM      2  C   UNL A   1      31.792  30.200  25.971  1.00  0.00     0.116 C 
BRANCH   2   3
ATOM      3  N   UNL A   1      31.744  28.706  26.355  1.00  0.00    -0.356 N 
ATOM      4  C   UNL A   1      32.184  27.414  26.274  1.00  0.00     0.220 C 
ATOM      5  O   UNL A   1      31.451  26.701  27.000  1.00  0.00    -0.275 OA
ATOM      6  H   UNL A   1      31.002  28.656  27.000  1.00  0.00     0.163 HD
BRANCH   4   7
ATOM      7  C   UNL A   1      33.460  26.609  25.648  1.00  0.00     0.103 C 
BRANCH   7   8
ATOM      8  C   UNL A   1      33.862  25.927  24.248  1.00  0.00     0.051 C 
BRANCH   8   9
ATOM      9  C   UNL A   1      33.028  25.174  23.118  1.00  0.00     0.232 C 
BRANCH   9  10
ATOM     10  O   UNL A   1      31.866  25.698  22.456  1.00  0.00    -0.477 OA
BRANCH  10  11
ATOM     11  C   UNL A   1      30.885  26.387  23.099  1.00  0.00     0.235 A 
ATOM     12  C   UNL A   1      28.053  30.651  21.151  1.00  0.00     0.067 C 
ATOM     13  C   UNL A   1      28.900  29.719  21.981  1.00  0.00     0.039 A 
ATOM     14  C   UNL A   1      30.286  29.854  21.949  1.00  0.00     0.027 A 
ATOM     15  N   UNL A   1      28.278  28.782  22.731  1.00  0.00    -0.240 NA
ATOM     16  C   UNL A   1      31.106  28.884  22.556  1.00  0.00    -0.034 A 
ATOM     17  C   UNL A   1      29.104  27.813  23.166  1.00  0.00     0.147 A 
ATOM     18  C   UNL A   1      32.553  28.951  22.826  1.00  0.00     0.045 C 
ATOM     19  C   UNL A   1      30.466  27.727  22.945  1.00  0.00     0.078 A 
ATOM     20  S   UNL A   1      28.677  26.481  24.133  1.00  0.00    -0.012 S 
ATOM     21  N   UNL A   1      30.101  25.629  23.867  1.00  0.00    -0.153 NA
ENDBRANCH  10  11
ENDBRANCH   9  10
ENDBRANCH   8   9
ENDBRANCH   7   8
ENDBRANCH   4   7
ENDBRANCH   2   3
ENDBRANCH   1   2
BRANCH   1  22
ATOM     22  C   UNL A   1      33.862  30.982  27.449  1.00  0.00     0.023 C 
BRANCH  22  23
ATOM     23  C   UNL A   1      34.554  32.284  27.858  1.00  0.00     0.116 C 
BRANCH  23  24
ATOM     24  N   UNL A   1      34.466  32.611  29.292  1.00  0.00    -0.352 N 
ATOM     25  C   UNL A   1      35.258  32.070  30.314  1.00  0.00     0.251 C 
ATOM     26  H   UNL A   1      33.788  33.274  29.557  1.00  0.00     0.163 HD
ATOM     27  O   UNL A   1      34.965  32.137  31.475  1.00  0.00    -0.269 OA
BRANCH  25  28
ATOM     28  C   UNL A   1      36.522  31.440  29.870  1.00  0.00     0.039 A 
ATOM     29  C   UNL A   1      37.721  32.148  29.777  1.00  0.00     0.014 A 
ATOM     30  C   UNL A   1      36.475  30.055  29.742  1.00  0.00     0.014 A 
ATOM     31  C   UNL A   1      38.905  31.422  29.656  1.00  0.00     0.010 A 
ATOM     32  C   UNL A   1      37.644  29.349  29.805  1.00  0.00     0.010 A 
ATOM     33  C   UNL A   1      38.860  30.018  29.706  1.00  0.00    -0.014 A 
BRANCH  33  34
ATOM     34  C   UNL A   1      40.080  29.222  29.751  1.00  0.00     0.031 A 
ATOM     35  C   UNL A   1      40.627  28.959  31.112  1.00  0.00     0.074 A 
ATOM     36  C   UNL A   1      40.593  28.613  28.660  1.00  0.00     0.049 A 
ATOM     37  N   UNL A   1      41.671  29.499  31.646  1.00  0.00    -0.248 NA
ATOM     38  C   UNL A   1      39.858  28.116  32.039  1.00  0.00     0.031 C 
ATOM     39  C   UNL A   1      40.035  28.510  27.303  1.00  0.00     0.029 A 
ATOM     40  N   UNL A   1      41.709  27.846  28.574  1.00  0.00    -0.354 N 
ATOM     41  C   UNL A   1      41.831  28.891  32.889  1.00  0.00     0.074 A 
ATOM     42  C   UNL A   1      40.591  28.209  33.152  1.00  0.00     0.031 C 
ATOM     43  C   UNL A   1      40.677  27.538  26.617  1.00  0.00     0.029 A 
ATOM     44  C   UNL A   1      41.814  27.107  27.402  1.00  0.00     0.049 A 
ATOM     45  H   UNL A   1      42.389  27.815  29.285  1.00  0.00     0.167 HD
ATOM     46  C   UNL A   1      43.058  28.820  33.483  1.00  0.00     0.034 A 
ATOM     47  C   UNL A   1      42.779  26.208  27.100  1.00  0.00     0.034 A 
ATOM     48  C   UNL A   1      43.995  29.705  32.830  1.00  0.00     0.049 A 
ATOM     49  C   UNL A   1      43.948  26.546  27.945  1.00  0.00     0.074 A 
ATOM     50  C   UNL A   1      44.058  31.066  32.605  1.00  0.00     0.029 A 
ATOM     51  N   UNL A   1      44.867  29.137  31.931  1.00  0.00    -0.354 N 
ATOM     52  N   UNL A   1      44.620  27.658  27.820  1.00  0.00    -0.248 NA
ATOM     53  C   UNL A   1      44.080  25.872  29.225  1.00  0.00     0.031 C 
ATOM     54  C   UNL A   1      44.558  31.188  31.273  1.00  0.00     0.029 A 
ATOM     55  C   UNL A   1      44.845  29.906  30.797  1.00  0.00     0.049 A 
ATOM     56  H   UNL A   1      45.407  28.326  32.075  1.00  0.00     0.167 HD
ATOM     57  C   UNL A   1      44.877  28.056  29.125  1.00  0.00     0.074 A 
ATOM     58  C   UNL A   1      44.615  26.868  29.939  1.00  0.00     0.031 C 
ATOM     59  C   UNL A   1      44.998  29.376  29.457  1.00  0.00     0.034 A 
BRANCH  46  60
ATOM     60  C   UNL A   1      43.546  27.721  34.408  1.00  0.00     0.023 A 
ATOM     61  C   UNL A   1      44.124  28.126  35.635  1.00  0.00     0.012 A 
ATOM     62  C   UNL A   1      43.723  26.367  34.043  1.00  0.00     0.148 A 
ATOM     63  C   UNL A   1      44.906  27.261  36.410  1.00  0.00     0.002 A 
ATOM     64  C   UNL A   1      44.442  25.490  34.852  1.00  0.00     0.091 A 
ATOM     65  F   UNL A   1      43.305  25.931  32.855  1.00  0.00    -0.205 F 
ATOM     66  C   UNL A   1      45.066  25.940  36.017  1.00  0.00     0.022 A 
BRANCH  64  67
ATOM     67  S   UNL A   1      44.642  23.757  34.417  1.00  0.00     0.127 S 
ATOM     68  O   UNL A   1      43.256  23.342  34.225  1.00  0.00    -0.237 OA
ATOM     69  O   UNL A   1      45.439  23.845  33.194  1.00  0.00    -0.237 OA
ATOM     70  O   UNL A   1      45.344  23.150  35.542  1.00  0.00    -0.744 OA
ENDBRANCH  64  67
ENDBRANCH  46  60
BRANCH  47  71
ATOM     71  C   UNL A   1      42.697  24.953  26.324  1.00  0.00     0.023 A 
ATOM     72  C   UNL A   1      43.588  24.733  25.256  1.00  0.00     0.012 A 
ATOM     73  C   UNL A   1      41.962  23.854  26.824  1.00  0.00     0.148 A 
ATOM     74  C   UNL A   1      43.773  23.451  24.726  1.00  0.00     0.002 A 
ATOM     75  C   UNL A   1      42.162  22.578  26.303  1.00  0.00     0.091 A 
ATOM     76  F   UNL A   1      41.136  24.051  27.860  1.00  0.00    -0.205 F 
ATOM     77  C   UNL A   1      43.075  22.372  25.260  1.00  0.00     0.022 A 
BRANCH  75  78
ATOM     78  S   UNL A   1      41.372  21.114  26.990  1.00  0.00     0.127 S 
ATOM     79  O   UNL A   1      42.254  20.794  28.111  1.00  0.00    -0.237 OA
ATOM     80  O   UNL A   1      40.059  21.629  27.372  1.00  0.00    -0.237 OA
ATOM     81  O   UNL A   1      41.357  20.125  25.921  1.00  0.00    -0.744 OA
ENDBRANCH  75  78
ENDBRANCH  47  71
BRANCH  59  82
ATOM     82  C   UNL A   1      45.027  30.400  28.343  1.00  0.00     0.023 A 
ATOM     83  C   UNL A   1      43.847  30.937  27.785  1.00  0.00     0.012 A 
ATOM     84  C   UNL A   1      46.258  30.987  28.002  1.00  0.00     0.148 A 
ATOM     85  C   UNL A   1      43.892  32.023  26.905  1.00  0.00     0.002 A 
ATOM     86  C   UNL A   1      46.296  32.098  27.167  1.00  0.00     0.091 A 
ATOM     87  F   UNL A   1      47.374  30.472  28.540  1.00  0.00    -0.205 F 
ATOM     88  C   UNL A   1      45.117  32.615  26.609  1.00  0.00     0.022 A 
BRANCH  86  89
ATOM     89  S   UNL A   1      47.821  32.993  26.860  1.00  0.00     0.127 S 
ATOM     90  O   UNL A   1      48.720  31.925  26.425  1.00  0.00    -0.237 OA
ATOM     91  O   UNL A   1      47.429  33.929  25.806  1.00  0.00    -0.237 OA
ATOM     92  O   UNL A   1      48.173  33.633  28.122  1.00  0.00    -0.744 OA
ENDBRANCH  86  89
ENDBRANCH  59  82
ENDBRANCH  33  34
ENDBRANCH  25  28
ENDBRANCH  23  24
ENDBRANCH  22  23
ENDBRANCH   1  22
TORSDOF 18
ENDMDL
MODEL 3
REMARK VINA RESULT:     -10.8      4.595     10.243
REMARK SMILES Cc1cc(C)c2c(OCCCC(=O)NCCCCNC(=O)c3ccc(-c4c5nc(c(-c6cccc(S(=O)(=O)[O-])c6F)c6ccc([nH]6)c(-c6cccc(S(=O)(=O)[O-])c6F)c6nc(c(-c7cccc(S(=O)(=O)[O-])c7F)c7ccc4[nH]7)C=C6)C=C5)cc3)nsc2n1
REMARK SMILES IDX 16 1 15 2 14 3 12 4 13 5 11 7 10 8 9 9 8 10 7 11 1 12 2 13
REMARK SMILES IDX 3 14 88 15 4 16 87 17 5 18 6 19 86 20 85 21 17 22 18 23
REMARK SMILES IDX 19 24 20 25 21 27 22 28 23 29 84 30 24 31 83 32 25 33 26 34
REMARK SMILES IDX 27 35 77 36 28 37 82 38 76 39 78 40 29 41 81 42 75 43 74 44
REMARK SMILES IDX 30 46 62 47 42 48 61 49 43 50 46 51 60 52 79 53 44 54 45 55
REMARK SMILES IDX 59 57 80 58 47 59 31 60 32 61 40 62 33 63 35 64 41 65 34 66
REMARK SMILES IDX 36 67 37 68 38 69 39 70 63 71 64 72 72 73 65 74 67 75 73 76
REMARK SMILES IDX 66 77 68 78 69 79 70 80 71 81 48 82 49 83 57 84 50 85 52 86
REMARK SMILES IDX 58 87 51 88 53 89 54 90 55 91 56 92
REMARK H PARENT 14 6 19 26 78 45 46 56
REMARK Flexibility Score: inf
ROOT
ATOM      1  C   UNL A   1      36.808  32.824  33.252  1.00  0.00     0.023 C 
ENDROOT
BRANCH   1   2
ATOM      2  C   UNL A   1      37.358  31.352  33.273  1.00  0.00     0.116 C 
BRANCH   2   3
ATOM      3  N   UNL A   1      37.882  30.906  34.655  1.00  0.00    -0.356 N 
ATOM      4  C   UNL A   1      38.859  30.773  35.601  1.00  0.00     0.220 C 
ATOM      5  O   UNL A   1      38.377  30.162  36.584  1.00  0.00    -0.275 OA
ATOM      6  H   UNL A   1      37.092  30.500  35.081  1.00  0.00     0.163 HD
BRANCH   4   7
ATOM      7  C   UNL A   1      40.375  31.324  35.857  1.00  0.00     0.103 C 
BRANCH   7   8
ATOM      8  C   UNL A   1      41.246  32.623  35.479  1.00  0.00     0.051 C 
BRANCH   8   9
ATOM      9  C   UNL A   1      40.909  34.178  35.390  1.00  0.00     0.232 C 
BRANCH   9  10
ATOM     10  O   UNL A   1      41.298  35.051  34.319  1.00  0.00    -0.477 OA
BRANCH  10  11
ATOM     11  C   UNL A   1      42.269  34.745  33.418  1.00  0.00     0.235 A 
ATOM     12  C   UNL A   1      42.151  35.675  28.021  1.00  0.00     0.067 C 
ATOM     13  C   UNL A   1      42.262  35.058  29.393  1.00  0.00     0.039 A 
ATOM     14  C   UNL A   1      41.182  34.340  29.902  1.00  0.00     0.027 A 
ATOM     15  N   UNL A   1      43.413  35.224  30.082  1.00  0.00    -0.240 NA
ATOM     16  C   UNL A   1      41.181  33.920  31.246  1.00  0.00    -0.034 A 
ATOM     17  C   UNL A   1      43.300  34.929  31.389  1.00  0.00     0.147 A 
ATOM     18  C   UNL A   1      40.262  32.978  31.907  1.00  0.00     0.045 C 
ATOM     19  C   UNL A   1      42.171  34.464  32.036  1.00  0.00     0.078 A 
ATOM     20  S   UNL A   1      44.536  35.016  32.554  1.00  0.00    -0.012 S 
ATOM     21  N   UNL A   1      43.510  34.897  33.882  1.00  0.00    -0.153 NA
ENDBRANCH  10  11
ENDBRANCH   9  10
ENDBRANCH   8   9
ENDBRANCH   7   8
ENDBRANCH   4   7
ENDBRANCH   2   3
ENDBRANCH   1   2
BRANCH   1  22
ATOM     22  C   UNL A   1      35.641  33.136  32.299  1.00  0.00     0.023 C 
BRANCH  22  23
ATOM     23  C   UNL A   1      35.115  31.934  31.511  1.00  0.00     0.116 C 
BRANCH  23  24
ATOM     24  N   UNL A   1      34.384  32.270  30.277  1.00  0.00    -0.352 N 
ATOM     25  C   UNL A   1      34.943  32.426  29.001  1.00  0.00     0.251 C 
ATOM     26  H   UNL A   1      33.411  32.397  30.356  1.00  0.00     0.163 HD
ATOM     27  O   UNL A   1      34.376  32.978  28.100  1.00  0.00    -0.269 OA
BRANCH  25  28
ATOM     28  C   UNL A   1      36.279  31.816  28.816  1.00  0.00     0.039 A 
ATOM     29  C   UNL A   1      37.460  32.475  29.163  1.00  0.00     0.014 A 
ATOM     30  C   UNL A   1      36.266  30.472  28.457  1.00  0.00     0.014 A 
ATOM     31  C   UNL A   1      38.630  31.722  29.247  1.00  0.00     0.010 A 
ATOM     32  C   UNL A   1      37.373  29.712  28.714  1.00  0.00     0.010 A 
ATOM     33  C   UNL A   1      38.571  30.331  29.055  1.00  0.00    -0.014 A 
BRANCH  33  34
ATOM     34  C   UNL A   1      39.731  29.483  29.295  1.00  0.00     0.031 A 
ATOM     35  C   UNL A   1      39.979  29.119  30.718  1.00  0.00     0.074 A 
ATOM     36  C   UNL A   1      40.440  28.917  28.293  1.00  0.00     0.049 A 
ATOM     37  N   UNL A   1      40.906  29.583  31.487  1.00  0.00    -0.248 NA
ATOM     38  C   UNL A   1      39.011  28.258  31.412  1.00  0.00     0.031 C 
ATOM     39  C   UNL A   1      40.169  28.916  26.848  1.00  0.00     0.029 A 
ATOM     40  N   UNL A   1      41.526  28.109  28.386  1.00  0.00    -0.354 N 
ATOM     41  C   UNL A   1      40.789  28.897  32.695  1.00  0.00     0.074 A 
ATOM     42  C   UNL A   1      39.502  28.255  32.655  1.00  0.00     0.031 C 
ATOM     43  C   UNL A   1      40.910  27.960  26.244  1.00  0.00     0.029 A 
ATOM     44  C   UNL A   1      41.848  27.436  27.215  1.00  0.00     0.049 A 
ATOM     45  H   UNL A   1      42.044  28.008  29.217  1.00  0.00     0.167 HD
ATOM     46  C   UNL A   1      41.865  28.740  33.520  1.00  0.00     0.034 A 
ATOM     47  C   UNL A   1      42.827  26.515  27.057  1.00  0.00     0.034 A 
ATOM     48  C   UNL A   1      42.942  29.621  33.131  1.00  0.00     0.049 A 
ATOM     49  C   UNL A   1      43.807  26.754  28.142  1.00  0.00     0.074 A 
ATOM     50  C   UNL A   1      43.091  30.988  33.012  1.00  0.00     0.029 A 
ATOM     51  N   UNL A   1      43.963  29.069  32.392  1.00  0.00    -0.354 N 
ATOM     52  N   UNL A   1      44.523  27.842  28.229  1.00  0.00    -0.248 NA
ATOM     53  C   UNL A   1      43.652  26.002  29.375  1.00  0.00     0.031 C 
ATOM     54  C   UNL A   1      43.858  31.166  31.821  1.00  0.00     0.029 A 
ATOM     55  C   UNL A   1      44.198  29.902  31.331  1.00  0.00     0.049 A 
ATOM     56  H   UNL A   1      44.438  28.229  32.590  1.00  0.00     0.167 HD
ATOM     57  C   UNL A   1      44.518  28.152  29.583  1.00  0.00     0.074 A 
ATOM     58  C   UNL A   1      44.059  26.931  30.247  1.00  0.00     0.031 C 
ATOM     59  C   UNL A   1      44.608  29.445  30.018  1.00  0.00     0.034 A 
BRANCH  46  60
ATOM     60  C   UNL A   1      42.120  27.569  34.451  1.00  0.00     0.023 A 
ATOM     61  C   UNL A   1      41.817  27.762  35.821  1.00  0.00     0.012 A 
ATOM     62  C   UNL A   1      42.874  26.419  34.127  1.00  0.00     0.148 A 
ATOM     63  C   UNL A   1      42.310  26.912  36.817  1.00  0.00     0.002 A 
ATOM     64  C   UNL A   1      43.303  25.536  35.115  1.00  0.00     0.091 A 
ATOM     65  F   UNL A   1      43.293  26.220  32.878  1.00  0.00    -0.205 F 
ATOM     66  C   UNL A   1      43.055  25.797  36.464  1.00  0.00     0.022 A 
BRANCH  64  67
ATOM     67  S   UNL A   1      44.231  24.049  34.712  1.00  0.00     0.127 S 
ATOM     68  O   UNL A   1      45.406  24.609  34.053  1.00  0.00    -0.237 OA
ATOM     69  O   UNL A   1      44.473  23.479  36.036  1.00  0.00    -0.237 OA
ATOM     70  O   UNL A   1      43.344  23.251  33.873  1.00  0.00    -0.744 OA
ENDBRANCH  64  67
ENDBRANCH  46  60
BRANCH  47  71
ATOM     71  C   UNL A   1      42.869  25.312  26.201  1.00  0.00     0.023 A 
ATOM     72  C   UNL A   1      43.906  25.160  25.260  1.00  0.00     0.012 A 
ATOM     73  C   UNL A   1      42.081  24.183  26.520  1.00  0.00     0.148 A 
ATOM     74  C   UNL A   1      44.178  23.914  24.683  1.00  0.00     0.002 A 
ATOM     75  C   UNL A   1      42.364  22.942  25.954  1.00  0.00     0.091 A 
ATOM     76  F   UNL A   1      41.112  24.314  27.436  1.00  0.00    -0.205 F 
ATOM     77  C   UNL A   1      43.420  22.803  25.042  1.00  0.00     0.022 A 
BRANCH  75  78
ATOM     78  S   UNL A   1      41.497  21.438  26.428  1.00  0.00     0.127 S 
ATOM     79  O   UNL A   1      40.139  21.716  25.966  1.00  0.00    -0.237 OA
ATOM     80  O   UNL A   1      42.211  20.422  25.658  1.00  0.00    -0.237 OA
ATOM     81  O   UNL A   1      41.641  21.329  27.873  1.00  0.00    -0.744 OA
ENDBRANCH  75  78
ENDBRANCH  47  71
BRANCH  59  82
ATOM     82  C   UNL A   1      44.896  30.529  29.002  1.00  0.00     0.023 A 
ATOM     83  C   UNL A   1      43.868  31.293  28.407  1.00  0.00     0.012 A 
ATOM     84  C   UNL A   1      46.229  30.929  28.806  1.00  0.00     0.148 A 
ATOM     85  C   UNL A   1      44.161  32.419  27.630  1.00  0.00     0.002 A 
ATOM     86  C   UNL A   1      46.515  32.077  28.076  1.00  0.00     0.091 A 
ATOM     87  F   UNL A   1      47.198  30.199  29.379  1.00  0.00    -0.205 F 
ATOM     88  C   UNL A   1      45.486  32.820  27.478  1.00  0.00     0.022 A 
BRANCH  86  89
ATOM     89  S   UNL A   1      48.183  32.728  27.962  1.00  0.00     0.127 S 
ATOM     90  O   UNL A   1      48.973  31.514  27.765  1.00  0.00    -0.237 OA
ATOM     91  O   UNL A   1      48.101  33.600  26.789  1.00  0.00    -0.237 OA
ATOM     92  O   UNL A   1      48.424  33.437  29.213  1.00  0.00    -0.744 OA
ENDBRANCH  86  89
ENDBRANCH  59  82
ENDBRANCH  33  34
ENDBRANCH  25  28
ENDBRANCH  23  24
ENDBRANCH  22  23
ENDBRANCH   1  22
TORSDOF 18
ENDMDL
