MODEL 1
REMARK VINA RESULT:      -9.0      0.000      0.000
REMARK SMILES CCCCCCCCNC(=O)Oc1cccc(-c2ccc([C@@H](C)C(=O)NCCCCNC(=O)c3ccc(-c4c5nc(c(-c6cccc(S(=O)(=O)[O-])c6F)c6ccc([nH]6)c(-c6cccc(S(=O)(=O)[O-])c6F)c6nc(c(-c7cccc(S(=O)(=O)[O-])c7F)c7ccc4[nH]7)C=C6)C=C5)cc3)cc2F)c1
REMARK SMILES IDX 18 1 19 2 20 3 21 4 97 5 98 6 99 7 17 8 13 9 14 10 100 11
REMARK SMILES IDX 15 12 16 13 12 14 10 15 9 16 11 18 8 19 7 20 6 21 5 22 4 23
REMARK SMILES IDX 3 24 2 25 1 26 22 27 23 28 24 29 25 30 26 31 27 33 28 34
REMARK SMILES IDX 29 35 30 36 31 37 32 38 33 40 34 41 35 42 96 43 36 44 95 45
REMARK SMILES IDX 37 46 38 47 39 48 89 49 40 50 94 51 88 52 90 53 41 54 93 55
REMARK SMILES IDX 87 56 86 57 42 59 74 60 54 61 73 62 55 63 58 64 72 65 91 66
REMARK SMILES IDX 56 67 57 68 71 70 92 71 59 72 43 73 44 74 52 75 45 76 47 77
REMARK SMILES IDX 53 78 46 79 48 80 49 81 50 82 51 83 75 84 76 85 84 86 77 87
REMARK SMILES IDX 79 88 85 89 78 90 80 91 81 92 82 93 83 94 60 95 61 96 69 97
REMARK SMILES IDX 62 98 64 99 70 100 63 101 65 102 66 103 67 104 68 105
REMARK H PARENT 9 17 26 32 31 39 90 58 58 69
REMARK Flexibility Score: inf
ROOT
ATOM      1  C   UNL A   1      39.771  28.066  28.420  1.00  0.00     0.018 A 
ATOM      2  C   UNL A   1      40.093  27.085  29.372  1.00  0.00     0.012 A 
ATOM      3  C   UNL A   1      40.999  26.055  29.097  1.00  0.00     0.005 A 
ATOM      4  C   UNL A   1      41.552  25.901  27.825  1.00  0.00    -0.033 A 
ATOM      5  C   UNL A   1      41.253  26.880  26.868  1.00  0.00     0.044 A 
ATOM      6  C   UNL A   1      40.403  27.949  27.173  1.00  0.00     0.131 A 
ATOM      7  F   UNL A   1      40.220  28.878  26.221  1.00  0.00    -0.206 F 
ENDROOT
BRANCH   1   8
ATOM      8  C   UNL A   1      38.811  29.147  28.748  1.00  0.00    -0.012 A 
ATOM      9  C   UNL A   1      37.912  30.819  30.268  1.00  0.00     0.133 A 
ATOM     10  C   UNL A   1      36.967  31.223  29.330  1.00  0.00     0.047 A 
ATOM     11  C   UNL A   1      38.828  29.802  29.991  1.00  0.00     0.056 A 
ATOM     12  C   UNL A   1      36.939  30.600  28.092  1.00  0.00     0.004 A 
ATOM     13  C   UNL A   1      37.841  29.568  27.813  1.00  0.00     0.009 A 
BRANCH   9  14
ATOM     14  O   UNL A   1      37.787  31.369  31.552  1.00  0.00    -0.410 OA
BRANCH  14  15
ATOM     15  C   UNL A   1      36.963  30.761  32.486  1.00  0.00     0.412 C 
ATOM     16  N   UNL A   1      36.226  31.671  33.193  1.00  0.00    -0.321 N 
ATOM     17  H   UNL A   1      35.654  31.318  33.912  1.00  0.00     0.167 HD
ATOM     18  O   UNL A   1      36.876  29.561  32.699  1.00  0.00    -0.224 OA
BRANCH  16  19
ATOM     19  C   UNL A   1      36.211  33.104  32.982  1.00  0.00     0.119 C 
BRANCH  19  20
ATOM     20  C   UNL A   1      35.216  33.803  33.909  1.00  0.00     0.021 C 
BRANCH  20  21
ATOM     21  C   UNL A   1      34.134  34.611  33.184  1.00  0.00     0.002 C 
BRANCH  21  22
ATOM     22  C   UNL A   1      34.374  36.124  33.146  1.00  0.00     0.000 C 
BRANCH  22  23
ATOM     23  C   UNL A   1      33.369  36.913  32.300  1.00  0.00    -0.000 C 
BRANCH  23  24
ATOM     24  C   UNL A   1      32.597  36.079  31.272  1.00  0.00    -0.000 C 
BRANCH  24  25
ATOM     25  C   UNL A   1      33.175  36.095  29.855  1.00  0.00    -0.003 C 
ATOM     26  C   UNL A   1      33.521  34.710  29.329  1.00  0.00     0.004 C 
ENDBRANCH  24  25
ENDBRANCH  23  24
ENDBRANCH  22  23
ENDBRANCH  21  22
ENDBRANCH  20  21
ENDBRANCH  19  20
ENDBRANCH  16  19
ENDBRANCH  14  15
ENDBRANCH   9  14
ENDBRANCH   1   8
BRANCH   4  27
ATOM     27  C   UNL A   1      42.416  24.711  27.441  1.00  0.00     0.105 C 
ATOM     28  C   UNL A   1      43.214  24.077  28.580  1.00  0.00     0.023 C 
BRANCH  27  29
ATOM     29  C   UNL A   1      41.707  23.695  26.532  1.00  0.00     0.227 C 
ATOM     30  O   UNL A   1      40.578  23.290  26.838  1.00  0.00    -0.274 OA
ATOM     31  N   UNL A   1      42.237  23.209  25.376  1.00  0.00    -0.356 N 
ATOM     32  H   UNL A   1      41.635  22.612  24.877  1.00  0.00     0.163 HD
BRANCH  31  33
ATOM     33  C   UNL A   1      43.524  23.412  24.747  1.00  0.00     0.116 C 
BRANCH  33  34
ATOM     34  C   UNL A   1      44.440  22.196  24.901  1.00  0.00     0.023 C 
BRANCH  34  35
ATOM     35  C   UNL A   1      45.563  22.360  25.922  1.00  0.00     0.023 C 
BRANCH  35  36
ATOM     36  C   UNL A   1      45.959  23.802  26.222  1.00  0.00     0.116 C 
BRANCH  36  37
ATOM     37  N   UNL A   1      46.740  24.437  25.167  1.00  0.00    -0.352 N 
ATOM     38  C   UNL A   1      46.911  25.785  24.941  1.00  0.00     0.251 C 
ATOM     39  H   UNL A   1      47.201  23.831  24.544  1.00  0.00     0.163 HD
ATOM     40  O   UNL A   1      47.536  26.181  23.964  1.00  0.00    -0.269 OA
BRANCH  38  41
ATOM     41  C   UNL A   1      46.285  26.744  25.875  1.00  0.00     0.039 A 
ATOM     42  C   UNL A   1      44.944  27.090  25.697  1.00  0.00     0.014 A 
ATOM     43  C   UNL A   1      47.002  27.218  26.976  1.00  0.00     0.014 A 
ATOM     44  C   UNL A   1      44.299  27.852  26.673  1.00  0.00     0.010 A 
ATOM     45  C   UNL A   1      46.335  27.898  27.986  1.00  0.00     0.010 A 
ATOM     46  C   UNL A   1      44.977  28.225  27.846  1.00  0.00    -0.014 A 
BRANCH  46  47
ATOM     47  C   UNL A   1      44.289  28.949  28.944  1.00  0.00     0.031 A 
ATOM     48  C   UNL A   1      43.964  30.411  28.795  1.00  0.00     0.074 A 
ATOM     49  C   UNL A   1      44.049  28.320  30.112  1.00  0.00     0.049 A 
ATOM     50  N   UNL A   1      43.428  31.229  29.662  1.00  0.00    -0.248 NA
ATOM     51  C   UNL A   1      44.321  31.044  27.514  1.00  0.00     0.031 C 
ATOM     52  C   UNL A   1      44.400  26.930  30.415  1.00  0.00     0.029 A 
ATOM     53  N   UNL A   1      43.476  28.776  31.273  1.00  0.00    -0.354 N 
ATOM     54  C   UNL A   1      43.420  32.477  29.050  1.00  0.00     0.074 A 
ATOM     55  C   UNL A   1      44.045  32.317  27.756  1.00  0.00     0.031 C 
ATOM     56  C   UNL A   1      44.024  26.645  31.671  1.00  0.00     0.029 A 
ATOM     57  C   UNL A   1      43.435  27.835  32.276  1.00  0.00     0.049 A 
ATOM     58  H   UNL A   1      43.128  29.690  31.379  1.00  0.00     0.167 HD
ATOM     59  C   UNL A   1      42.907  33.644  29.507  1.00  0.00     0.034 A 
ATOM     60  C   UNL A   1      42.975  27.921  33.540  1.00  0.00     0.034 A 
ATOM     61  C   UNL A   1      42.243  33.786  30.772  1.00  0.00     0.049 A 
ATOM     62  C   UNL A   1      42.366  29.217  34.007  1.00  0.00     0.074 A 
ATOM     63  C   UNL A   1      41.603  34.899  31.288  1.00  0.00     0.029 A 
ATOM     64  N   UNL A   1      42.139  32.786  31.726  1.00  0.00    -0.354 N 
ATOM     65  N   UNL A   1      42.217  30.342  33.351  1.00  0.00    -0.248 NA
ATOM     66  C   UNL A   1      41.829  29.242  35.375  1.00  0.00     0.031 C 
ATOM     67  C   UNL A   1      41.130  34.577  32.565  1.00  0.00     0.029 A 
ATOM     68  C   UNL A   1      41.452  33.256  32.833  1.00  0.00     0.049 A 
ATOM     69  H   UNL A   1      42.499  31.874  31.631  1.00  0.00     0.167 HD
ATOM     70  C   UNL A   1      41.537  31.197  34.211  1.00  0.00     0.074 A 
ATOM     71  C   UNL A   1      41.287  30.452  35.428  1.00  0.00     0.031 C 
ATOM     72  C   UNL A   1      41.165  32.486  34.016  1.00  0.00     0.034 A 
BRANCH  59  73
ATOM     73  C   UNL A   1      42.997  34.844  28.600  1.00  0.00     0.023 A 
ATOM     74  C   UNL A   1      41.875  35.221  27.831  1.00  0.00     0.012 A 
ATOM     75  C   UNL A   1      44.170  35.620  28.533  1.00  0.00     0.148 A 
ATOM     76  C   UNL A   1      41.933  36.322  26.978  1.00  0.00     0.002 A 
ATOM     77  C   UNL A   1      44.204  36.745  27.716  1.00  0.00     0.091 A 
ATOM     78  F   UNL A   1      45.234  35.235  29.251  1.00  0.00    -0.205 F 
ATOM     79  C   UNL A   1      43.093  37.088  26.928  1.00  0.00     0.022 A 
BRANCH  77  80
ATOM     80  S   UNL A   1      45.624  37.844  27.642  1.00  0.00     0.127 S 
ATOM     81  O   UNL A   1      46.675  36.936  27.186  1.00  0.00    -0.237 OA
ATOM     82  O   UNL A   1      45.198  38.831  26.649  1.00  0.00    -0.237 OA
ATOM     83  O   UNL A   1      45.790  38.372  28.989  1.00  0.00    -0.744 OA
ENDBRANCH  77  80
ENDBRANCH  59  73
BRANCH  60  84
ATOM     84  C   UNL A   1      43.001  26.724  34.425  1.00  0.00     0.023 A 
ATOM     85  C   UNL A   1      41.802  26.028  34.679  1.00  0.00     0.012 A 
ATOM     86  C   UNL A   1      44.201  26.249  34.989  1.00  0.00     0.148 A 
ATOM     87  C   UNL A   1      41.791  24.901  35.501  1.00  0.00     0.002 A 
ATOM     88  C   UNL A   1      44.192  25.094  35.764  1.00  0.00     0.091 A 
ATOM     89  F   UNL A   1      45.330  26.929  34.743  1.00  0.00    -0.205 F 
ATOM     90  C   UNL A   1      42.987  24.428  36.034  1.00  0.00     0.022 A 
BRANCH  88  91
ATOM     91  S   UNL A   1      45.698  24.339  36.390  1.00  0.00     0.127 S 
ATOM     92  O   UNL A   1      46.482  24.180  35.168  1.00  0.00    -0.237 OA
ATOM     93  O   UNL A   1      46.189  25.367  37.309  1.00  0.00    -0.237 OA
ATOM     94  O   UNL A   1      45.279  23.104  37.037  1.00  0.00    -0.744 OA
ENDBRANCH  88  91
ENDBRANCH  60  84
BRANCH  72  95
ATOM     95  C   UNL A   1      40.413  33.173  35.126  1.00  0.00     0.023 A 
ATOM     96  C   UNL A   1      39.019  33.005  35.239  1.00  0.00     0.012 A 
ATOM     97  C   UNL A   1      41.102  33.920  36.103  1.00  0.00     0.148 A 
ATOM     98  C   UNL A   1      38.317  33.594  36.290  1.00  0.00     0.002 A 
ATOM     99  C   UNL A   1      40.403  34.462  37.175  1.00  0.00     0.091 A 
ATOM    100  F   UNL A   1      42.426  34.084  35.967  1.00  0.00    -0.205 F 
ATOM    101  C   UNL A   1      39.010  34.310  37.263  1.00  0.00     0.022 A 
BRANCH  99 102
ATOM    102  S   UNL A   1      41.224  35.314  38.527  1.00  0.00     0.127 S 
ATOM    103  O   UNL A   1      41.771  36.489  37.849  1.00  0.00    -0.237 OA
ATOM    104  O   UNL A   1      40.113  35.597  39.436  1.00  0.00    -0.237 OA
ATOM    105  O   UNL A   1      42.210  34.380  39.050  1.00  0.00    -0.744 OA
ENDBRANCH  99 102
ENDBRANCH  72  95
ENDBRANCH  46  47
ENDBRANCH  38  41
ENDBRANCH  36  37
ENDBRANCH  35  36
ENDBRANCH  34  35
ENDBRANCH  33  34
ENDBRANCH  31  33
ENDBRANCH  27  29
ENDBRANCH   4  27
TORSDOF 25
ENDMDL
MODEL 2
REMARK VINA RESULT:      -8.8      2.836     12.117
REMARK SMILES CCCCCCCCNC(=O)Oc1cccc(-c2ccc([C@@H](C)C(=O)NCCCCNC(=O)c3ccc(-c4c5nc(c(-c6cccc(S(=O)(=O)[O-])c6F)c6ccc([nH]6)c(-c6cccc(S(=O)(=O)[O-])c6F)c6nc(c(-c7cccc(S(=O)(=O)[O-])c7F)c7ccc4[nH]7)C=C6)C=C5)cc3)cc2F)c1
REMARK SMILES IDX 18 1 19 2 20 3 21 4 97 5 98 6 99 7 17 8 13 9 14 10 100 11
REMARK SMILES IDX 15 12 16 13 12 14 10 15 9 16 11 18 8 19 7 20 6 21 5 22 4 23
REMARK SMILES IDX 3 24 2 25 1 26 22 27 23 28 24 29 25 30 26 31 27 33 28 34
REMARK SMILES IDX 29 35 30 36 31 37 32 38 33 40 34 41 35 42 96 43 36 44 95 45
REMARK SMILES IDX 37 46 38 47 39 48 89 49 40 50 94 51 88 52 90 53 41 54 93 55
REMARK SMILES IDX 87 56 86 57 42 59 74 60 54 61 73 62 55 63 58 64 72 65 91 66
REMARK SMILES IDX 56 67 57 68 71 70 92 71 59 72 43 73 44 74 52 75 45 76 47 77
REMARK SMILES IDX 53 78 46 79 48 80 49 81 50 82 51 83 75 84 76 85 84 86 77 87
REMARK SMILES IDX 79 88 85 89 78 90 80 91 81 92 82 93 83 94 60 95 61 96 69 97
REMARK SMILES IDX 62 98 64 99 70 100 63 101 65 102 66 103 67 104 68 105
REMARK H PARENT 9 17 26 32 31 39 90 58 58 69
REMARK Flexibility Score: inf
ROOT
ATOM      1  C   UNL A   1      38.469  28.662  29.011  1.00  0.00     0.018 A 
ATOM      2  C   UNL A   1      37.774  28.695  30.231  1.00  0.00     0.012 A 
ATOM      3  C   UNL A   1      36.834  29.689  30.520  1.00  0.00     0.005 A 
ATOM      4  C   UNL A   1      36.613  30.753  29.644  1.00  0.00    -0.033 A 
ATOM      5  C   UNL A   1      37.288  30.727  28.416  1.00  0.00     0.044 A 
ATOM      6  C   UNL A   1      38.173  29.690  28.102  1.00  0.00     0.131 A 
ATOM      7  F   UNL A   1      38.728  29.705  26.879  1.00  0.00    -0.206 F 
ENDROOT
BRANCH   1   8
ATOM      8  C   UNL A   1      39.455  27.590  28.735  1.00  0.00    -0.012 A 
ATOM      9  C   UNL A   1      40.242  25.693  27.431  1.00  0.00     0.133 A 
ATOM     10  C   UNL A   1      41.374  25.563  28.228  1.00  0.00     0.047 A 
ATOM     11  C   UNL A   1      39.292  26.691  27.668  1.00  0.00     0.056 A 
ATOM     12  C   UNL A   1      41.563  26.447  29.279  1.00  0.00     0.004 A 
ATOM     13  C   UNL A   1      40.608  27.437  29.534  1.00  0.00     0.009 A 
BRANCH   9  14
ATOM     14  O   UNL A   1      40.023  24.676  26.491  1.00  0.00    -0.410 OA
BRANCH  14  15
ATOM     15  C   UNL A   1      38.948  23.815  26.643  1.00  0.00     0.412 C 
ATOM     16  N   UNL A   1      39.336  22.578  27.080  1.00  0.00    -0.321 N 
ATOM     17  H   UNL A   1      38.632  21.894  27.162  1.00  0.00     0.167 HD
ATOM     18  O   UNL A   1      37.776  24.077  26.417  1.00  0.00    -0.224 OA
BRANCH  16  19
ATOM     19  C   UNL A   1      40.684  22.182  27.430  1.00  0.00     0.119 C 
BRANCH  19  20
ATOM     20  C   UNL A   1      41.350  21.383  26.310  1.00  0.00     0.021 C 
BRANCH  20  21
ATOM     21  C   UNL A   1      42.640  22.007  25.766  1.00  0.00     0.002 C 
BRANCH  21  22
ATOM     22  C   UNL A   1      43.564  22.612  26.828  1.00  0.00     0.000 C 
BRANCH  22  23
ATOM     23  C   UNL A   1      44.941  23.042  26.313  1.00  0.00    -0.000 C 
BRANCH  23  24
ATOM     24  C   UNL A   1      44.989  24.444  25.698  1.00  0.00    -0.000 C 
BRANCH  24  25
ATOM     25  C   UNL A   1      43.969  25.436  26.262  1.00  0.00    -0.003 C 
ATOM     26  C   UNL A   1      43.898  26.739  25.479  1.00  0.00     0.004 C 
ENDBRANCH  24  25
ENDBRANCH  23  24
ENDBRANCH  22  23
ENDBRANCH  21  22
ENDBRANCH  20  21
ENDBRANCH  19  20
ENDBRANCH  16  19
ENDBRANCH  14  15
ENDBRANCH   9  14
ENDBRANCH   1   8
BRANCH   4  27
ATOM     27  C   UNL A   1      35.718  31.933  29.987  1.00  0.00     0.105 C 
ATOM     28  C   UNL A   1      35.161  31.949  31.410  1.00  0.00     0.023 C 
BRANCH  27  29
ATOM     29  C   UNL A   1      36.268  33.288  29.515  1.00  0.00     0.227 C 
ATOM     30  O   UNL A   1      35.768  33.835  28.524  1.00  0.00    -0.274 OA
ATOM     31  N   UNL A   1      37.278  33.956  30.136  1.00  0.00    -0.356 N 
ATOM     32  H   UNL A   1      37.475  34.839  29.747  1.00  0.00     0.163 HD
BRANCH  31  33
ATOM     33  C   UNL A   1      38.115  33.606  31.263  1.00  0.00     0.116 C 
BRANCH  33  34
ATOM     34  C   UNL A   1      37.959  34.588  32.426  1.00  0.00     0.023 C 
BRANCH  34  35
ATOM     35  C   UNL A   1      37.135  34.070  33.601  1.00  0.00     0.023 C 
BRANCH  35  36
ATOM     36  C   UNL A   1      37.808  34.183  34.964  1.00  0.00     0.116 C 
BRANCH  36  37
ATOM     37  N   UNL A   1      37.586  33.034  35.835  1.00  0.00    -0.352 N 
ATOM     38  C   UNL A   1      38.148  31.781  35.736  1.00  0.00     0.251 C 
ATOM     39  H   UNL A   1      36.961  33.171  36.583  1.00  0.00     0.163 HD
ATOM     40  O   UNL A   1      37.810  30.882  36.498  1.00  0.00    -0.269 OA
BRANCH  38  41
ATOM     41  C   UNL A   1      39.134  31.530  34.665  1.00  0.00     0.039 A 
ATOM     42  C   UNL A   1      40.469  31.881  34.873  1.00  0.00     0.014 A 
ATOM     43  C   UNL A   1      38.748  30.861  33.501  1.00  0.00     0.014 A 
ATOM     44  C   UNL A   1      41.433  31.488  33.943  1.00  0.00     0.010 A 
ATOM     45  C   UNL A   1      39.719  30.394  32.626  1.00  0.00     0.010 A 
ATOM     46  C   UNL A   1      41.072  30.703  32.835  1.00  0.00    -0.014 A 
BRANCH  46  47
ATOM     47  C   UNL A   1      42.089  30.187  31.885  1.00  0.00     0.031 A 
ATOM     48  C   UNL A   1      42.704  28.831  32.104  1.00  0.00     0.074 A 
ATOM     49  C   UNL A   1      42.532  30.976  30.885  1.00  0.00     0.049 A 
ATOM     50  N   UNL A   1      43.650  28.235  31.426  1.00  0.00    -0.248 NA
ATOM     51  C   UNL A   1      42.217  28.058  33.259  1.00  0.00     0.031 C 
ATOM     52  C   UNL A   1      42.081  32.345  30.621  1.00  0.00     0.029 A 
ATOM     53  N   UNL A   1      43.481  30.749  29.919  1.00  0.00    -0.354 N 
ATOM     54  C   UNL A   1      43.898  27.041  32.092  1.00  0.00     0.074 A 
ATOM     55  C   UNL A   1      43.035  27.017  33.252  1.00  0.00     0.031 C 
ATOM     56  C   UNL A   1      42.743  32.829  29.559  1.00  0.00     0.029 A 
ATOM     57  C   UNL A   1      43.686  31.822  29.083  1.00  0.00     0.049 A 
ATOM     58  H   UNL A   1      43.968  29.899  29.832  1.00  0.00     0.167 HD
ATOM     59  C   UNL A   1      44.741  26.038  31.751  1.00  0.00     0.034 A 
ATOM     60  C   UNL A   1      44.538  31.977  28.051  1.00  0.00     0.034 A 
ATOM     61  C   UNL A   1      45.560  26.045  30.572  1.00  0.00     0.049 A 
ATOM     62  C   UNL A   1      45.431  30.829  27.663  1.00  0.00     0.074 A 
ATOM     63  C   UNL A   1      46.375  25.039  30.084  1.00  0.00     0.029 A 
ATOM     64  N   UNL A   1      45.674  27.114  29.696  1.00  0.00    -0.354 N 
ATOM     65  N   UNL A   1      45.530  29.641  28.208  1.00  0.00    -0.248 NA
ATOM     66  C   UNL A   1      46.302  31.030  26.496  1.00  0.00     0.031 C 
ATOM     67  C   UNL A   1      47.000  25.509  28.923  1.00  0.00     0.029 A 
ATOM     68  C   UNL A   1      46.553  26.797  28.674  1.00  0.00     0.049 A 
ATOM     69  H   UNL A   1      45.200  27.972  29.787  1.00  0.00     0.167 HD
ATOM     70  C   UNL A   1      46.445  28.940  27.430  1.00  0.00     0.074 A 
ATOM     71  C   UNL A   1      46.856  29.831  26.364  1.00  0.00     0.031 C 
ATOM     72  C   UNL A   1      46.912  27.677  27.591  1.00  0.00     0.034 A 
BRANCH  59  73
ATOM     73  C   UNL A   1      44.772  24.823  32.643  1.00  0.00     0.023 A 
ATOM     74  C   UNL A   1      43.846  23.779  32.430  1.00  0.00     0.012 A 
ATOM     75  C   UNL A   1      45.732  24.694  33.665  1.00  0.00     0.148 A 
ATOM     76  C   UNL A   1      43.847  22.649  33.245  1.00  0.00     0.002 A 
ATOM     77  C   UNL A   1      45.757  23.542  34.443  1.00  0.00     0.091 A 
ATOM     78  F   UNL A   1      46.588  25.704  33.870  1.00  0.00    -0.205 F 
ATOM     79  C   UNL A   1      44.807  22.526  34.244  1.00  0.00     0.022 A 
BRANCH  77  80
ATOM     80  S   UNL A   1      47.005  23.252  35.702  1.00  0.00     0.127 S 
ATOM     81  O   UNL A   1      46.469  22.074  36.383  1.00  0.00    -0.237 OA
ATOM     82  O   UNL A   1      48.202  23.000  34.899  1.00  0.00    -0.237 OA
ATOM     83  O   UNL A   1      47.057  24.469  36.501  1.00  0.00    -0.744 OA
ENDBRANCH  77  80
ENDBRANCH  59  73
BRANCH  60  84
ATOM     84  C   UNL A   1      44.531  33.242  27.263  1.00  0.00     0.023 A 
ATOM     85  C   UNL A   1      43.778  33.308  26.073  1.00  0.00     0.012 A 
ATOM     86  C   UNL A   1      45.232  34.385  27.695  1.00  0.00     0.148 A 
ATOM     87  C   UNL A   1      43.747  34.477  25.313  1.00  0.00     0.002 A 
ATOM     88  C   UNL A   1      45.153  35.563  26.961  1.00  0.00     0.091 A 
ATOM     89  F   UNL A   1      45.948  34.299  28.824  1.00  0.00    -0.205 F 
ATOM     90  C   UNL A   1      44.425  35.608  25.762  1.00  0.00     0.022 A 
BRANCH  88  91
ATOM     91  S   UNL A   1      45.889  37.102  27.524  1.00  0.00     0.127 S 
ATOM     92  O   UNL A   1      45.240  37.287  28.820  1.00  0.00    -0.237 OA
ATOM     93  O   UNL A   1      47.307  36.751  27.589  1.00  0.00    -0.237 OA
ATOM     94  O   UNL A   1      45.560  38.091  26.506  1.00  0.00    -0.744 OA
ENDBRANCH  88  91
ENDBRANCH  60  84
BRANCH  72  95
ATOM     95  C   UNL A   1      47.896  27.160  26.574  1.00  0.00     0.023 A 
ATOM     96  C   UNL A   1      47.442  26.746  25.306  1.00  0.00     0.012 A 
ATOM     97  C   UNL A   1      49.278  27.161  26.849  1.00  0.00     0.148 A 
ATOM     98  C   UNL A   1      48.347  26.312  24.337  1.00  0.00     0.002 A 
ATOM     99  C   UNL A   1      50.176  26.775  25.861  1.00  0.00     0.091 A 
ATOM    100  F   UNL A   1      49.688  27.541  28.068  1.00  0.00    -0.205 F 
ATOM    101  C   UNL A   1      49.712  26.339  24.610  1.00  0.00     0.022 A 
BRANCH  99 102
ATOM    102  S   UNL A   1      51.956  26.872  26.089  1.00  0.00     0.127 S 
ATOM    103  O   UNL A   1      52.140  28.290  26.393  1.00  0.00    -0.237 OA
ATOM    104  O   UNL A   1      52.173  25.972  27.223  1.00  0.00    -0.237 OA
ATOM    105  O   UNL A   1      52.546  26.419  24.838  1.00  0.00    -0.744 OA
ENDBRANCH  99 102
ENDBRANCH  72  95
ENDBRANCH  46  47
ENDBRANCH  38  41
ENDBRANCH  36  37
ENDBRANCH  35  36
ENDBRANCH  34  35
ENDBRANCH  33  34
ENDBRANCH  31  33
ENDBRANCH  27  29
ENDBRANCH   4  27
TORSDOF 25
ENDMDL
MODEL 3
REMARK VINA RESULT:      -8.7      1.480      7.496
REMARK SMILES CCCCCCCCNC(=O)Oc1cccc(-c2ccc([C@@H](C)C(=O)NCCCCNC(=O)c3ccc(-c4c5nc(c(-c6cccc(S(=O)(=O)[O-])c6F)c6ccc([nH]6)c(-c6cccc(S(=O)(=O)[O-])c6F)c6nc(c(-c7cccc(S(=O)(=O)[O-])c7F)c7ccc4[nH]7)C=C6)C=C5)cc3)cc2F)c1
REMARK SMILES IDX 18 1 19 2 20 3 21 4 97 5 98 6 99 7 17 8 13 9 14 10 100 11
REMARK SMILES IDX 15 12 16 13 12 14 10 15 9 16 11 18 8 19 7 20 6 21 5 22 4 23
REMARK SMILES IDX 3 24 2 25 1 26 22 27 23 28 24 29 25 30 26 31 27 33 28 34
REMARK SMILES IDX 29 35 30 36 31 37 32 38 33 40 34 41 35 42 96 43 36 44 95 45
REMARK SMILES IDX 37 46 38 47 39 48 89 49 40 50 94 51 88 52 90 53 41 54 93 55
REMARK SMILES IDX 87 56 86 57 42 59 74 60 54 61 73 62 55 63 58 64 72 65 91 66
REMARK SMILES IDX 56 67 57 68 71 70 92 71 59 72 43 73 44 74 52 75 45 76 47 77
REMARK SMILES IDX 53 78 46 79 48 80 49 81 50 82 51 83 75 84 76 85 84 86 77 87
REMARK SMILES IDX 79 88 85 89 78 90 80 91 81 92 82 93 83 94 60 95 61 96 69 97
REMARK SMILES IDX 62 98 64 99 70 100 63 101 65 102 66 103 67 104 68 105
REMARK H PARENT 9 17 26 32 31 39 90 58 58 69
REMARK Flexibility Score: inf
ROOT
ATOM      1  C   UNL A   1      39.470  29.483  28.696  1.00  0.00     0.018 A 
ATOM      2  C   UNL A   1      40.713  29.343  28.057  1.00  0.00     0.012 A 
ATOM      3  C   UNL A   1      41.207  28.095  27.665  1.00  0.00     0.005 A 
ATOM      4  C   UNL A   1      40.528  26.917  27.979  1.00  0.00    -0.033 A 
ATOM      5  C   UNL A   1      39.279  27.040  28.604  1.00  0.00     0.044 A 
ATOM      6  C   UNL A   1      38.756  28.297  28.928  1.00  0.00     0.131 A 
ATOM      7  F   UNL A   1      37.526  28.331  29.465  1.00  0.00    -0.206 F 
ENDROOT
BRANCH   1   8
ATOM      8  C   UNL A   1      38.975  30.823  29.094  1.00  0.00    -0.012 A 
ATOM      9  C   UNL A   1      37.260  32.547  29.116  1.00  0.00     0.133 A 
ATOM     10  C   UNL A   1      38.055  33.386  29.889  1.00  0.00     0.047 A 
ATOM     11  C   UNL A   1      37.700  31.281  28.722  1.00  0.00     0.056 A 
ATOM     12  C   UNL A   1      39.313  32.951  30.279  1.00  0.00     0.004 A 
ATOM     13  C   UNL A   1      39.768  31.692  29.874  1.00  0.00     0.009 A 
BRANCH   9  14
ATOM     14  O   UNL A   1      36.072  33.102  28.618  1.00  0.00    -0.410 OA
BRANCH  14  15
ATOM     15  C   UNL A   1      34.909  32.350  28.609  1.00  0.00     0.412 C 
ATOM     16  N   UNL A   1      34.238  32.424  29.799  1.00  0.00    -0.321 N 
ATOM     17  H   UNL A   1      33.426  31.873  29.888  1.00  0.00     0.167 HD
ATOM     18  O   UNL A   1      34.493  31.674  27.679  1.00  0.00    -0.224 OA
BRANCH  16  19
ATOM     19  C   UNL A   1      34.611  33.234  30.939  1.00  0.00     0.119 C 
BRANCH  19  20
ATOM     20  C   UNL A   1      35.103  32.380  32.107  1.00  0.00     0.021 C 
BRANCH  20  21
ATOM     21  C   UNL A   1      35.936  33.141  33.144  1.00  0.00     0.002 C 
BRANCH  21  22
ATOM     22  C   UNL A   1      37.338  32.573  33.390  1.00  0.00     0.000 C 
BRANCH  22  23
ATOM     23  C   UNL A   1      37.390  31.056  33.596  1.00  0.00    -0.000 C 
BRANCH  23  24
ATOM     24  C   UNL A   1      38.798  30.451  33.567  1.00  0.00    -0.000 C 
BRANCH  24  25
ATOM     25  C   UNL A   1      39.088  29.539  32.373  1.00  0.00    -0.003 C 
ATOM     26  C   UNL A   1      39.643  28.179  32.772  1.00  0.00     0.004 C 
ENDBRANCH  24  25
ENDBRANCH  23  24
ENDBRANCH  22  23
ENDBRANCH  21  22
ENDBRANCH  20  21
ENDBRANCH  19  20
ENDBRANCH  16  19
ENDBRANCH  14  15
ENDBRANCH   9  14
ENDBRANCH   1   8
BRANCH   4  27
ATOM     27  C   UNL A   1      41.102  25.536  27.710  1.00  0.00     0.105 C 
ATOM     28  C   UNL A   1      40.334  24.368  28.328  1.00  0.00     0.023 C 
BRANCH  27  29
ATOM     29  C   UNL A   1      41.516  25.309  26.248  1.00  0.00     0.227 C 
ATOM     30  O   UNL A   1      41.133  26.101  25.377  1.00  0.00    -0.274 OA
ATOM     31  N   UNL A   1      42.308  24.282  25.834  1.00  0.00    -0.356 N 
ATOM     32  H   UNL A   1      42.532  24.308  24.875  1.00  0.00     0.163 HD
BRANCH  31  33
ATOM     33  C   UNL A   1      42.884  23.161  26.545  1.00  0.00     0.116 C 
BRANCH  33  34
ATOM     34  C   UNL A   1      43.713  22.259  25.628  1.00  0.00     0.023 C 
BRANCH  34  35
ATOM     35  C   UNL A   1      45.203  22.204  25.956  1.00  0.00     0.023 C 
BRANCH  35  36
ATOM     36  C   UNL A   1      45.837  23.542  26.316  1.00  0.00     0.116 C 
BRANCH  36  37
ATOM     37  N   UNL A   1      46.702  24.090  25.278  1.00  0.00    -0.352 N 
ATOM     38  C   UNL A   1      46.987  25.414  25.031  1.00  0.00     0.251 C 
ATOM     39  H   UNL A   1      47.137  23.435  24.686  1.00  0.00     0.163 HD
ATOM     40  O   UNL A   1      47.676  25.738  24.070  1.00  0.00    -0.269 OA
BRANCH  38  41
ATOM     41  C   UNL A   1      46.406  26.441  25.921  1.00  0.00     0.039 A 
ATOM     42  C   UNL A   1      45.018  26.566  25.999  1.00  0.00     0.014 A 
ATOM     43  C   UNL A   1      47.236  27.205  26.744  1.00  0.00     0.014 A 
ATOM     44  C   UNL A   1      44.459  27.407  26.964  1.00  0.00     0.010 A 
ATOM     45  C   UNL A   1      46.678  27.969  27.760  1.00  0.00     0.010 A 
ATOM     46  C   UNL A   1      45.284  28.081  27.881  1.00  0.00    -0.014 A 
BRANCH  46  47
ATOM     47  C   UNL A   1      44.716  28.901  28.979  1.00  0.00     0.031 A 
ATOM     48  C   UNL A   1      44.382  28.263  30.300  1.00  0.00     0.074 A 
ATOM     49  C   UNL A   1      44.405  30.195  28.757  1.00  0.00     0.049 A 
ATOM     50  N   UNL A   1      43.820  28.794  31.355  1.00  0.00    -0.248 NA
ATOM     51  C   UNL A   1      44.686  26.829  30.442  1.00  0.00     0.031 C 
ATOM     52  C   UNL A   1      44.595  30.907  27.491  1.00  0.00     0.029 A 
ATOM     53  N   UNL A   1      43.840  31.134  29.583  1.00  0.00    -0.354 N 
ATOM     54  C   UNL A   1      43.668  27.756  32.266  1.00  0.00     0.074 A 
ATOM     55  C   UNL A   1      44.155  26.556  31.625  1.00  0.00     0.031 C 
ATOM     56  C   UNL A   1      44.166  32.171  27.628  1.00  0.00     0.029 A 
ATOM     57  C   UNL A   1      43.643  32.354  28.978  1.00  0.00     0.049 A 
ATOM     58  H   UNL A   1      43.598  30.953  30.519  1.00  0.00     0.167 HD
ATOM     59  C   UNL A   1      43.200  27.803  33.536  1.00  0.00     0.034 A 
ATOM     60  C   UNL A   1      43.102  33.492  29.457  1.00  0.00     0.034 A 
ATOM     61  C   UNL A   1      42.763  29.007  34.186  1.00  0.00     0.049 A 
ATOM     62  C   UNL A   1      42.632  33.530  30.887  1.00  0.00     0.074 A 
ATOM     63  C   UNL A   1      42.363  29.180  35.499  1.00  0.00     0.029 A 
ATOM     64  N   UNL A   1      42.664  30.245  33.570  1.00  0.00    -0.354 N 
ATOM     65  N   UNL A   1      42.652  32.578  31.787  1.00  0.00    -0.248 NA
ATOM     66  C   UNL A   1      42.101  34.810  31.377  1.00  0.00     0.031 C 
ATOM     67  C   UNL A   1      41.999  30.520  35.671  1.00  0.00     0.029 A 
ATOM     68  C   UNL A   1      42.200  31.187  34.473  1.00  0.00     0.049 A 
ATOM     69  H   UNL A   1      42.890  30.428  32.629  1.00  0.00     0.167 HD
ATOM     70  C   UNL A   1      42.171  33.151  32.959  1.00  0.00     0.074 A 
ATOM     71  C   UNL A   1      41.887  34.540  32.658  1.00  0.00     0.031 C 
ATOM     72  C   UNL A   1      41.971  32.577  34.172  1.00  0.00     0.034 A 
BRANCH  59  73
ATOM     73  C   UNL A   1      43.192  26.516  34.321  1.00  0.00     0.023 A 
ATOM     74  C   UNL A   1      41.969  25.853  34.559  1.00  0.00     0.012 A 
ATOM     75  C   UNL A   1      44.389  25.944  34.792  1.00  0.00     0.148 A 
ATOM     76  C   UNL A   1      41.933  24.666  35.289  1.00  0.00     0.002 A 
ATOM     77  C   UNL A   1      44.349  24.734  35.478  1.00  0.00     0.091 A 
ATOM     78  F   UNL A   1      45.539  26.597  34.578  1.00  0.00    -0.205 F 
ATOM     79  C   UNL A   1      43.122  24.103  35.740  1.00  0.00     0.022 A 
BRANCH  77  80
ATOM     80  S   UNL A   1      45.833  23.886  36.030  1.00  0.00     0.127 S 
ATOM     81  O   UNL A   1      46.375  24.839  36.996  1.00  0.00    -0.237 OA
ATOM     82  O   UNL A   1      45.288  22.663  36.619  1.00  0.00    -0.237 OA
ATOM     83  O   UNL A   1      46.640  23.675  34.836  1.00  0.00    -0.744 OA
ENDBRANCH  77  80
ENDBRANCH  59  73
BRANCH  60  84
ATOM     84  C   UNL A   1      43.047  34.709  28.600  1.00  0.00     0.023 A 
ATOM     85  C   UNL A   1      41.814  35.107  28.046  1.00  0.00     0.012 A 
ATOM     86  C   UNL A   1      44.192  35.492  28.356  1.00  0.00     0.148 A 
ATOM     87  C   UNL A   1      41.727  36.244  27.242  1.00  0.00     0.002 A 
ATOM     88  C   UNL A   1      44.088  36.653  27.598  1.00  0.00     0.091 A 
ATOM     89  F   UNL A   1      45.358  35.093  28.885  1.00  0.00    -0.205 F 
ATOM     90  C   UNL A   1      42.860  37.022  27.027  1.00  0.00     0.022 A 
BRANCH  88  91
ATOM     91  S   UNL A   1      45.465  37.785  27.371  1.00  0.00     0.127 S 
ATOM     92  O   UNL A   1      46.296  37.055  26.416  1.00  0.00    -0.237 OA
ATOM     93  O   UNL A   1      44.795  38.967  26.828  1.00  0.00    -0.237 OA
ATOM     94  O   UNL A   1      46.041  37.975  28.695  1.00  0.00    -0.744 OA
ENDBRANCH  88  91
ENDBRANCH  60  84
BRANCH  72  95
ATOM     95  C   UNL A   1      41.452  33.452  35.283  1.00  0.00     0.023 A 
ATOM     96  C   UNL A   1      40.069  33.506  35.546  1.00  0.00     0.012 A 
ATOM     97  C   UNL A   1      42.344  34.157  36.116  1.00  0.00     0.148 A 
ATOM     98  C   UNL A   1      39.579  34.273  36.603  1.00  0.00     0.002 A 
ATOM     99  C   UNL A   1      41.852  34.878  37.196  1.00  0.00     0.091 A 
ATOM    100  F   UNL A   1      43.655  34.108  35.837  1.00  0.00    -0.205 F 
ATOM    101  C   UNL A   1      40.470  34.947  37.434  1.00  0.00     0.022 A 
BRANCH  99 102
ATOM    102  S   UNL A   1      42.931  35.696  38.378  1.00  0.00     0.127 S 
ATOM    103  O   UNL A   1      43.500  34.558  39.098  1.00  0.00    -0.237 OA
ATOM    104  O   UNL A   1      43.872  36.398  37.505  1.00  0.00    -0.237 OA
ATOM    105  O   UNL A   1      42.073  36.569  39.168  1.00  0.00    -0.744 OA
ENDBRANCH  99 102
ENDBRANCH  72  95
ENDBRANCH  46  47
ENDBRANCH  38  41
ENDBRANCH  36  37
ENDBRANCH  35  36
ENDBRANCH  34  35
ENDBRANCH  33  34
ENDBRANCH  31  33
ENDBRANCH  27  29
ENDBRANCH   4  27
TORSDOF 25
ENDMDL
