MODEL 1
REMARK VINA RESULT:     -13.0      0.000      0.000
REMARK SMILES Cc1cc(NC(=O)N2CCO[C@@H](CC(=O)NCCCCNC(=O)c3ccc(-c4c5nc(c(-c6cccc(S(=O)(=O)[O-])c6F)c6ccc([nH]6)c(-c6cccc(S(=O)(=O)[O-])c6F)c6nc(c(-c7cccc(S(=O)(=O)[O-])c7F)c7ccc4[nH]7)C=C6)C=C5)cc3)C2)ccc1F
REMARK SMILES IDX 18 1 17 2 16 3 14 4 15 5 13 7 12 8 8 9 9 10 87 11 10 12
REMARK SMILES IDX 11 13 6 14 5 15 7 17 4 18 1 19 2 20 3 21 90 22 89 23 91 24
REMARK SMILES IDX 88 25 19 26 20 27 21 28 22 29 23 31 24 32 25 33 86 34 26 35
REMARK SMILES IDX 85 36 27 37 28 38 29 39 79 40 30 41 84 42 78 43 80 44 31 45
REMARK SMILES IDX 83 46 77 47 76 48 32 50 64 51 44 52 63 53 45 54 48 55 62 56
REMARK SMILES IDX 81 57 46 58 47 59 61 61 82 62 49 63 33 64 34 65 42 66 35 67
REMARK SMILES IDX 37 68 43 69 36 70 38 71 39 72 40 73 41 74 65 75 66 76 74 77
REMARK SMILES IDX 67 78 69 79 75 80 68 81 70 82 71 83 72 84 73 85 50 86 51 87
REMARK SMILES IDX 59 88 52 89 54 90 60 91 53 92 55 93 56 94 57 95 58 96
REMARK H PARENT 16 6 5 16 21 30 80 49 48 60
REMARK Flexibility Score: inf
ROOT
ATOM      1  C   UNL A   1      33.224  29.065  25.586  1.00  0.00     0.023 C 
ENDROOT
BRANCH   1   2
ATOM      2  C   UNL A   1      31.835  29.707  25.443  1.00  0.00     0.116 C 
BRANCH   2   3
ATOM      3  N   UNL A   1      31.331  29.565  24.078  1.00  0.00    -0.356 N 
ATOM      4  C   UNL A   1      30.753  28.509  23.433  1.00  0.00     0.222 C 
ATOM      5  O   UNL A   1      30.624  28.585  22.207  1.00  0.00    -0.275 OA
ATOM      6  H   UNL A   1      31.426  30.374  23.526  1.00  0.00     0.163 HD
BRANCH   4   7
ATOM      7  C   UNL A   1      30.267  27.269  24.174  1.00  0.00     0.133 C 
BRANCH   7   8
ATOM      8  C   UNL A   1      31.253  26.087  24.174  1.00  0.00     0.147 C 
ATOM      9  N   UNL A   1      31.513  23.870  25.370  1.00  0.00    -0.320 N 
ATOM     10  C   UNL A   1      31.396  23.195  24.084  1.00  0.00     0.150 C 
ATOM     11  C   UNL A   1      30.968  25.198  25.375  1.00  0.00     0.154 C 
ATOM     12  C   UNL A   1      31.876  24.128  22.966  1.00  0.00     0.182 C 
ATOM     13  O   UNL A   1      31.114  25.350  22.941  1.00  0.00    -0.374 OA
BRANCH   9  14
ATOM     14  C   UNL A   1      31.483  23.177  26.563  1.00  0.00     0.322 C 
ATOM     15  N   UNL A   1      32.418  22.213  26.773  1.00  0.00    -0.308 N 
ATOM     16  H   UNL A   1      32.195  21.554  27.470  1.00  0.00     0.171 HD
ATOM     17  O   UNL A   1      30.693  23.415  27.474  1.00  0.00    -0.248 OA
BRANCH  15  18
ATOM     18  C   UNL A   1      33.650  22.021  26.141  1.00  0.00     0.043 A 
ATOM     19  C   UNL A   1      36.958  23.863  25.930  1.00  0.00     0.047 C 
ATOM     20  C   UNL A   1      35.905  22.813  25.788  1.00  0.00    -0.013 A 
ATOM     21  C   UNL A   1      34.609  23.024  26.270  1.00  0.00     0.032 A 
ATOM     22  C   UNL A   1      36.220  21.584  25.201  1.00  0.00     0.126 A 
ATOM     23  C   UNL A   1      35.247  20.626  24.977  1.00  0.00     0.041 A 
ATOM     24  F   UNL A   1      37.481  21.324  24.830  1.00  0.00    -0.207 F 
ATOM     25  C   UNL A   1      33.950  20.873  25.401  1.00  0.00     0.029 A 
ENDBRANCH  15  18
ENDBRANCH   9  14
ENDBRANCH   7   8
ENDBRANCH   4   7
ENDBRANCH   2   3
ENDBRANCH   1   2
BRANCH   1  26
ATOM     26  C   UNL A   1      33.684  28.529  26.933  1.00  0.00     0.023 C 
BRANCH  26  27
ATOM     27  C   UNL A   1      35.071  29.009  27.229  1.00  0.00     0.116 C 
BRANCH  27  28
ATOM     28  N   UNL A   1      35.180  29.850  28.435  1.00  0.00    -0.352 N 
ATOM     29  C   UNL A   1      36.240  29.862  29.346  1.00  0.00     0.251 C 
ATOM     30  H   UNL A   1      34.433  30.466  28.615  1.00  0.00     0.163 HD
ATOM     31  O   UNL A   1      36.175  30.338  30.456  1.00  0.00    -0.269 OA
BRANCH  29  32
ATOM     32  C   UNL A   1      37.490  29.266  28.841  1.00  0.00     0.039 A 
ATOM     33  C   UNL A   1      38.185  29.686  27.706  1.00  0.00     0.014 A 
ATOM     34  C   UNL A   1      38.014  28.309  29.689  1.00  0.00     0.014 A 
ATOM     35  C   UNL A   1      39.469  29.176  27.509  1.00  0.00     0.010 A 
ATOM     36  C   UNL A   1      39.357  28.175  29.718  1.00  0.00     0.010 A 
ATOM     37  C   UNL A   1      40.048  28.438  28.550  1.00  0.00    -0.014 A 
BRANCH  37  38
ATOM     38  C   UNL A   1      41.334  27.767  28.536  1.00  0.00     0.031 A 
ATOM     39  C   UNL A   1      41.361  26.359  28.161  1.00  0.00     0.074 A 
ATOM     40  C   UNL A   1      42.407  28.551  28.809  1.00  0.00     0.049 A 
ATOM     41  N   UNL A   1      41.934  25.426  28.830  1.00  0.00    -0.248 NA
ATOM     42  C   UNL A   1      40.612  25.863  27.006  1.00  0.00     0.031 C 
ATOM     43  C   UNL A   1      43.833  28.305  28.768  1.00  0.00     0.029 A 
ATOM     44  N   UNL A   1      42.328  29.838  29.347  1.00  0.00    -0.354 N 
ATOM     45  C   UNL A   1      42.039  24.368  27.953  1.00  0.00     0.074 A 
ATOM     46  C   UNL A   1      40.995  24.581  26.976  1.00  0.00     0.031 C 
ATOM     47  C   UNL A   1      44.450  29.231  29.539  1.00  0.00     0.029 A 
ATOM     48  C   UNL A   1      43.432  30.078  30.152  1.00  0.00     0.049 A 
ATOM     49  H   UNL A   1      41.600  30.479  29.180  1.00  0.00     0.167 HD
ATOM     50  C   UNL A   1      43.185  23.624  27.948  1.00  0.00     0.034 A 
ATOM     51  C   UNL A   1      43.178  30.264  31.483  1.00  0.00     0.034 A 
ATOM     52  C   UNL A   1      44.154  24.222  28.871  1.00  0.00     0.049 A 
ATOM     53  C   UNL A   1      43.573  29.014  32.221  1.00  0.00     0.074 A 
ATOM     54  C   UNL A   1      45.252  25.037  28.645  1.00  0.00     0.029 A 
ATOM     55  N   UNL A   1      43.839  24.361  30.218  1.00  0.00    -0.354 N 
ATOM     56  N   UNL A   1      43.605  27.827  31.675  1.00  0.00    -0.248 NA
ATOM     57  C   UNL A   1      44.049  29.022  33.598  1.00  0.00     0.031 C 
ATOM     58  C   UNL A   1      45.537  25.734  29.849  1.00  0.00     0.029 A 
ATOM     59  C   UNL A   1      44.615  25.343  30.805  1.00  0.00     0.049 A 
ATOM     60  H   UNL A   1      43.157  23.831  30.691  1.00  0.00     0.167 HD
ATOM     61  C   UNL A   1      44.181  26.949  32.548  1.00  0.00     0.074 A 
ATOM     62  C   UNL A   1      44.417  27.738  33.746  1.00  0.00     0.031 C 
ATOM     63  C   UNL A   1      44.461  25.653  32.221  1.00  0.00     0.034 A 
BRANCH  50  64
ATOM     64  C   UNL A   1      43.558  22.623  26.870  1.00  0.00     0.023 A 
ATOM     65  C   UNL A   1      44.420  22.942  25.796  1.00  0.00     0.012 A 
ATOM     66  C   UNL A   1      43.036  21.310  26.868  1.00  0.00     0.148 A 
ATOM     67  C   UNL A   1      44.829  21.993  24.847  1.00  0.00     0.002 A 
ATOM     68  C   UNL A   1      43.418  20.374  25.903  1.00  0.00     0.091 A 
ATOM     69  F   UNL A   1      42.142  20.937  27.793  1.00  0.00    -0.205 F 
ATOM     70  C   UNL A   1      44.329  20.701  24.901  1.00  0.00     0.022 A 
BRANCH  68  71
ATOM     71  S   UNL A   1      42.697  18.730  25.952  1.00  0.00     0.127 S 
ATOM     72  O   UNL A   1      41.295  18.983  25.630  1.00  0.00    -0.237 OA
ATOM     73  O   UNL A   1      43.478  17.995  24.963  1.00  0.00    -0.237 OA
ATOM     74  O   UNL A   1      42.928  18.304  27.333  1.00  0.00    -0.744 OA
ENDBRANCH  68  71
ENDBRANCH  50  64
BRANCH  51  75
ATOM     75  C   UNL A   1      41.925  31.087  31.698  1.00  0.00     0.023 A 
ATOM     76  C   UNL A   1      41.951  32.493  31.691  1.00  0.00     0.012 A 
ATOM     77  C   UNL A   1      40.875  30.444  32.402  1.00  0.00     0.148 A 
ATOM     78  C   UNL A   1      41.027  33.222  32.462  1.00  0.00     0.002 A 
ATOM     79  C   UNL A   1      40.043  31.168  33.255  1.00  0.00     0.091 A 
ATOM     80  F   UNL A   1      40.791  29.105  32.341  1.00  0.00    -0.205 F 
ATOM     81  C   UNL A   1      40.110  32.562  33.284  1.00  0.00     0.022 A 
BRANCH  79  82
ATOM     82  S   UNL A   1      39.158  30.299  34.569  1.00  0.00     0.127 S 
ATOM     83  O   UNL A   1      38.229  29.454  33.827  1.00  0.00    -0.237 OA
ATOM     84  O   UNL A   1      40.211  29.611  35.311  1.00  0.00    -0.237 OA
ATOM     85  O   UNL A   1      38.537  31.380  35.337  1.00  0.00    -0.744 OA
ENDBRANCH  79  82
ENDBRANCH  51  75
BRANCH  63  86
ATOM     86  C   UNL A   1      44.764  24.562  33.212  1.00  0.00     0.023 A 
ATOM     87  C   UNL A   1      43.723  23.673  33.586  1.00  0.00     0.012 A 
ATOM     88  C   UNL A   1      45.982  24.424  33.887  1.00  0.00     0.148 A 
ATOM     89  C   UNL A   1      43.886  22.707  34.577  1.00  0.00     0.002 A 
ATOM     90  C   UNL A   1      46.185  23.366  34.764  1.00  0.00     0.091 A 
ATOM     91  F   UNL A   1      46.948  25.341  33.745  1.00  0.00    -0.205 F 
ATOM     92  C   UNL A   1      45.136  22.528  35.146  1.00  0.00     0.022 A 
BRANCH  90  93
ATOM     93  S   UNL A   1      47.868  22.995  35.246  1.00  0.00     0.127 S 
ATOM     94  O   UNL A   1      47.805  21.560  35.511  1.00  0.00    -0.237 OA
ATOM     95  O   UNL A   1      48.655  23.404  34.088  1.00  0.00    -0.237 OA
ATOM     96  O   UNL A   1      48.068  23.820  36.437  1.00  0.00    -0.744 OA
ENDBRANCH  90  93
ENDBRANCH  63  86
ENDBRANCH  37  38
ENDBRANCH  29  32
ENDBRANCH  27  28
ENDBRANCH  26  27
ENDBRANCH   1  26
TORSDOF 17
ENDMDL
MODEL 2
REMARK VINA RESULT:     -12.7      1.576      2.065
REMARK SMILES Cc1cc(NC(=O)N2CCO[C@@H](CC(=O)NCCCCNC(=O)c3ccc(-c4c5nc(c(-c6cccc(S(=O)(=O)[O-])c6F)c6ccc([nH]6)c(-c6cccc(S(=O)(=O)[O-])c6F)c6nc(c(-c7cccc(S(=O)(=O)[O-])c7F)c7ccc4[nH]7)C=C6)C=C5)cc3)C2)ccc1F
REMARK SMILES IDX 18 1 17 2 16 3 14 4 15 5 13 7 12 8 8 9 9 10 87 11 10 12
REMARK SMILES IDX 11 13 6 14 5 15 7 17 4 18 1 19 2 20 3 21 90 22 89 23 91 24
REMARK SMILES IDX 88 25 19 26 20 27 21 28 22 29 23 31 24 32 25 33 86 34 26 35
REMARK SMILES IDX 85 36 27 37 28 38 29 39 79 40 30 41 84 42 78 43 80 44 31 45
REMARK SMILES IDX 83 46 77 47 76 48 32 50 64 51 44 52 63 53 45 54 48 55 62 56
REMARK SMILES IDX 81 57 46 58 47 59 61 61 82 62 49 63 33 64 34 65 42 66 35 67
REMARK SMILES IDX 37 68 43 69 36 70 38 71 39 72 40 73 41 74 65 75 66 76 74 77
REMARK SMILES IDX 67 78 69 79 75 80 68 81 70 82 71 83 72 84 73 85 50 86 51 87
REMARK SMILES IDX 59 88 52 89 54 90 60 91 53 92 55 93 56 94 57 95 58 96
REMARK H PARENT 16 6 5 16 21 30 80 49 48 60
REMARK Flexibility Score: inf
ROOT
ATOM      1  C   UNL A   1      32.393  29.460  26.820  1.00  0.00     0.023 C 
ENDROOT
BRANCH   1   2
ATOM      2  C   UNL A   1      32.556  30.076  25.422  1.00  0.00     0.116 C 
BRANCH   2   3
ATOM      3  N   UNL A   1      31.564  29.536  24.493  1.00  0.00    -0.356 N 
ATOM      4  C   UNL A   1      31.702  28.863  23.312  1.00  0.00     0.222 C 
ATOM      5  O   UNL A   1      30.695  28.717  22.613  1.00  0.00    -0.275 OA
ATOM      6  H   UNL A   1      30.631  29.686  24.767  1.00  0.00     0.163 HD
BRANCH   4   7
ATOM      7  C   UNL A   1      33.039  28.292  22.852  1.00  0.00     0.133 C 
BRANCH   7   8
ATOM      8  C   UNL A   1      33.204  26.778  23.071  1.00  0.00     0.147 C 
ATOM      9  N   UNL A   1      32.383  25.025  24.706  1.00  0.00    -0.320 N 
ATOM     10  C   UNL A   1      31.724  24.343  23.599  1.00  0.00     0.150 C 
ATOM     11  C   UNL A   1      32.662  26.410  24.445  1.00  0.00     0.154 C 
ATOM     12  C   UNL A   1      32.463  24.650  22.292  1.00  0.00     0.182 C 
ATOM     13  O   UNL A   1      32.502  26.066  22.031  1.00  0.00    -0.374 OA
BRANCH   9  14
ATOM     14  C   UNL A   1      32.157  24.671  26.020  1.00  0.00     0.322 C 
ATOM     15  N   UNL A   1      32.763  23.551  26.499  1.00  0.00    -0.308 N 
ATOM     16  H   UNL A   1      32.359  23.169  27.311  1.00  0.00     0.171 HD
ATOM     17  O   UNL A   1      31.482  25.335  26.803  1.00  0.00    -0.248 OA
BRANCH  15  18
ATOM     18  C   UNL A   1      33.875  22.865  26.003  1.00  0.00     0.043 A 
ATOM     19  C   UNL A   1      37.603  23.498  25.715  1.00  0.00     0.047 C 
ATOM     20  C   UNL A   1      36.269  22.825  25.683  1.00  0.00    -0.013 A 
ATOM     21  C   UNL A   1      35.104  23.520  26.024  1.00  0.00     0.032 A 
ATOM     22  C   UNL A   1      36.179  21.471  25.348  1.00  0.00     0.126 A 
ATOM     23  C   UNL A   1      34.952  20.843  25.226  1.00  0.00     0.041 A 
ATOM     24  F   UNL A   1      37.293  20.762  25.123  1.00  0.00    -0.207 F 
ATOM     25  C   UNL A   1      33.798  21.562  25.502  1.00  0.00     0.029 A 
ENDBRANCH  15  18
ENDBRANCH   9  14
ENDBRANCH   7   8
ENDBRANCH   4   7
ENDBRANCH   2   3
ENDBRANCH   1   2
BRANCH   1  26
ATOM     26  C   UNL A   1      33.502  28.605  27.414  1.00  0.00     0.023 C 
BRANCH  26  27
ATOM     27  C   UNL A   1      34.732  29.434  27.623  1.00  0.00     0.116 C 
BRANCH  27  28
ATOM     28  N   UNL A   1      34.493  30.713  28.318  1.00  0.00    -0.352 N 
ATOM     29  C   UNL A   1      35.215  31.214  29.405  1.00  0.00     0.251 C 
ATOM     30  H   UNL A   1      33.753  31.269  27.982  1.00  0.00     0.163 HD
ATOM     31  O   UNL A   1      34.826  32.105  30.124  1.00  0.00    -0.269 OA
BRANCH  29  32
ATOM     32  C   UNL A   1      36.534  30.588  29.605  1.00  0.00     0.039 A 
ATOM     33  C   UNL A   1      36.806  29.536  30.480  1.00  0.00     0.014 A 
ATOM     34  C   UNL A   1      37.492  31.051  28.724  1.00  0.00     0.014 A 
ATOM     35  C   UNL A   1      38.046  28.906  30.369  1.00  0.00     0.010 A 
ATOM     36  C   UNL A   1      38.461  30.189  28.350  1.00  0.00     0.010 A 
ATOM     37  C   UNL A   1      38.852  29.235  29.271  1.00  0.00    -0.014 A 
BRANCH  37  38
ATOM     38  C   UNL A   1      40.192  28.754  28.995  1.00  0.00     0.031 A 
ATOM     39  C   UNL A   1      40.354  27.343  28.669  1.00  0.00     0.074 A 
ATOM     40  C   UNL A   1      41.166  29.699  28.998  1.00  0.00     0.049 A 
ATOM     41  N   UNL A   1      41.193  26.547  29.224  1.00  0.00    -0.248 NA
ATOM     42  C   UNL A   1      39.461  26.671  27.725  1.00  0.00     0.031 C 
ATOM     43  C   UNL A   1      42.571  29.657  28.651  1.00  0.00     0.029 A 
ATOM     44  N   UNL A   1      41.008  30.994  29.498  1.00  0.00    -0.354 N 
ATOM     45  C   UNL A   1      41.269  25.460  28.381  1.00  0.00     0.074 A 
ATOM     46  C   UNL A   1      40.020  25.458  27.653  1.00  0.00     0.031 C 
ATOM     47  C   UNL A   1      43.189  30.709  29.236  1.00  0.00     0.029 A 
ATOM     48  C   UNL A   1      42.208  31.441  30.031  1.00  0.00     0.049 A 
ATOM     49  H   UNL A   1      40.171  31.513  29.476  1.00  0.00     0.167 HD
ATOM     50  C   UNL A   1      42.488  24.888  28.147  1.00  0.00     0.034 A 
ATOM     51  C   UNL A   1      42.219  31.676  31.378  1.00  0.00     0.034 A 
ATOM     52  C   UNL A   1      43.528  25.677  28.813  1.00  0.00     0.049 A 
ATOM     53  C   UNL A   1      42.950  30.545  32.051  1.00  0.00     0.074 A 
ATOM     54  C   UNL A   1      44.414  26.623  28.323  1.00  0.00     0.029 A 
ATOM     55  N   UNL A   1      43.491  25.857  30.191  1.00  0.00    -0.354 N 
ATOM     56  N   UNL A   1      43.045  29.342  31.551  1.00  0.00    -0.248 NA
ATOM     57  C   UNL A   1      43.702  30.710  33.287  1.00  0.00     0.031 C 
ATOM     58  C   UNL A   1      44.840  27.431  29.411  1.00  0.00     0.029 A 
ATOM     59  C   UNL A   1      44.215  26.975  30.560  1.00  0.00     0.049 A 
ATOM     60  H   UNL A   1      43.015  25.267  30.820  1.00  0.00     0.167 HD
ATOM     61  C   UNL A   1      43.922  28.613  32.303  1.00  0.00     0.074 A 
ATOM     62  C   UNL A   1      44.286  29.505  33.392  1.00  0.00     0.031 C 
ATOM     63  C   UNL A   1      44.321  27.352  31.964  1.00  0.00     0.034 A 
BRANCH  50  64
ATOM     64  C   UNL A   1      42.770  23.882  27.046  1.00  0.00     0.023 A 
ATOM     65  C   UNL A   1      43.521  24.203  25.892  1.00  0.00     0.012 A 
ATOM     66  C   UNL A   1      42.269  22.562  27.105  1.00  0.00     0.148 A 
ATOM     67  C   UNL A   1      43.850  23.251  24.915  1.00  0.00     0.002 A 
ATOM     68  C   UNL A   1      42.572  21.622  26.116  1.00  0.00     0.091 A 
ATOM     69  F   UNL A   1      41.475  22.185  28.114  1.00  0.00    -0.205 F 
ATOM     70  C   UNL A   1      43.378  21.953  25.028  1.00  0.00     0.022 A 
BRANCH  68  71
ATOM     71  S   UNL A   1      41.883  19.969  26.246  1.00  0.00     0.127 S 
ATOM     72  O   UNL A   1      42.303  19.549  27.580  1.00  0.00    -0.237 OA
ATOM     73  O   UNL A   1      40.455  20.187  26.043  1.00  0.00    -0.237 OA
ATOM     74  O   UNL A   1      42.538  19.246  25.155  1.00  0.00    -0.744 OA
ENDBRANCH  68  71
ENDBRANCH  50  64
BRANCH  51  75
ATOM     75  C   UNL A   1      40.930  32.323  31.838  1.00  0.00     0.023 A 
ATOM     76  C   UNL A   1      40.826  33.713  32.028  1.00  0.00     0.012 A 
ATOM     77  C   UNL A   1      40.035  31.485  32.551  1.00  0.00     0.148 A 
ATOM     78  C   UNL A   1      39.937  34.232  32.987  1.00  0.00     0.002 A 
ATOM     79  C   UNL A   1      39.247  31.998  33.580  1.00  0.00     0.091 A 
ATOM     80  F   UNL A   1      40.068  30.164  32.310  1.00  0.00    -0.205 F 
ATOM     81  C   UNL A   1      39.188  33.376  33.800  1.00  0.00     0.022 A 
BRANCH  79  82
ATOM     82  S   UNL A   1      38.609  30.875  34.844  1.00  0.00     0.127 S 
ATOM     83  O   UNL A   1      37.677  31.719  35.583  1.00  0.00    -0.237 OA
ATOM     84  O   UNL A   1      38.026  29.776  34.080  1.00  0.00    -0.237 OA
ATOM     85  O   UNL A   1      39.808  30.477  35.585  1.00  0.00    -0.744 OA
ENDBRANCH  79  82
ENDBRANCH  51  75
BRANCH  63  86
ATOM     86  C   UNL A   1      44.993  26.382  32.898  1.00  0.00     0.023 A 
ATOM     87  C   UNL A   1      46.378  26.126  32.732  1.00  0.00     0.012 A 
ATOM     88  C   UNL A   1      44.322  25.619  33.859  1.00  0.00     0.148 A 
ATOM     89  C   UNL A   1      47.054  25.162  33.478  1.00  0.00     0.002 A 
ATOM     90  C   UNL A   1      45.029  24.769  34.701  1.00  0.00     0.091 A 
ATOM     91  F   UNL A   1      42.986  25.649  33.943  1.00  0.00    -0.205 F 
ATOM     92  C   UNL A   1      46.384  24.503  34.495  1.00  0.00     0.022 A 
BRANCH  90  93
ATOM     93  S   UNL A   1      44.196  24.170  36.168  1.00  0.00     0.127 S 
ATOM     94  O   UNL A   1      43.082  23.411  35.604  1.00  0.00    -0.237 OA
ATOM     95  O   UNL A   1      45.224  23.395  36.855  1.00  0.00    -0.237 OA
ATOM     96  O   UNL A   1      43.800  25.398  36.857  1.00  0.00    -0.744 OA
ENDBRANCH  90  93
ENDBRANCH  63  86
ENDBRANCH  37  38
ENDBRANCH  29  32
ENDBRANCH  27  28
ENDBRANCH  26  27
ENDBRANCH   1  26
TORSDOF 17
ENDMDL
MODEL 3
REMARK VINA RESULT:     -12.6      4.783     10.189
REMARK SMILES Cc1cc(NC(=O)N2CCO[C@@H](CC(=O)NCCCCNC(=O)c3ccc(-c4c5nc(c(-c6cccc(S(=O)(=O)[O-])c6F)c6ccc([nH]6)c(-c6cccc(S(=O)(=O)[O-])c6F)c6nc(c(-c7cccc(S(=O)(=O)[O-])c7F)c7ccc4[nH]7)C=C6)C=C5)cc3)C2)ccc1F
REMARK SMILES IDX 18 1 17 2 16 3 14 4 15 5 13 7 12 8 8 9 9 10 87 11 10 12
REMARK SMILES IDX 11 13 6 14 5 15 7 17 4 18 1 19 2 20 3 21 90 22 89 23 91 24
REMARK SMILES IDX 88 25 19 26 20 27 21 28 22 29 23 31 24 32 25 33 86 34 26 35
REMARK SMILES IDX 85 36 27 37 28 38 29 39 79 40 30 41 84 42 78 43 80 44 31 45
REMARK SMILES IDX 83 46 77 47 76 48 32 50 64 51 44 52 63 53 45 54 48 55 62 56
REMARK SMILES IDX 81 57 46 58 47 59 61 61 82 62 49 63 33 64 34 65 42 66 35 67
REMARK SMILES IDX 37 68 43 69 36 70 38 71 39 72 40 73 41 74 65 75 66 76 74 77
REMARK SMILES IDX 67 78 69 79 75 80 68 81 70 82 71 83 72 84 73 85 50 86 51 87
REMARK SMILES IDX 59 88 52 89 54 90 60 91 53 92 55 93 56 94 57 95 58 96
REMARK H PARENT 16 6 5 16 21 30 80 49 48 60
REMARK Flexibility Score: inf
ROOT
ATOM      1  C   UNL A   1      36.746  23.300  24.531  1.00  0.00     0.023 C 
ENDROOT
BRANCH   1   2
ATOM      2  C   UNL A   1      35.264  23.697  24.444  1.00  0.00     0.116 C 
BRANCH   2   3
ATOM      3  N   UNL A   1      34.672  23.240  23.188  1.00  0.00    -0.356 N 
ATOM      4  C   UNL A   1      33.840  23.863  22.301  1.00  0.00     0.222 C 
ATOM      5  O   UNL A   1      33.307  23.169  21.429  1.00  0.00    -0.275 OA
ATOM      6  H   UNL A   1      34.915  22.320  22.937  1.00  0.00     0.163 HD
BRANCH   4   7
ATOM      7  C   UNL A   1      33.567  25.362  22.355  1.00  0.00     0.133 C 
BRANCH   7   8
ATOM      8  C   UNL A   1      32.121  25.742  22.721  1.00  0.00     0.147 C 
ATOM      9  N   UNL A   1      30.839  26.436  24.793  1.00  0.00    -0.320 N 
ATOM     10  C   UNL A   1      30.538  27.706  24.146  1.00  0.00     0.150 C 
ATOM     11  C   UNL A   1      31.978  25.761  24.236  1.00  0.00     0.154 C 
ATOM     12  C   UNL A   1      30.539  27.523  22.625  1.00  0.00     0.182 C 
ATOM     13  O   UNL A   1      31.810  27.033  22.156  1.00  0.00    -0.374 OA
BRANCH   9  14
ATOM     14  C   UNL A   1      30.575  26.216  26.129  1.00  0.00     0.322 C 
ATOM     15  N   UNL A   1      31.358  26.836  27.052  1.00  0.00    -0.308 N 
ATOM     16  H   UNL A   1      31.343  26.437  27.952  1.00  0.00     0.171 HD
ATOM     17  O   UNL A   1      29.639  25.533  26.540  1.00  0.00    -0.248 OA
BRANCH  15  18
ATOM     18  C   UNL A   1      32.180  27.957  26.906  1.00  0.00     0.043 A 
ATOM     19  C   UNL A   1      31.725  31.721  26.839  1.00  0.00     0.047 C 
ATOM     20  C   UNL A   1      32.354  30.366  26.869  1.00  0.00    -0.013 A 
ATOM     21  C   UNL A   1      31.569  29.208  26.860  1.00  0.00     0.032 A 
ATOM     22  C   UNL A   1      33.744  30.243  26.948  1.00  0.00     0.126 A 
ATOM     23  C   UNL A   1      34.360  29.005  26.890  1.00  0.00     0.041 A 
ATOM     24  F   UNL A   1      34.507  31.339  27.066  1.00  0.00    -0.207 F 
ATOM     25  C   UNL A   1      33.572  27.866  26.814  1.00  0.00     0.029 A 
ENDBRANCH  15  18
ENDBRANCH   9  14
ENDBRANCH   7   8
ENDBRANCH   4   7
ENDBRANCH   2   3
ENDBRANCH   1   2
BRANCH   1  26
ATOM     26  C   UNL A   1      37.378  22.994  25.880  1.00  0.00     0.023 C 
BRANCH  26  27
ATOM     27  C   UNL A   1      38.141  24.186  26.371  1.00  0.00     0.116 C 
BRANCH  27  28
ATOM     28  N   UNL A   1      39.575  24.174  26.031  1.00  0.00    -0.352 N 
ATOM     29  C   UNL A   1      40.501  25.185  26.302  1.00  0.00     0.251 C 
ATOM     30  H   UNL A   1      39.915  23.374  25.568  1.00  0.00     0.163 HD
ATOM     31  O   UNL A   1      41.583  25.275  25.768  1.00  0.00    -0.269 OA
BRANCH  29  32
ATOM     32  C   UNL A   1      40.075  26.146  27.335  1.00  0.00     0.039 A 
ATOM     33  C   UNL A   1      39.623  25.812  28.612  1.00  0.00     0.014 A 
ATOM     34  C   UNL A   1      40.296  27.461  26.975  1.00  0.00     0.014 A 
ATOM     35  C   UNL A   1      39.493  26.845  29.543  1.00  0.00     0.010 A 
ATOM     36  C   UNL A   1      40.575  28.338  27.963  1.00  0.00     0.010 A 
ATOM     37  C   UNL A   1      40.004  28.103  29.200  1.00  0.00    -0.014 A 
BRANCH  37  38
ATOM     38  C   UNL A   1      39.921  29.323  29.981  1.00  0.00     0.031 A 
ATOM     39  C   UNL A   1      38.810  30.226  29.712  1.00  0.00     0.074 A 
ATOM     40  C   UNL A   1      40.863  29.466  30.947  1.00  0.00     0.049 A 
ATOM     41  N   UNL A   1      38.916  31.485  29.490  1.00  0.00    -0.248 NA
ATOM     42  C   UNL A   1      37.443  29.728  29.558  1.00  0.00     0.031 C 
ATOM     43  C   UNL A   1      41.045  30.445  31.998  1.00  0.00     0.029 A 
ATOM     44  N   UNL A   1      42.015  28.682  31.049  1.00  0.00    -0.354 N 
ATOM     45  C   UNL A   1      37.646  31.989  29.665  1.00  0.00     0.074 A 
ATOM     46  C   UNL A   1      36.760  30.872  29.431  1.00  0.00     0.031 C 
ATOM     47  C   UNL A   1      42.338  30.410  32.397  1.00  0.00     0.029 A 
ATOM     48  C   UNL A   1      43.052  29.439  31.574  1.00  0.00     0.049 A 
ATOM     49  H   UNL A   1      42.082  27.736  30.788  1.00  0.00     0.167 HD
ATOM     50  C   UNL A   1      37.492  33.186  30.307  1.00  0.00     0.034 A 
ATOM     51  C   UNL A   1      44.119  29.656  30.748  1.00  0.00     0.034 A 
ATOM     52  C   UNL A   1      38.796  33.649  30.788  1.00  0.00     0.049 A 
ATOM     53  C   UNL A   1      44.047  31.072  30.241  1.00  0.00     0.074 A 
ATOM     54  C   UNL A   1      39.379  33.596  32.045  1.00  0.00     0.029 A 
ATOM     55  N   UNL A   1      39.832  33.872  29.889  1.00  0.00    -0.354 N 
ATOM     56  N   UNL A   1      42.936  31.752  30.141  1.00  0.00    -0.248 NA
ATOM     57  C   UNL A   1      45.228  31.853  29.899  1.00  0.00     0.031 C 
ATOM     58  C   UNL A   1      40.785  33.701  31.881  1.00  0.00     0.029 A 
ATOM     59  C   UNL A   1      41.057  33.818  30.528  1.00  0.00     0.049 A 
ATOM     60  H   UNL A   1      39.711  34.046  28.927  1.00  0.00     0.167 HD
ATOM     61  C   UNL A   1      43.233  33.049  29.834  1.00  0.00     0.074 A 
ATOM     62  C   UNL A   1      44.677  33.056  29.668  1.00  0.00     0.031 C 
ATOM     63  C   UNL A   1      42.287  34.033  29.777  1.00  0.00     0.034 A 
BRANCH  50  64
ATOM     64  C   UNL A   1      36.167  33.727  30.814  1.00  0.00     0.023 A 
ATOM     65  C   UNL A   1      35.725  33.541  32.144  1.00  0.00     0.012 A 
ATOM     66  C   UNL A   1      35.282  34.431  29.966  1.00  0.00     0.148 A 
ATOM     67  C   UNL A   1      34.540  34.111  32.634  1.00  0.00     0.002 A 
ATOM     68  C   UNL A   1      34.087  34.972  30.447  1.00  0.00     0.091 A 
ATOM     69  F   UNL A   1      35.570  34.584  28.668  1.00  0.00    -0.205 F 
ATOM     70  C   UNL A   1      33.718  34.833  31.783  1.00  0.00     0.022 A 
BRANCH  68  71
ATOM     71  S   UNL A   1      33.002  35.837  29.306  1.00  0.00     0.127 S 
ATOM     72  O   UNL A   1      32.037  36.473  30.199  1.00  0.00    -0.237 OA
ATOM     73  O   UNL A   1      33.913  36.717  28.584  1.00  0.00    -0.237 OA
ATOM     74  O   UNL A   1      32.444  34.757  28.491  1.00  0.00    -0.744 OA
ENDBRANCH  68  71
ENDBRANCH  50  64
BRANCH  51  75
ATOM     75  C   UNL A   1      44.454  28.420  29.940  1.00  0.00     0.023 A 
ATOM     76  C   UNL A   1      45.316  27.424  30.433  1.00  0.00     0.012 A 
ATOM     77  C   UNL A   1      44.312  28.540  28.534  1.00  0.00     0.148 A 
ATOM     78  C   UNL A   1      46.096  26.659  29.546  1.00  0.00     0.002 A 
ATOM     79  C   UNL A   1      45.173  27.865  27.671  1.00  0.00     0.091 A 
ATOM     80  F   UNL A   1      43.425  29.429  28.056  1.00  0.00    -0.205 F 
ATOM     81  C   UNL A   1      46.066  26.914  28.172  1.00  0.00     0.022 A 
BRANCH  79  82
ATOM     82  S   UNL A   1      45.391  28.478  25.985  1.00  0.00     0.127 S 
ATOM     83  O   UNL A   1      44.130  28.118  25.347  1.00  0.00    -0.237 OA
ATOM     84  O   UNL A   1      45.650  29.905  26.158  1.00  0.00    -0.237 OA
ATOM     85  O   UNL A   1      46.563  27.744  25.504  1.00  0.00    -0.744 OA
ENDBRANCH  79  82
ENDBRANCH  51  75
BRANCH  63  86
ATOM     86  C   UNL A   1      42.480  35.374  29.123  1.00  0.00     0.023 A 
ATOM     87  C   UNL A   1      41.888  35.604  27.854  1.00  0.00     0.012 A 
ATOM     88  C   UNL A   1      43.305  36.387  29.625  1.00  0.00     0.148 A 
ATOM     89  C   UNL A   1      42.108  36.773  27.128  1.00  0.00     0.002 A 
ATOM     90  C   UNL A   1      43.400  37.608  28.968  1.00  0.00     0.091 A 
ATOM     91  F   UNL A   1      44.060  36.176  30.711  1.00  0.00    -0.205 F 
ATOM     92  C   UNL A   1      42.840  37.798  27.703  1.00  0.00     0.022 A 
BRANCH  90  93
ATOM     93  S   UNL A   1      44.100  38.986  29.870  1.00  0.00     0.127 S 
ATOM     94  O   UNL A   1      45.523  38.657  29.882  1.00  0.00    -0.237 OA
ATOM     95  O   UNL A   1      43.711  40.148  29.079  1.00  0.00    -0.237 OA
ATOM     96  O   UNL A   1      43.451  38.897  31.178  1.00  0.00    -0.744 OA
ENDBRANCH  90  93
ENDBRANCH  63  86
ENDBRANCH  37  38
ENDBRANCH  29  32
ENDBRANCH  27  28
ENDBRANCH  26  27
ENDBRANCH   1  26
TORSDOF 17
ENDMDL
