MODEL 1
REMARK VINA RESULT:     -12.4      0.000      0.000
REMARK SMILES C/C(=C(/F)C(=O)NCCCCNC(=O)c1ccc(-c2c3nc(c(-c4cccc(S(=O)(=O)[O-])c4F)c4ccc([nH]4)c(-c4cccc(S(=O)(=O)[O-])c4F)c4nc(c(-c5cccc(S(=O)(=O)[O-])c5F)c5ccc2[nH]5)C=C4)C=C3)cc1)c1cccc(-n2cnnn2)c1
REMARK SMILES IDX 10 1 9 2 8 3 7 4 5 5 6 6 3 8 1 9 2 10 4 11 78 12 79 13 88 14
REMARK SMILES IDX 80 15 82 16 81 17 83 18 84 19 87 20 85 21 86 22 11 23 12 24
REMARK SMILES IDX 13 25 14 27 15 28 16 29 77 30 17 31 76 32 18 33 19 34 20 35
REMARK SMILES IDX 70 36 21 37 75 38 69 39 71 40 22 41 74 42 68 43 67 44 23 46
REMARK SMILES IDX 55 47 35 48 54 49 36 50 39 51 53 52 72 53 37 54 38 55 52 57
REMARK SMILES IDX 73 58 40 59 24 60 25 61 33 62 26 63 28 64 34 65 27 66 29 67
REMARK SMILES IDX 30 68 31 69 32 70 56 71 57 72 65 73 58 74 60 75 66 76 59 77
REMARK SMILES IDX 61 78 62 79 63 80 64 81 41 82 42 83 50 84 43 85 45 86 51 87
REMARK SMILES IDX 44 88 46 89 47 90 48 91 49 92
REMARK H PARENT 7 7 12 26 71 45 39 56
REMARK Flexibility Score: inf
ROOT
ATOM      1  C   UNL A   1      32.341  31.030  26.907  1.00  0.00     0.023 C 
ENDROOT
BRANCH   1   2
ATOM      2  C   UNL A   1      32.718  29.562  27.144  1.00  0.00     0.023 C 
BRANCH   2   3
ATOM      3  C   UNL A   1      33.845  29.050  26.247  1.00  0.00     0.116 C 
BRANCH   3   4
ATOM      4  N   UNL A   1      33.856  27.600  26.188  1.00  0.00    -0.350 N 
ATOM      5  C   UNL A   1      32.914  26.707  25.767  1.00  0.00     0.280 C 
ATOM      6  O   UNL A   1      33.177  25.510  25.856  1.00  0.00    -0.267 OA
ATOM      7  H   UNL A   1      34.691  27.187  26.508  1.00  0.00     0.163 HD
BRANCH   5   8
ATOM      8  C   UNL A   1      31.619  27.193  25.197  1.00  0.00     0.191 C 
ATOM      9  C   UNL A   1      32.401  27.551  22.790  1.00  0.00     0.048 C 
ATOM     10  C   UNL A   1      31.408  27.571  23.920  1.00  0.00    -0.002 C 
ATOM     11  F   UNL A   1      30.581  27.219  26.063  1.00  0.00    -0.201 F 
BRANCH  10  12
ATOM     12  C   UNL A   1      30.076  28.108  23.558  1.00  0.00    -0.017 A 
ATOM     13  C   UNL A   1      28.950  27.272  23.601  1.00  0.00     0.008 A 
ATOM     14  C   UNL A   1      29.914  29.458  23.216  1.00  0.00     0.037 A 
ATOM     15  C   UNL A   1      27.681  27.771  23.314  1.00  0.00     0.003 A 
ATOM     16  C   UNL A   1      28.636  29.965  22.929  1.00  0.00     0.069 A 
ATOM     17  C   UNL A   1      27.520  29.116  22.987  1.00  0.00     0.028 A 
BRANCH  16  18
ATOM     18  N   UNL A   1      28.454  31.327  22.592  1.00  0.00    -0.201 N 
ATOM     19  C   UNL A   1      28.051  31.889  21.406  1.00  0.00     0.252 A 
ATOM     20  N   UNL A   1      28.680  32.332  23.470  1.00  0.00    -0.040 NA
ATOM     21  N   UNL A   1      28.052  33.198  21.522  1.00  0.00    -0.117 NA
ATOM     22  N   UNL A   1      28.450  33.456  22.807  1.00  0.00    -0.024 NA
ENDBRANCH  16  18
ENDBRANCH  10  12
ENDBRANCH   5   8
ENDBRANCH   3   4
ENDBRANCH   2   3
ENDBRANCH   1   2
BRANCH   1  23
ATOM     23  C   UNL A   1      33.393  32.054  27.324  1.00  0.00     0.116 C 
BRANCH  23  24
ATOM     24  N   UNL A   1      32.837  33.373  27.591  1.00  0.00    -0.352 N 
ATOM     25  C   UNL A   1      33.224  34.276  28.555  1.00  0.00     0.251 C 
ATOM     26  H   UNL A   1      32.092  33.654  27.012  1.00  0.00     0.163 HD
ATOM     27  O   UNL A   1      32.592  35.313  28.732  1.00  0.00    -0.269 OA
BRANCH  25  28
ATOM     28  C   UNL A   1      34.394  33.960  29.400  1.00  0.00     0.039 A 
ATOM     29  C   UNL A   1      34.218  33.167  30.537  1.00  0.00     0.014 A 
ATOM     30  C   UNL A   1      35.668  34.393  29.027  1.00  0.00     0.014 A 
ATOM     31  C   UNL A   1      35.335  32.738  31.258  1.00  0.00     0.010 A 
ATOM     32  C   UNL A   1      36.781  33.919  29.712  1.00  0.00     0.010 A 
ATOM     33  C   UNL A   1      36.627  33.077  30.826  1.00  0.00    -0.014 A 
BRANCH  33  34
ATOM     34  C   UNL A   1      37.845  32.550  31.492  1.00  0.00     0.031 A 
ATOM     35  C   UNL A   1      38.612  31.424  30.859  1.00  0.00     0.074 A 
ATOM     36  C   UNL A   1      38.173  32.986  32.725  1.00  0.00     0.049 A 
ATOM     37  N   UNL A   1      39.587  30.708  31.355  1.00  0.00    -0.248 NA
ATOM     38  C   UNL A   1      38.206  31.027  29.500  1.00  0.00     0.031 C 
ATOM     39  C   UNL A   1      37.465  34.029  33.471  1.00  0.00     0.029 A 
ATOM     40  N   UNL A   1      39.161  32.574  33.586  1.00  0.00    -0.354 N 
ATOM     41  C   UNL A   1      39.875  29.746  30.395  1.00  0.00     0.074 A 
ATOM     42  C   UNL A   1      38.963  29.959  29.293  1.00  0.00     0.031 C 
ATOM     43  C   UNL A   1      38.031  34.164  34.681  1.00  0.00     0.029 A 
ATOM     44  C   UNL A   1      39.117  33.198  34.811  1.00  0.00     0.049 A 
ATOM     45  H   UNL A   1      39.834  31.897  33.349  1.00  0.00     0.167 HD
ATOM     46  C   UNL A   1      40.830  28.786  30.420  1.00  0.00     0.034 A 
ATOM     47  C   UNL A   1      39.858  33.002  35.921  1.00  0.00     0.034 A 
ATOM     48  C   UNL A   1      41.775  28.618  31.489  1.00  0.00     0.049 A 
ATOM     49  C   UNL A   1      40.950  31.968  35.899  1.00  0.00     0.074 A 
ATOM     50  C   UNL A   1      42.833  27.730  31.571  1.00  0.00     0.029 A 
ATOM     51  N   UNL A   1      41.778  29.355  32.663  1.00  0.00    -0.354 N 
ATOM     52  N   UNL A   1      41.300  31.161  34.926  1.00  0.00    -0.248 NA
ATOM     53  C   UNL A   1      41.773  31.837  37.111  1.00  0.00     0.031 C 
ATOM     54  C   UNL A   1      43.477  27.930  32.797  1.00  0.00     0.029 A 
ATOM     55  C   UNL A   1      42.825  28.949  33.472  1.00  0.00     0.049 A 
ATOM     56  H   UNL A   1      41.133  30.064  32.888  1.00  0.00     0.167 HD
ATOM     57  C   UNL A   1      42.407  30.461  35.392  1.00  0.00     0.074 A 
ATOM     58  C   UNL A   1      42.676  30.944  36.730  1.00  0.00     0.031 C 
ATOM     59  C   UNL A   1      43.127  29.495  34.770  1.00  0.00     0.034 A 
BRANCH  46  60
ATOM     60  C   UNL A   1      40.943  27.881  29.222  1.00  0.00     0.023 A 
ATOM     61  C   UNL A   1      40.181  26.696  29.177  1.00  0.00     0.012 A 
ATOM     62  C   UNL A   1      41.749  28.227  28.121  1.00  0.00     0.148 A 
ATOM     63  C   UNL A   1      40.244  25.853  28.070  1.00  0.00     0.002 A 
ATOM     64  C   UNL A   1      41.775  27.402  27.003  1.00  0.00     0.091 A 
ATOM     65  F   UNL A   1      42.485  29.345  28.192  1.00  0.00    -0.205 F 
ATOM     66  C   UNL A   1      41.032  26.210  26.979  1.00  0.00     0.022 A 
BRANCH  64  67
ATOM     67  S   UNL A   1      42.700  27.817  25.520  1.00  0.00     0.127 S 
ATOM     68  O   UNL A   1      42.513  26.615  24.709  1.00  0.00    -0.237 OA
ATOM     69  O   UNL A   1      41.991  28.999  25.030  1.00  0.00    -0.237 OA
ATOM     70  O   UNL A   1      44.065  28.072  25.961  1.00  0.00    -0.744 OA
ENDBRANCH  64  67
ENDBRANCH  46  60
BRANCH  47  71
ATOM     71  C   UNL A   1      39.637  33.858  37.122  1.00  0.00     0.023 A 
ATOM     72  C   UNL A   1      40.072  35.198  37.098  1.00  0.00     0.012 A 
ATOM     73  C   UNL A   1      38.973  33.373  38.266  1.00  0.00     0.148 A 
ATOM     74  C   UNL A   1      39.874  36.031  38.199  1.00  0.00     0.002 A 
ATOM     75  C   UNL A   1      38.733  34.223  39.339  1.00  0.00     0.091 A 
ATOM     76  F   UNL A   1      38.580  32.091  38.277  1.00  0.00    -0.205 F 
ATOM     77  C   UNL A   1      39.195  35.548  39.314  1.00  0.00     0.022 A 
BRANCH  75  78
ATOM     78  S   UNL A   1      37.752  33.722  40.758  1.00  0.00     0.127 S 
ATOM     79  O   UNL A   1      38.650  32.783  41.426  1.00  0.00    -0.237 OA
ATOM     80  O   UNL A   1      37.556  34.992  41.459  1.00  0.00    -0.237 OA
ATOM     81  O   UNL A   1      36.531  33.152  40.205  1.00  0.00    -0.744 OA
ENDBRANCH  75  78
ENDBRANCH  47  71
BRANCH  59  82
ATOM     82  C   UNL A   1      44.316  28.924  35.494  1.00  0.00     0.023 A 
ATOM     83  C   UNL A   1      45.581  29.524  35.343  1.00  0.00     0.012 A 
ATOM     84  C   UNL A   1      44.153  27.866  36.410  1.00  0.00     0.148 A 
ATOM     85  C   UNL A   1      46.671  29.069  36.083  1.00  0.00     0.002 A 
ATOM     86  C   UNL A   1      45.234  27.446  37.175  1.00  0.00     0.091 A 
ATOM     87  F   UNL A   1      42.944  27.297  36.522  1.00  0.00    -0.205 F 
ATOM     88  C   UNL A   1      46.496  28.041  37.008  1.00  0.00     0.022 A 
BRANCH  86  89
ATOM     89  S   UNL A   1      45.079  26.195  38.455  1.00  0.00     0.127 S 
ATOM     90  O   UNL A   1      46.353  26.328  39.158  1.00  0.00    -0.237 OA
ATOM     91  O   UNL A   1      43.914  26.660  39.207  1.00  0.00    -0.237 OA
ATOM     92  O   UNL A   1      44.880  24.931  37.757  1.00  0.00    -0.744 OA
ENDBRANCH  86  89
ENDBRANCH  59  82
ENDBRANCH  33  34
ENDBRANCH  25  28
ENDBRANCH  23  24
ENDBRANCH   1  23
TORSDOF 16
ENDMDL
MODEL 2
REMARK VINA RESULT:     -12.3      6.642      9.885
REMARK SMILES C/C(=C(/F)C(=O)NCCCCNC(=O)c1ccc(-c2c3nc(c(-c4cccc(S(=O)(=O)[O-])c4F)c4ccc([nH]4)c(-c4cccc(S(=O)(=O)[O-])c4F)c4nc(c(-c5cccc(S(=O)(=O)[O-])c5F)c5ccc2[nH]5)C=C4)C=C3)cc1)c1cccc(-n2cnnn2)c1
REMARK SMILES IDX 10 1 9 2 8 3 7 4 5 5 6 6 3 8 1 9 2 10 4 11 78 12 79 13 88 14
REMARK SMILES IDX 80 15 82 16 81 17 83 18 84 19 87 20 85 21 86 22 11 23 12 24
REMARK SMILES IDX 13 25 14 27 15 28 16 29 77 30 17 31 76 32 18 33 19 34 20 35
REMARK SMILES IDX 70 36 21 37 75 38 69 39 71 40 22 41 74 42 68 43 67 44 23 46
REMARK SMILES IDX 55 47 35 48 54 49 36 50 39 51 53 52 72 53 37 54 38 55 52 57
REMARK SMILES IDX 73 58 40 59 24 60 25 61 33 62 26 63 28 64 34 65 27 66 29 67
REMARK SMILES IDX 30 68 31 69 32 70 56 71 57 72 65 73 58 74 60 75 66 76 59 77
REMARK SMILES IDX 61 78 62 79 63 80 64 81 41 82 42 83 50 84 43 85 45 86 51 87
REMARK SMILES IDX 44 88 46 89 47 90 48 91 49 92
REMARK H PARENT 7 7 12 26 71 45 39 56
REMARK Flexibility Score: inf
ROOT
ATOM      1  C   UNL A   1      35.749  21.734  26.091  1.00  0.00     0.023 C 
ENDROOT
BRANCH   1   2
ATOM      2  C   UNL A   1      35.111  23.070  26.493  1.00  0.00     0.023 C 
BRANCH   2   3
ATOM      3  C   UNL A   1      33.839  22.933  27.328  1.00  0.00     0.116 C 
BRANCH   3   4
ATOM      4  N   UNL A   1      32.721  23.622  26.707  1.00  0.00    -0.350 N 
ATOM      5  C   UNL A   1      31.885  23.254  25.694  1.00  0.00     0.280 C 
ATOM      6  O   UNL A   1      31.026  24.057  25.338  1.00  0.00    -0.267 OA
ATOM      7  H   UNL A   1      32.534  24.512  27.084  1.00  0.00     0.163 HD
BRANCH   5   8
ATOM      8  C   UNL A   1      32.013  21.901  25.067  1.00  0.00     0.191 C 
ATOM      9  C   UNL A   1      33.625  22.531  23.186  1.00  0.00     0.048 C 
ATOM     10  C   UNL A   1      32.749  21.599  23.979  1.00  0.00    -0.002 C 
ATOM     11  F   UNL A   1      31.336  20.910  25.690  1.00  0.00    -0.201 F 
BRANCH  10  12
ATOM     12  C   UNL A   1      32.686  20.216  23.450  1.00  0.00    -0.017 A 
ATOM     13  C   UNL A   1      32.097  19.973  22.200  1.00  0.00     0.008 A 
ATOM     14  C   UNL A   1      33.251  19.148  24.161  1.00  0.00     0.037 A 
ATOM     15  C   UNL A   1      32.075  18.687  21.662  1.00  0.00     0.003 A 
ATOM     16  C   UNL A   1      33.233  17.853  23.620  1.00  0.00     0.069 A 
ATOM     17  C   UNL A   1      32.649  17.629  22.364  1.00  0.00     0.028 A 
BRANCH  16  18
ATOM     18  N   UNL A   1      33.808  16.766  24.320  1.00  0.00    -0.201 N 
ATOM     19  C   UNL A   1      35.105  16.574  24.729  1.00  0.00     0.252 A 
ATOM     20  N   UNL A   1      33.091  15.682  24.701  1.00  0.00    -0.040 NA
ATOM     21  N   UNL A   1      35.207  15.404  25.318  1.00  0.00    -0.117 NA
ATOM     22  N   UNL A   1      33.950  14.862  25.287  1.00  0.00    -0.024 NA
ENDBRANCH  16  18
ENDBRANCH  10  12
ENDBRANCH   5   8
ENDBRANCH   3   4
ENDBRANCH   2   3
ENDBRANCH   1   2
BRANCH   1  23
ATOM     23  C   UNL A   1      37.002  21.839  25.226  1.00  0.00     0.116 C 
BRANCH  23  24
ATOM     24  N   UNL A   1      37.987  20.804  25.512  1.00  0.00    -0.352 N 
ATOM     25  C   UNL A   1      39.229  20.953  26.085  1.00  0.00     0.251 C 
ATOM     26  H   UNL A   1      37.733  19.886  25.266  1.00  0.00     0.163 HD
ATOM     27  O   UNL A   1      39.997  19.999  26.171  1.00  0.00    -0.269 OA
BRANCH  25  28
ATOM     28  C   UNL A   1      39.640  22.290  26.561  1.00  0.00     0.039 A 
ATOM     29  C   UNL A   1      40.682  22.393  27.486  1.00  0.00     0.014 A 
ATOM     30  C   UNL A   1      39.036  23.437  26.041  1.00  0.00     0.014 A 
ATOM     31  C   UNL A   1      41.177  23.653  27.829  1.00  0.00     0.010 A 
ATOM     32  C   UNL A   1      39.567  24.686  26.341  1.00  0.00     0.010 A 
ATOM     33  C   UNL A   1      40.650  24.807  27.227  1.00  0.00    -0.014 A 
BRANCH  33  34
ATOM     34  C   UNL A   1      41.219  26.155  27.474  1.00  0.00     0.031 A 
ATOM     35  C   UNL A   1      42.624  26.463  27.037  1.00  0.00     0.074 A 
ATOM     36  C   UNL A   1      40.529  27.047  28.212  1.00  0.00     0.049 A 
ATOM     37  N   UNL A   1      43.364  27.505  27.310  1.00  0.00    -0.248 NA
ATOM     38  C   UNL A   1      43.298  25.446  26.211  1.00  0.00     0.031 C 
ATOM     39  C   UNL A   1      39.182  26.840  28.750  1.00  0.00     0.029 A 
ATOM     40  N   UNL A   1      40.882  28.291  28.675  1.00  0.00    -0.354 N 
ATOM     41  C   UNL A   1      44.604  27.248  26.737  1.00  0.00     0.074 A 
ATOM     42  C   UNL A   1      44.521  25.946  26.113  1.00  0.00     0.031 C 
ATOM     43  C   UNL A   1      38.830  27.910  29.480  1.00  0.00     0.029 A 
ATOM     44  C   UNL A   1      39.935  28.864  29.492  1.00  0.00     0.049 A 
ATOM     45  H   UNL A   1      41.733  28.729  28.445  1.00  0.00     0.167 HD
ATOM     46  C   UNL A   1      45.704  28.038  26.712  1.00  0.00     0.034 A 
ATOM     47  C   UNL A   1      39.960  30.019  30.186  1.00  0.00     0.034 A 
ATOM     48  C   UNL A   1      45.760  29.357  27.279  1.00  0.00     0.049 A 
ATOM     49  C   UNL A   1      41.174  30.904  30.093  1.00  0.00     0.074 A 
ATOM     50  C   UNL A   1      46.800  30.269  27.232  1.00  0.00     0.029 A 
ATOM     51  N   UNL A   1      44.734  29.955  27.992  1.00  0.00    -0.354 N 
ATOM     52  N   UNL A   1      42.287  30.706  29.428  1.00  0.00    -0.248 NA
ATOM     53  C   UNL A   1      41.127  32.183  30.815  1.00  0.00     0.031 C 
ATOM     54  C   UNL A   1      46.402  31.420  27.921  1.00  0.00     0.029 A 
ATOM     55  C   UNL A   1      45.111  31.227  28.385  1.00  0.00     0.049 A 
ATOM     56  H   UNL A   1      43.864  29.538  28.189  1.00  0.00     0.167 HD
ATOM     57  C   UNL A   1      43.051  31.852  29.614  1.00  0.00     0.074 A 
ATOM     58  C   UNL A   1      42.272  32.744  30.448  1.00  0.00     0.031 C 
ATOM     59  C   UNL A   1      44.292  32.133  29.148  1.00  0.00     0.034 A 
BRANCH  46  60
ATOM     60  C   UNL A   1      46.920  27.520  25.992  1.00  0.00     0.023 A 
ATOM     61  C   UNL A   1      47.823  26.680  26.676  1.00  0.00     0.012 A 
ATOM     62  C   UNL A   1      47.140  27.810  24.632  1.00  0.00     0.148 A 
ATOM     63  C   UNL A   1      48.942  26.164  26.027  1.00  0.00     0.002 A 
ATOM     64  C   UNL A   1      48.236  27.258  23.980  1.00  0.00     0.091 A 
ATOM     65  F   UNL A   1      46.284  28.630  24.005  1.00  0.00    -0.205 F 
ATOM     66  C   UNL A   1      49.144  26.443  24.678  1.00  0.00     0.022 A 
BRANCH  64  67
ATOM     67  S   UNL A   1      48.537  27.499  22.226  1.00  0.00     0.127 S 
ATOM     68  O   UNL A   1      49.717  28.362  22.245  1.00  0.00    -0.237 OA
ATOM     69  O   UNL A   1      48.787  26.135  21.761  1.00  0.00    -0.237 OA
ATOM     70  O   UNL A   1      47.324  28.105  21.694  1.00  0.00    -0.744 OA
ENDBRANCH  64  67
ENDBRANCH  46  60
BRANCH  47  71
ATOM     71  C   UNL A   1      38.765  30.440  30.971  1.00  0.00     0.023 A 
ATOM     72  C   UNL A   1      38.729  30.181  32.356  1.00  0.00     0.012 A 
ATOM     73  C   UNL A   1      37.688  31.124  30.373  1.00  0.00     0.148 A 
ATOM     74  C   UNL A   1      37.632  30.569  33.125  1.00  0.00     0.002 A 
ATOM     75  C   UNL A   1      36.622  31.554  31.156  1.00  0.00     0.091 A 
ATOM     76  F   UNL A   1      37.732  31.349  29.053  1.00  0.00    -0.205 F 
ATOM     77  C   UNL A   1      36.585  31.265  32.528  1.00  0.00     0.022 A 
BRANCH  75  78
ATOM     78  S   UNL A   1      35.296  32.569  30.494  1.00  0.00     0.127 S 
ATOM     79  O   UNL A   1      34.346  32.583  31.603  1.00  0.00    -0.237 OA
ATOM     80  O   UNL A   1      35.976  33.842  30.249  1.00  0.00    -0.237 OA
ATOM     81  O   UNL A   1      34.853  31.889  29.284  1.00  0.00    -0.744 OA
ENDBRANCH  75  78
ENDBRANCH  47  71
BRANCH  59  82
ATOM     82  C   UNL A   1      44.879  33.480  29.471  1.00  0.00     0.023 A 
ATOM     83  C   UNL A   1      45.636  33.649  30.647  1.00  0.00     0.012 A 
ATOM     84  C   UNL A   1      44.776  34.543  28.553  1.00  0.00     0.148 A 
ATOM     85  C   UNL A   1      46.269  34.863  30.911  1.00  0.00     0.002 A 
ATOM     86  C   UNL A   1      45.444  35.735  28.802  1.00  0.00     0.091 A 
ATOM     87  F   UNL A   1      44.034  34.365  27.450  1.00  0.00    -0.205 F 
ATOM     88  C   UNL A   1      46.185  35.900  29.984  1.00  0.00     0.022 A 
BRANCH  86  89
ATOM     89  S   UNL A   1      45.469  37.090  27.621  1.00  0.00     0.127 S 
ATOM     90  O   UNL A   1      44.056  37.457  27.558  1.00  0.00    -0.237 OA
ATOM     91  O   UNL A   1      46.326  38.070  28.290  1.00  0.00    -0.237 OA
ATOM     92  O   UNL A   1      46.027  36.540  26.393  1.00  0.00    -0.744 OA
ENDBRANCH  86  89
ENDBRANCH  59  82
ENDBRANCH  33  34
ENDBRANCH  25  28
ENDBRANCH  23  24
ENDBRANCH   1  23
TORSDOF 16
ENDMDL
MODEL 3
REMARK VINA RESULT:     -12.3      2.090      8.044
REMARK SMILES C/C(=C(/F)C(=O)NCCCCNC(=O)c1ccc(-c2c3nc(c(-c4cccc(S(=O)(=O)[O-])c4F)c4ccc([nH]4)c(-c4cccc(S(=O)(=O)[O-])c4F)c4nc(c(-c5cccc(S(=O)(=O)[O-])c5F)c5ccc2[nH]5)C=C4)C=C3)cc1)c1cccc(-n2cnnn2)c1
REMARK SMILES IDX 10 1 9 2 8 3 7 4 5 5 6 6 3 8 1 9 2 10 4 11 78 12 79 13 88 14
REMARK SMILES IDX 80 15 82 16 81 17 83 18 84 19 87 20 85 21 86 22 11 23 12 24
REMARK SMILES IDX 13 25 14 27 15 28 16 29 77 30 17 31 76 32 18 33 19 34 20 35
REMARK SMILES IDX 70 36 21 37 75 38 69 39 71 40 22 41 74 42 68 43 67 44 23 46
REMARK SMILES IDX 55 47 35 48 54 49 36 50 39 51 53 52 72 53 37 54 38 55 52 57
REMARK SMILES IDX 73 58 40 59 24 60 25 61 33 62 26 63 28 64 34 65 27 66 29 67
REMARK SMILES IDX 30 68 31 69 32 70 56 71 57 72 65 73 58 74 60 75 66 76 59 77
REMARK SMILES IDX 61 78 62 79 63 80 64 81 41 82 42 83 50 84 43 85 45 86 51 87
REMARK SMILES IDX 44 88 46 89 47 90 48 91 49 92
REMARK H PARENT 7 7 12 26 71 45 39 56
REMARK Flexibility Score: inf
ROOT
ATOM      1  C   UNL A   1      32.417  29.728  25.269  1.00  0.00     0.023 C 
ENDROOT
BRANCH   1   2
ATOM      2  C   UNL A   1      33.534  28.702  25.041  1.00  0.00     0.023 C 
BRANCH   2   3
ATOM      3  C   UNL A   1      33.630  27.625  26.121  1.00  0.00     0.116 C 
BRANCH   3   4
ATOM      4  N   UNL A   1      33.618  26.293  25.543  1.00  0.00    -0.350 N 
ATOM      5  C   UNL A   1      32.640  25.601  24.891  1.00  0.00     0.280 C 
ATOM      6  O   UNL A   1      32.893  24.455  24.527  1.00  0.00    -0.267 OA
ATOM      7  H   UNL A   1      34.467  25.802  25.639  1.00  0.00     0.163 HD
BRANCH   5   8
ATOM      8  C   UNL A   1      31.318  26.245  24.619  1.00  0.00     0.191 C 
ATOM      9  C   UNL A   1      31.522  26.418  22.076  1.00  0.00     0.048 C 
ATOM     10  C   UNL A   1      30.849  26.611  23.409  1.00  0.00    -0.002 C 
ATOM     11  F   UNL A   1      30.536  26.442  25.705  1.00  0.00    -0.201 F 
BRANCH  10  12
ATOM     12  C   UNL A   1      29.548  27.316  23.343  1.00  0.00    -0.017 A 
ATOM     13  C   UNL A   1      28.382  26.676  23.790  1.00  0.00     0.008 A 
ATOM     14  C   UNL A   1      29.470  28.639  22.883  1.00  0.00     0.037 A 
ATOM     15  C   UNL A   1      27.157  27.342  23.784  1.00  0.00     0.003 A 
ATOM     16  C   UNL A   1      28.239  29.313  22.879  1.00  0.00     0.069 A 
ATOM     17  C   UNL A   1      27.085  28.661  23.338  1.00  0.00     0.028 A 
BRANCH  16  18
ATOM     18  N   UNL A   1      28.145  30.651  22.427  1.00  0.00    -0.201 N 
ATOM     19  C   UNL A   1      28.172  31.147  21.147  1.00  0.00     0.252 A 
ATOM     20  N   UNL A   1      28.013  31.699  23.274  1.00  0.00    -0.040 NA
ATOM     21  N   UNL A   1      28.089  32.458  21.187  1.00  0.00    -0.117 NA
ATOM     22  N   UNL A   1      27.997  32.784  22.514  1.00  0.00    -0.024 NA
ENDBRANCH  16  18
ENDBRANCH  10  12
ENDBRANCH   5   8
ENDBRANCH   3   4
ENDBRANCH   2   3
ENDBRANCH   1   2
BRANCH   1  23
ATOM     23  C   UNL A   1      32.243  30.201  26.709  1.00  0.00     0.116 C 
BRANCH  23  24
ATOM     24  N   UNL A   1      32.258  31.651  26.843  1.00  0.00    -0.352 N 
ATOM     25  C   UNL A   1      33.229  32.439  27.417  1.00  0.00     0.251 C 
ATOM     26  H   UNL A   1      31.477  32.127  26.479  1.00  0.00     0.163 HD
ATOM     27  O   UNL A   1      33.057  33.647  27.552  1.00  0.00    -0.269 OA
BRANCH  25  28
ATOM     28  C   UNL A   1      34.470  31.801  27.903  1.00  0.00     0.039 A 
ATOM     29  C   UNL A   1      35.627  32.573  28.035  1.00  0.00     0.014 A 
ATOM     30  C   UNL A   1      34.465  30.458  28.289  1.00  0.00     0.014 A 
ATOM     31  C   UNL A   1      36.761  32.019  28.633  1.00  0.00     0.010 A 
ATOM     32  C   UNL A   1      35.575  29.927  28.934  1.00  0.00     0.010 A 
ATOM     33  C   UNL A   1      36.730  30.705  29.124  1.00  0.00    -0.014 A 
BRANCH  33  34
ATOM     34  C   UNL A   1      37.870  30.113  29.868  1.00  0.00     0.031 A 
ATOM     35  C   UNL A   1      38.161  30.566  31.271  1.00  0.00     0.074 A 
ATOM     36  C   UNL A   1      38.722  29.283  29.234  1.00  0.00     0.049 A 
ATOM     37  N   UNL A   1      39.199  30.311  32.023  1.00  0.00    -0.248 NA
ATOM     38  C   UNL A   1      37.165  31.451  31.900  1.00  0.00     0.031 C 
ATOM     39  C   UNL A   1      38.584  28.822  27.850  1.00  0.00     0.029 A 
ATOM     40  N   UNL A   1      39.898  28.713  29.657  1.00  0.00    -0.354 N 
ATOM     41  C   UNL A   1      39.010  31.043  33.188  1.00  0.00     0.074 A 
ATOM     42  C   UNL A   1      37.765  31.763  33.040  1.00  0.00     0.031 C 
ATOM     43  C   UNL A   1      39.639  28.054  27.535  1.00  0.00     0.029 A 
ATOM     44  C   UNL A   1      40.545  27.994  28.677  1.00  0.00     0.049 A 
ATOM     45  H   UNL A   1      40.245  28.810  30.573  1.00  0.00     0.167 HD
ATOM     46  C   UNL A   1      39.792  31.091  34.293  1.00  0.00     0.034 A 
ATOM     47  C   UNL A   1      41.741  27.372  28.693  1.00  0.00     0.034 A 
ATOM     48  C   UNL A   1      40.996  30.324  34.461  1.00  0.00     0.049 A 
ATOM     49  C   UNL A   1      42.561  27.394  29.954  1.00  0.00     0.074 A 
ATOM     50  C   UNL A   1      41.813  30.239  35.574  1.00  0.00     0.029 A 
ATOM     51  N   UNL A   1      41.554  29.507  33.490  1.00  0.00    -0.354 N 
ATOM     52  N   UNL A   1      42.297  27.978  31.098  1.00  0.00    -0.248 NA
ATOM     53  C   UNL A   1      43.827  26.646  29.942  1.00  0.00     0.031 C 
ATOM     54  C   UNL A   1      42.868  29.370  35.275  1.00  0.00     0.029 A 
ATOM     55  C   UNL A   1      42.701  28.908  33.980  1.00  0.00     0.049 A 
ATOM     56  H   UNL A   1      41.189  29.372  32.586  1.00  0.00     0.167 HD
ATOM     57  C   UNL A   1      43.338  27.632  31.952  1.00  0.00     0.074 A 
ATOM     58  C   UNL A   1      44.234  26.781  31.198  1.00  0.00     0.031 C 
ATOM     59  C   UNL A   1      43.539  27.999  33.242  1.00  0.00     0.034 A 
BRANCH  46  60
ATOM     60  C   UNL A   1      39.335  31.957  35.436  1.00  0.00     0.023 A 
ATOM     61  C   UNL A   1      39.612  33.338  35.411  1.00  0.00     0.012 A 
ATOM     62  C   UNL A   1      38.584  31.421  36.500  1.00  0.00     0.148 A 
ATOM     63  C   UNL A   1      39.177  34.168  36.442  1.00  0.00     0.002 A 
ATOM     64  C   UNL A   1      38.119  32.262  37.504  1.00  0.00     0.091 A 
ATOM     65  F   UNL A   1      38.351  30.101  36.520  1.00  0.00    -0.205 F 
ATOM     66  C   UNL A   1      38.422  33.634  37.482  1.00  0.00     0.022 A 
BRANCH  64  67
ATOM     67  S   UNL A   1      37.075  31.678  38.844  1.00  0.00     0.127 S 
ATOM     68  O   UNL A   1      37.948  31.866  40.001  1.00  0.00    -0.237 OA
ATOM     69  O   UNL A   1      35.941  32.600  38.781  1.00  0.00    -0.237 OA
ATOM     70  O   UNL A   1      36.748  30.296  38.520  1.00  0.00    -0.744 OA
ENDBRANCH  64  67
ENDBRANCH  46  60
BRANCH  47  71
ATOM     71  C   UNL A   1      42.198  26.612  27.495  1.00  0.00     0.023 A 
ATOM     72  C   UNL A   1      42.911  27.288  26.485  1.00  0.00     0.012 A 
ATOM     73  C   UNL A   1      41.970  25.228  27.363  1.00  0.00     0.148 A 
ATOM     74  C   UNL A   1      43.364  26.608  25.355  1.00  0.00     0.002 A 
ATOM     75  C   UNL A   1      42.469  24.547  26.259  1.00  0.00     0.091 A 
ATOM     76  F   UNL A   1      41.277  24.604  28.326  1.00  0.00    -0.205 F 
ATOM     77  C   UNL A   1      43.154  25.237  25.247  1.00  0.00     0.022 A 
BRANCH  75  78
ATOM     78  S   UNL A   1      42.358  22.760  26.105  1.00  0.00     0.127 S 
ATOM     79  O   UNL A   1      43.005  22.530  24.815  1.00  0.00    -0.237 OA
ATOM     80  O   UNL A   1      43.122  22.303  27.267  1.00  0.00    -0.237 OA
ATOM     81  O   UNL A   1      40.935  22.452  26.168  1.00  0.00    -0.744 OA
ENDBRANCH  75  78
ENDBRANCH  47  71
BRANCH  59  82
ATOM     82  C   UNL A   1      44.742  27.444  33.954  1.00  0.00     0.023 A 
ATOM     83  C   UNL A   1      45.959  28.152  33.926  1.00  0.00     0.012 A 
ATOM     84  C   UNL A   1      44.632  26.283  34.743  1.00  0.00     0.148 A 
ATOM     85  C   UNL A   1      47.054  27.702  34.662  1.00  0.00     0.002 A 
ATOM     86  C   UNL A   1      45.714  25.864  35.507  1.00  0.00     0.091 A 
ATOM     87  F   UNL A   1      43.469  25.614  34.738  1.00  0.00    -0.205 F 
ATOM     88  C   UNL A   1      46.928  26.568  35.462  1.00  0.00     0.022 A 
BRANCH  86  89
ATOM     89  S   UNL A   1      45.613  24.471  36.637  1.00  0.00     0.127 S 
ATOM     90  O   UNL A   1      44.524  24.881  37.521  1.00  0.00    -0.237 OA
ATOM     91  O   UNL A   1      45.285  23.363  35.738  1.00  0.00    -0.237 OA
ATOM     92  O   UNL A   1      46.924  24.369  37.265  1.00  0.00    -0.744 OA
ENDBRANCH  86  89
ENDBRANCH  59  82
ENDBRANCH  33  34
ENDBRANCH  25  28
ENDBRANCH  23  24
ENDBRANCH   1  23
TORSDOF 16
ENDMDL
