MODEL 1
REMARK VINA RESULT:     -12.0      0.000      0.000
REMARK SMILES COc1ccccc1NC(=O)N[C@@](C)(C(=O)NCCCCNC(=O)c1ccc(-c2c3nc(c(-c4cccc(S(=O)(=O)[O-])c4F)c4ccc([nH]4)c(-c4cccc(S(=O)(=O)[O-])c4F)c4nc(c(-c5cccc(S(=O)(=O)[O-])c5F)c5ccc2[nH]5)C=C4)C=C3)cc1)C(F)(F)F
REMARK SMILES IDX 19 1 18 2 17 3 15 4 16 5 13 7 14 8 12 9 9 10 10 11 11 13
REMARK SMILES IDX 8 15 3 16 4 17 5 18 7 19 6 20 2 21 1 22 88 23 89 24 90 25
REMARK SMILES IDX 91 26 20 27 21 28 22 29 23 30 24 32 25 33 26 34 87 35 27 36
REMARK SMILES IDX 86 37 28 38 29 39 30 40 80 41 31 42 85 43 79 44 81 45 32 46
REMARK SMILES IDX 84 47 78 48 77 49 33 51 65 52 45 53 64 54 46 55 49 56 63 57
REMARK SMILES IDX 82 58 47 59 48 60 62 62 83 63 50 64 34 65 35 66 43 67 36 68
REMARK SMILES IDX 38 69 44 70 37 71 39 72 40 73 41 74 42 75 66 76 67 77 75 78
REMARK SMILES IDX 68 79 70 80 76 81 69 82 71 83 72 84 73 85 74 86 51 87 52 88
REMARK SMILES IDX 60 89 53 90 55 91 61 92 54 93 56 94 57 95 58 96 59 97
REMARK H PARENT 17 6 9 12 12 14 22 31 81 50 49 61
REMARK Flexibility Score: inf
ROOT
ATOM      1  C   UNL A   1      34.428  21.332  24.441  1.00  0.00     0.023 C 
ENDROOT
BRANCH   1   2
ATOM      2  C   UNL A   1      33.299  21.850  23.545  1.00  0.00     0.116 C 
BRANCH   2   3
ATOM      3  N   UNL A   1      32.140  22.178  24.349  1.00  0.00    -0.354 N 
ATOM      4  C   UNL A   1      31.635  23.258  24.980  1.00  0.00     0.255 C 
ATOM      5  O   UNL A   1      30.563  22.999  25.543  1.00  0.00    -0.272 OA
ATOM      6  H   UNL A   1      31.557  21.393  24.469  1.00  0.00     0.163 HD
BRANCH   4   7
ATOM      7  C   UNL A   1      32.119  24.717  24.777  1.00  0.00     0.213 C 
ATOM      8  C   UNL A   1      30.833  25.535  24.986  1.00  0.00     0.056 C 
BRANCH   7   9
ATOM      9  N   UNL A   1      32.656  24.963  23.396  1.00  0.00    -0.316 N 
ATOM     10  N   UNL A   1      33.473  27.203  23.140  1.00  0.00    -0.305 N 
ATOM     11  C   UNL A   1      33.203  25.968  22.697  1.00  0.00     0.320 C 
ATOM     12  H   UNL A   1      34.228  27.610  22.655  1.00  0.00     0.172 HD
ATOM     13  O   UNL A   1      33.643  25.662  21.581  1.00  0.00    -0.248 OA
ATOM     14  H   UNL A   1      32.584  24.152  22.842  1.00  0.00     0.166 HD
BRANCH  10  15
ATOM     15  C   UNL A   1      32.955  28.066  24.115  1.00  0.00     0.085 A 
ATOM     16  C   UNL A   1      31.669  28.611  23.937  1.00  0.00     0.142 A 
ATOM     17  C   UNL A   1      31.246  29.682  24.729  1.00  0.00     0.048 A 
ATOM     18  C   UNL A   1      32.046  30.133  25.777  1.00  0.00     0.004 A 
ATOM     19  C   UNL A   1      33.678  28.426  25.247  1.00  0.00     0.030 A 
ATOM     20  C   UNL A   1      33.239  29.472  26.065  1.00  0.00     0.002 A 
BRANCH  16  21
ATOM     21  O   UNL A   1      30.873  28.294  22.865  1.00  0.00    -0.495 OA
ATOM     22  C   UNL A   1      30.277  29.443  22.266  1.00  0.00     0.278 C 
ENDBRANCH  16  21
ENDBRANCH  10  15
ENDBRANCH   7   9
BRANCH   7  23
ATOM     23  C   UNL A   1      33.167  24.835  25.919  1.00  0.00     0.420 C 
ATOM     24  F   UNL A   1      33.206  23.706  26.672  1.00  0.00    -0.168 F 
ATOM     25  F   UNL A   1      34.424  25.004  25.478  1.00  0.00    -0.168 F 
ATOM     26  F   UNL A   1      32.935  25.888  26.737  1.00  0.00    -0.168 F 
ENDBRANCH   7  23
ENDBRANCH   4   7
ENDBRANCH   2   3
ENDBRANCH   1   2
BRANCH   1  27
ATOM     27  C   UNL A   1      35.746  22.124  24.359  1.00  0.00     0.023 C 
BRANCH  27  28
ATOM     28  C   UNL A   1      36.644  22.068  25.591  1.00  0.00     0.116 C 
BRANCH  28  29
ATOM     29  N   UNL A   1      37.578  20.956  25.565  1.00  0.00    -0.352 N 
ATOM     30  C   UNL A   1      38.899  20.964  25.946  1.00  0.00     0.251 C 
ATOM     31  H   UNL A   1      37.225  20.098  25.239  1.00  0.00     0.163 HD
ATOM     32  O   UNL A   1      39.603  19.970  25.793  1.00  0.00    -0.269 OA
BRANCH  30  33
ATOM     33  C   UNL A   1      39.468  22.207  26.509  1.00  0.00     0.039 A 
ATOM     34  C   UNL A   1      40.484  22.114  27.463  1.00  0.00     0.014 A 
ATOM     35  C   UNL A   1      39.046  23.451  26.032  1.00  0.00     0.014 A 
ATOM     36  C   UNL A   1      41.127  23.276  27.899  1.00  0.00     0.010 A 
ATOM     37  C   UNL A   1      39.725  24.599  26.428  1.00  0.00     0.010 A 
ATOM     38  C   UNL A   1      40.773  24.523  27.361  1.00  0.00    -0.014 A 
BRANCH  38  39
ATOM     39  C   UNL A   1      41.480  25.772  27.744  1.00  0.00     0.031 A 
ATOM     40  C   UNL A   1      40.746  26.832  28.516  1.00  0.00     0.074 A 
ATOM     41  C   UNL A   1      42.728  26.005  27.291  1.00  0.00     0.049 A 
ATOM     42  N   UNL A   1      41.122  28.047  28.814  1.00  0.00    -0.248 NA
ATOM     43  C   UNL A   1      39.393  26.489  28.987  1.00  0.00     0.031 C 
ATOM     44  C   UNL A   1      43.524  25.076  26.486  1.00  0.00     0.029 A 
ATOM     45  N   UNL A   1      43.531  27.111  27.412  1.00  0.00    -0.354 N 
ATOM     46  C   UNL A   1      40.035  28.635  29.449  1.00  0.00     0.074 A 
ATOM     47  C   UNL A   1      38.980  27.645  29.485  1.00  0.00     0.031 C 
ATOM     48  C   UNL A   1      44.700  25.652  26.185  1.00  0.00     0.029 A 
ATOM     49  C   UNL A   1      44.729  27.002  26.743  1.00  0.00     0.049 A 
ATOM     50  H   UNL A   1      43.275  27.908  27.931  1.00  0.00     0.167 HD
ATOM     51  C   UNL A   1      39.931  29.879  29.974  1.00  0.00     0.034 A 
ATOM     52  C   UNL A   1      45.729  27.891  26.586  1.00  0.00     0.034 A 
ATOM     53  C   UNL A   1      41.005  30.831  29.999  1.00  0.00     0.049 A 
ATOM     54  C   UNL A   1      45.606  29.250  27.223  1.00  0.00     0.074 A 
ATOM     55  C   UNL A   1      41.039  32.075  30.603  1.00  0.00     0.029 A 
ATOM     56  N   UNL A   1      42.239  30.646  29.395  1.00  0.00    -0.354 N 
ATOM     57  N   UNL A   1      44.628  29.735  27.949  1.00  0.00    -0.248 NA
ATOM     58  C   UNL A   1      46.736  30.175  27.045  1.00  0.00     0.031 C 
ATOM     59  C   UNL A   1      42.290  32.648  30.354  1.00  0.00     0.029 A 
ATOM     60  C   UNL A   1      43.041  31.754  29.606  1.00  0.00     0.049 A 
ATOM     61  H   UNL A   1      42.506  29.844  28.890  1.00  0.00     0.167 HD
ATOM     62  C   UNL A   1      45.042  31.000  28.352  1.00  0.00     0.074 A 
ATOM     63  C   UNL A   1      46.363  31.205  27.794  1.00  0.00     0.031 C 
ATOM     64  C   UNL A   1      44.383  31.912  29.107  1.00  0.00     0.034 A 
BRANCH  51  65
ATOM     65  C   UNL A   1      38.620  30.260  30.608  1.00  0.00     0.023 A 
ATOM     66  C   UNL A   1      38.360  29.892  31.944  1.00  0.00     0.012 A 
ATOM     67  C   UNL A   1      37.665  31.015  29.900  1.00  0.00     0.148 A 
ATOM     68  C   UNL A   1      37.152  30.233  32.552  1.00  0.00     0.002 A 
ATOM     69  C   UNL A   1      36.481  31.388  30.528  1.00  0.00     0.091 A 
ATOM     70  F   UNL A   1      37.916  31.334  28.623  1.00  0.00    -0.205 F 
ATOM     71  C   UNL A   1      36.219  30.989  31.849  1.00  0.00     0.022 A 
BRANCH  69  72
ATOM     72  S   UNL A   1      35.255  32.426  29.722  1.00  0.00     0.127 S 
ATOM     73  O   UNL A   1      34.744  31.530  28.686  1.00  0.00    -0.237 OA
ATOM     74  O   UNL A   1      34.314  32.700  30.808  1.00  0.00    -0.237 OA
ATOM     75  O   UNL A   1      35.981  33.595  29.246  1.00  0.00    -0.744 OA
ENDBRANCH  69  72
ENDBRANCH  51  65
BRANCH  52  76
ATOM     76  C   UNL A   1      46.973  27.493  25.868  1.00  0.00     0.023 A 
ATOM     77  C   UNL A   1      47.960  26.772  26.569  1.00  0.00     0.012 A 
ATOM     78  C   UNL A   1      47.172  27.782  24.504  1.00  0.00     0.148 A 
ATOM     79  C   UNL A   1      49.134  26.366  25.933  1.00  0.00     0.002 A 
ATOM     80  C   UNL A   1      48.323  27.333  23.864  1.00  0.00     0.091 A 
ATOM     81  F   UNL A   1      46.228  28.479  23.858  1.00  0.00    -0.205 F 
ATOM     82  C   UNL A   1      49.310  26.637  24.580  1.00  0.00     0.022 A 
BRANCH  80  83
ATOM     83  S   UNL A   1      48.586  27.527  22.097  1.00  0.00     0.127 S 
ATOM     84  O   UNL A   1      49.798  28.340  22.063  1.00  0.00    -0.237 OA
ATOM     85  O   UNL A   1      48.762  26.140  21.665  1.00  0.00    -0.237 OA
ATOM     86  O   UNL A   1      47.380  28.165  21.588  1.00  0.00    -0.744 OA
ENDBRANCH  80  83
ENDBRANCH  52  76
BRANCH  64  87
ATOM     87  C   UNL A   1      45.087  33.201  29.432  1.00  0.00     0.023 A 
ATOM     88  C   UNL A   1      45.901  33.284  30.578  1.00  0.00     0.012 A 
ATOM     89  C   UNL A   1      45.031  34.290  28.539  1.00  0.00     0.148 A 
ATOM     90  C   UNL A   1      46.637  34.439  30.839  1.00  0.00     0.002 A 
ATOM     91  C   UNL A   1      45.802  35.420  28.782  1.00  0.00     0.091 A 
ATOM     92  F   UNL A   1      44.233  34.196  27.465  1.00  0.00    -0.205 F 
ATOM     93  C   UNL A   1      46.599  35.499  29.936  1.00  0.00     0.022 A 
BRANCH  91  94
ATOM     94  S   UNL A   1      45.890  36.791  27.624  1.00  0.00     0.127 S 
ATOM     95  O   UNL A   1      46.349  36.126  26.407  1.00  0.00    -0.237 OA
ATOM     96  O   UNL A   1      44.502  37.253  27.582  1.00  0.00    -0.237 OA
ATOM     97  O   UNL A   1      46.825  37.746  28.205  1.00  0.00    -0.744 OA
ENDBRANCH  91  94
ENDBRANCH  64  87
ENDBRANCH  38  39
ENDBRANCH  30  33
ENDBRANCH  28  29
ENDBRANCH  27  28
ENDBRANCH   1  27
TORSDOF 18
ENDMDL
MODEL 2
REMARK VINA RESULT:     -11.7      1.437      7.560
REMARK SMILES COc1ccccc1NC(=O)N[C@@](C)(C(=O)NCCCCNC(=O)c1ccc(-c2c3nc(c(-c4cccc(S(=O)(=O)[O-])c4F)c4ccc([nH]4)c(-c4cccc(S(=O)(=O)[O-])c4F)c4nc(c(-c5cccc(S(=O)(=O)[O-])c5F)c5ccc2[nH]5)C=C4)C=C3)cc1)C(F)(F)F
REMARK SMILES IDX 19 1 18 2 17 3 15 4 16 5 13 7 14 8 12 9 9 10 10 11 11 13
REMARK SMILES IDX 8 15 3 16 4 17 5 18 7 19 6 20 2 21 1 22 88 23 89 24 90 25
REMARK SMILES IDX 91 26 20 27 21 28 22 29 23 30 24 32 25 33 26 34 87 35 27 36
REMARK SMILES IDX 86 37 28 38 29 39 30 40 80 41 31 42 85 43 79 44 81 45 32 46
REMARK SMILES IDX 84 47 78 48 77 49 33 51 65 52 45 53 64 54 46 55 49 56 63 57
REMARK SMILES IDX 82 58 47 59 48 60 62 62 83 63 50 64 34 65 35 66 43 67 36 68
REMARK SMILES IDX 38 69 44 70 37 71 39 72 40 73 41 74 42 75 66 76 67 77 75 78
REMARK SMILES IDX 68 79 70 80 76 81 69 82 71 83 72 84 73 85 74 86 51 87 52 88
REMARK SMILES IDX 60 89 53 90 55 91 61 92 54 93 56 94 57 95 58 96 59 97
REMARK H PARENT 17 6 9 12 12 14 22 31 81 50 49 61
REMARK Flexibility Score: inf
ROOT
ATOM      1  C   UNL A   1      34.687  21.059  25.287  1.00  0.00     0.023 C 
ENDROOT
BRANCH   1   2
ATOM      2  C   UNL A   1      33.925  21.818  24.197  1.00  0.00     0.116 C 
BRANCH   2   3
ATOM      3  N   UNL A   1      32.576  22.100  24.641  1.00  0.00    -0.354 N 
ATOM      4  C   UNL A   1      31.857  23.174  25.029  1.00  0.00     0.255 C 
ATOM      5  O   UNL A   1      30.692  22.864  25.311  1.00  0.00    -0.272 OA
ATOM      6  H   UNL A   1      32.032  21.280  24.666  1.00  0.00     0.163 HD
BRANCH   4   7
ATOM      7  C   UNL A   1      32.287  24.651  24.844  1.00  0.00     0.213 C 
ATOM      8  C   UNL A   1      30.966  25.417  25.027  1.00  0.00     0.056 C 
BRANCH   7   9
ATOM      9  N   UNL A   1      32.845  24.926  23.477  1.00  0.00    -0.316 N 
ATOM     10  N   UNL A   1      33.555  27.205  23.241  1.00  0.00    -0.305 N 
ATOM     11  C   UNL A   1      33.359  25.958  22.792  1.00  0.00     0.320 C 
ATOM     12  H   UNL A   1      34.300  27.649  22.774  1.00  0.00     0.172 HD
ATOM     13  O   UNL A   1      33.840  25.676  21.687  1.00  0.00    -0.248 OA
ATOM     14  H   UNL A   1      32.829  24.113  22.921  1.00  0.00     0.166 HD
BRANCH  10  15
ATOM     15  C   UNL A   1      32.970  28.039  24.203  1.00  0.00     0.085 A 
ATOM     16  C   UNL A   1      31.732  28.649  23.922  1.00  0.00     0.142 A 
ATOM     17  C   UNL A   1      31.269  29.696  24.724  1.00  0.00     0.048 A 
ATOM     18  C   UNL A   1      31.971  30.058  25.872  1.00  0.00     0.004 A 
ATOM     19  C   UNL A   1      33.582  28.308  25.422  1.00  0.00     0.030 A 
ATOM     20  C   UNL A   1      33.099  29.330  26.246  1.00  0.00     0.002 A 
BRANCH  16  21
ATOM     21  O   UNL A   1      31.043  28.422  22.757  1.00  0.00    -0.495 OA
ATOM     22  C   UNL A   1      29.664  28.139  22.983  1.00  0.00     0.278 C 
ENDBRANCH  16  21
ENDBRANCH  10  15
ENDBRANCH   7   9
BRANCH   7  23
ATOM     23  C   UNL A   1      33.305  24.803  26.010  1.00  0.00     0.420 C 
ATOM     24  F   UNL A   1      33.023  25.891  26.772  1.00  0.00    -0.168 F 
ATOM     25  F   UNL A   1      33.301  23.768  26.864  1.00  0.00    -0.168 F 
ATOM     26  F   UNL A   1      34.584  24.902  25.579  1.00  0.00    -0.168 F 
ENDBRANCH   7  23
ENDBRANCH   4   7
ENDBRANCH   2   3
ENDBRANCH   1   2
BRANCH   1  27
ATOM     27  C   UNL A   1      35.904  21.800  25.872  1.00  0.00     0.023 C 
BRANCH  27  28
ATOM     28  C   UNL A   1      37.177  21.774  25.031  1.00  0.00     0.116 C 
BRANCH  28  29
ATOM     29  N   UNL A   1      38.094  20.718  25.417  1.00  0.00    -0.352 N 
ATOM     30  C   UNL A   1      39.289  20.850  26.086  1.00  0.00     0.251 C 
ATOM     31  H   UNL A   1      37.832  19.801  25.172  1.00  0.00     0.163 HD
ATOM     32  O   UNL A   1      40.012  19.877  26.276  1.00  0.00    -0.269 OA
BRANCH  30  33
ATOM     33  C   UNL A   1      39.702  22.194  26.540  1.00  0.00     0.039 A 
ATOM     34  C   UNL A   1      40.710  22.302  27.502  1.00  0.00     0.014 A 
ATOM     35  C   UNL A   1      39.147  23.335  25.955  1.00  0.00     0.014 A 
ATOM     36  C   UNL A   1      41.209  23.564  27.837  1.00  0.00     0.010 A 
ATOM     37  C   UNL A   1      39.683  24.583  26.251  1.00  0.00     0.010 A 
ATOM     38  C   UNL A   1      40.721  24.711  27.191  1.00  0.00    -0.014 A 
BRANCH  38  39
ATOM     39  C   UNL A   1      41.274  26.061  27.466  1.00  0.00     0.031 A 
ATOM     40  C   UNL A   1      42.687  26.379  27.068  1.00  0.00     0.074 A 
ATOM     41  C   UNL A   1      40.554  26.949  28.181  1.00  0.00     0.049 A 
ATOM     42  N   UNL A   1      43.409  27.432  27.349  1.00  0.00    -0.248 NA
ATOM     43  C   UNL A   1      43.395  25.360  26.274  1.00  0.00     0.031 C 
ATOM     44  C   UNL A   1      39.192  26.736  28.672  1.00  0.00     0.029 A 
ATOM     45  N   UNL A   1      40.886  28.196  28.652  1.00  0.00    -0.354 N 
ATOM     46  C   UNL A   1      44.670  27.178  26.825  1.00  0.00     0.074 A 
ATOM     47  C   UNL A   1      44.619  25.866  26.217  1.00  0.00     0.031 C 
ATOM     48  C   UNL A   1      38.804  27.814  29.375  1.00  0.00     0.029 A 
ATOM     49  C   UNL A   1      39.900  28.778  29.417  1.00  0.00     0.049 A 
ATOM     50  H   UNL A   1      41.747  28.633  28.459  1.00  0.00     0.167 HD
ATOM     51  C   UNL A   1      45.766  27.972  26.831  1.00  0.00     0.034 A 
ATOM     52  C   UNL A   1      39.888  29.948  30.084  1.00  0.00     0.034 A 
ATOM     53  C   UNL A   1      45.790  29.302  27.374  1.00  0.00     0.049 A 
ATOM     54  C   UNL A   1      41.104  30.834  30.032  1.00  0.00     0.074 A 
ATOM     55  C   UNL A   1      46.815  30.230  27.332  1.00  0.00     0.029 A 
ATOM     56  N   UNL A   1      44.739  29.895  28.056  1.00  0.00    -0.354 N 
ATOM     57  N   UNL A   1      42.238  30.641  29.405  1.00  0.00    -0.248 NA
ATOM     58  C   UNL A   1      41.029  32.113  30.756  1.00  0.00     0.031 C 
ATOM     59  C   UNL A   1      46.387  31.382  28.000  1.00  0.00     0.029 A 
ATOM     60  C   UNL A   1      45.091  31.176  28.445  1.00  0.00     0.049 A 
ATOM     61  H   UNL A   1      43.870  29.469  28.236  1.00  0.00     0.167 HD
ATOM     62  C   UNL A   1      42.994  31.789  29.617  1.00  0.00     0.074 A 
ATOM     63  C   UNL A   1      42.186  32.676  30.429  1.00  0.00     0.031 C 
ATOM     64  C   UNL A   1      44.247  32.076  29.188  1.00  0.00     0.034 A 
BRANCH  51  65
ATOM     65  C   UNL A   1      47.018  27.438  26.187  1.00  0.00     0.023 A 
ATOM     66  C   UNL A   1      47.275  27.716  24.829  1.00  0.00     0.012 A 
ATOM     67  C   UNL A   1      47.957  26.699  26.932  1.00  0.00     0.148 A 
ATOM     68  C   UNL A   1      48.427  27.231  24.211  1.00  0.00     0.002 A 
ATOM     69  C   UNL A   1      49.125  26.256  26.319  1.00  0.00     0.091 A 
ATOM     70  F   UNL A   1      47.686  26.421  28.215  1.00  0.00    -0.205 F 
ATOM     71  C   UNL A   1      49.355  26.511  24.957  1.00  0.00     0.022 A 
BRANCH  69  72
ATOM     72  S   UNL A   1      50.410  25.387  27.224  1.00  0.00     0.127 S 
ATOM     73  O   UNL A   1      50.799  26.384  28.218  1.00  0.00    -0.237 OA
ATOM     74  O   UNL A   1      49.688  24.236  27.767  1.00  0.00    -0.237 OA
ATOM     75  O   UNL A   1      51.426  25.047  26.236  1.00  0.00    -0.744 OA
ENDBRANCH  69  72
ENDBRANCH  51  65
BRANCH  52  76
ATOM     76  C   UNL A   1      38.649  30.391  30.786  1.00  0.00     0.023 A 
ATOM     77  C   UNL A   1      38.528  30.146  32.168  1.00  0.00     0.012 A 
ATOM     78  C   UNL A   1      37.617  31.079  30.116  1.00  0.00     0.148 A 
ATOM     79  C   UNL A   1      37.392  30.556  32.868  1.00  0.00     0.002 A 
ATOM     80  C   UNL A   1      36.510  31.526  30.830  1.00  0.00     0.091 A 
ATOM     81  F   UNL A   1      37.746  31.291  28.800  1.00  0.00    -0.205 F 
ATOM     82  C   UNL A   1      36.390  31.254  32.202  1.00  0.00     0.022 A 
BRANCH  80  83
ATOM     83  S   UNL A   1      35.225  32.539  30.087  1.00  0.00     0.127 S 
ATOM     84  O   UNL A   1      34.304  32.720  31.206  1.00  0.00    -0.237 OA
ATOM     85  O   UNL A   1      35.971  33.738  29.703  1.00  0.00    -0.237 OA
ATOM     86  O   UNL A   1      34.714  31.764  28.966  1.00  0.00    -0.744 OA
ENDBRANCH  80  83
ENDBRANCH  52  76
BRANCH  64  87
ATOM     87  C   UNL A   1      44.818  33.425  29.531  1.00  0.00     0.023 A 
ATOM     88  C   UNL A   1      45.556  33.591  30.718  1.00  0.00     0.012 A 
ATOM     89  C   UNL A   1      44.718  34.495  28.619  1.00  0.00     0.148 A 
ATOM     90  C   UNL A   1      46.175  34.808  31.001  1.00  0.00     0.002 A 
ATOM     91  C   UNL A   1      45.375  35.691  28.886  1.00  0.00     0.091 A 
ATOM     92  F   UNL A   1      43.994  34.320  27.504  1.00  0.00    -0.205 F 
ATOM     93  C   UNL A   1      46.096  35.851  30.081  1.00  0.00     0.022 A 
BRANCH  91  94
ATOM     94  S   UNL A   1      45.410  37.051  27.714  1.00  0.00     0.127 S 
ATOM     95  O   UNL A   1      46.019  36.423  26.544  1.00  0.00    -0.237 OA
ATOM     96  O   UNL A   1      43.989  37.372  27.566  1.00  0.00    -0.237 OA
ATOM     97  O   UNL A   1      46.201  38.101  28.342  1.00  0.00    -0.744 OA
ENDBRANCH  91  94
ENDBRANCH  64  87
ENDBRANCH  38  39
ENDBRANCH  30  33
ENDBRANCH  28  29
ENDBRANCH  27  28
ENDBRANCH   1  27
TORSDOF 18
ENDMDL
MODEL 3
REMARK VINA RESULT:     -11.6      1.519      2.002
REMARK SMILES COc1ccccc1NC(=O)N[C@@](C)(C(=O)NCCCCNC(=O)c1ccc(-c2c3nc(c(-c4cccc(S(=O)(=O)[O-])c4F)c4ccc([nH]4)c(-c4cccc(S(=O)(=O)[O-])c4F)c4nc(c(-c5cccc(S(=O)(=O)[O-])c5F)c5ccc2[nH]5)C=C4)C=C3)cc1)C(F)(F)F
REMARK SMILES IDX 19 1 18 2 17 3 15 4 16 5 13 7 14 8 12 9 9 10 10 11 11 13
REMARK SMILES IDX 8 15 3 16 4 17 5 18 7 19 6 20 2 21 1 22 88 23 89 24 90 25
REMARK SMILES IDX 91 26 20 27 21 28 22 29 23 30 24 32 25 33 26 34 87 35 27 36
REMARK SMILES IDX 86 37 28 38 29 39 30 40 80 41 31 42 85 43 79 44 81 45 32 46
REMARK SMILES IDX 84 47 78 48 77 49 33 51 65 52 45 53 64 54 46 55 49 56 63 57
REMARK SMILES IDX 82 58 47 59 48 60 62 62 83 63 50 64 34 65 35 66 43 67 36 68
REMARK SMILES IDX 38 69 44 70 37 71 39 72 40 73 41 74 42 75 66 76 67 77 75 78
REMARK SMILES IDX 68 79 70 80 76 81 69 82 71 83 72 84 73 85 74 86 51 87 52 88
REMARK SMILES IDX 60 89 53 90 55 91 61 92 54 93 56 94 57 95 58 96 59 97
REMARK H PARENT 17 6 9 12 12 14 22 31 81 50 49 61
REMARK Flexibility Score: inf
ROOT
ATOM      1  C   UNL A   1      34.411  20.935  26.203  1.00  0.00     0.023 C 
ENDROOT
BRANCH   1   2
ATOM      2  C   UNL A   1      33.428  20.823  25.033  1.00  0.00     0.116 C 
BRANCH   2   3
ATOM      3  N   UNL A   1      32.110  21.253  25.451  1.00  0.00    -0.354 N 
ATOM      4  C   UNL A   1      31.412  22.405  25.520  1.00  0.00     0.255 C 
ATOM      5  O   UNL A   1      30.270  22.219  25.963  1.00  0.00    -0.272 OA
ATOM      6  H   UNL A   1      31.575  20.493  25.774  1.00  0.00     0.163 HD
BRANCH   4   7
ATOM      7  C   UNL A   1      31.818  23.738  24.843  1.00  0.00     0.213 C 
ATOM      8  C   UNL A   1      30.535  24.148  24.100  1.00  0.00     0.056 C 
BRANCH   7   9
ATOM      9  N   UNL A   1      32.940  23.570  23.858  1.00  0.00    -0.316 N 
ATOM     10  N   UNL A   1      33.642  25.668  22.934  1.00  0.00    -0.305 N 
ATOM     11  C   UNL A   1      33.696  24.335  23.058  1.00  0.00     0.320 C 
ATOM     12  H   UNL A   1      34.511  26.047  22.665  1.00  0.00     0.172 HD
ATOM     13  O   UNL A   1      34.638  23.757  22.502  1.00  0.00    -0.248 OA
ATOM     14  H   UNL A   1      33.195  22.622  23.776  1.00  0.00     0.166 HD
BRANCH  10  15
ATOM     15  C   UNL A   1      32.665  26.662  23.086  1.00  0.00     0.085 A 
ATOM     16  C   UNL A   1      32.870  27.687  24.030  1.00  0.00     0.142 A 
ATOM     17  C   UNL A   1      31.810  28.515  24.407  1.00  0.00     0.048 A 
ATOM     18  C   UNL A   1      30.579  28.408  23.762  1.00  0.00     0.004 A 
ATOM     19  C   UNL A   1      31.485  26.662  22.352  1.00  0.00     0.030 A 
ATOM     20  C   UNL A   1      30.433  27.515  22.702  1.00  0.00     0.002 A 
BRANCH  16  21
ATOM     21  O   UNL A   1      34.015  27.783  24.780  1.00  0.00    -0.495 OA
ATOM     22  C   UNL A   1      33.781  28.349  26.068  1.00  0.00     0.278 C 
ENDBRANCH  16  21
ENDBRANCH  10  15
ENDBRANCH   7   9
BRANCH   7  23
ATOM     23  C   UNL A   1      32.163  24.601  26.089  1.00  0.00     0.420 C 
ATOM     24  F   UNL A   1      32.058  23.880  27.234  1.00  0.00    -0.168 F 
ATOM     25  F   UNL A   1      33.421  25.070  26.086  1.00  0.00    -0.168 F 
ATOM     26  F   UNL A   1      31.377  25.699  26.200  1.00  0.00    -0.168 F 
ENDBRANCH   7  23
ENDBRANCH   4   7
ENDBRANCH   2   3
ENDBRANCH   1   2
BRANCH   1  27
ATOM     27  C   UNL A   1      35.078  22.312  26.370  1.00  0.00     0.023 C 
BRANCH  27  28
ATOM     28  C   UNL A   1      36.358  22.541  25.571  1.00  0.00     0.116 C 
BRANCH  28  29
ATOM     29  N   UNL A   1      37.230  21.381  25.546  1.00  0.00    -0.352 N 
ATOM     30  C   UNL A   1      38.545  21.314  25.944  1.00  0.00     0.251 C 
ATOM     31  H   UNL A   1      36.836  20.547  25.205  1.00  0.00     0.163 HD
ATOM     32  O   UNL A   1      39.196  20.284  25.790  1.00  0.00    -0.269 OA
BRANCH  30  33
ATOM     33  C   UNL A   1      39.172  22.518  26.529  1.00  0.00     0.039 A 
ATOM     34  C   UNL A   1      40.228  22.361  27.430  1.00  0.00     0.014 A 
ATOM     35  C   UNL A   1      38.763  23.790  26.122  1.00  0.00     0.014 A 
ATOM     36  C   UNL A   1      40.921  23.487  27.880  1.00  0.00     0.010 A 
ATOM     37  C   UNL A   1      39.489  24.904  26.530  1.00  0.00     0.010 A 
ATOM     38  C   UNL A   1      40.577  24.764  27.409  1.00  0.00    -0.014 A 
BRANCH  38  39
ATOM     39  C   UNL A   1      41.334  25.978  27.808  1.00  0.00     0.031 A 
ATOM     40  C   UNL A   1      40.642  27.060  28.589  1.00  0.00     0.074 A 
ATOM     41  C   UNL A   1      42.593  26.163  27.361  1.00  0.00     0.049 A 
ATOM     42  N   UNL A   1      41.068  28.255  28.901  1.00  0.00    -0.248 NA
ATOM     43  C   UNL A   1      39.275  26.768  29.052  1.00  0.00     0.031 C 
ATOM     44  C   UNL A   1      43.352  25.211  26.549  1.00  0.00     0.029 A 
ATOM     45  N   UNL A   1      43.441  27.234  27.496  1.00  0.00    -0.354 N 
ATOM     46  C   UNL A   1      40.004  28.880  29.539  1.00  0.00     0.074 A 
ATOM     47  C   UNL A   1      38.909  27.936  29.561  1.00  0.00     0.031 C 
ATOM     48  C   UNL A   1      44.552  25.740  26.257  1.00  0.00     0.029 A 
ATOM     49  C   UNL A   1      44.635  27.081  26.829  1.00  0.00     0.049 A 
ATOM     50  H   UNL A   1      43.217  28.035  28.022  1.00  0.00     0.167 HD
ATOM     51  C   UNL A   1      39.951  30.122  30.077  1.00  0.00     0.034 A 
ATOM     52  C   UNL A   1      45.672  27.929  26.686  1.00  0.00     0.034 A 
ATOM     53  C   UNL A   1      41.064  31.029  30.115  1.00  0.00     0.049 A 
ATOM     54  C   UNL A   1      45.604  29.285  27.336  1.00  0.00     0.074 A 
ATOM     55  C   UNL A   1      41.147  32.264  30.732  1.00  0.00     0.029 A 
ATOM     56  N   UNL A   1      42.291  30.798  29.512  1.00  0.00    -0.354 N 
ATOM     57  N   UNL A   1      44.645  29.803  28.064  1.00  0.00    -0.248 NA
ATOM     58  C   UNL A   1      46.773  30.164  27.171  1.00  0.00     0.031 C 
ATOM     59  C   UNL A   1      42.422  32.786  30.493  1.00  0.00     0.029 A 
ATOM     60  C   UNL A   1      43.137  31.869  29.738  1.00  0.00     0.049 A 
ATOM     61  H   UNL A   1      42.526  29.991  29.000  1.00  0.00     0.167 HD
ATOM     62  C   UNL A   1      45.110  31.045  28.482  1.00  0.00     0.074 A 
ATOM     63  C   UNL A   1      46.440  31.201  27.930  1.00  0.00     0.031 C 
ATOM     64  C   UNL A   1      44.486  31.976  29.245  1.00  0.00     0.034 A 
BRANCH  51  65
ATOM     65  C   UNL A   1      38.654  30.552  30.711  1.00  0.00     0.023 A 
ATOM     66  C   UNL A   1      38.439  30.313  32.084  1.00  0.00     0.012 A 
ATOM     67  C   UNL A   1      37.669  31.225  29.963  1.00  0.00     0.148 A 
ATOM     68  C   UNL A   1      37.246  30.701  32.692  1.00  0.00     0.002 A 
ATOM     69  C   UNL A   1      36.500  31.646  30.588  1.00  0.00     0.091 A 
ATOM     70  F   UNL A   1      37.878  31.420  28.653  1.00  0.00    -0.205 F 
ATOM     71  C   UNL A   1      36.283  31.375  31.948  1.00  0.00     0.022 A 
BRANCH  69  72
ATOM     72  S   UNL A   1      35.239  32.589  29.723  1.00  0.00     0.127 S 
ATOM     73  O   UNL A   1      34.227  32.755  30.763  1.00  0.00    -0.237 OA
ATOM     74  O   UNL A   1      35.953  33.816  29.367  1.00  0.00    -0.237 OA
ATOM     75  O   UNL A   1      34.847  31.770  28.584  1.00  0.00    -0.744 OA
ENDBRANCH  69  72
ENDBRANCH  51  65
BRANCH  52  76
ATOM     76  C   UNL A   1      46.901  27.487  25.967  1.00  0.00     0.023 A 
ATOM     77  C   UNL A   1      47.030  27.786  24.596  1.00  0.00     0.012 A 
ATOM     78  C   UNL A   1      47.950  26.815  26.625  1.00  0.00     0.148 A 
ATOM     79  C   UNL A   1      48.169  27.404  23.887  1.00  0.00     0.002 A 
ATOM     80  C   UNL A   1      49.103  26.481  25.923  1.00  0.00     0.091 A 
ATOM     81  F   UNL A   1      47.803  26.530  27.926  1.00  0.00    -0.205 F 
ATOM     82  C   UNL A   1      49.209  26.762  24.552  1.00  0.00     0.022 A 
BRANCH  80  83
ATOM     83  S   UNL A   1      50.545  25.761  26.718  1.00  0.00     0.127 S 
ATOM     84  O   UNL A   1      50.001  24.516  27.252  1.00  0.00    -0.237 OA
ATOM     85  O   UNL A   1      51.461  25.598  25.588  1.00  0.00    -0.237 OA
ATOM     86  O   UNL A   1      50.978  26.739  27.706  1.00  0.00    -0.744 OA
ENDBRANCH  80  83
ENDBRANCH  52  76
BRANCH  64  87
ATOM     87  C   UNL A   1      45.243  33.232  29.586  1.00  0.00     0.023 A 
ATOM     88  C   UNL A   1      46.053  33.270  30.737  1.00  0.00     0.012 A 
ATOM     89  C   UNL A   1      45.238  34.330  28.702  1.00  0.00     0.148 A 
ATOM     90  C   UNL A   1      46.836  34.390  31.012  1.00  0.00     0.002 A 
ATOM     91  C   UNL A   1      46.055  35.424  28.960  1.00  0.00     0.091 A 
ATOM     92  F   UNL A   1      44.444  34.279  27.623  1.00  0.00    -0.205 F 
ATOM     93  C   UNL A   1      46.848  35.459  30.119  1.00  0.00     0.022 A 
BRANCH  91  94
ATOM     94  S   UNL A   1      46.209  36.800  27.815  1.00  0.00     0.127 S 
ATOM     95  O   UNL A   1      44.821  37.008  27.409  1.00  0.00    -0.237 OA
ATOM     96  O   UNL A   1      46.761  37.854  28.668  1.00  0.00    -0.237 OA
ATOM     97  O   UNL A   1      47.107  36.346  26.762  1.00  0.00    -0.744 OA
ENDBRANCH  91  94
ENDBRANCH  64  87
ENDBRANCH  38  39
ENDBRANCH  30  33
ENDBRANCH  28  29
ENDBRANCH  27  28
ENDBRANCH   1  27
TORSDOF 18
ENDMDL
