MODEL 1
REMARK VINA RESULT:     -12.3      0.000      0.000
REMARK SMILES Cc1oc(C)c(C(=O)Nc2cc(C(=O)NCCCCNC(=O)c3ccc(-c4c5nc(c(-c6cccc(S(=O)(=O)[O-])c6F)c6ccc([nH]6)c(-c6cccc(S(=O)(=O)[O-])c6F)c6nc(c(-c7cccc(S(=O)(=O)[O-])c7F)c7ccc4[nH]7)C=C6)C=C5)cc3)ccc2Cl)c1C
REMARK SMILES IDX 18 1 17 2 16 3 15 4 13 5 14 6 12 8 10 9 11 10 88 11 87 12
REMARK SMILES IDX 89 13 86 14 9 15 7 16 8 17 6 19 1 20 2 21 3 22 90 23 4 24
REMARK SMILES IDX 91 25 5 26 19 27 20 28 21 29 22 31 23 32 24 33 85 34 25 35
REMARK SMILES IDX 84 36 26 37 27 38 28 39 78 40 29 41 83 42 77 43 79 44 30 45
REMARK SMILES IDX 82 46 76 47 75 48 31 50 63 51 43 52 62 53 44 54 47 55 61 56
REMARK SMILES IDX 80 57 45 58 46 59 60 61 81 62 48 63 32 64 33 65 41 66 34 67
REMARK SMILES IDX 36 68 42 69 35 70 37 71 38 72 39 73 40 74 64 75 65 76 73 77
REMARK SMILES IDX 66 78 68 79 74 80 67 81 69 82 70 83 71 84 72 85 49 86 50 87
REMARK SMILES IDX 58 88 51 89 53 90 59 91 52 92 54 93 55 94 56 95 57 96
REMARK H PARENT 15 7 9 18 20 30 79 49 47 60
REMARK Flexibility Score: inf
ROOT
ATOM      1  C   UNL A   1      31.266  32.126  26.408  1.00  0.00     0.023 C 
ENDROOT
BRANCH   1   2
ATOM      2  C   UNL A   1      31.277  30.617  26.112  1.00  0.00     0.023 C 
BRANCH   2   3
ATOM      3  C   UNL A   1      31.495  30.230  24.643  1.00  0.00     0.116 C 
BRANCH   3   4
ATOM      4  N   UNL A   1      30.241  30.156  23.922  1.00  0.00    -0.352 N 
ATOM      5  C   UNL A   1      29.629  29.194  23.166  1.00  0.00     0.251 C 
ATOM      6  O   UNL A   1      28.574  29.515  22.613  1.00  0.00    -0.269 OA
ATOM      7  H   UNL A   1      29.711  30.983  23.992  1.00  0.00     0.163 HD
BRANCH   5   8
ATOM      8  C   UNL A   1      30.116  27.794  22.969  1.00  0.00     0.041 A 
ATOM      9  C   UNL A   1      30.303  25.586  24.033  1.00  0.00     0.061 A 
ATOM     10  C   UNL A   1      29.772  26.883  23.991  1.00  0.00     0.041 A 
ATOM     11  C   UNL A   1      31.028  25.115  22.930  1.00  0.00     0.064 A 
ATOM     12  C   UNL A   1      31.347  25.992  21.891  1.00  0.00     0.023 A 
ATOM     13  Cl  UNL A   1      31.459  23.453  22.735  1.00  0.00    -0.082 Cl
ATOM     14  C   UNL A   1      30.919  27.327  21.925  1.00  0.00     0.015 A 
BRANCH   9  15
ATOM     15  N   UNL A   1      30.135  24.897  25.248  1.00  0.00    -0.320 N 
ATOM     16  C   UNL A   1      30.994  24.794  26.330  1.00  0.00     0.259 C 
ATOM     17  O   UNL A   1      30.706  23.980  27.209  1.00  0.00    -0.269 OA
ATOM     18  H   UNL A   1      29.280  24.418  25.344  1.00  0.00     0.170 HD
BRANCH  16  19
ATOM     19  C   UNL A   1      32.184  25.643  26.421  1.00  0.00     0.084 A 
ATOM     20  C   UNL A   1      34.324  28.663  26.363  1.00  0.00     0.088 C 
ATOM     21  C   UNL A   1      33.627  27.364  26.448  1.00  0.00     0.104 A 
ATOM     22  O   UNL A   1      34.318  26.272  26.038  1.00  0.00    -0.466 OA
ATOM     23  C   UNL A   1      32.380  26.988  26.910  1.00  0.00     0.003 A 
ATOM     24  C   UNL A   1      33.472  25.208  26.135  1.00  0.00     0.114 A 
ATOM     25  C   UNL A   1      31.486  27.839  27.738  1.00  0.00     0.049 C 
ATOM     26  C   UNL A   1      34.101  23.887  25.936  1.00  0.00     0.088 C 
ENDBRANCH  16  19
ENDBRANCH   9  15
ENDBRANCH   5   8
ENDBRANCH   3   4
ENDBRANCH   2   3
ENDBRANCH   1   2
BRANCH   1  27
ATOM     27  C   UNL A   1      32.446  32.626  27.233  1.00  0.00     0.116 C 
BRANCH  27  28
ATOM     28  N   UNL A   1      32.346  34.049  27.585  1.00  0.00    -0.352 N 
ATOM     29  C   UNL A   1      33.015  34.735  28.592  1.00  0.00     0.251 C 
ATOM     30  H   UNL A   1      31.727  34.585  27.039  1.00  0.00     0.163 HD
ATOM     31  O   UNL A   1      32.593  35.788  29.034  1.00  0.00    -0.269 OA
BRANCH  29  32
ATOM     32  C   UNL A   1      34.284  34.166  29.079  1.00  0.00     0.039 A 
ATOM     33  C   UNL A   1      34.413  33.506  30.307  1.00  0.00     0.014 A 
ATOM     34  C   UNL A   1      35.363  34.282  28.213  1.00  0.00     0.014 A 
ATOM     35  C   UNL A   1      35.638  32.918  30.619  1.00  0.00     0.010 A 
ATOM     36  C   UNL A   1      36.458  33.501  28.404  1.00  0.00     0.010 A 
ATOM     37  C   UNL A   1      36.651  32.927  29.651  1.00  0.00    -0.014 A 
BRANCH  37  38
ATOM     38  C   UNL A   1      37.946  32.300  29.843  1.00  0.00     0.031 A 
ATOM     39  C   UNL A   1      38.030  30.914  29.313  1.00  0.00     0.074 A 
ATOM     40  C   UNL A   1      39.026  33.056  30.149  1.00  0.00     0.049 A 
ATOM     41  N   UNL A   1      38.139  29.816  29.983  1.00  0.00    -0.248 NA
ATOM     42  C   UNL A   1      37.769  30.705  27.877  1.00  0.00     0.031 C 
ATOM     43  C   UNL A   1      39.104  34.522  30.283  1.00  0.00     0.029 A 
ATOM     44  N   UNL A   1      40.329  32.694  30.219  1.00  0.00    -0.354 N 
ATOM     45  C   UNL A   1      38.226  28.803  29.027  1.00  0.00     0.074 A 
ATOM     46  C   UNL A   1      37.713  29.374  27.814  1.00  0.00     0.031 C 
ATOM     47  C   UNL A   1      40.387  34.919  30.130  1.00  0.00     0.029 A 
ATOM     48  C   UNL A   1      41.231  33.743  30.050  1.00  0.00     0.049 A 
ATOM     49  H   UNL A   1      40.616  31.765  30.376  1.00  0.00     0.167 HD
ATOM     50  C   UNL A   1      38.991  27.694  29.243  1.00  0.00     0.034 A 
ATOM     51  C   UNL A   1      42.557  33.629  29.779  1.00  0.00     0.034 A 
ATOM     52  C   UNL A   1      39.397  27.627  30.630  1.00  0.00     0.049 A 
ATOM     53  C   UNL A   1      42.945  32.238  30.129  1.00  0.00     0.074 A 
ATOM     54  C   UNL A   1      38.738  27.599  31.843  1.00  0.00     0.029 A 
ATOM     55  N   UNL A   1      40.688  28.015  30.913  1.00  0.00    -0.354 N 
ATOM     56  N   UNL A   1      42.903  31.768  31.345  1.00  0.00    -0.248 NA
ATOM     57  C   UNL A   1      42.888  31.244  29.067  1.00  0.00     0.031 C 
ATOM     58  C   UNL A   1      39.509  28.448  32.693  1.00  0.00     0.029 A 
ATOM     59  C   UNL A   1      40.636  28.867  31.983  1.00  0.00     0.049 A 
ATOM     60  H   UNL A   1      41.499  27.732  30.433  1.00  0.00     0.167 HD
ATOM     61  C   UNL A   1      42.350  30.500  31.205  1.00  0.00     0.074 A 
ATOM     62  C   UNL A   1      42.444  30.200  29.774  1.00  0.00     0.031 C 
ATOM     63  C   UNL A   1      41.577  29.947  32.188  1.00  0.00     0.034 A 
BRANCH  50  64
ATOM     64  C   UNL A   1      39.738  26.894  28.185  1.00  0.00     0.023 A 
ATOM     65  C   UNL A   1      39.586  25.486  28.243  1.00  0.00     0.012 A 
ATOM     66  C   UNL A   1      40.767  27.377  27.345  1.00  0.00     0.148 A 
ATOM     67  C   UNL A   1      40.481  24.615  27.614  1.00  0.00     0.002 A 
ATOM     68  C   UNL A   1      41.621  26.507  26.672  1.00  0.00     0.091 A 
ATOM     69  F   UNL A   1      41.014  28.682  27.253  1.00  0.00    -0.205 F 
ATOM     70  C   UNL A   1      41.507  25.127  26.835  1.00  0.00     0.022 A 
BRANCH  68  71
ATOM     71  S   UNL A   1      42.949  27.110  25.617  1.00  0.00     0.127 S 
ATOM     72  O   UNL A   1      43.429  25.868  25.018  1.00  0.00    -0.237 OA
ATOM     73  O   UNL A   1      42.224  27.999  24.708  1.00  0.00    -0.237 OA
ATOM     74  O   UNL A   1      43.883  27.792  26.502  1.00  0.00    -0.744 OA
ENDBRANCH  68  71
ENDBRANCH  50  64
BRANCH  51  75
ATOM     75  C   UNL A   1      43.430  34.507  28.957  1.00  0.00     0.023 A 
ATOM     76  C   UNL A   1      43.161  34.685  27.584  1.00  0.00     0.012 A 
ATOM     77  C   UNL A   1      44.357  35.384  29.564  1.00  0.00     0.148 A 
ATOM     78  C   UNL A   1      43.774  35.712  26.851  1.00  0.00     0.002 A 
ATOM     79  C   UNL A   1      44.972  36.396  28.830  1.00  0.00     0.091 A 
ATOM     80  F   UNL A   1      44.565  35.291  30.884  1.00  0.00    -0.205 F 
ATOM     81  C   UNL A   1      44.675  36.572  27.475  1.00  0.00     0.022 A 
BRANCH  79  82
ATOM     82  S   UNL A   1      46.131  37.548  29.586  1.00  0.00     0.127 S 
ATOM     83  O   UNL A   1      46.601  38.309  28.429  1.00  0.00    -0.237 OA
ATOM     84  O   UNL A   1      45.267  38.288  30.499  1.00  0.00    -0.237 OA
ATOM     85  O   UNL A   1      47.157  36.721  30.211  1.00  0.00    -0.744 OA
ENDBRANCH  79  82
ENDBRANCH  51  75
BRANCH  63  86
ATOM     86  C   UNL A   1      41.499  30.639  33.526  1.00  0.00     0.023 A 
ATOM     87  C   UNL A   1      42.514  30.532  34.502  1.00  0.00     0.012 A 
ATOM     88  C   UNL A   1      40.481  31.587  33.712  1.00  0.00     0.148 A 
ATOM     89  C   UNL A   1      42.506  31.348  35.638  1.00  0.00     0.002 A 
ATOM     90  C   UNL A   1      40.501  32.427  34.816  1.00  0.00     0.091 A 
ATOM     91  F   UNL A   1      39.526  31.678  32.774  1.00  0.00    -0.205 F 
ATOM     92  C   UNL A   1      41.507  32.308  35.787  1.00  0.00     0.022 A 
BRANCH  90  93
ATOM     93  S   UNL A   1      39.321  33.766  34.990  1.00  0.00     0.127 S 
ATOM     94  O   UNL A   1      39.548  34.530  33.765  1.00  0.00    -0.237 OA
ATOM     95  O   UNL A   1      38.043  33.055  35.041  1.00  0.00    -0.237 OA
ATOM     96  O   UNL A   1      39.670  34.450  36.230  1.00  0.00    -0.744 OA
ENDBRANCH  90  93
ENDBRANCH  63  86
ENDBRANCH  37  38
ENDBRANCH  29  32
ENDBRANCH  27  28
ENDBRANCH   1  27
TORSDOF 16
ENDMDL
MODEL 2
REMARK VINA RESULT:     -12.2      1.493      2.405
REMARK SMILES Cc1oc(C)c(C(=O)Nc2cc(C(=O)NCCCCNC(=O)c3ccc(-c4c5nc(c(-c6cccc(S(=O)(=O)[O-])c6F)c6ccc([nH]6)c(-c6cccc(S(=O)(=O)[O-])c6F)c6nc(c(-c7cccc(S(=O)(=O)[O-])c7F)c7ccc4[nH]7)C=C6)C=C5)cc3)ccc2Cl)c1C
REMARK SMILES IDX 18 1 17 2 16 3 15 4 13 5 14 6 12 8 10 9 11 10 88 11 87 12
REMARK SMILES IDX 89 13 86 14 9 15 7 16 8 17 6 19 1 20 2 21 3 22 90 23 4 24
REMARK SMILES IDX 91 25 5 26 19 27 20 28 21 29 22 31 23 32 24 33 85 34 25 35
REMARK SMILES IDX 84 36 26 37 27 38 28 39 78 40 29 41 83 42 77 43 79 44 30 45
REMARK SMILES IDX 82 46 76 47 75 48 31 50 63 51 43 52 62 53 44 54 47 55 61 56
REMARK SMILES IDX 80 57 45 58 46 59 60 61 81 62 48 63 32 64 33 65 41 66 34 67
REMARK SMILES IDX 36 68 42 69 35 70 37 71 38 72 39 73 40 74 64 75 65 76 73 77
REMARK SMILES IDX 66 78 68 79 74 80 67 81 69 82 70 83 71 84 72 85 49 86 50 87
REMARK SMILES IDX 58 88 51 89 53 90 59 91 52 92 54 93 55 94 56 95 57 96
REMARK H PARENT 15 7 9 18 20 30 79 49 47 60
REMARK Flexibility Score: inf
ROOT
ATOM      1  C   UNL A   1      31.187  31.959  26.481  1.00  0.00     0.023 C 
ENDROOT
BRANCH   1   2
ATOM      2  C   UNL A   1      31.462  30.614  25.786  1.00  0.00     0.023 C 
BRANCH   2   3
ATOM      3  C   UNL A   1      32.702  29.855  26.276  1.00  0.00     0.116 C 
BRANCH   3   4
ATOM      4  N   UNL A   1      33.353  29.148  25.192  1.00  0.00    -0.352 N 
ATOM      5  C   UNL A   1      33.338  27.853  24.751  1.00  0.00     0.251 C 
ATOM      6  O   UNL A   1      34.105  27.577  23.825  1.00  0.00    -0.269 OA
ATOM      7  H   UNL A   1      33.936  29.729  24.653  1.00  0.00     0.163 HD
BRANCH   5   8
ATOM      8  C   UNL A   1      32.466  26.758  25.278  1.00  0.00     0.041 A 
ATOM      9  C   UNL A   1      32.480  24.563  26.384  1.00  0.00     0.061 A 
ATOM     10  C   UNL A   1      33.136  25.737  25.985  1.00  0.00     0.041 A 
ATOM     11  C   UNL A   1      31.086  24.491  26.260  1.00  0.00     0.064 A 
ATOM     12  C   UNL A   1      30.401  25.510  25.596  1.00  0.00     0.023 A 
ATOM     13  Cl  UNL A   1      30.146  23.240  26.995  1.00  0.00    -0.082 Cl
ATOM     14  C   UNL A   1      31.090  26.620  25.085  1.00  0.00     0.015 A 
BRANCH   9  15
ATOM     15  N   UNL A   1      33.314  23.507  26.792  1.00  0.00    -0.320 N 
ATOM     16  C   UNL A   1      33.742  22.396  26.083  1.00  0.00     0.259 C 
ATOM     17  O   UNL A   1      34.321  21.508  26.712  1.00  0.00    -0.269 OA
ATOM     18  H   UNL A   1      33.644  23.565  27.718  1.00  0.00     0.170 HD
BRANCH  16  19
ATOM     19  C   UNL A   1      33.527  22.305  24.637  1.00  0.00     0.084 A 
ATOM     20  C   UNL A   1      33.095  23.331  21.107  1.00  0.00     0.088 C 
ATOM     21  C   UNL A   1      33.263  22.741  22.450  1.00  0.00     0.104 A 
ATOM     22  O   UNL A   1      32.531  21.633  22.726  1.00  0.00    -0.466 OA
ATOM     23  C   UNL A   1      34.068  23.057  23.528  1.00  0.00     0.003 A 
ATOM     24  C   UNL A   1      32.785  21.304  24.023  1.00  0.00     0.114 A 
ATOM     25  C   UNL A   1      35.232  23.979  23.481  1.00  0.00     0.049 C 
ATOM     26  C   UNL A   1      32.247  19.999  24.455  1.00  0.00     0.088 C 
ENDBRANCH  16  19
ENDBRANCH   9  15
ENDBRANCH   5   8
ENDBRANCH   3   4
ENDBRANCH   2   3
ENDBRANCH   1   2
BRANCH   1  27
ATOM     27  C   UNL A   1      32.340  32.494  27.322  1.00  0.00     0.116 C 
BRANCH  27  28
ATOM     28  N   UNL A   1      32.264  33.943  27.557  1.00  0.00    -0.352 N 
ATOM     29  C   UNL A   1      32.966  34.701  28.486  1.00  0.00     0.251 C 
ATOM     30  H   UNL A   1      31.636  34.439  26.983  1.00  0.00     0.163 HD
ATOM     31  O   UNL A   1      32.566  35.793  28.849  1.00  0.00    -0.269 OA
BRANCH  29  32
ATOM     32  C   UNL A   1      34.242  34.160  28.986  1.00  0.00     0.039 A 
ATOM     33  C   UNL A   1      34.387  33.569  30.247  1.00  0.00     0.014 A 
ATOM     34  C   UNL A   1      35.308  34.226  28.100  1.00  0.00     0.014 A 
ATOM     35  C   UNL A   1      35.617  32.999  30.574  1.00  0.00     0.010 A 
ATOM     36  C   UNL A   1      36.406  33.456  28.319  1.00  0.00     0.010 A 
ATOM     37  C   UNL A   1      36.617  32.953  29.593  1.00  0.00    -0.014 A 
BRANCH  37  38
ATOM     38  C   UNL A   1      37.914  32.337  29.802  1.00  0.00     0.031 A 
ATOM     39  C   UNL A   1      38.013  30.948  29.282  1.00  0.00     0.074 A 
ATOM     40  C   UNL A   1      38.985  33.103  30.114  1.00  0.00     0.049 A 
ATOM     41  N   UNL A   1      38.124  29.855  29.960  1.00  0.00    -0.248 NA
ATOM     42  C   UNL A   1      37.767  30.728  27.845  1.00  0.00     0.031 C 
ATOM     43  C   UNL A   1      39.052  34.569  30.238  1.00  0.00     0.029 A 
ATOM     44  N   UNL A   1      40.291  32.750  30.198  1.00  0.00    -0.354 N 
ATOM     45  C   UNL A   1      38.227  28.837  29.011  1.00  0.00     0.074 A 
ATOM     46  C   UNL A   1      37.722  29.396  27.790  1.00  0.00     0.031 C 
ATOM     47  C   UNL A   1      40.333  34.975  30.096  1.00  0.00     0.029 A 
ATOM     48  C   UNL A   1      41.186  33.805  30.031  1.00  0.00     0.049 A 
ATOM     49  H   UNL A   1      40.583  31.825  30.365  1.00  0.00     0.167 HD
ATOM     50  C   UNL A   1      38.998  27.735  29.242  1.00  0.00     0.034 A 
ATOM     51  C   UNL A   1      42.515  33.698  29.774  1.00  0.00     0.034 A 
ATOM     52  C   UNL A   1      39.391  27.680  30.633  1.00  0.00     0.049 A 
ATOM     53  C   UNL A   1      42.910  32.313  30.137  1.00  0.00     0.074 A 
ATOM     54  C   UNL A   1      38.720  27.654  31.840  1.00  0.00     0.029 A 
ATOM     55  N   UNL A   1      40.676  28.079  30.927  1.00  0.00    -0.354 N 
ATOM     56  N   UNL A   1      42.860  31.851  31.356  1.00  0.00    -0.248 NA
ATOM     57  C   UNL A   1      42.871  31.312  29.081  1.00  0.00     0.031 C 
ATOM     58  C   UNL A   1      39.477  28.515  32.692  1.00  0.00     0.029 A 
ATOM     59  C   UNL A   1      40.608  28.937  31.990  1.00  0.00     0.049 A 
ATOM     60  H   UNL A   1      41.494  27.799  30.457  1.00  0.00     0.167 HD
ATOM     61  C   UNL A   1      42.317  30.578  31.218  1.00  0.00     0.074 A 
ATOM     62  C   UNL A   1      42.428  30.269  29.790  1.00  0.00     0.031 C 
ATOM     63  C   UNL A   1      41.538  30.025  32.197  1.00  0.00     0.034 A 
BRANCH  50  64
ATOM     64  C   UNL A   1      39.761  26.933  28.197  1.00  0.00     0.023 A 
ATOM     65  C   UNL A   1      39.615  25.525  28.260  1.00  0.00     0.012 A 
ATOM     66  C   UNL A   1      40.798  27.417  27.366  1.00  0.00     0.148 A 
ATOM     67  C   UNL A   1      40.521  24.655  27.645  1.00  0.00     0.002 A 
ATOM     68  C   UNL A   1      41.663  26.549  26.707  1.00  0.00     0.091 A 
ATOM     69  F   UNL A   1      41.040  28.723  27.272  1.00  0.00    -0.205 F 
ATOM     70  C   UNL A   1      41.554  25.168  26.876  1.00  0.00     0.022 A 
BRANCH  68  71
ATOM     71  S   UNL A   1      43.001  27.153  25.665  1.00  0.00     0.127 S 
ATOM     72  O   UNL A   1      43.556  25.903  25.153  1.00  0.00    -0.237 OA
ATOM     73  O   UNL A   1      42.271  27.957  24.684  1.00  0.00    -0.237 OA
ATOM     74  O   UNL A   1      43.872  27.924  26.542  1.00  0.00    -0.744 OA
ENDBRANCH  68  71
ENDBRANCH  50  64
BRANCH  51  75
ATOM     75  C   UNL A   1      43.390  34.578  28.955  1.00  0.00     0.023 A 
ATOM     76  C   UNL A   1      43.542  34.335  27.574  1.00  0.00     0.012 A 
ATOM     77  C   UNL A   1      43.857  35.813  29.460  1.00  0.00     0.148 A 
ATOM     78  C   UNL A   1      44.117  35.294  26.727  1.00  0.00     0.002 A 
ATOM     79  C   UNL A   1      44.437  36.758  28.617  1.00  0.00     0.091 A 
ATOM     80  F   UNL A   1      43.647  36.103  30.750  1.00  0.00    -0.205 F 
ATOM     81  C   UNL A   1      44.558  36.509  27.246  1.00  0.00     0.022 A 
BRANCH  79  82
ATOM     82  S   UNL A   1      45.010  38.352  29.228  1.00  0.00     0.127 S 
ATOM     83  O   UNL A   1      43.770  38.950  29.724  1.00  0.00    -0.237 OA
ATOM     84  O   UNL A   1      45.957  37.954  30.264  1.00  0.00    -0.237 OA
ATOM     85  O   UNL A   1      45.579  39.035  28.072  1.00  0.00    -0.744 OA
ENDBRANCH  79  82
ENDBRANCH  51  75
BRANCH  63  86
ATOM     86  C   UNL A   1      41.442  30.725  33.530  1.00  0.00     0.023 A 
ATOM     87  C   UNL A   1      42.466  30.665  34.501  1.00  0.00     0.012 A 
ATOM     88  C   UNL A   1      40.391  31.636  33.714  1.00  0.00     0.148 A 
ATOM     89  C   UNL A   1      42.435  31.489  35.630  1.00  0.00     0.002 A 
ATOM     90  C   UNL A   1      40.386  32.486  34.811  1.00  0.00     0.091 A 
ATOM     91  F   UNL A   1      39.428  31.684  32.781  1.00  0.00    -0.205 F 
ATOM     92  C   UNL A   1      41.402  32.413  35.777  1.00  0.00     0.022 A 
BRANCH  90  93
ATOM     93  S   UNL A   1      39.158  33.782  34.981  1.00  0.00     0.127 S 
ATOM     94  O   UNL A   1      39.565  34.423  36.230  1.00  0.00    -0.237 OA
ATOM     95  O   UNL A   1      39.381  34.587  33.779  1.00  0.00    -0.237 OA
ATOM     96  O   UNL A   1      37.866  33.108  35.013  1.00  0.00    -0.744 OA
ENDBRANCH  90  93
ENDBRANCH  63  86
ENDBRANCH  37  38
ENDBRANCH  29  32
ENDBRANCH  27  28
ENDBRANCH   1  27
TORSDOF 16
ENDMDL
MODEL 3
REMARK VINA RESULT:     -12.2      1.772      2.322
REMARK SMILES Cc1oc(C)c(C(=O)Nc2cc(C(=O)NCCCCNC(=O)c3ccc(-c4c5nc(c(-c6cccc(S(=O)(=O)[O-])c6F)c6ccc([nH]6)c(-c6cccc(S(=O)(=O)[O-])c6F)c6nc(c(-c7cccc(S(=O)(=O)[O-])c7F)c7ccc4[nH]7)C=C6)C=C5)cc3)ccc2Cl)c1C
REMARK SMILES IDX 18 1 17 2 16 3 15 4 13 5 14 6 12 8 10 9 11 10 88 11 87 12
REMARK SMILES IDX 89 13 86 14 9 15 7 16 8 17 6 19 1 20 2 21 3 22 90 23 4 24
REMARK SMILES IDX 91 25 5 26 19 27 20 28 21 29 22 31 23 32 24 33 85 34 25 35
REMARK SMILES IDX 84 36 26 37 27 38 28 39 78 40 29 41 83 42 77 43 79 44 30 45
REMARK SMILES IDX 82 46 76 47 75 48 31 50 63 51 43 52 62 53 44 54 47 55 61 56
REMARK SMILES IDX 80 57 45 58 46 59 60 61 81 62 48 63 32 64 33 65 41 66 34 67
REMARK SMILES IDX 36 68 42 69 35 70 37 71 38 72 39 73 40 74 64 75 65 76 73 77
REMARK SMILES IDX 66 78 68 79 74 80 67 81 69 82 70 83 71 84 72 85 49 86 50 87
REMARK SMILES IDX 58 88 51 89 53 90 59 91 52 92 54 93 55 94 56 95 57 96
REMARK H PARENT 15 7 9 18 20 30 79 49 47 60
REMARK Flexibility Score: inf
ROOT
ATOM      1  C   UNL A   1      31.408  31.758  26.160  1.00  0.00     0.023 C 
ENDROOT
BRANCH   1   2
ATOM      2  C   UNL A   1      31.408  30.231  25.975  1.00  0.00     0.023 C 
BRANCH   2   3
ATOM      3  C   UNL A   1      32.278  29.701  24.827  1.00  0.00     0.116 C 
BRANCH   3   4
ATOM      4  N   UNL A   1      31.476  29.330  23.681  1.00  0.00    -0.352 N 
ATOM      5  C   UNL A   1      30.864  28.175  23.275  1.00  0.00     0.251 C 
ATOM      6  O   UNL A   1      30.322  28.197  22.168  1.00  0.00    -0.269 OA
ATOM      7  H   UNL A   1      31.340  30.076  23.053  1.00  0.00     0.163 HD
BRANCH   5   8
ATOM      8  C   UNL A   1      30.782  26.905  24.063  1.00  0.00     0.041 A 
ATOM      9  C   UNL A   1      31.076  24.469  23.942  1.00  0.00     0.061 A 
ATOM     10  C   UNL A   1      31.251  25.751  23.401  1.00  0.00     0.041 A 
ATOM     11  C   UNL A   1      30.610  24.346  25.257  1.00  0.00     0.064 A 
ATOM     12  C   UNL A   1      30.175  25.483  25.941  1.00  0.00     0.023 A 
ATOM     13  Cl  UNL A   1      30.650  22.853  26.128  1.00  0.00    -0.082 Cl
ATOM     14  C   UNL A   1      30.234  26.747  25.338  1.00  0.00     0.015 A 
BRANCH   9  15
ATOM     15  N   UNL A   1      31.300  23.398  23.057  1.00  0.00    -0.320 N 
ATOM     16  C   UNL A   1      32.409  22.577  22.928  1.00  0.00     0.259 C 
ATOM     17  O   UNL A   1      32.448  21.824  21.953  1.00  0.00    -0.269 OA
ATOM     18  H   UNL A   1      30.559  23.202  22.437  1.00  0.00     0.170 HD
BRANCH  16  19
ATOM     19  C   UNL A   1      33.475  22.600  23.931  1.00  0.00     0.084 A 
ATOM     20  C   UNL A   1      36.698  23.383  25.576  1.00  0.00     0.088 C 
ATOM     21  C   UNL A   1      35.363  22.985  25.085  1.00  0.00     0.104 A 
ATOM     22  O   UNL A   1      34.928  21.749  25.435  1.00  0.00    -0.466 OA
ATOM     23  C   UNL A   1      34.394  23.635  24.345  1.00  0.00     0.003 A 
ATOM     24  C   UNL A   1      33.724  21.566  24.824  1.00  0.00     0.114 A 
ATOM     25  C   UNL A   1      34.365  25.097  24.077  1.00  0.00     0.049 C 
ATOM     26  C   UNL A   1      32.981  20.362  25.251  1.00  0.00     0.088 C 
ENDBRANCH  16  19
ENDBRANCH   9  15
ENDBRANCH   5   8
ENDBRANCH   3   4
ENDBRANCH   2   3
ENDBRANCH   1   2
BRANCH   1  27
ATOM     27  C   UNL A   1      32.324  32.270  27.265  1.00  0.00     0.116 C 
BRANCH  27  28
ATOM     28  N   UNL A   1      32.241  33.724  27.460  1.00  0.00    -0.352 N 
ATOM     29  C   UNL A   1      32.934  34.510  28.373  1.00  0.00     0.251 C 
ATOM     30  H   UNL A   1      31.615  34.202  26.870  1.00  0.00     0.163 HD
ATOM     31  O   UNL A   1      32.528  35.610  28.704  1.00  0.00    -0.269 OA
BRANCH  29  32
ATOM     32  C   UNL A   1      34.209  33.987  28.895  1.00  0.00     0.039 A 
ATOM     33  C   UNL A   1      34.371  33.519  30.205  1.00  0.00     0.014 A 
ATOM     34  C   UNL A   1      35.255  33.940  27.983  1.00  0.00     0.014 A 
ATOM     35  C   UNL A   1      35.595  32.952  30.558  1.00  0.00     0.010 A 
ATOM     36  C   UNL A   1      36.339  33.167  28.252  1.00  0.00     0.010 A 
ATOM     37  C   UNL A   1      36.569  32.784  29.565  1.00  0.00    -0.014 A 
BRANCH  37  38
ATOM     38  C   UNL A   1      37.856  32.158  29.804  1.00  0.00     0.031 A 
ATOM     39  C   UNL A   1      37.977  30.791  29.235  1.00  0.00     0.074 A 
ATOM     40  C   UNL A   1      38.913  32.910  30.191  1.00  0.00     0.049 A 
ATOM     41  N   UNL A   1      38.059  29.672  29.874  1.00  0.00    -0.248 NA
ATOM     42  C   UNL A   1      37.792  30.627  27.782  1.00  0.00     0.031 C 
ATOM     43  C   UNL A   1      38.975  34.370  30.375  1.00  0.00     0.029 A 
ATOM     44  N   UNL A   1      40.214  32.552  30.317  1.00  0.00    -0.354 N 
ATOM     45  C   UNL A   1      38.202  28.691  28.891  1.00  0.00     0.074 A 
ATOM     46  C   UNL A   1      37.749  29.299  27.672  1.00  0.00     0.031 C 
ATOM     47  C   UNL A   1      40.261  34.779  30.303  1.00  0.00     0.029 A 
ATOM     48  C   UNL A   1      41.116  33.610  30.229  1.00  0.00     0.049 A 
ATOM     49  H   UNL A   1      40.498  31.620  30.459  1.00  0.00     0.167 HD
ATOM     50  C   UNL A   1      38.962  27.580  29.111  1.00  0.00     0.034 A 
ATOM     51  C   UNL A   1      42.455  33.512  30.024  1.00  0.00     0.034 A 
ATOM     52  C   UNL A   1      39.296  27.470  30.515  1.00  0.00     0.049 A 
ATOM     53  C   UNL A   1      42.834  32.112  30.349  1.00  0.00     0.074 A 
ATOM     54  C   UNL A   1      38.574  27.398  31.690  1.00  0.00     0.029 A 
ATOM     55  N   UNL A   1      40.567  27.855  30.878  1.00  0.00    -0.354 N 
ATOM     56  N   UNL A   1      42.731  31.603  31.546  1.00  0.00    -0.248 NA
ATOM     57  C   UNL A   1      42.839  31.154  29.255  1.00  0.00     0.031 C 
ATOM     58  C   UNL A   1      39.294  28.224  32.606  1.00  0.00     0.029 A 
ATOM     59  C   UNL A   1      40.454  28.671  31.970  1.00  0.00     0.049 A 
ATOM     60  H   UNL A   1      41.404  27.592  30.433  1.00  0.00     0.167 HD
ATOM     61  C   UNL A   1      42.195  30.338  31.336  1.00  0.00     0.074 A 
ATOM     62  C   UNL A   1      42.366  30.085  29.903  1.00  0.00     0.031 C 
ATOM     63  C   UNL A   1      41.375  29.749  32.259  1.00  0.00     0.034 A 
BRANCH  50  64
ATOM     64  C   UNL A   1      39.769  26.818  28.069  1.00  0.00     0.023 A 
ATOM     65  C   UNL A   1      39.668  25.405  28.111  1.00  0.00     0.012 A 
ATOM     66  C   UNL A   1      40.803  27.347  27.263  1.00  0.00     0.148 A 
ATOM     67  C   UNL A   1      40.612  24.574  27.500  1.00  0.00     0.002 A 
ATOM     68  C   UNL A   1      41.708  26.516  26.608  1.00  0.00     0.091 A 
ATOM     69  F   UNL A   1      41.004  28.661  27.191  1.00  0.00    -0.205 F 
ATOM     70  C   UNL A   1      41.640  25.131  26.756  1.00  0.00     0.022 A 
BRANCH  68  71
ATOM     71  S   UNL A   1      43.042  27.178  25.598  1.00  0.00     0.127 S 
ATOM     72  O   UNL A   1      43.610  25.957  25.032  1.00  0.00    -0.237 OA
ATOM     73  O   UNL A   1      42.308  28.019  24.652  1.00  0.00    -0.237 OA
ATOM     74  O   UNL A   1      43.905  27.916  26.511  1.00  0.00    -0.744 OA
ENDBRANCH  68  71
ENDBRANCH  50  64
BRANCH  51  75
ATOM     75  C   UNL A   1      43.363  34.421  29.278  1.00  0.00     0.023 A 
ATOM     76  C   UNL A   1      44.010  35.480  29.948  1.00  0.00     0.012 A 
ATOM     77  C   UNL A   1      43.813  34.094  27.978  1.00  0.00     0.148 A 
ATOM     78  C   UNL A   1      45.078  36.170  29.355  1.00  0.00     0.002 A 
ATOM     79  C   UNL A   1      44.866  34.789  27.389  1.00  0.00     0.091 A 
ATOM     80  F   UNL A   1      43.272  33.038  27.356  1.00  0.00    -0.205 F 
ATOM     81  C   UNL A   1      45.511  35.821  28.078  1.00  0.00     0.022 A 
BRANCH  79  82
ATOM     82  S   UNL A   1      45.480  34.371  25.749  1.00  0.00     0.127 S 
ATOM     83  O   UNL A   1      46.413  35.467  25.485  1.00  0.00    -0.237 OA
ATOM     84  O   UNL A   1      46.106  33.074  25.984  1.00  0.00    -0.237 OA
ATOM     85  O   UNL A   1      44.309  34.364  24.880  1.00  0.00    -0.744 OA
ENDBRANCH  79  82
ENDBRANCH  51  75
BRANCH  63  86
ATOM     86  C   UNL A   1      41.223  30.396  33.613  1.00  0.00     0.023 A 
ATOM     87  C   UNL A   1      42.210  30.306  34.619  1.00  0.00     0.012 A 
ATOM     88  C   UNL A   1      40.157  31.291  33.791  1.00  0.00     0.148 A 
ATOM     89  C   UNL A   1      42.128  31.087  35.776  1.00  0.00     0.002 A 
ATOM     90  C   UNL A   1      40.103  32.099  34.919  1.00  0.00     0.091 A 
ATOM     91  F   UNL A   1      39.229  31.367  32.825  1.00  0.00    -0.205 F 
ATOM     92  C   UNL A   1      41.082  31.996  35.919  1.00  0.00     0.022 A 
BRANCH  90  93
ATOM     93  S   UNL A   1      38.858  33.378  35.092  1.00  0.00     0.127 S 
ATOM     94  O   UNL A   1      39.112  34.207  33.915  1.00  0.00    -0.237 OA
ATOM     95  O   UNL A   1      37.611  32.612  35.044  1.00  0.00    -0.237 OA
ATOM     96  O   UNL A   1      39.114  34.016  36.377  1.00  0.00    -0.744 OA
ENDBRANCH  90  93
ENDBRANCH  63  86
ENDBRANCH  37  38
ENDBRANCH  29  32
ENDBRANCH  27  28
ENDBRANCH   1  27
TORSDOF 16
ENDMDL
