MODEL 1
REMARK VINA RESULT:     -10.6      0.000      0.000
REMARK SMILES CCCCNC(=O)COc1ccc(Cl)cc1C(=O)NCCCCNC(=O)c1ccc(-c2c3nc(c(-c4cccc(S(=O)(=O)[O-])c4F)c4ccc([nH]4)c(-c4cccc(S(=O)(=O)[O-])c4F)c4nc(c(-c5cccc(S(=O)(=O)[O-])c5F)c5ccc2[nH]5)C=C4)C=C3)cc1
REMARK SMILES IDX 20 1 19 2 17 3 18 4 16 6 10 7 11 8 12 9 15 10 13 11 14 12
REMARK SMILES IDX 9 13 8 14 6 15 5 16 7 18 4 19 3 20 2 21 1 22 21 23 22 24
REMARK SMILES IDX 23 25 24 26 25 27 26 29 27 30 28 31 89 32 29 33 88 34 30 35
REMARK SMILES IDX 31 36 32 37 82 38 33 39 87 40 81 41 83 42 34 43 86 44 80 45
REMARK SMILES IDX 79 46 35 48 67 49 47 50 66 51 48 52 51 53 65 54 84 55 49 56
REMARK SMILES IDX 50 57 64 59 85 60 52 61 36 62 37 63 45 64 38 65 40 66 46 67
REMARK SMILES IDX 39 68 41 69 42 70 43 71 44 72 68 73 69 74 77 75 70 76 72 77
REMARK SMILES IDX 78 78 71 79 73 80 74 81 75 82 76 83 53 84 54 85 62 86 55 87
REMARK SMILES IDX 57 88 63 89 56 90 58 91 59 92 60 93 61 94
REMARK H PARENT 19 5 5 17 24 28 83 47 51 58
REMARK Flexibility Score: inf
ROOT
ATOM      1  C   UNL A   1      30.182  26.035  26.438  1.00  0.00     0.116 C 
ENDROOT
BRANCH   1   2
ATOM      2  N   UNL A   1      29.966  25.249  25.252  1.00  0.00    -0.352 N 
ATOM      3  C   UNL A   1      30.082  25.610  23.930  1.00  0.00     0.255 C 
ATOM      4  O   UNL A   1      29.961  24.719  23.086  1.00  0.00    -0.269 OA
ATOM      5  H   UNL A   1      29.696  24.315  25.410  1.00  0.00     0.163 HD
BRANCH   3   6
ATOM      6  C   UNL A   1      30.253  27.015  23.439  1.00  0.00     0.083 A 
ATOM      7  C   UNL A   1      31.454  27.675  23.121  1.00  0.00     0.132 A 
ATOM      8  C   UNL A   1      31.417  28.976  22.586  1.00  0.00     0.049 A 
ATOM      9  C   UNL A   1      30.205  29.633  22.380  1.00  0.00     0.024 A 
ATOM     10  C   UNL A   1      29.036  27.694  23.210  1.00  0.00     0.038 A 
ATOM     11  C   UNL A   1      29.018  28.987  22.690  1.00  0.00     0.042 A 
ATOM     12  Cl  UNL A   1      27.519  29.782  22.401  1.00  0.00    -0.084 Cl
BRANCH   7  13
ATOM     13  O   UNL A   1      32.660  27.029  23.199  1.00  0.00    -0.483 OA
BRANCH  13  14
ATOM     14  C   UNL A   1      33.248  26.720  21.935  1.00  0.00     0.329 C 
BRANCH  14  15
ATOM     15  C   UNL A   1      32.724  25.487  21.205  1.00  0.00     0.257 C 
ATOM     16  N   UNL A   1      32.885  24.257  21.767  1.00  0.00    -0.353 N 
ATOM     17  H   UNL A   1      32.648  23.490  21.197  1.00  0.00     0.163 HD
ATOM     18  O   UNL A   1      32.204  25.573  20.091  1.00  0.00    -0.271 OA
BRANCH  16  19
ATOM     19  C   UNL A   1      33.361  23.929  23.098  1.00  0.00     0.116 C 
BRANCH  19  20
ATOM     20  C   UNL A   1      34.596  23.026  23.053  1.00  0.00     0.021 C 
BRANCH  20  21
ATOM     21  C   UNL A   1      34.677  21.996  24.184  1.00  0.00    -0.002 C 
ATOM     22  C   UNL A   1      33.360  21.288  24.458  1.00  0.00     0.004 C 
ENDBRANCH  20  21
ENDBRANCH  19  20
ENDBRANCH  16  19
ENDBRANCH  14  15
ENDBRANCH  13  14
ENDBRANCH   7  13
ENDBRANCH   3   6
ENDBRANCH   1   2
BRANCH   1  23
ATOM     23  C   UNL A   1      31.515  26.762  26.548  1.00  0.00     0.023 C 
BRANCH  23  24
ATOM     24  C   UNL A   1      31.473  28.239  26.931  1.00  0.00     0.023 C 
BRANCH  24  25
ATOM     25  C   UNL A   1      32.556  29.138  26.343  1.00  0.00     0.116 C 
BRANCH  25  26
ATOM     26  N   UNL A   1      32.415  30.552  26.675  1.00  0.00    -0.352 N 
ATOM     27  C   UNL A   1      33.297  31.440  27.250  1.00  0.00     0.251 C 
ATOM     28  H   UNL A   1      31.537  30.937  26.449  1.00  0.00     0.163 HD
ATOM     29  O   UNL A   1      32.925  32.589  27.483  1.00  0.00    -0.269 OA
BRANCH  27  30
ATOM     30  C   UNL A   1      34.662  31.017  27.636  1.00  0.00     0.039 A 
ATOM     31  C   UNL A   1      35.611  31.999  27.943  1.00  0.00     0.014 A 
ATOM     32  C   UNL A   1      35.011  29.670  27.727  1.00  0.00     0.014 A 
ATOM     33  C   UNL A   1      36.856  31.629  28.459  1.00  0.00     0.010 A 
ATOM     34  C   UNL A   1      36.214  29.305  28.329  1.00  0.00     0.010 A 
ATOM     35  C   UNL A   1      37.142  30.280  28.722  1.00  0.00    -0.014 A 
BRANCH  35  36
ATOM     36  C   UNL A   1      38.363  29.870  29.472  1.00  0.00     0.031 A 
ATOM     37  C   UNL A   1      38.770  30.584  30.733  1.00  0.00     0.074 A 
ATOM     38  C   UNL A   1      39.181  28.938  28.939  1.00  0.00     0.049 A 
ATOM     39  N   UNL A   1      39.849  30.429  31.455  1.00  0.00    -0.248 NA
ATOM     40  C   UNL A   1      37.864  31.632  31.229  1.00  0.00     0.031 C 
ATOM     41  C   UNL A   1      38.958  28.243  27.669  1.00  0.00     0.029 A 
ATOM     42  N   UNL A   1      40.385  28.443  29.378  1.00  0.00    -0.354 N 
ATOM     43  C   UNL A   1      39.777  31.386  32.460  1.00  0.00     0.074 A 
ATOM     44  C   UNL A   1      38.561  32.137  32.237  1.00  0.00     0.031 C 
ATOM     45  C   UNL A   1      39.986  27.413  27.433  1.00  0.00     0.029 A 
ATOM     46  C   UNL A   1      40.959  27.539  28.514  1.00  0.00     0.049 A 
ATOM     47  H   UNL A   1      40.798  28.710  30.231  1.00  0.00     0.167 HD
ATOM     48  C   UNL A   1      40.628  31.602  33.491  1.00  0.00     0.034 A 
ATOM     49  C   UNL A   1      42.139  26.889  28.573  1.00  0.00     0.034 A 
ATOM     50  C   UNL A   1      41.805  30.816  33.747  1.00  0.00     0.049 A 
ATOM     51  C   UNL A   1      43.036  27.104  29.761  1.00  0.00     0.074 A 
ATOM     52  C   UNL A   1      42.658  30.874  34.836  1.00  0.00     0.029 A 
ATOM     53  N   UNL A   1      42.302  29.836  32.903  1.00  0.00    -0.354 N 
ATOM     54  N   UNL A   1      42.853  27.879  30.801  1.00  0.00    -0.248 NA
ATOM     55  C   UNL A   1      44.286  26.331  29.798  1.00  0.00     0.031 C 
ATOM     56  C   UNL A   1      43.682  29.940  34.640  1.00  0.00     0.029 A 
ATOM     57  C   UNL A   1      43.459  29.292  33.436  1.00  0.00     0.049 A 
ATOM     58  H   UNL A   1      41.893  29.566  32.049  1.00  0.00     0.167 HD
ATOM     59  C   UNL A   1      43.951  27.672  31.628  1.00  0.00     0.074 A 
ATOM     60  C   UNL A   1      44.781  26.676  30.981  1.00  0.00     0.031 C 
ATOM     61  C   UNL A   1      44.255  28.269  32.807  1.00  0.00     0.034 A 
BRANCH  48  62
ATOM     62  C   UNL A   1      40.281  32.698  34.466  1.00  0.00     0.023 A 
ATOM     63  C   UNL A   1      40.590  34.034  34.144  1.00  0.00     0.012 A 
ATOM     64  C   UNL A   1      39.602  32.415  35.667  1.00  0.00     0.148 A 
ATOM     65  C   UNL A   1      40.264  35.071  35.018  1.00  0.00     0.002 A 
ATOM     66  C   UNL A   1      39.243  33.459  36.514  1.00  0.00     0.091 A 
ATOM     67  F   UNL A   1      39.335  31.136  35.968  1.00  0.00    -0.205 F 
ATOM     68  C   UNL A   1      39.583  34.784  36.197  1.00  0.00     0.022 A 
BRANCH  66  69
ATOM     69  S   UNL A   1      38.296  33.198  38.019  1.00  0.00     0.127 S 
ATOM     70  O   UNL A   1      39.165  32.283  38.759  1.00  0.00    -0.237 OA
ATOM     71  O   UNL A   1      38.221  34.549  38.577  1.00  0.00    -0.237 OA
ATOM     72  O   UNL A   1      37.017  32.647  37.596  1.00  0.00    -0.744 OA
ENDBRANCH  66  69
ENDBRANCH  48  62
BRANCH  49  73
ATOM     73  C   UNL A   1      42.504  25.921  27.501  1.00  0.00     0.023 A 
ATOM     74  C   UNL A   1      43.390  26.322  26.483  1.00  0.00     0.012 A 
ATOM     75  C   UNL A   1      42.020  24.597  27.507  1.00  0.00     0.148 A 
ATOM     76  C   UNL A   1      43.769  25.432  25.477  1.00  0.00     0.002 A 
ATOM     77  C   UNL A   1      42.444  23.700  26.534  1.00  0.00     0.091 A 
ATOM     78  F   UNL A   1      41.166  24.239  28.477  1.00  0.00    -0.205 F 
ATOM     79  C   UNL A   1      43.307  24.119  25.509  1.00  0.00     0.022 A 
BRANCH  77  80
ATOM     80  S   UNL A   1      42.010  21.958  26.577  1.00  0.00     0.127 S 
ATOM     81  O   UNL A   1      42.638  21.522  27.822  1.00  0.00    -0.237 OA
ATOM     82  O   UNL A   1      40.548  22.010  26.609  1.00  0.00    -0.237 OA
ATOM     83  O   UNL A   1      42.562  21.387  25.355  1.00  0.00    -0.744 OA
ENDBRANCH  77  80
ENDBRANCH  49  73
BRANCH  61  84
ATOM     84  C   UNL A   1      45.534  27.861  33.489  1.00  0.00     0.023 A 
ATOM     85  C   UNL A   1      46.709  28.605  33.260  1.00  0.00     0.012 A 
ATOM     86  C   UNL A   1      45.557  26.797  34.411  1.00  0.00     0.148 A 
ATOM     87  C   UNL A   1      47.893  28.280  33.920  1.00  0.00     0.002 A 
ATOM     88  C   UNL A   1      46.731  26.507  35.099  1.00  0.00     0.091 A 
ATOM     89  F   UNL A   1      44.434  26.090  34.600  1.00  0.00    -0.205 F 
ATOM     90  C   UNL A   1      47.901  27.241  34.847  1.00  0.00     0.022 A 
BRANCH  88  91
ATOM     91  S   UNL A   1      46.811  25.247  36.377  1.00  0.00     0.127 S 
ATOM     92  O   UNL A   1      47.970  24.465  35.953  1.00  0.00    -0.237 OA
ATOM     93  O   UNL A   1      47.021  26.042  37.587  1.00  0.00    -0.237 OA
ATOM     94  O   UNL A   1      45.533  24.547  36.331  1.00  0.00    -0.744 OA
ENDBRANCH  88  91
ENDBRANCH  61  84
ENDBRANCH  35  36
ENDBRANCH  27  30
ENDBRANCH  25  26
ENDBRANCH  24  25
ENDBRANCH  23  24
ENDBRANCH   1  23
TORSDOF 20
ENDMDL
MODEL 2
REMARK VINA RESULT:     -10.5      1.484      7.802
REMARK SMILES CCCCNC(=O)COc1ccc(Cl)cc1C(=O)NCCCCNC(=O)c1ccc(-c2c3nc(c(-c4cccc(S(=O)(=O)[O-])c4F)c4ccc([nH]4)c(-c4cccc(S(=O)(=O)[O-])c4F)c4nc(c(-c5cccc(S(=O)(=O)[O-])c5F)c5ccc2[nH]5)C=C4)C=C3)cc1
REMARK SMILES IDX 20 1 19 2 17 3 18 4 16 6 10 7 11 8 12 9 15 10 13 11 14 12
REMARK SMILES IDX 9 13 8 14 6 15 5 16 7 18 4 19 3 20 2 21 1 22 21 23 22 24
REMARK SMILES IDX 23 25 24 26 25 27 26 29 27 30 28 31 89 32 29 33 88 34 30 35
REMARK SMILES IDX 31 36 32 37 82 38 33 39 87 40 81 41 83 42 34 43 86 44 80 45
REMARK SMILES IDX 79 46 35 48 67 49 47 50 66 51 48 52 51 53 65 54 84 55 49 56
REMARK SMILES IDX 50 57 64 59 85 60 52 61 36 62 37 63 45 64 38 65 40 66 46 67
REMARK SMILES IDX 39 68 41 69 42 70 43 71 44 72 68 73 69 74 77 75 70 76 72 77
REMARK SMILES IDX 78 78 71 79 73 80 74 81 75 82 76 83 53 84 54 85 62 86 55 87
REMARK SMILES IDX 57 88 63 89 56 90 58 91 59 92 60 93 61 94
REMARK H PARENT 19 5 5 17 24 28 83 47 51 58
REMARK Flexibility Score: inf
ROOT
ATOM      1  C   UNL A   1      30.432  25.897  26.474  1.00  0.00     0.116 C 
ENDROOT
BRANCH   1   2
ATOM      2  N   UNL A   1      30.167  25.118  25.293  1.00  0.00    -0.352 N 
ATOM      3  C   UNL A   1      30.238  25.483  23.969  1.00  0.00     0.255 C 
ATOM      4  O   UNL A   1      30.079  24.596  23.127  1.00  0.00    -0.269 OA
ATOM      5  H   UNL A   1      29.895  24.185  25.457  1.00  0.00     0.163 HD
BRANCH   3   6
ATOM      6  C   UNL A   1      30.402  26.888  23.478  1.00  0.00     0.083 A 
ATOM      7  C   UNL A   1      31.599  27.547  23.139  1.00  0.00     0.132 A 
ATOM      8  C   UNL A   1      31.554  28.849  22.606  1.00  0.00     0.049 A 
ATOM      9  C   UNL A   1      30.340  29.508  22.424  1.00  0.00     0.024 A 
ATOM     10  C   UNL A   1      29.182  27.570  23.273  1.00  0.00     0.038 A 
ATOM     11  C   UNL A   1      29.157  28.864  22.756  1.00  0.00     0.042 A 
ATOM     12  Cl  UNL A   1      27.655  29.663  22.498  1.00  0.00    -0.084 Cl
BRANCH   7  13
ATOM     13  O   UNL A   1      32.804  26.898  23.192  1.00  0.00    -0.483 OA
BRANCH  13  14
ATOM     14  C   UNL A   1      33.366  26.588  21.916  1.00  0.00     0.329 C 
BRANCH  14  15
ATOM     15  C   UNL A   1      32.709  25.465  21.119  1.00  0.00     0.257 C 
ATOM     16  N   UNL A   1      32.876  24.173  21.520  1.00  0.00    -0.353 N 
ATOM     17  H   UNL A   1      32.542  23.486  20.899  1.00  0.00     0.163 HD
ATOM     18  O   UNL A   1      32.074  25.695  20.089  1.00  0.00    -0.271 OA
BRANCH  16  19
ATOM     19  C   UNL A   1      33.481  23.679  22.743  1.00  0.00     0.116 C 
BRANCH  19  20
ATOM     20  C   UNL A   1      32.764  22.434  23.268  1.00  0.00     0.021 C 
BRANCH  20  21
ATOM     21  C   UNL A   1      33.254  21.940  24.633  1.00  0.00    -0.002 C 
ATOM     22  C   UNL A   1      34.024  20.631  24.564  1.00  0.00     0.004 C 
ENDBRANCH  20  21
ENDBRANCH  19  20
ENDBRANCH  16  19
ENDBRANCH  14  15
ENDBRANCH  13  14
ENDBRANCH   7  13
ENDBRANCH   3   6
ENDBRANCH   1   2
BRANCH   1  23
ATOM     23  C   UNL A   1      31.849  26.429  26.642  1.00  0.00     0.023 C 
BRANCH  23  24
ATOM     24  C   UNL A   1      32.009  27.936  26.831  1.00  0.00     0.023 C 
BRANCH  24  25
ATOM     25  C   UNL A   1      33.433  28.472  26.944  1.00  0.00     0.116 C 
BRANCH  25  26
ATOM     26  N   UNL A   1      33.523  29.918  27.115  1.00  0.00    -0.352 N 
ATOM     27  C   UNL A   1      34.531  30.709  27.620  1.00  0.00     0.251 C 
ATOM     28  H   UNL A   1      32.724  30.413  26.820  1.00  0.00     0.163 HD
ATOM     29  O   UNL A   1      34.352  31.923  27.713  1.00  0.00    -0.269 OA
BRANCH  27  30
ATOM     30  C   UNL A   1      35.802  30.115  28.094  1.00  0.00     0.039 A 
ATOM     31  C   UNL A   1      36.933  30.201  27.276  1.00  0.00     0.014 A 
ATOM     32  C   UNL A   1      35.899  29.502  29.343  1.00  0.00     0.014 A 
ATOM     33  C   UNL A   1      38.178  29.790  27.761  1.00  0.00     0.010 A 
ATOM     34  C   UNL A   1      37.152  29.180  29.861  1.00  0.00     0.010 A 
ATOM     35  C   UNL A   1      38.310  29.341  29.085  1.00  0.00    -0.014 A 
BRANCH  35  36
ATOM     36  C   UNL A   1      39.645  29.106  29.703  1.00  0.00     0.031 A 
ATOM     37  C   UNL A   1      40.474  27.910  29.317  1.00  0.00     0.074 A 
ATOM     38  C   UNL A   1      40.052  29.901  30.715  1.00  0.00     0.049 A 
ATOM     39  N   UNL A   1      41.607  27.495  29.823  1.00  0.00    -0.248 NA
ATOM     40  C   UNL A   1      39.945  27.048  28.249  1.00  0.00     0.031 C 
ATOM     41  C   UNL A   1      39.297  31.033  31.258  1.00  0.00     0.029 A 
ATOM     42  N   UNL A   1      41.183  29.856  31.493  1.00  0.00    -0.354 N 
ATOM     43  C   UNL A   1      41.903  26.305  29.171  1.00  0.00     0.074 A 
ATOM     44  C   UNL A   1      40.815  26.047  28.252  1.00  0.00     0.031 C 
ATOM     45  C   UNL A   1      39.983  31.574  32.276  1.00  0.00     0.029 A 
ATOM     46  C   UNL A   1      41.210  30.812  32.484  1.00  0.00     0.049 A 
ATOM     47  H   UNL A   1      41.906  29.202  31.356  1.00  0.00     0.167 HD
ATOM     48  C   UNL A   1      42.993  25.512  29.301  1.00  0.00     0.034 A 
ATOM     49  C   UNL A   1      42.112  31.045  33.459  1.00  0.00     0.034 A 
ATOM     50  C   UNL A   1      44.103  25.799  30.169  1.00  0.00     0.049 A 
ATOM     51  C   UNL A   1      43.343  30.187  33.541  1.00  0.00     0.074 A 
ATOM     52  C   UNL A   1      45.309  25.128  30.276  1.00  0.00     0.029 A 
ATOM     53  N   UNL A   1      44.142  26.837  31.088  1.00  0.00    -0.354 N 
ATOM     54  N   UNL A   1      43.695  29.177  32.784  1.00  0.00    -0.248 NA
ATOM     55  C   UNL A   1      44.317  30.519  34.591  1.00  0.00     0.031 C 
ATOM     56  C   UNL A   1      46.069  25.749  31.273  1.00  0.00     0.029 A 
ATOM     57  C   UNL A   1      45.343  26.815  31.777  1.00  0.00     0.049 A 
ATOM     58  H   UNL A   1      43.422  27.493  31.230  1.00  0.00     0.167 HD
ATOM     59  C   UNL A   1      44.938  28.766  33.249  1.00  0.00     0.074 A 
ATOM     60  C   UNL A   1      45.293  29.656  34.336  1.00  0.00     0.031 C 
ATOM     61  C   UNL A   1      45.708  27.732  32.827  1.00  0.00     0.034 A 
BRANCH  48  62
ATOM     62  C   UNL A   1      43.073  24.284  28.431  1.00  0.00     0.023 A 
ATOM     63  C   UNL A   1      42.239  23.183  28.710  1.00  0.00     0.012 A 
ATOM     64  C   UNL A   1      43.925  24.240  27.310  1.00  0.00     0.148 A 
ATOM     65  C   UNL A   1      42.277  22.041  27.911  1.00  0.00     0.002 A 
ATOM     66  C   UNL A   1      43.927  23.113  26.494  1.00  0.00     0.091 A 
ATOM     67  F   UNL A   1      44.727  25.287  27.072  1.00  0.00    -0.205 F 
ATOM     68  C   UNL A   1      43.113  22.010  26.799  1.00  0.00     0.022 A 
BRANCH  66  69
ATOM     69  S   UNL A   1      44.914  23.009  24.995  1.00  0.00     0.127 S 
ATOM     70  O   UNL A   1      44.258  21.910  24.287  1.00  0.00    -0.237 OA
ATOM     71  O   UNL A   1      44.707  24.328  24.395  1.00  0.00    -0.237 OA
ATOM     72  O   UNL A   1      46.277  22.751  25.433  1.00  0.00    -0.744 OA
ENDBRANCH  66  69
ENDBRANCH  48  62
BRANCH  49  73
ATOM     73  C   UNL A   1      41.910  32.189  34.392  1.00  0.00     0.023 A 
ATOM     74  C   UNL A   1      42.444  33.450  34.063  1.00  0.00     0.012 A 
ATOM     75  C   UNL A   1      41.157  32.051  35.575  1.00  0.00     0.148 A 
ATOM     76  C   UNL A   1      42.253  34.546  34.904  1.00  0.00     0.002 A 
ATOM     77  C   UNL A   1      40.924  33.159  36.381  1.00  0.00     0.091 A 
ATOM     78  F   UNL A   1      40.669  30.840  35.879  1.00  0.00    -0.205 F 
ATOM     79  C   UNL A   1      41.484  34.405  36.056  1.00  0.00     0.022 A 
BRANCH  77  80
ATOM     80  S   UNL A   1      39.833  33.100  37.807  1.00  0.00     0.127 S 
ATOM     81  O   UNL A   1      38.700  32.341  37.286  1.00  0.00    -0.237 OA
ATOM     82  O   UNL A   1      40.654  32.389  38.788  1.00  0.00    -0.237 OA
ATOM     83  O   UNL A   1      39.562  34.491  38.150  1.00  0.00    -0.744 OA
ENDBRANCH  77  80
ENDBRANCH  49  73
BRANCH  61  84
ATOM     84  C   UNL A   1      47.019  27.503  33.531  1.00  0.00     0.023 A 
ATOM     85  C   UNL A   1      48.167  28.199  33.103  1.00  0.00     0.012 A 
ATOM     86  C   UNL A   1      47.099  26.664  34.660  1.00  0.00     0.148 A 
ATOM     87  C   UNL A   1      49.380  28.044  33.771  1.00  0.00     0.002 A 
ATOM     88  C   UNL A   1      48.302  26.549  35.349  1.00  0.00     0.091 A 
ATOM     89  F   UNL A   1      46.001  25.995  35.039  1.00  0.00    -0.205 F 
ATOM     90  C   UNL A   1      49.445  27.231  34.900  1.00  0.00     0.022 A 
BRANCH  88  91
ATOM     91  S   UNL A   1      48.456  25.596  36.864  1.00  0.00     0.127 S 
ATOM     92  O   UNL A   1      47.306  26.067  37.632  1.00  0.00    -0.237 OA
ATOM     93  O   UNL A   1      48.345  24.219  36.379  1.00  0.00    -0.237 OA
ATOM     94  O   UNL A   1      49.761  25.934  37.419  1.00  0.00    -0.744 OA
ENDBRANCH  88  91
ENDBRANCH  61  84
ENDBRANCH  35  36
ENDBRANCH  27  30
ENDBRANCH  25  26
ENDBRANCH  24  25
ENDBRANCH  23  24
ENDBRANCH   1  23
TORSDOF 20
ENDMDL
MODEL 3
REMARK VINA RESULT:     -10.4      6.569     11.804
REMARK SMILES CCCCNC(=O)COc1ccc(Cl)cc1C(=O)NCCCCNC(=O)c1ccc(-c2c3nc(c(-c4cccc(S(=O)(=O)[O-])c4F)c4ccc([nH]4)c(-c4cccc(S(=O)(=O)[O-])c4F)c4nc(c(-c5cccc(S(=O)(=O)[O-])c5F)c5ccc2[nH]5)C=C4)C=C3)cc1
REMARK SMILES IDX 20 1 19 2 17 3 18 4 16 6 10 7 11 8 12 9 15 10 13 11 14 12
REMARK SMILES IDX 9 13 8 14 6 15 5 16 7 18 4 19 3 20 2 21 1 22 21 23 22 24
REMARK SMILES IDX 23 25 24 26 25 27 26 29 27 30 28 31 89 32 29 33 88 34 30 35
REMARK SMILES IDX 31 36 32 37 82 38 33 39 87 40 81 41 83 42 34 43 86 44 80 45
REMARK SMILES IDX 79 46 35 48 67 49 47 50 66 51 48 52 51 53 65 54 84 55 49 56
REMARK SMILES IDX 50 57 64 59 85 60 52 61 36 62 37 63 45 64 38 65 40 66 46 67
REMARK SMILES IDX 39 68 41 69 42 70 43 71 44 72 68 73 69 74 77 75 70 76 72 77
REMARK SMILES IDX 78 78 71 79 73 80 74 81 75 82 76 83 53 84 54 85 62 86 55 87
REMARK SMILES IDX 57 88 63 89 56 90 58 91 59 92 60 93 61 94
REMARK H PARENT 19 5 5 17 24 28 83 47 51 58
REMARK Flexibility Score: inf
ROOT
ATOM      1  C   UNL A   1      47.256  27.597  24.659  1.00  0.00     0.116 C 
ENDROOT
BRANCH   1   2
ATOM      2  N   UNL A   1      45.855  27.806  24.408  1.00  0.00    -0.352 N 
ATOM      3  C   UNL A   1      44.762  27.328  25.094  1.00  0.00     0.255 C 
ATOM      4  O   UNL A   1      43.653  27.747  24.755  1.00  0.00    -0.269 OA
ATOM      5  H   UNL A   1      45.647  28.374  23.632  1.00  0.00     0.163 HD
BRANCH   3   6
ATOM      6  C   UNL A   1      44.813  26.272  26.154  1.00  0.00     0.083 A 
ATOM      7  C   UNL A   1      44.465  26.399  27.512  1.00  0.00     0.132 A 
ATOM      8  C   UNL A   1      44.491  25.268  28.350  1.00  0.00     0.049 A 
ATOM      9  C   UNL A   1      44.877  24.022  27.860  1.00  0.00     0.024 A 
ATOM     10  C   UNL A   1      45.188  24.996  25.677  1.00  0.00     0.038 A 
ATOM     11  C   UNL A   1      45.221  23.890  26.523  1.00  0.00     0.042 A 
ATOM     12  Cl  UNL A   1      45.661  22.344  25.908  1.00  0.00    -0.084 Cl
BRANCH   7  13
ATOM     13  O   UNL A   1      43.971  27.575  28.010  1.00  0.00    -0.483 OA
BRANCH  13  14
ATOM     14  C   UNL A   1      42.561  27.739  27.854  1.00  0.00     0.329 C 
BRANCH  14  15
ATOM     15  C   UNL A   1      41.664  27.120  28.922  1.00  0.00     0.257 C 
ATOM     16  N   UNL A   1      40.871  26.060  28.598  1.00  0.00    -0.353 N 
ATOM     17  H   UNL A   1      40.221  25.786  29.285  1.00  0.00     0.163 HD
ATOM     18  O   UNL A   1      41.601  27.590  30.059  1.00  0.00    -0.271 OA
BRANCH  16  19
ATOM     19  C   UNL A   1      40.861  25.283  27.373  1.00  0.00     0.116 C 
BRANCH  19  20
ATOM     20  C   UNL A   1      40.135  23.948  27.554  1.00  0.00     0.021 C 
BRANCH  20  21
ATOM     21  C   UNL A   1      41.056  22.731  27.688  1.00  0.00    -0.002 C 
ATOM     22  C   UNL A   1      41.821  22.405  26.415  1.00  0.00     0.004 C 
ENDBRANCH  20  21
ENDBRANCH  19  20
ENDBRANCH  16  19
ENDBRANCH  14  15
ENDBRANCH  13  14
ENDBRANCH   7  13
ENDBRANCH   3   6
ENDBRANCH   1   2
BRANCH   1  23
ATOM     23  C   UNL A   1      48.158  27.450  23.440  1.00  0.00     0.023 C 
BRANCH  23  24
ATOM     24  C   UNL A   1      49.339  26.489  23.559  1.00  0.00     0.023 C 
BRANCH  24  25
ATOM     25  C   UNL A   1      50.654  27.069  24.071  1.00  0.00     0.116 C 
BRANCH  25  26
ATOM     26  N   UNL A   1      51.534  26.097  24.711  1.00  0.00    -0.352 N 
ATOM     27  C   UNL A   1      51.532  25.576  25.986  1.00  0.00     0.251 C 
ATOM     28  H   UNL A   1      52.254  25.756  24.131  1.00  0.00     0.163 HD
ATOM     29  O   UNL A   1      52.424  24.795  26.316  1.00  0.00    -0.269 OA
BRANCH  27  30
ATOM     30  C   UNL A   1      50.506  25.981  26.974  1.00  0.00     0.039 A 
ATOM     31  C   UNL A   1      50.799  27.022  27.862  1.00  0.00     0.014 A 
ATOM     32  C   UNL A   1      49.254  25.368  27.019  1.00  0.00     0.014 A 
ATOM     33  C   UNL A   1      49.799  27.527  28.698  1.00  0.00     0.010 A 
ATOM     34  C   UNL A   1      48.234  25.932  27.782  1.00  0.00     0.010 A 
ATOM     35  C   UNL A   1      48.488  27.033  28.614  1.00  0.00    -0.014 A 
BRANCH  35  36
ATOM     36  C   UNL A   1      47.355  27.691  29.324  1.00  0.00     0.031 A 
ATOM     37  C   UNL A   1      46.685  27.022  30.494  1.00  0.00     0.074 A 
ATOM     38  C   UNL A   1      46.842  28.836  28.827  1.00  0.00     0.049 A 
ATOM     39  N   UNL A   1      45.627  27.400  31.163  1.00  0.00    -0.248 NA
ATOM     40  C   UNL A   1      47.256  25.745  30.950  1.00  0.00     0.031 C 
ATOM     41  C   UNL A   1      47.330  29.535  27.636  1.00  0.00     0.029 A 
ATOM     42  N   UNL A   1      45.772  29.593  29.237  1.00  0.00    -0.354 N 
ATOM     43  C   UNL A   1      45.377  26.391  32.085  1.00  0.00     0.074 A 
ATOM     44  C   UNL A   1      46.378  25.368  31.869  1.00  0.00     0.031 C 
ATOM     45  C   UNL A   1      46.566  30.616  27.413  1.00  0.00     0.029 A 
ATOM     46  C   UNL A   1      45.513  30.671  28.421  1.00  0.00     0.049 A 
ATOM     47  H   UNL A   1      45.239  29.384  30.038  1.00  0.00     0.167 HD
ATOM     48  C   UNL A   1      44.422  26.331  33.043  1.00  0.00     0.034 A 
ATOM     49  C   UNL A   1      44.533  31.597  28.467  1.00  0.00     0.034 A 
ATOM     50  C   UNL A   1      43.465  27.374  33.298  1.00  0.00     0.049 A 
ATOM     51  C   UNL A   1      43.522  31.540  29.579  1.00  0.00     0.074 A 
ATOM     52  C   UNL A   1      42.543  27.463  34.327  1.00  0.00     0.029 A 
ATOM     53  N   UNL A   1      43.298  28.504  32.512  1.00  0.00    -0.354 N 
ATOM     54  N   UNL A   1      43.422  30.675  30.558  1.00  0.00    -0.248 NA
ATOM     55  C   UNL A   1      42.507  32.604  29.610  1.00  0.00     0.031 C 
ATOM     56  C   UNL A   1      41.806  28.640  34.152  1.00  0.00     0.029 A 
ATOM     57  C   UNL A   1      42.278  29.289  33.023  1.00  0.00     0.049 A 
ATOM     58  H   UNL A   1      43.826  28.717  31.710  1.00  0.00     0.167 HD
ATOM     59  C   UNL A   1      42.351  31.100  31.335  1.00  0.00     0.074 A 
ATOM     60  C   UNL A   1      41.852  32.317  30.729  1.00  0.00     0.031 C 
ATOM     61  C   UNL A   1      41.816  30.523  32.439  1.00  0.00     0.034 A 
BRANCH  48  62
ATOM     62  C   UNL A   1      44.406  25.119  33.939  1.00  0.00     0.023 A 
ATOM     63  C   UNL A   1      43.774  23.939  33.497  1.00  0.00     0.012 A 
ATOM     64  C   UNL A   1      45.058  25.127  35.187  1.00  0.00     0.148 A 
ATOM     65  C   UNL A   1      43.759  22.797  34.296  1.00  0.00     0.002 A 
ATOM     66  C   UNL A   1      45.075  23.971  35.961  1.00  0.00     0.091 A 
ATOM     67  F   UNL A   1      45.635  26.264  35.602  1.00  0.00    -0.205 F 
ATOM     68  C   UNL A   1      44.417  22.810  35.522  1.00  0.00     0.022 A 
BRANCH  66  69
ATOM     69  S   UNL A   1      45.961  23.866  37.521  1.00  0.00     0.127 S 
ATOM     70  O   UNL A   1      45.706  22.479  37.911  1.00  0.00    -0.237 OA
ATOM     71  O   UNL A   1      47.340  24.138  37.113  1.00  0.00    -0.237 OA
ATOM     72  O   UNL A   1      45.373  24.880  38.383  1.00  0.00    -0.744 OA
ENDBRANCH  66  69
ENDBRANCH  48  62
BRANCH  49  73
ATOM     73  C   UNL A   1      44.508  32.697  27.462  1.00  0.00     0.023 A 
ATOM     74  C   UNL A   1      43.925  32.466  26.202  1.00  0.00     0.012 A 
ATOM     75  C   UNL A   1      45.012  33.979  27.761  1.00  0.00     0.148 A 
ATOM     76  C   UNL A   1      43.866  33.481  25.248  1.00  0.00     0.002 A 
ATOM     77  C   UNL A   1      44.901  35.001  26.826  1.00  0.00     0.091 A 
ATOM     78  F   UNL A   1      45.576  34.175  28.962  1.00  0.00    -0.205 F 
ATOM     79  C   UNL A   1      44.341  34.751  25.563  1.00  0.00     0.022 A 
BRANCH  77  80
ATOM     80  S   UNL A   1      45.359  36.698  27.196  1.00  0.00     0.127 S 
ATOM     81  O   UNL A   1      46.431  36.936  26.233  1.00  0.00    -0.237 OA
ATOM     82  O   UNL A   1      44.114  37.416  26.922  1.00  0.00    -0.237 OA
ATOM     83  O   UNL A   1      45.754  36.700  28.599  1.00  0.00    -0.744 OA
ENDBRANCH  77  80
ENDBRANCH  49  73
BRANCH  61  84
ATOM     84  C   UNL A   1      40.632  31.199  33.078  1.00  0.00     0.023 A 
ATOM     85  C   UNL A   1      40.839  32.098  34.144  1.00  0.00     0.012 A 
ATOM     86  C   UNL A   1      39.330  31.007  32.577  1.00  0.00     0.148 A 
ATOM     87  C   UNL A   1      39.765  32.776  34.717  1.00  0.00     0.002 A 
ATOM     88  C   UNL A   1      38.269  31.721  33.124  1.00  0.00     0.091 A 
ATOM     89  F   UNL A   1      39.152  30.133  31.577  1.00  0.00    -0.205 F 
ATOM     90  C   UNL A   1      38.484  32.598  34.201  1.00  0.00     0.022 A 
BRANCH  88  91
ATOM     91  S   UNL A   1      36.601  31.623  32.465  1.00  0.00     0.127 S 
ATOM     92  O   UNL A   1      36.334  30.189  32.538  1.00  0.00    -0.237 OA
ATOM     93  O   UNL A   1      35.841  32.435  33.417  1.00  0.00    -0.237 OA
ATOM     94  O   UNL A   1      36.669  32.180  31.120  1.00  0.00    -0.744 OA
ENDBRANCH  88  91
ENDBRANCH  61  84
ENDBRANCH  35  36
ENDBRANCH  27  30
ENDBRANCH  25  26
ENDBRANCH  24  25
ENDBRANCH  23  24
ENDBRANCH   1  23
TORSDOF 20
ENDMDL
