MODEL 1
REMARK VINA RESULT:     -12.2      0.000      0.000
REMARK SMILES C[C@H]1[C@H](C(=O)NCCCCNC(=O)c2ccc(-c3c4nc(c(-c5cccc(S(=O)(=O)[O-])c5F)c5ccc([nH]5)c(-c5cccc(S(=O)(=O)[O-])c5F)c5nc(c(-c6cccc(S(=O)(=O)[O-])c6F)c6ccc3[nH]6)C=C5)C=C4)cc2)CCN1C(=O)NCc1cnn(C)c1
REMARK SMILES IDX 8 1 7 2 6 3 4 4 5 5 3 7 1 8 2 9 79 10 77 11 78 12 80 13
REMARK SMILES IDX 81 14 82 15 83 17 84 18 85 19 89 20 86 21 87 22 88 23 9 24
REMARK SMILES IDX 10 25 11 26 12 27 13 29 14 30 15 31 76 32 16 33 75 34 17 35
REMARK SMILES IDX 18 36 19 37 69 38 20 39 74 40 68 41 70 42 21 43 73 44 67 45
REMARK SMILES IDX 66 46 22 48 54 49 34 50 53 51 35 52 38 53 52 54 71 55 36 56
REMARK SMILES IDX 37 57 51 59 72 60 39 61 23 62 24 63 32 64 25 65 27 66 33 67
REMARK SMILES IDX 26 68 28 69 29 70 30 71 31 72 55 73 56 74 64 75 57 76 59 77
REMARK SMILES IDX 65 78 58 79 60 80 61 81 62 82 63 83 40 84 41 85 49 86 42 87
REMARK SMILES IDX 44 88 50 89 43 90 45 91 46 92 47 93 48 94
REMARK H PARENT 6 6 82 16 11 28 70 47 38 58
REMARK Flexibility Score: inf
ROOT
ATOM      1  C   UNL A   1      31.859  30.424  26.696  1.00  0.00     0.023 C 
ENDROOT
BRANCH   1   2
ATOM      2  C   UNL A   1      33.227  29.981  26.193  1.00  0.00     0.116 C 
BRANCH   2   3
ATOM      3  N   UNL A   1      33.238  29.764  24.758  1.00  0.00    -0.356 N 
ATOM      4  C   UNL A   1      32.992  28.657  24.012  1.00  0.00     0.225 C 
ATOM      5  O   UNL A   1      33.108  28.759  22.786  1.00  0.00    -0.275 OA
ATOM      6  H   UNL A   1      33.465  30.564  24.230  1.00  0.00     0.163 HD
BRANCH   4   7
ATOM      7  C   UNL A   1      32.608  27.312  24.611  1.00  0.00     0.102 C 
ATOM      8  C   UNL A   1      30.521  25.988  24.160  1.00  0.00     0.032 C 
ATOM      9  C   UNL A   1      31.890  26.399  23.604  1.00  0.00     0.096 C 
ATOM     10  N   UNL A   1      32.754  25.231  23.455  1.00  0.00    -0.321 N 
ATOM     11  C   UNL A   1      33.768  26.510  25.195  1.00  0.00     0.037 C 
ATOM     12  C   UNL A   1      33.625  25.112  24.616  1.00  0.00     0.122 C 
BRANCH  10  13
ATOM     13  C   UNL A   1      32.879  24.325  22.451  1.00  0.00     0.317 C 
ATOM     14  O   UNL A   1      33.500  24.602  21.418  1.00  0.00    -0.249 OA
ATOM     15  N   UNL A   1      32.347  23.095  22.478  1.00  0.00    -0.334 N 
ATOM     16  H   UNL A   1      32.413  22.659  21.599  1.00  0.00     0.165 HD
BRANCH  15  17
ATOM     17  C   UNL A   1      31.701  22.231  23.443  1.00  0.00     0.157 C 
BRANCH  17  18
ATOM     18  C   UNL A   1      32.649  21.177  23.886  1.00  0.00     0.009 A 
ATOM     19  C   UNL A   1      33.923  21.377  24.467  1.00  0.00     0.140 A 
ATOM     20  C   UNL A   1      32.535  19.801  23.812  1.00  0.00     0.113 A 
ATOM     21  N   UNL A   1      34.544  20.234  24.754  1.00  0.00    -0.181 NA
ATOM     22  N   UNL A   1      33.680  19.289  24.353  1.00  0.00    -0.275 N 
ATOM     23  C   UNL A   1      34.029  17.898  24.513  1.00  0.00     0.173 C 
ENDBRANCH  17  18
ENDBRANCH  15  17
ENDBRANCH  10  13
ENDBRANCH   4   7
ENDBRANCH   2   3
ENDBRANCH   1   2
BRANCH   1  24
ATOM     24  C   UNL A   1      31.660  31.936  26.798  1.00  0.00     0.023 C 
BRANCH  24  25
ATOM     25  C   UNL A   1      32.812  32.701  27.434  1.00  0.00     0.116 C 
BRANCH  25  26
ATOM     26  N   UNL A   1      32.493  34.095  27.715  1.00  0.00    -0.352 N 
ATOM     27  C   UNL A   1      33.069  34.938  28.635  1.00  0.00     0.251 C 
ATOM     28  H   UNL A   1      31.770  34.484  27.174  1.00  0.00     0.163 HD
ATOM     29  O   UNL A   1      32.598  36.056  28.826  1.00  0.00    -0.269 OA
BRANCH  27  30
ATOM     30  C   UNL A   1      34.234  34.476  29.419  1.00  0.00     0.039 A 
ATOM     31  C   UNL A   1      34.017  33.897  30.672  1.00  0.00     0.014 A 
ATOM     32  C   UNL A   1      35.530  34.582  28.907  1.00  0.00     0.014 A 
ATOM     33  C   UNL A   1      35.094  33.358  31.380  1.00  0.00     0.010 A 
ATOM     34  C   UNL A   1      36.589  33.978  29.579  1.00  0.00     0.010 A 
ATOM     35  C   UNL A   1      36.383  33.359  30.821  1.00  0.00    -0.014 A 
BRANCH  35  36
ATOM     36  C   UNL A   1      37.525  32.706  31.510  1.00  0.00     0.031 A 
ATOM     37  C   UNL A   1      38.242  31.553  30.863  1.00  0.00     0.074 A 
ATOM     38  C   UNL A   1      37.854  33.089  32.761  1.00  0.00     0.049 A 
ATOM     39  N   UNL A   1      39.217  30.820  31.334  1.00  0.00    -0.248 NA
ATOM     40  C   UNL A   1      37.783  31.149  29.523  1.00  0.00     0.031 C 
ATOM     41  C   UNL A   1      37.177  34.134  33.531  1.00  0.00     0.029 A 
ATOM     42  N   UNL A   1      38.823  32.624  33.614  1.00  0.00    -0.354 N 
ATOM     43  C   UNL A   1      39.462  29.849  30.370  1.00  0.00     0.074 A 
ATOM     44  C   UNL A   1      38.511  30.063  29.302  1.00  0.00     0.031 C 
ATOM     45  C   UNL A   1      37.753  34.233  34.741  1.00  0.00     0.029 A 
ATOM     46  C   UNL A   1      38.820  33.243  34.843  1.00  0.00     0.049 A 
ATOM     47  H   UNL A   1      39.458  31.912  33.371  1.00  0.00     0.167 HD
ATOM     48  C   UNL A   1      40.414  28.885  30.359  1.00  0.00     0.034 A 
ATOM     49  C   UNL A   1      39.589  33.034  35.929  1.00  0.00     0.034 A 
ATOM     50  C   UNL A   1      41.391  28.707  31.399  1.00  0.00     0.049 A 
ATOM     51  C   UNL A   1      40.675  31.995  35.869  1.00  0.00     0.074 A 
ATOM     52  C   UNL A   1      42.457  27.826  31.435  1.00  0.00     0.029 A 
ATOM     53  N   UNL A   1      41.421  29.422  32.586  1.00  0.00    -0.354 N 
ATOM     54  N   UNL A   1      41.002  31.200  34.878  1.00  0.00    -0.248 NA
ATOM     55  C   UNL A   1      41.523  31.847  37.061  1.00  0.00     0.031 C 
ATOM     56  C   UNL A   1      43.123  27.995  32.653  1.00  0.00     0.029 A 
ATOM     57  C   UNL A   1      42.483  28.996  33.367  1.00  0.00     0.049 A 
ATOM     58  H   UNL A   1      40.782  30.126  32.838  1.00  0.00     0.167 HD
ATOM     59  C   UNL A   1      42.112  30.486  35.313  1.00  0.00     0.074 A 
ATOM     60  C   UNL A   1      42.415  30.957  36.649  1.00  0.00     0.031 C 
ATOM     61  C   UNL A   1      42.808  29.515  34.672  1.00  0.00     0.034 A 
BRANCH  48  62
ATOM     62  C   UNL A   1      40.484  27.986  29.152  1.00  0.00     0.023 A 
ATOM     63  C   UNL A   1      39.573  26.917  29.031  1.00  0.00     0.012 A 
ATOM     64  C   UNL A   1      41.408  28.228  28.116  1.00  0.00     0.148 A 
ATOM     65  C   UNL A   1      39.601  26.081  27.915  1.00  0.00     0.002 A 
ATOM     66  C   UNL A   1      41.400  27.417  26.986  1.00  0.00     0.091 A 
ATOM     67  F   UNL A   1      42.281  29.235  28.258  1.00  0.00    -0.205 F 
ATOM     68  C   UNL A   1      40.506  26.337  26.890  1.00  0.00     0.022 A 
BRANCH  66  69
ATOM     69  S   UNL A   1      42.473  27.711  25.575  1.00  0.00     0.127 S 
ATOM     70  O   UNL A   1      42.247  26.507  24.777  1.00  0.00    -0.237 OA
ATOM     71  O   UNL A   1      41.907  28.934  25.006  1.00  0.00    -0.237 OA
ATOM     72  O   UNL A   1      43.816  27.859  26.118  1.00  0.00    -0.744 OA
ENDBRANCH  66  69
ENDBRANCH  48  62
BRANCH  49  73
ATOM     73  C   UNL A   1      39.409  33.882  37.142  1.00  0.00     0.023 A 
ATOM     74  C   UNL A   1      39.845  35.222  37.115  1.00  0.00     0.012 A 
ATOM     75  C   UNL A   1      38.788  33.386  38.304  1.00  0.00     0.148 A 
ATOM     76  C   UNL A   1      39.694  36.043  38.234  1.00  0.00     0.002 A 
ATOM     77  C   UNL A   1      38.593  34.224  39.396  1.00  0.00     0.091 A 
ATOM     78  F   UNL A   1      38.392  32.106  38.315  1.00  0.00    -0.205 F 
ATOM     79  C   UNL A   1      39.060  35.548  39.369  1.00  0.00     0.022 A 
BRANCH  77  80
ATOM     80  S   UNL A   1      37.673  33.711  40.852  1.00  0.00     0.127 S 
ATOM     81  O   UNL A   1      37.468  34.983  41.539  1.00  0.00    -0.237 OA
ATOM     82  O   UNL A   1      36.469  33.128  40.259  1.00  0.00    -0.237 OA
ATOM     83  O   UNL A   1      38.529  32.750  41.535  1.00  0.00    -0.744 OA
ENDBRANCH  77  80
ENDBRANCH  49  73
BRANCH  61  84
ATOM     84  C   UNL A   1      43.988  28.911  35.386  1.00  0.00     0.023 A 
ATOM     85  C   UNL A   1      45.273  29.457  35.199  1.00  0.00     0.012 A 
ATOM     86  C   UNL A   1      43.812  27.855  36.302  1.00  0.00     0.148 A 
ATOM     87  C   UNL A   1      46.369  28.942  35.889  1.00  0.00     0.002 A 
ATOM     88  C   UNL A   1      44.900  27.378  37.022  1.00  0.00     0.091 A 
ATOM     89  F   UNL A   1      42.585  27.335  36.452  1.00  0.00    -0.205 F 
ATOM     90  C   UNL A   1      46.182  27.912  36.808  1.00  0.00     0.022 A 
BRANCH  88  91
ATOM     91  S   UNL A   1      44.735  26.121  38.294  1.00  0.00     0.127 S 
ATOM     92  O   UNL A   1      44.234  24.982  37.525  1.00  0.00    -0.237 OA
ATOM     93  O   UNL A   1      46.111  25.977  38.771  1.00  0.00    -0.237 OA
ATOM     94  O   UNL A   1      43.811  26.667  39.279  1.00  0.00    -0.744 OA
ENDBRANCH  88  91
ENDBRANCH  61  84
ENDBRANCH  35  36
ENDBRANCH  27  30
ENDBRANCH  25  26
ENDBRANCH  24  25
ENDBRANCH   1  24
TORSDOF 17
ENDMDL
MODEL 2
REMARK VINA RESULT:     -12.0      3.848      8.747
REMARK SMILES C[C@H]1[C@H](C(=O)NCCCCNC(=O)c2ccc(-c3c4nc(c(-c5cccc(S(=O)(=O)[O-])c5F)c5ccc([nH]5)c(-c5cccc(S(=O)(=O)[O-])c5F)c5nc(c(-c6cccc(S(=O)(=O)[O-])c6F)c6ccc3[nH]6)C=C5)C=C4)cc2)CCN1C(=O)NCc1cnn(C)c1
REMARK SMILES IDX 8 1 7 2 6 3 4 4 5 5 3 7 1 8 2 9 79 10 77 11 78 12 80 13
REMARK SMILES IDX 81 14 82 15 83 17 84 18 85 19 89 20 86 21 87 22 88 23 9 24
REMARK SMILES IDX 10 25 11 26 12 27 13 29 14 30 15 31 76 32 16 33 75 34 17 35
REMARK SMILES IDX 18 36 19 37 69 38 20 39 74 40 68 41 70 42 21 43 73 44 67 45
REMARK SMILES IDX 66 46 22 48 54 49 34 50 53 51 35 52 38 53 52 54 71 55 36 56
REMARK SMILES IDX 37 57 51 59 72 60 39 61 23 62 24 63 32 64 25 65 27 66 33 67
REMARK SMILES IDX 26 68 28 69 29 70 30 71 31 72 55 73 56 74 64 75 57 76 59 77
REMARK SMILES IDX 65 78 58 79 60 80 61 81 62 82 63 83 40 84 41 85 49 86 42 87
REMARK SMILES IDX 44 88 50 89 43 90 45 91 46 92 47 93 48 94
REMARK H PARENT 6 6 82 16 11 28 70 47 38 58
REMARK Flexibility Score: inf
ROOT
ATOM      1  C   UNL A   1      31.943  27.516  26.679  1.00  0.00     0.023 C 
ENDROOT
BRANCH   1   2
ATOM      2  C   UNL A   1      30.941  26.489  26.168  1.00  0.00     0.116 C 
BRANCH   2   3
ATOM      3  N   UNL A   1      31.097  25.201  26.820  1.00  0.00    -0.356 N 
ATOM      4  C   UNL A   1      31.904  24.145  26.548  1.00  0.00     0.225 C 
ATOM      5  O   UNL A   1      31.799  23.147  27.268  1.00  0.00    -0.275 OA
ATOM      6  H   UNL A   1      30.512  25.070  27.601  1.00  0.00     0.163 HD
BRANCH   4   7
ATOM      7  C   UNL A   1      32.902  24.129  25.398  1.00  0.00     0.102 C 
ATOM      8  C   UNL A   1      35.389  24.458  25.540  1.00  0.00     0.032 C 
ATOM      9  C   UNL A   1      34.238  23.474  25.784  1.00  0.00     0.096 C 
ATOM     10  N   UNL A   1      34.366  22.311  24.911  1.00  0.00    -0.321 N 
ATOM     11  C   UNL A   1      32.414  23.436  24.129  1.00  0.00     0.037 C 
ATOM     12  C   UNL A   1      33.532  22.486  23.731  1.00  0.00     0.122 C 
BRANCH  10  13
ATOM     13  C   UNL A   1      35.071  21.157  25.044  1.00  0.00     0.317 C 
ATOM     14  O   UNL A   1      36.301  21.173  25.160  1.00  0.00    -0.249 OA
ATOM     15  N   UNL A   1      34.518  19.936  25.045  1.00  0.00    -0.334 N 
ATOM     16  H   UNL A   1      35.206  19.234  24.990  1.00  0.00     0.165 HD
BRANCH  15  17
ATOM     17  C   UNL A   1      33.190  19.363  25.104  1.00  0.00     0.157 C 
BRANCH  17  18
ATOM     18  C   UNL A   1      33.275  17.886  24.975  1.00  0.00     0.009 A 
ATOM     19  C   UNL A   1      34.095  17.162  24.078  1.00  0.00     0.140 A 
ATOM     20  C   UNL A   1      32.578  16.901  25.650  1.00  0.00     0.113 A 
ATOM     21  N   UNL A   1      33.946  15.843  24.194  1.00  0.00    -0.181 NA
ATOM     22  N   UNL A   1      33.025  15.706  25.159  1.00  0.00    -0.275 N 
ATOM     23  C   UNL A   1      32.607  14.383  25.556  1.00  0.00     0.173 C 
ENDBRANCH  17  18
ENDBRANCH  15  17
ENDBRANCH  10  13
ENDBRANCH   4   7
ENDBRANCH   2   3
ENDBRANCH   1   2
BRANCH   1  24
ATOM     24  C   UNL A   1      33.102  27.823  25.731  1.00  0.00     0.023 C 
BRANCH  24  25
ATOM     25  C   UNL A   1      34.262  28.592  26.350  1.00  0.00     0.116 C 
BRANCH  25  26
ATOM     26  N   UNL A   1      33.936  29.978  26.657  1.00  0.00    -0.352 N 
ATOM     27  C   UNL A   1      34.588  30.846  27.501  1.00  0.00     0.251 C 
ATOM     28  H   UNL A   1      33.144  30.341  26.200  1.00  0.00     0.163 HD
ATOM     29  O   UNL A   1      34.109  31.952  27.738  1.00  0.00    -0.269 OA
BRANCH  27  30
ATOM     30  C   UNL A   1      35.848  30.425  28.148  1.00  0.00     0.039 A 
ATOM     31  C   UNL A   1      35.785  29.733  29.361  1.00  0.00     0.014 A 
ATOM     32  C   UNL A   1      37.083  30.680  27.547  1.00  0.00     0.014 A 
ATOM     33  C   UNL A   1      36.957  29.233  29.933  1.00  0.00     0.010 A 
ATOM     34  C   UNL A   1      38.240  30.118  28.080  1.00  0.00     0.010 A 
ATOM     35  C   UNL A   1      38.190  29.389  29.277  1.00  0.00    -0.014 A 
BRANCH  35  36
ATOM     36  C   UNL A   1      39.434  28.783  29.815  1.00  0.00     0.031 A 
ATOM     37  C   UNL A   1      40.100  29.371  31.029  1.00  0.00     0.074 A 
ATOM     38  C   UNL A   1      40.017  27.762  29.154  1.00  0.00     0.049 A 
ATOM     39  N   UNL A   1      41.220  29.018  31.606  1.00  0.00    -0.248 NA
ATOM     40  C   UNL A   1      39.440  30.525  31.659  1.00  0.00     0.031 C 
ATOM     41  C   UNL A   1      39.517  27.162  27.914  1.00  0.00     0.029 A 
ATOM     42  N   UNL A   1      41.172  27.068  29.414  1.00  0.00    -0.354 N 
ATOM     43  C   UNL A   1      41.417  29.927  32.639  1.00  0.00     0.074 A 
ATOM     44  C   UNL A   1      40.320  30.868  32.590  1.00  0.00     0.031 C 
ATOM     45  C   UNL A   1      40.358  26.189  27.526  1.00  0.00     0.029 A 
ATOM     46  C   UNL A   1      41.468  26.113  28.470  1.00  0.00     0.049 A 
ATOM     47  H   UNL A   1      41.736  27.240  30.203  1.00  0.00     0.167 HD
ATOM     48  C   UNL A   1      42.403  29.957  33.567  1.00  0.00     0.034 A 
ATOM     49  C   UNL A   1      42.516  25.272  28.374  1.00  0.00     0.034 A 
ATOM     50  C   UNL A   1      43.465  28.989  33.645  1.00  0.00     0.049 A 
ATOM     51  C   UNL A   1      43.569  25.290  29.449  1.00  0.00     0.074 A 
ATOM     52  C   UNL A   1      44.454  28.875  34.605  1.00  0.00     0.029 A 
ATOM     53  N   UNL A   1      43.675  27.972  32.728  1.00  0.00    -0.354 N 
ATOM     54  N   UNL A   1      43.645  26.048  30.517  1.00  0.00    -0.248 NA
ATOM     55  C   UNL A   1      44.662  24.314  29.327  1.00  0.00     0.031 C 
ATOM     56  C   UNL A   1      45.276  27.797  34.258  1.00  0.00     0.029 A 
ATOM     57  C   UNL A   1      44.785  27.228  33.094  1.00  0.00     0.049 A 
ATOM     58  H   UNL A   1      43.120  27.803  31.933  1.00  0.00     0.167 HD
ATOM     59  C   UNL A   1      44.770  25.617  31.211  1.00  0.00     0.074 A 
ATOM     60  C   UNL A   1      45.332  24.517  30.454  1.00  0.00     0.031 C 
ATOM     61  C   UNL A   1      45.300  26.099  32.362  1.00  0.00     0.034 A 
BRANCH  48  62
ATOM     62  C   UNL A   1      42.346  31.039  34.613  1.00  0.00     0.023 A 
ATOM     63  C   UNL A   1      41.694  30.785  35.838  1.00  0.00     0.012 A 
ATOM     64  C   UNL A   1      42.981  32.281  34.413  1.00  0.00     0.148 A 
ATOM     65  C   UNL A   1      41.643  31.759  36.833  1.00  0.00     0.002 A 
ATOM     66  C   UNL A   1      42.963  33.232  35.428  1.00  0.00     0.091 A 
ATOM     67  F   UNL A   1      43.576  32.514  33.236  1.00  0.00    -0.205 F 
ATOM     68  C   UNL A   1      42.286  32.977  36.633  1.00  0.00     0.022 A 
BRANCH  66  69
ATOM     69  S   UNL A   1      43.827  34.802  35.299  1.00  0.00     0.127 S 
ATOM     70  O   UNL A   1      43.134  35.428  34.174  1.00  0.00    -0.237 OA
ATOM     71  O   UNL A   1      43.554  35.413  36.600  1.00  0.00    -0.237 OA
ATOM     72  O   UNL A   1      45.226  34.471  35.066  1.00  0.00    -0.744 OA
ENDBRANCH  66  69
ENDBRANCH  48  62
BRANCH  49  73
ATOM     73  C   UNL A   1      42.581  24.287  27.257  1.00  0.00     0.023 A 
ATOM     74  C   UNL A   1      43.288  24.623  26.085  1.00  0.00     0.012 A 
ATOM     75  C   UNL A   1      41.978  23.019  27.355  1.00  0.00     0.148 A 
ATOM     76  C   UNL A   1      43.367  23.724  25.020  1.00  0.00     0.002 A 
ATOM     77  C   UNL A   1      42.105  22.110  26.312  1.00  0.00     0.091 A 
ATOM     78  F   UNL A   1      41.299  22.724  28.473  1.00  0.00    -0.205 F 
ATOM     79  C   UNL A   1      42.785  22.465  25.137  1.00  0.00     0.022 A 
BRANCH  77  80
ATOM     80  S   UNL A   1      41.498  20.422  26.426  1.00  0.00     0.127 S 
ATOM     81  O   UNL A   1      41.954  20.030  27.757  1.00  0.00    -0.237 OA
ATOM     82  O   UNL A   1      40.052  20.612  26.300  1.00  0.00    -0.237 OA
ATOM     83  O   UNL A   1      42.108  19.712  25.310  1.00  0.00    -0.744 OA
ENDBRANCH  77  80
ENDBRANCH  49  73
BRANCH  61  84
ATOM     84  C   UNL A   1      46.535  25.426  32.899  1.00  0.00     0.023 A 
ATOM     85  C   UNL A   1      47.808  25.915  32.545  1.00  0.00     0.012 A 
ATOM     86  C   UNL A   1      46.433  24.361  33.816  1.00  0.00     0.148 A 
ATOM     87  C   UNL A   1      48.961  25.335  33.071  1.00  0.00     0.002 A 
ATOM     88  C   UNL A   1      47.585  23.819  34.373  1.00  0.00     0.091 A 
ATOM     89  F   UNL A   1      45.214  23.897  34.126  1.00  0.00    -0.205 F 
ATOM     90  C   UNL A   1      48.851  24.297  33.993  1.00  0.00     0.022 A 
BRANCH  88  91
ATOM     91  S   UNL A   1      47.534  22.546  35.639  1.00  0.00     0.127 S 
ATOM     92  O   UNL A   1      46.277  22.853  36.320  1.00  0.00    -0.237 OA
ATOM     93  O   UNL A   1      47.512  21.317  34.845  1.00  0.00    -0.237 OA
ATOM     94  O   UNL A   1      48.739  22.726  36.437  1.00  0.00    -0.744 OA
ENDBRANCH  88  91
ENDBRANCH  61  84
ENDBRANCH  35  36
ENDBRANCH  27  30
ENDBRANCH  25  26
ENDBRANCH  24  25
ENDBRANCH   1  24
TORSDOF 17
ENDMDL
MODEL 3
REMARK VINA RESULT:     -11.5      2.401      3.412
REMARK SMILES C[C@H]1[C@H](C(=O)NCCCCNC(=O)c2ccc(-c3c4nc(c(-c5cccc(S(=O)(=O)[O-])c5F)c5ccc([nH]5)c(-c5cccc(S(=O)(=O)[O-])c5F)c5nc(c(-c6cccc(S(=O)(=O)[O-])c6F)c6ccc3[nH]6)C=C5)C=C4)cc2)CCN1C(=O)NCc1cnn(C)c1
REMARK SMILES IDX 8 1 7 2 6 3 4 4 5 5 3 7 1 8 2 9 79 10 77 11 78 12 80 13
REMARK SMILES IDX 81 14 82 15 83 17 84 18 85 19 89 20 86 21 87 22 88 23 9 24
REMARK SMILES IDX 10 25 11 26 12 27 13 29 14 30 15 31 76 32 16 33 75 34 17 35
REMARK SMILES IDX 18 36 19 37 69 38 20 39 74 40 68 41 70 42 21 43 73 44 67 45
REMARK SMILES IDX 66 46 22 48 54 49 34 50 53 51 35 52 38 53 52 54 71 55 36 56
REMARK SMILES IDX 37 57 51 59 72 60 39 61 23 62 24 63 32 64 25 65 27 66 33 67
REMARK SMILES IDX 26 68 28 69 29 70 30 71 31 72 55 73 56 74 64 75 57 76 59 77
REMARK SMILES IDX 65 78 58 79 60 80 61 81 62 82 63 83 40 84 41 85 49 86 42 87
REMARK SMILES IDX 44 88 50 89 43 90 45 91 46 92 47 93 48 94
REMARK H PARENT 6 6 82 16 11 28 70 47 38 58
REMARK Flexibility Score: inf
ROOT
ATOM      1  C   UNL A   1      32.037  28.955  22.878  1.00  0.00     0.023 C 
ENDROOT
BRANCH   1   2
ATOM      2  C   UNL A   1      31.389  27.624  22.518  1.00  0.00     0.116 C 
BRANCH   2   3
ATOM      3  N   UNL A   1      32.373  26.580  22.293  1.00  0.00    -0.356 N 
ATOM      4  C   UNL A   1      33.063  25.792  23.156  1.00  0.00     0.225 C 
ATOM      5  O   UNL A   1      33.874  24.994  22.673  1.00  0.00    -0.275 OA
ATOM      6  H   UNL A   1      32.576  26.414  21.344  1.00  0.00     0.163 HD
BRANCH   4   7
ATOM      7  C   UNL A   1      32.900  25.862  24.667  1.00  0.00     0.102 C 
ATOM      8  C   UNL A   1      30.761  26.156  25.953  1.00  0.00     0.032 C 
ATOM      9  C   UNL A   1      31.621  25.165  25.158  1.00  0.00     0.096 C 
ATOM     10  N   UNL A   1      32.076  24.077  26.017  1.00  0.00    -0.321 N 
ATOM     11  C   UNL A   1      34.061  25.282  25.470  1.00  0.00     0.037 C 
ATOM     12  C   UNL A   1      33.423  24.358  26.494  1.00  0.00     0.122 C 
BRANCH  10  13
ATOM     13  C   UNL A   1      31.486  22.910  26.384  1.00  0.00     0.317 C 
ATOM     14  O   UNL A   1      30.785  22.844  27.400  1.00  0.00    -0.249 OA
ATOM     15  N   UNL A   1      31.618  21.758  25.711  1.00  0.00    -0.334 N 
ATOM     16  H   UNL A   1      31.249  21.003  26.223  1.00  0.00     0.165 HD
BRANCH  15  17
ATOM     17  C   UNL A   1      32.152  21.317  24.440  1.00  0.00     0.157 C 
BRANCH  17  18
ATOM     18  C   UNL A   1      33.602  21.028  24.578  1.00  0.00     0.009 A 
ATOM     19  C   UNL A   1      34.185  19.796  24.957  1.00  0.00     0.140 A 
ATOM     20  C   UNL A   1      34.688  21.866  24.408  1.00  0.00     0.113 A 
ATOM     21  N   UNL A   1      35.515  19.847  24.999  1.00  0.00    -0.181 NA
ATOM     22  N   UNL A   1      35.800  21.111  24.656  1.00  0.00    -0.275 N 
ATOM     23  C   UNL A   1      37.178  21.535  24.596  1.00  0.00     0.173 C 
ENDBRANCH  17  18
ENDBRANCH  15  17
ENDBRANCH  10  13
ENDBRANCH   4   7
ENDBRANCH   2   3
ENDBRANCH   1   2
BRANCH   1  24
ATOM     24  C   UNL A   1      33.506  28.873  23.292  1.00  0.00     0.023 C 
BRANCH  24  25
ATOM     25  C   UNL A   1      33.800  29.282  24.730  1.00  0.00     0.116 C 
BRANCH  25  26
ATOM     26  N   UNL A   1      32.807  30.191  25.285  1.00  0.00    -0.352 N 
ATOM     27  C   UNL A   1      32.806  30.817  26.509  1.00  0.00     0.251 C 
ATOM     28  H   UNL A   1      32.034  30.382  24.708  1.00  0.00     0.163 HD
ATOM     29  O   UNL A   1      31.826  31.463  26.871  1.00  0.00    -0.269 OA
BRANCH  27  30
ATOM     30  C   UNL A   1      33.976  30.675  27.402  1.00  0.00     0.039 A 
ATOM     31  C   UNL A   1      34.227  29.434  27.992  1.00  0.00     0.014 A 
ATOM     32  C   UNL A   1      34.840  31.750  27.626  1.00  0.00     0.014 A 
ATOM     33  C   UNL A   1      35.387  29.251  28.751  1.00  0.00     0.010 A 
ATOM     34  C   UNL A   1      36.030  31.546  28.320  1.00  0.00     0.010 A 
ATOM     35  C   UNL A   1      36.316  30.296  28.889  1.00  0.00    -0.014 A 
BRANCH  35  36
ATOM     36  C   UNL A   1      37.601  30.098  29.607  1.00  0.00     0.031 A 
ATOM     37  C   UNL A   1      38.678  29.234  29.011  1.00  0.00     0.074 A 
ATOM     38  C   UNL A   1      37.759  30.618  30.842  1.00  0.00     0.049 A 
ATOM     39  N   UNL A   1      39.836  28.896  29.516  1.00  0.00    -0.248 NA
ATOM     40  C   UNL A   1      38.407  28.646  27.689  1.00  0.00     0.031 C 
ATOM     41  C   UNL A   1      36.753  31.399  31.566  1.00  0.00     0.029 A 
ATOM     42  N   UNL A   1      38.813  30.544  31.717  1.00  0.00    -0.354 N 
ATOM     43  C   UNL A   1      40.414  28.029  28.595  1.00  0.00     0.074 A 
ATOM     44  C   UNL A   1      39.465  27.866  27.516  1.00  0.00     0.031 C 
ATOM     45  C   UNL A   1      37.241  31.734  32.771  1.00  0.00     0.029 A 
ATOM     46  C   UNL A   1      38.580  31.172  32.918  1.00  0.00     0.049 A 
ATOM     47  H   UNL A   1      39.657  30.083  31.505  1.00  0.00     0.167 HD
ATOM     48  C   UNL A   1      41.636  27.448  28.627  1.00  0.00     0.034 A 
ATOM     49  C   UNL A   1      39.354  31.280  34.015  1.00  0.00     0.034 A 
ATOM     50  C   UNL A   1      42.598  27.654  29.676  1.00  0.00     0.049 A 
ATOM     51  C   UNL A   1      40.730  30.671  34.001  1.00  0.00     0.074 A 
ATOM     52  C   UNL A   1      43.900  27.191  29.752  1.00  0.00     0.029 A 
ATOM     53  N   UNL A   1      42.363  28.381  30.832  1.00  0.00    -0.354 N 
ATOM     54  N   UNL A   1      41.325  29.998  33.046  1.00  0.00    -0.248 NA
ATOM     55  C   UNL A   1      41.557  30.867  35.201  1.00  0.00     0.031 C 
ATOM     56  C   UNL A   1      44.447  27.623  30.964  1.00  0.00     0.029 A 
ATOM     57  C   UNL A   1      43.493  28.374  31.633  1.00  0.00     0.049 A 
ATOM     58  H   UNL A   1      41.518  28.835  31.052  1.00  0.00     0.167 HD
ATOM     59  C   UNL A   1      42.605  29.722  33.513  1.00  0.00     0.074 A 
ATOM     60  C   UNL A   1      42.706  30.319  34.829  1.00  0.00     0.031 C 
ATOM     61  C   UNL A   1      43.600  29.022  32.916  1.00  0.00     0.034 A 
BRANCH  48  62
ATOM     62  C   UNL A   1      42.029  26.581  27.459  1.00  0.00     0.023 A 
ATOM     63  C   UNL A   1      42.695  27.160  26.359  1.00  0.00     0.012 A 
ATOM     64  C   UNL A   1      41.793  25.192  27.470  1.00  0.00     0.148 A 
ATOM     65  C   UNL A   1      43.090  26.379  25.274  1.00  0.00     0.002 A 
ATOM     66  C   UNL A   1      42.228  24.413  26.404  1.00  0.00     0.091 A 
ATOM     67  F   UNL A   1      41.139  24.662  28.513  1.00  0.00    -0.205 F 
ATOM     68  C   UNL A   1      42.866  25.006  25.301  1.00  0.00     0.022 A 
BRANCH  66  69
ATOM     69  S   UNL A   1      42.057  22.625  26.378  1.00  0.00     0.127 S 
ATOM     70  O   UNL A   1      42.775  22.243  27.593  1.00  0.00    -0.237 OA
ATOM     71  O   UNL A   1      40.606  22.451  26.447  1.00  0.00    -0.237 OA
ATOM     72  O   UNL A   1      42.663  22.183  25.129  1.00  0.00    -0.744 OA
ENDBRANCH  66  69
ENDBRANCH  48  62
BRANCH  49  73
ATOM     73  C   UNL A   1      38.876  32.063  35.190  1.00  0.00     0.023 A 
ATOM     74  C   UNL A   1      38.932  33.470  35.148  1.00  0.00     0.012 A 
ATOM     75  C   UNL A   1      38.344  31.431  36.330  1.00  0.00     0.148 A 
ATOM     76  C   UNL A   1      38.494  34.233  36.232  1.00  0.00     0.002 A 
ATOM     77  C   UNL A   1      37.861  32.198  37.384  1.00  0.00     0.091 A 
ATOM     78  F   UNL A   1      38.311  30.091  36.356  1.00  0.00    -0.205 F 
ATOM     79  C   UNL A   1      37.950  33.598  37.345  1.00  0.00     0.022 A 
BRANCH  77  80
ATOM     80  S   UNL A   1      37.028  31.471  38.801  1.00  0.00     0.127 S 
ATOM     81  O   UNL A   1      36.898  30.076  38.388  1.00  0.00    -0.237 OA
ATOM     82  O   UNL A   1      37.994  31.709  39.875  1.00  0.00    -0.237 OA
ATOM     83  O   UNL A   1      35.782  32.212  38.942  1.00  0.00    -0.744 OA
ENDBRANCH  77  80
ENDBRANCH  49  73
BRANCH  61  84
ATOM     84  C   UNL A   1      44.903  28.884  33.658  1.00  0.00     0.023 A 
ATOM     85  C   UNL A   1      45.909  29.855  33.490  1.00  0.00     0.012 A 
ATOM     86  C   UNL A   1      45.098  27.838  34.581  1.00  0.00     0.148 A 
ATOM     87  C   UNL A   1      47.103  29.770  34.205  1.00  0.00     0.002 A 
ATOM     88  C   UNL A   1      46.270  27.786  35.326  1.00  0.00     0.091 A 
ATOM     89  F   UNL A   1      44.136  26.912  34.713  1.00  0.00    -0.205 F 
ATOM     90  C   UNL A   1      47.278  28.744  35.131  1.00  0.00     0.022 A 
BRANCH  88  91
ATOM     91  S   UNL A   1      46.540  26.557  36.608  1.00  0.00     0.127 S 
ATOM     92  O   UNL A   1      47.865  26.929  37.104  1.00  0.00    -0.237 OA
ATOM     93  O   UNL A   1      45.443  26.828  37.537  1.00  0.00    -0.237 OA
ATOM     94  O   UNL A   1      46.461  25.263  35.945  1.00  0.00    -0.744 OA
ENDBRANCH  88  91
ENDBRANCH  61  84
ENDBRANCH  35  36
ENDBRANCH  27  30
ENDBRANCH  25  26
ENDBRANCH  24  25
ENDBRANCH   1  24
TORSDOF 17
ENDMDL
