MODEL 1
REMARK VINA RESULT:     -11.5      0.000      0.000
REMARK SMILES COc1ccc(CCc2nnc(NC(=O)[C@@H]3[C@@H](C(=O)NCCCCNC(=O)c4ccc(-c5c6nc(c(-c7cccc(S(=O)(=O)[O-])c7F)c7ccc([nH]7)c(-c7cccc(S(=O)(=O)[O-])c7F)c7nc(c(-c8cccc(S(=O)(=O)[O-])c8F)c8ccc5[nH]8)C=C7)C=C6)cc4)C3(C)C)s2)cc1
REMARK SMILES IDX 21 1 20 2 18 3 19 4 17 6 16 7 91 8 92 9 93 10 14 11 13 12
REMARK SMILES IDX 15 14 12 15 9 16 10 17 94 18 11 19 8 20 7 21 6 22 3 23 4 24
REMARK SMILES IDX 96 25 5 26 95 27 2 28 1 29 22 30 23 31 24 32 25 33 26 34
REMARK SMILES IDX 27 36 28 37 29 38 90 39 30 40 89 41 31 42 32 43 33 44 83 45
REMARK SMILES IDX 34 46 88 47 82 48 84 49 35 50 87 51 81 52 80 53 36 55 68 56
REMARK SMILES IDX 48 57 67 58 49 59 52 60 66 61 85 62 50 63 51 64 65 66 86 67
REMARK SMILES IDX 53 68 37 69 38 70 46 71 39 72 41 73 47 74 40 75 42 76 43 77
REMARK SMILES IDX 44 78 45 79 69 80 70 81 78 82 71 83 73 84 79 85 72 86 74 87
REMARK SMILES IDX 75 88 76 89 77 90 54 91 55 92 63 93 56 94 58 95 64 96 57 97
REMARK SMILES IDX 59 98 60 99 61 100 62 101
REMARK H PARENT 20 5 13 13 25 35 84 54 52 65
REMARK Flexibility Score: inf
ROOT
ATOM      1  C   UNL A   1      34.372  24.282  23.145  1.00  0.00     0.116 C 
ENDROOT
BRANCH   1   2
ATOM      2  N   UNL A   1      32.971  24.081  22.868  1.00  0.00    -0.356 N 
ATOM      3  C   UNL A   1      31.806  24.640  23.303  1.00  0.00     0.224 C 
ATOM      4  O   UNL A   1      30.778  24.105  22.884  1.00  0.00    -0.275 OA
ATOM      5  H   UNL A   1      32.818  23.369  22.206  1.00  0.00     0.163 HD
BRANCH   3   6
ATOM      6  C   UNL A   1      31.629  25.837  24.169  1.00  0.00     0.098 C 
ATOM      7  C   UNL A   1      32.659  26.854  24.496  1.00  0.00     0.098 C 
ATOM      8  C   UNL A   1      32.013  26.055  25.645  1.00  0.00    -0.011 C 
ATOM      9  C   UNL A   1      32.927  25.156  26.438  1.00  0.00     0.013 C 
ATOM     10  C   UNL A   1      30.880  26.522  26.522  1.00  0.00     0.013 C 
BRANCH   7  11
ATOM     11  C   UNL A   1      32.614  28.316  24.188  1.00  0.00     0.230 C 
ATOM     12  N   UNL A   1      33.226  29.359  24.822  1.00  0.00    -0.300 N 
ATOM     13  H   UNL A   1      33.287  30.181  24.283  1.00  0.00     0.172 HD
ATOM     14  O   UNL A   1      32.045  28.620  23.133  1.00  0.00    -0.274 OA
BRANCH  12  15
ATOM     15  C   UNL A   1      33.763  29.463  26.060  1.00  0.00     0.212 A 
ATOM     16  C   UNL A   1      34.599  30.613  27.928  1.00  0.00     0.119 A 
ATOM     17  N   UNL A   1      35.191  29.448  27.763  1.00  0.00    -0.142 NA
ATOM     18  S   UNL A   1      33.172  30.784  26.976  1.00  0.00    -0.080 S 
ATOM     19  N   UNL A   1      34.692  28.774  26.665  1.00  0.00    -0.120 NA
BRANCH  16  20
ATOM     20  C   UNL A   1      35.133  31.712  28.790  1.00  0.00     0.074 C 
BRANCH  20  21
ATOM     21  C   UNL A   1      35.026  33.091  28.105  1.00  0.00     0.043 C 
BRANCH  21  22
ATOM     22  C   UNL A   1      34.427  34.153  29.003  1.00  0.00    -0.047 A 
ATOM     23  C   UNL A   1      33.073  35.960  30.681  1.00  0.00     0.118 A 
ATOM     24  C   UNL A   1      33.021  36.110  29.297  1.00  0.00     0.046 A 
ATOM     25  C   UNL A   1      33.833  34.929  31.232  1.00  0.00     0.046 A 
ATOM     26  C   UNL A   1      33.717  35.233  28.466  1.00  0.00     0.007 A 
ATOM     27  C   UNL A   1      34.503  34.028  30.396  1.00  0.00     0.007 A 
BRANCH  23  28
ATOM     28  O   UNL A   1      32.286  36.819  31.394  1.00  0.00    -0.497 OA
ATOM     29  C   UNL A   1      31.760  36.294  32.605  1.00  0.00     0.278 C 
ENDBRANCH  23  28
ENDBRANCH  21  22
ENDBRANCH  20  21
ENDBRANCH  16  20
ENDBRANCH  12  15
ENDBRANCH   7  11
ENDBRANCH   3   6
ENDBRANCH   1   2
BRANCH   1  30
ATOM     30  C   UNL A   1      34.936  23.132  23.982  1.00  0.00     0.023 C 
BRANCH  30  31
ATOM     31  C   UNL A   1      36.450  23.155  24.166  1.00  0.00     0.023 C 
BRANCH  31  32
ATOM     32  C   UNL A   1      36.928  23.039  25.605  1.00  0.00     0.116 C 
BRANCH  32  33
ATOM     33  N   UNL A   1      37.838  21.922  25.824  1.00  0.00    -0.352 N 
ATOM     34  C   UNL A   1      39.126  21.939  26.301  1.00  0.00     0.251 C 
ATOM     35  H   UNL A   1      37.481  21.033  25.597  1.00  0.00     0.163 HD
ATOM     36  O   UNL A   1      39.791  20.907  26.314  1.00  0.00    -0.269 OA
BRANCH  34  37
ATOM     37  C   UNL A   1      39.711  23.213  26.763  1.00  0.00     0.039 A 
ATOM     38  C   UNL A   1      40.632  23.192  27.812  1.00  0.00     0.014 A 
ATOM     39  C   UNL A   1      39.395  24.415  26.124  1.00  0.00     0.014 A 
ATOM     40  C   UNL A   1      41.290  24.368  28.171  1.00  0.00     0.010 A 
ATOM     41  C   UNL A   1      40.120  25.563  26.419  1.00  0.00     0.010 A 
ATOM     42  C   UNL A   1      41.071  25.554  27.450  1.00  0.00    -0.014 A 
BRANCH  42  43
ATOM     43  C   UNL A   1      41.849  26.782  27.746  1.00  0.00     0.031 A 
ATOM     44  C   UNL A   1      43.280  26.908  27.302  1.00  0.00     0.074 A 
ATOM     45  C   UNL A   1      41.285  27.755  28.492  1.00  0.00     0.049 A 
ATOM     46  N   UNL A   1      44.106  27.908  27.464  1.00  0.00    -0.248 NA
ATOM     47  C   UNL A   1      43.874  25.747  26.616  1.00  0.00     0.031 C 
ATOM     48  C   UNL A   1      39.944  27.700  29.079  1.00  0.00     0.029 A 
ATOM     49  N   UNL A   1      41.775  28.970  28.897  1.00  0.00    -0.354 N 
ATOM     50  C   UNL A   1      45.320  27.489  26.934  1.00  0.00     0.074 A 
ATOM     51  C   UNL A   1      45.137  26.126  26.485  1.00  0.00     0.031 C 
ATOM     52  C   UNL A   1      39.712  28.838  29.753  1.00  0.00     0.029 A 
ATOM     53  C   UNL A   1      40.891  29.692  29.664  1.00  0.00     0.049 A 
ATOM     54  H   UNL A   1      42.674  29.295  28.662  1.00  0.00     0.167 HD
ATOM     55  C   UNL A   1      46.473  28.186  26.798  1.00  0.00     0.034 A 
ATOM     56  C   UNL A   1      41.013  30.911  30.225  1.00  0.00     0.034 A 
ATOM     57  C   UNL A   1      46.634  29.557  27.201  1.00  0.00     0.049 A 
ATOM     58  C   UNL A   1      42.275  31.695  29.994  1.00  0.00     0.074 A 
ATOM     59  C   UNL A   1      47.720  30.390  27.006  1.00  0.00     0.029 A 
ATOM     60  N   UNL A   1      45.682  30.294  27.890  1.00  0.00    -0.354 N 
ATOM     61  N   UNL A   1      43.346  31.354  29.316  1.00  0.00    -0.248 NA
ATOM     62  C   UNL A   1      42.333  33.046  30.568  1.00  0.00     0.031 C 
ATOM     63  C   UNL A   1      47.434  31.625  27.597  1.00  0.00     0.029 A 
ATOM     64  C   UNL A   1      46.160  31.569  28.141  1.00  0.00     0.049 A 
ATOM     65  H   UNL A   1      44.797  29.960  28.162  1.00  0.00     0.167 HD
ATOM     66  C   UNL A   1      44.191  32.455  29.361  1.00  0.00     0.074 A 
ATOM     67  C   UNL A   1      43.496  33.485  30.105  1.00  0.00     0.031 C 
ATOM     68  C   UNL A   1      45.440  32.596  28.848  1.00  0.00     0.034 A 
BRANCH  55  69
ATOM     69  C   UNL A   1      47.631  27.494  26.127  1.00  0.00     0.023 A 
ATOM     70  C   UNL A   1      47.799  27.617  24.731  1.00  0.00     0.012 A 
ATOM     71  C   UNL A   1      48.576  26.765  26.874  1.00  0.00     0.148 A 
ATOM     72  C   UNL A   1      48.865  26.994  24.084  1.00  0.00     0.002 A 
ATOM     73  C   UNL A   1      49.662  26.184  26.228  1.00  0.00     0.091 A 
ATOM     74  F   UNL A   1      48.388  26.638  28.195  1.00  0.00    -0.205 F 
ATOM     75  C   UNL A   1      49.802  26.287  24.834  1.00  0.00     0.022 A 
BRANCH  73  76
ATOM     76  S   UNL A   1      50.966  25.321  27.112  1.00  0.00     0.127 S 
ATOM     77  O   UNL A   1      51.554  26.402  27.900  1.00  0.00    -0.237 OA
ATOM     78  O   UNL A   1      50.211  24.339  27.891  1.00  0.00    -0.237 OA
ATOM     79  O   UNL A   1      51.830  24.747  26.090  1.00  0.00    -0.744 OA
ENDBRANCH  73  76
ENDBRANCH  55  69
BRANCH  56  80
ATOM     80  C   UNL A   1      39.871  31.495  30.985  1.00  0.00     0.023 A 
ATOM     81  C   UNL A   1      38.843  32.156  30.285  1.00  0.00     0.012 A 
ATOM     82  C   UNL A   1      39.774  31.359  32.383  1.00  0.00     0.148 A 
ATOM     83  C   UNL A   1      37.752  32.697  30.967  1.00  0.00     0.002 A 
ATOM     84  C   UNL A   1      38.657  31.852  33.050  1.00  0.00     0.091 A 
ATOM     85  F   UNL A   1      40.768  30.736  33.031  1.00  0.00    -0.205 F 
ATOM     86  C   UNL A   1      37.654  32.535  32.346  1.00  0.00     0.022 A 
BRANCH  84  87
ATOM     87  S   UNL A   1      38.380  31.570  34.801  1.00  0.00     0.127 S 
ATOM     88  O   UNL A   1      39.515  32.268  35.400  1.00  0.00    -0.237 OA
ATOM     89  O   UNL A   1      37.082  32.211  35.010  1.00  0.00    -0.237 OA
ATOM     90  O   UNL A   1      38.366  30.122  34.968  1.00  0.00    -0.744 OA
ENDBRANCH  84  87
ENDBRANCH  56  80
BRANCH  68  91
ATOM     91  C   UNL A   1      46.134  33.916  29.065  1.00  0.00     0.023 A 
ATOM     92  C   UNL A   1      46.902  34.116  30.229  1.00  0.00     0.012 A 
ATOM     93  C   UNL A   1      46.075  34.932  28.092  1.00  0.00     0.148 A 
ATOM     94  C   UNL A   1      47.570  35.321  30.439  1.00  0.00     0.002 A 
ATOM     95  C   UNL A   1      46.784  36.112  28.286  1.00  0.00     0.091 A 
ATOM     96  F   UNL A   1      45.323  34.732  27.000  1.00  0.00    -0.205 F 
ATOM     97  C   UNL A   1      47.522  36.313  29.463  1.00  0.00     0.022 A 
BRANCH  95  98
ATOM     98  S   UNL A   1      46.854  37.404  27.040  1.00  0.00     0.127 S 
ATOM     99  O   UNL A   1      45.437  37.614  26.749  1.00  0.00    -0.237 OA
ATOM    100  O   UNL A   1      47.498  38.501  27.762  1.00  0.00    -0.237 OA
ATOM    101  O   UNL A   1      47.645  36.859  25.944  1.00  0.00    -0.744 OA
ENDBRANCH  95  98
ENDBRANCH  68  91
ENDBRANCH  42  43
ENDBRANCH  34  37
ENDBRANCH  32  33
ENDBRANCH  31  32
ENDBRANCH  30  31
ENDBRANCH   1  30
TORSDOF 20
ENDMDL
MODEL 2
REMARK VINA RESULT:     -11.0      5.124     11.677
REMARK SMILES COc1ccc(CCc2nnc(NC(=O)[C@@H]3[C@@H](C(=O)NCCCCNC(=O)c4ccc(-c5c6nc(c(-c7cccc(S(=O)(=O)[O-])c7F)c7ccc([nH]7)c(-c7cccc(S(=O)(=O)[O-])c7F)c7nc(c(-c8cccc(S(=O)(=O)[O-])c8F)c8ccc5[nH]8)C=C7)C=C6)cc4)C3(C)C)s2)cc1
REMARK SMILES IDX 21 1 20 2 18 3 19 4 17 6 16 7 91 8 92 9 93 10 14 11 13 12
REMARK SMILES IDX 15 14 12 15 9 16 10 17 94 18 11 19 8 20 7 21 6 22 3 23 4 24
REMARK SMILES IDX 96 25 5 26 95 27 2 28 1 29 22 30 23 31 24 32 25 33 26 34
REMARK SMILES IDX 27 36 28 37 29 38 90 39 30 40 89 41 31 42 32 43 33 44 83 45
REMARK SMILES IDX 34 46 88 47 82 48 84 49 35 50 87 51 81 52 80 53 36 55 68 56
REMARK SMILES IDX 48 57 67 58 49 59 52 60 66 61 85 62 50 63 51 64 65 66 86 67
REMARK SMILES IDX 53 68 37 69 38 70 46 71 39 72 41 73 47 74 40 75 42 76 43 77
REMARK SMILES IDX 44 78 45 79 69 80 70 81 78 82 71 83 73 84 79 85 72 86 74 87
REMARK SMILES IDX 75 88 76 89 77 90 54 91 55 92 63 93 56 94 58 95 64 96 57 97
REMARK SMILES IDX 59 98 60 99 61 100 62 101
REMARK H PARENT 20 5 13 13 25 35 84 54 52 65
REMARK Flexibility Score: inf
ROOT
ATOM      1  C   UNL A   1      32.946  30.586  26.692  1.00  0.00     0.116 C 
ENDROOT
BRANCH   1   2
ATOM      2  N   UNL A   1      32.308  29.514  27.416  1.00  0.00    -0.356 N 
ATOM      3  C   UNL A   1      31.730  28.326  27.079  1.00  0.00     0.224 C 
ATOM      4  O   UNL A   1      31.194  27.720  28.009  1.00  0.00    -0.275 OA
ATOM      5  H   UNL A   1      32.282  29.680  28.385  1.00  0.00     0.163 HD
BRANCH   3   6
ATOM      6  C   UNL A   1      31.718  27.654  25.750  1.00  0.00     0.098 C 
ATOM      7  C   UNL A   1      31.403  26.229  25.481  1.00  0.00     0.098 C 
ATOM      8  C   UNL A   1      32.788  26.774  25.079  1.00  0.00    -0.011 C 
ATOM      9  C   UNL A   1      33.978  26.176  25.784  1.00  0.00     0.013 C 
ATOM     10  C   UNL A   1      33.196  27.230  23.701  1.00  0.00     0.013 C 
BRANCH   7  11
ATOM     11  C   UNL A   1      30.290  25.695  24.638  1.00  0.00     0.230 C 
ATOM     12  N   UNL A   1      30.210  24.523  23.943  1.00  0.00    -0.300 N 
ATOM     13  H   UNL A   1      29.294  24.255  23.704  1.00  0.00     0.172 HD
ATOM     14  O   UNL A   1      29.237  26.343  24.674  1.00  0.00    -0.274 OA
BRANCH  12  15
ATOM     15  C   UNL A   1      31.169  23.664  23.522  1.00  0.00     0.212 A 
ATOM     16  C   UNL A   1      33.135  22.399  23.734  1.00  0.00     0.119 A 
ATOM     17  N   UNL A   1      32.936  22.792  22.493  1.00  0.00    -0.142 NA
ATOM     18  S   UNL A   1      31.747  22.604  24.737  1.00  0.00    -0.080 S 
ATOM     19  N   UNL A   1      31.775  23.533  22.374  1.00  0.00    -0.120 NA
BRANCH  16  20
ATOM     20  C   UNL A   1      34.442  21.893  24.255  1.00  0.00     0.074 C 
BRANCH  20  21
ATOM     21  C   UNL A   1      34.277  21.109  25.575  1.00  0.00     0.043 C 
BRANCH  21  22
ATOM     22  C   UNL A   1      34.072  19.624  25.359  1.00  0.00    -0.047 A 
ATOM     23  C   UNL A   1      33.562  16.936  24.706  1.00  0.00     0.118 A 
ATOM     24  C   UNL A   1      32.651  17.659  25.473  1.00  0.00     0.046 A 
ATOM     25  C   UNL A   1      34.748  17.543  24.294  1.00  0.00     0.046 A 
ATOM     26  C   UNL A   1      32.919  18.982  25.823  1.00  0.00     0.007 A 
ATOM     27  C   UNL A   1      34.999  18.882  24.616  1.00  0.00     0.007 A 
BRANCH  23  28
ATOM     28  O   UNL A   1      33.161  15.680  24.348  1.00  0.00    -0.497 OA
ATOM     29  C   UNL A   1      32.527  14.931  25.376  1.00  0.00     0.278 C 
ENDBRANCH  23  28
ENDBRANCH  21  22
ENDBRANCH  20  21
ENDBRANCH  16  20
ENDBRANCH  12  15
ENDBRANCH   7  11
ENDBRANCH   3   6
ENDBRANCH   1   2
BRANCH   1  30
ATOM     30  C   UNL A   1      34.270  30.981  27.350  1.00  0.00     0.023 C 
BRANCH  30  31
ATOM     31  C   UNL A   1      34.153  32.039  28.442  1.00  0.00     0.023 C 
BRANCH  31  32
ATOM     32  C   UNL A   1      34.001  33.468  27.944  1.00  0.00     0.116 C 
BRANCH  32  33
ATOM     33  N   UNL A   1      33.254  34.322  28.858  1.00  0.00    -0.352 N 
ATOM     34  C   UNL A   1      33.484  34.570  30.190  1.00  0.00     0.251 C 
ATOM     35  H   UNL A   1      32.477  34.785  28.468  1.00  0.00     0.163 HD
ATOM     36  O   UNL A   1      32.680  35.234  30.840  1.00  0.00    -0.269 OA
BRANCH  34  37
ATOM     37  C   UNL A   1      34.684  34.003  30.837  1.00  0.00     0.039 A 
ATOM     38  C   UNL A   1      34.532  32.930  31.717  1.00  0.00     0.014 A 
ATOM     39  C   UNL A   1      35.956  34.492  30.531  1.00  0.00     0.014 A 
ATOM     40  C   UNL A   1      35.664  32.301  32.233  1.00  0.00     0.010 A 
ATOM     41  C   UNL A   1      37.081  33.806  30.970  1.00  0.00     0.010 A 
ATOM     42  C   UNL A   1      36.949  32.706  31.831  1.00  0.00    -0.014 A 
BRANCH  42  43
ATOM     43  C   UNL A   1      38.157  31.973  32.281  1.00  0.00     0.031 A 
ATOM     44  C   UNL A   1      38.836  32.336  33.572  1.00  0.00     0.074 A 
ATOM     45  C   UNL A   1      38.691  31.029  31.479  1.00  0.00     0.049 A 
ATOM     46  N   UNL A   1      39.892  31.799  34.125  1.00  0.00    -0.248 NA
ATOM     47  C   UNL A   1      38.279  33.472  34.327  1.00  0.00     0.031 C 
ATOM     48  C   UNL A   1      38.192  30.666  30.150  1.00  0.00     0.029 A 
ATOM     49  N   UNL A   1      39.781  30.215  31.656  1.00  0.00    -0.354 N 
ATOM     50  C   UNL A   1      40.145  32.547  35.268  1.00  0.00     0.074 A 
ATOM     51  C   UNL A   1      39.160  33.605  35.307  1.00  0.00     0.031 C 
ATOM     52  C   UNL A   1      38.962  29.692  29.641  1.00  0.00     0.029 A 
ATOM     53  C   UNL A   1      40.019  29.374  30.595  1.00  0.00     0.049 A 
ATOM     54  H   UNL A   1      40.341  30.232  32.466  1.00  0.00     0.167 HD
ATOM     55  C   UNL A   1      41.088  32.350  36.220  1.00  0.00     0.034 A 
ATOM     56  C   UNL A   1      40.977  28.443  30.414  1.00  0.00     0.034 A 
ATOM     57  C   UNL A   1      42.034  31.267  36.200  1.00  0.00     0.049 A 
ATOM     58  C   UNL A   1      41.965  28.193  31.520  1.00  0.00     0.074 A 
ATOM     59  C   UNL A   1      42.954  30.910  37.168  1.00  0.00     0.029 A 
ATOM     60  N   UNL A   1      42.185  30.370  35.154  1.00  0.00    -0.354 N 
ATOM     61  N   UNL A   1      42.065  28.784  32.686  1.00  0.00    -0.248 NA
ATOM     62  C   UNL A   1      42.946  27.121  31.303  1.00  0.00     0.031 C 
ATOM     63  C   UNL A   1      43.678  29.809  36.697  1.00  0.00     0.029 A 
ATOM     64  C   UNL A   1      43.193  29.466  35.445  1.00  0.00     0.049 A 
ATOM     65  H   UNL A   1      41.654  30.374  34.325  1.00  0.00     0.167 HD
ATOM     66  C   UNL A   1      43.101  28.141  33.351  1.00  0.00     0.074 A 
ATOM     67  C   UNL A   1      43.575  27.093  32.470  1.00  0.00     0.031 C 
ATOM     68  C   UNL A   1      43.626  28.404  34.575  1.00  0.00     0.034 A 
BRANCH  55  69
ATOM     69  C   UNL A   1      41.100  33.292  37.395  1.00  0.00     0.023 A 
ATOM     70  C   UNL A   1      40.219  33.066  38.474  1.00  0.00     0.012 A 
ATOM     71  C   UNL A   1      42.006  34.369  37.458  1.00  0.00     0.148 A 
ATOM     72  C   UNL A   1      40.212  33.917  39.579  1.00  0.00     0.002 A 
ATOM     73  C   UNL A   1      42.025  35.186  38.584  1.00  0.00     0.091 A 
ATOM     74  F   UNL A   1      42.818  34.583  36.414  1.00  0.00    -0.205 F 
ATOM     75  C   UNL A   1      41.122  34.970  39.638  1.00  0.00     0.022 A 
BRANCH  73  76
ATOM     76  S   UNL A   1      43.211  36.519  38.791  1.00  0.00     0.127 S 
ATOM     77  O   UNL A   1      42.369  37.697  38.588  1.00  0.00    -0.237 OA
ATOM     78  O   UNL A   1      43.659  36.320  40.170  1.00  0.00    -0.237 OA
ATOM     79  O   UNL A   1      44.238  36.300  37.783  1.00  0.00    -0.744 OA
ENDBRANCH  73  76
ENDBRANCH  55  69
BRANCH  56  80
ATOM     80  C   UNL A   1      40.986  27.622  29.171  1.00  0.00     0.023 A 
ATOM     81  C   UNL A   1      40.052  26.578  29.025  1.00  0.00     0.012 A 
ATOM     82  C   UNL A   1      41.879  27.898  28.116  1.00  0.00     0.148 A 
ATOM     83  C   UNL A   1      40.025  25.804  27.864  1.00  0.00     0.002 A 
ATOM     84  C   UNL A   1      41.810  27.158  26.940  1.00  0.00     0.091 A 
ATOM     85  F   UNL A   1      42.767  28.889  28.279  1.00  0.00    -0.205 F 
ATOM     86  C   UNL A   1      40.895  26.100  26.819  1.00  0.00     0.022 A 
BRANCH  84  87
ATOM     87  S   UNL A   1      42.795  27.558  25.493  1.00  0.00     0.127 S 
ATOM     88  O   UNL A   1      44.142  27.618  26.056  1.00  0.00    -0.237 OA
ATOM     89  O   UNL A   1      42.540  26.408  24.626  1.00  0.00    -0.237 OA
ATOM     90  O   UNL A   1      42.260  28.817  24.990  1.00  0.00    -0.744 OA
ENDBRANCH  84  87
ENDBRANCH  56  80
BRANCH  68  91
ATOM     91  C   UNL A   1      44.769  27.539  35.039  1.00  0.00     0.023 A 
ATOM     92  C   UNL A   1      46.094  27.993  34.883  1.00  0.00     0.012 A 
ATOM     93  C   UNL A   1      44.530  26.310  35.684  1.00  0.00     0.148 A 
ATOM     94  C   UNL A   1      47.165  27.219  35.326  1.00  0.00     0.002 A 
ATOM     95  C   UNL A   1      45.601  25.567  36.167  1.00  0.00     0.091 A 
ATOM     96  F   UNL A   1      43.264  25.886  35.806  1.00  0.00    -0.205 F 
ATOM     97  C   UNL A   1      46.919  26.013  35.978  1.00  0.00     0.022 A 
BRANCH  95  98
ATOM     98  S   UNL A   1      45.371  24.050  37.101  1.00  0.00     0.127 S 
ATOM     99  O   UNL A   1      44.584  24.518  38.240  1.00  0.00    -0.237 OA
ATOM    100  O   UNL A   1      44.636  23.209  36.156  1.00  0.00    -0.237 OA
ATOM    101  O   UNL A   1      46.709  23.570  37.418  1.00  0.00    -0.744 OA
ENDBRANCH  95  98
ENDBRANCH  68  91
ENDBRANCH  42  43
ENDBRANCH  34  37
ENDBRANCH  32  33
ENDBRANCH  31  32
ENDBRANCH  30  31
ENDBRANCH   1  30
TORSDOF 20
ENDMDL
MODEL 3
REMARK VINA RESULT:     -10.9      4.855     11.257
REMARK SMILES COc1ccc(CCc2nnc(NC(=O)[C@@H]3[C@@H](C(=O)NCCCCNC(=O)c4ccc(-c5c6nc(c(-c7cccc(S(=O)(=O)[O-])c7F)c7ccc([nH]7)c(-c7cccc(S(=O)(=O)[O-])c7F)c7nc(c(-c8cccc(S(=O)(=O)[O-])c8F)c8ccc5[nH]8)C=C7)C=C6)cc4)C3(C)C)s2)cc1
REMARK SMILES IDX 21 1 20 2 18 3 19 4 17 6 16 7 91 8 92 9 93 10 14 11 13 12
REMARK SMILES IDX 15 14 12 15 9 16 10 17 94 18 11 19 8 20 7 21 6 22 3 23 4 24
REMARK SMILES IDX 96 25 5 26 95 27 2 28 1 29 22 30 23 31 24 32 25 33 26 34
REMARK SMILES IDX 27 36 28 37 29 38 90 39 30 40 89 41 31 42 32 43 33 44 83 45
REMARK SMILES IDX 34 46 88 47 82 48 84 49 35 50 87 51 81 52 80 53 36 55 68 56
REMARK SMILES IDX 48 57 67 58 49 59 52 60 66 61 85 62 50 63 51 64 65 66 86 67
REMARK SMILES IDX 53 68 37 69 38 70 46 71 39 72 41 73 47 74 40 75 42 76 43 77
REMARK SMILES IDX 44 78 45 79 69 80 70 81 78 82 71 83 73 84 79 85 72 86 74 87
REMARK SMILES IDX 75 88 76 89 77 90 54 91 55 92 63 93 56 94 58 95 64 96 57 97
REMARK SMILES IDX 59 98 60 99 61 100 62 101
REMARK H PARENT 20 5 13 13 25 35 84 54 52 65
REMARK Flexibility Score: inf
ROOT
ATOM      1  C   UNL A   1      32.848  30.675  26.829  1.00  0.00     0.116 C 
ENDROOT
BRANCH   1   2
ATOM      2  N   UNL A   1      32.148  29.623  27.525  1.00  0.00    -0.356 N 
ATOM      3  C   UNL A   1      31.570  28.441  27.167  1.00  0.00     0.224 C 
ATOM      4  O   UNL A   1      30.968  27.857  28.070  1.00  0.00    -0.275 OA
ATOM      5  H   UNL A   1      32.067  29.801  28.489  1.00  0.00     0.163 HD
BRANCH   3   6
ATOM      6  C   UNL A   1      31.626  27.753  25.848  1.00  0.00     0.098 C 
ATOM      7  C   UNL A   1      31.408  26.308  25.593  1.00  0.00     0.098 C 
ATOM      8  C   UNL A   1      32.763  26.935  25.208  1.00  0.00    -0.011 C 
ATOM      9  C   UNL A   1      33.975  26.424  25.943  1.00  0.00     0.013 C 
ATOM     10  C   UNL A   1      33.166  27.399  23.831  1.00  0.00     0.013 C 
BRANCH   7  11
ATOM     11  C   UNL A   1      30.348  25.692  24.738  1.00  0.00     0.230 C 
ATOM     12  N   UNL A   1      30.449  24.702  23.804  1.00  0.00    -0.300 N 
ATOM     13  H   UNL A   1      29.594  24.266  23.580  1.00  0.00     0.172 HD
ATOM     14  O   UNL A   1      29.189  26.036  24.998  1.00  0.00    -0.274 OA
BRANCH  12  15
ATOM     15  C   UNL A   1      31.516  24.212  23.129  1.00  0.00     0.212 A 
ATOM     16  C   UNL A   1      33.735  23.486  22.895  1.00  0.00     0.119 A 
ATOM     17  N   UNL A   1      33.278  24.030  21.787  1.00  0.00    -0.142 NA
ATOM     18  S   UNL A   1      32.492  23.139  24.039  1.00  0.00    -0.080 S 
ATOM     19  N   UNL A   1      31.970  24.452  21.929  1.00  0.00    -0.120 NA
BRANCH  16  20
ATOM     20  C   UNL A   1      35.185  23.252  23.181  1.00  0.00     0.074 C 
BRANCH  20  21
ATOM     21  C   UNL A   1      35.396  22.265  24.349  1.00  0.00     0.043 C 
BRANCH  21  22
ATOM     22  C   UNL A   1      36.771  22.374  24.973  1.00  0.00    -0.047 A 
ATOM     23  C   UNL A   1      39.206  22.469  26.378  1.00  0.00     0.118 A 
ATOM     24  C   UNL A   1      38.366  23.579  26.350  1.00  0.00     0.046 A 
ATOM     25  C   UNL A   1      38.849  21.319  25.674  1.00  0.00     0.046 A 
ATOM     26  C   UNL A   1      37.174  23.543  25.627  1.00  0.00     0.007 A 
ATOM     27  C   UNL A   1      37.635  21.272  24.979  1.00  0.00     0.007 A 
BRANCH  23  28
ATOM     28  O   UNL A   1      40.303  22.583  27.185  1.00  0.00    -0.497 OA
ATOM     29  C   UNL A   1      40.827  21.354  27.671  1.00  0.00     0.278 C 
ENDBRANCH  23  28
ENDBRANCH  21  22
ENDBRANCH  20  21
ENDBRANCH  16  20
ENDBRANCH  12  15
ENDBRANCH   7  11
ENDBRANCH   3   6
ENDBRANCH   1   2
BRANCH   1  30
ATOM     30  C   UNL A   1      34.265  30.848  27.379  1.00  0.00     0.023 C 
BRANCH  30  31
ATOM     31  C   UNL A   1      34.414  31.935  28.440  1.00  0.00     0.023 C 
BRANCH  31  32
ATOM     32  C   UNL A   1      34.216  33.357  27.939  1.00  0.00     0.116 C 
BRANCH  32  33
ATOM     33  N   UNL A   1      33.425  34.183  28.842  1.00  0.00    -0.352 N 
ATOM     34  C   UNL A   1      33.644  34.463  30.169  1.00  0.00     0.251 C 
ATOM     35  H   UNL A   1      32.624  34.597  28.447  1.00  0.00     0.163 HD
ATOM     36  O   UNL A   1      32.807  35.092  30.811  1.00  0.00    -0.269 OA
BRANCH  34  37
ATOM     37  C   UNL A   1      34.874  33.971  30.821  1.00  0.00     0.039 A 
ATOM     38  C   UNL A   1      34.778  32.924  31.739  1.00  0.00     0.014 A 
ATOM     39  C   UNL A   1      36.120  34.504  30.484  1.00  0.00     0.014 A 
ATOM     40  C   UNL A   1      35.942  32.363  32.264  1.00  0.00     0.010 A 
ATOM     41  C   UNL A   1      37.279  33.883  30.934  1.00  0.00     0.010 A 
ATOM     42  C   UNL A   1      37.204  32.809  31.833  1.00  0.00    -0.014 A 
BRANCH  42  43
ATOM     43  C   UNL A   1      38.447  32.145  32.294  1.00  0.00     0.031 A 
ATOM     44  C   UNL A   1      39.131  32.592  33.556  1.00  0.00     0.074 A 
ATOM     45  C   UNL A   1      39.007  31.188  31.525  1.00  0.00     0.049 A 
ATOM     46  N   UNL A   1      40.217  32.122  34.114  1.00  0.00    -0.248 NA
ATOM     47  C   UNL A   1      38.541  33.738  34.269  1.00  0.00     0.031 C 
ATOM     48  C   UNL A   1      38.501  30.747  30.222  1.00  0.00     0.029 A 
ATOM     49  N   UNL A   1      40.131  30.427  31.719  1.00  0.00    -0.354 N 
ATOM     50  C   UNL A   1      40.457  32.930  35.218  1.00  0.00     0.074 A 
ATOM     51  C   UNL A   1      39.431  33.949  35.228  1.00  0.00     0.031 C 
ATOM     52  C   UNL A   1      39.302  29.781  29.744  1.00  0.00     0.029 A 
ATOM     53  C   UNL A   1      40.386  29.548  30.692  1.00  0.00     0.049 A 
ATOM     54  H   UNL A   1      40.702  30.502  32.518  1.00  0.00     0.167 HD
ATOM     55  C   UNL A   1      41.422  32.813  36.161  1.00  0.00     0.034 A 
ATOM     56  C   UNL A   1      41.377  28.649  30.536  1.00  0.00     0.034 A 
ATOM     57  C   UNL A   1      42.410  31.769  36.173  1.00  0.00     0.049 A 
ATOM     58  C   UNL A   1      42.392  28.488  31.634  1.00  0.00     0.074 A 
ATOM     59  C   UNL A   1      43.359  31.492  37.139  1.00  0.00     0.029 A 
ATOM     60  N   UNL A   1      42.581  30.833  35.164  1.00  0.00    -0.354 N 
ATOM     61  N   UNL A   1      42.487  29.134  32.772  1.00  0.00    -0.248 NA
ATOM     62  C   UNL A   1      43.412  27.447  31.448  1.00  0.00     0.031 C 
ATOM     63  C   UNL A   1      44.119  30.401  36.705  1.00  0.00     0.029 A 
ATOM     64  C   UNL A   1      43.628  29.984  35.478  1.00  0.00     0.049 A 
ATOM     65  H   UNL A   1      42.037  30.779  34.346  1.00  0.00     0.167 HD
ATOM     66  C   UNL A   1      43.558  28.563  33.447  1.00  0.00     0.074 A 
ATOM     67  C   UNL A   1      44.060  27.496  32.604  1.00  0.00     0.031 C 
ATOM     68  C   UNL A   1      44.091  28.901  34.647  1.00  0.00     0.034 A 
BRANCH  55  69
ATOM     69  C   UNL A   1      41.414  33.807  37.293  1.00  0.00     0.023 A 
ATOM     70  C   UNL A   1      42.208  34.970  37.201  1.00  0.00     0.012 A 
ATOM     71  C   UNL A   1      40.593  33.621  38.422  1.00  0.00     0.148 A 
ATOM     72  C   UNL A   1      42.216  35.911  38.230  1.00  0.00     0.002 A 
ATOM     73  C   UNL A   1      40.570  34.586  39.423  1.00  0.00     0.091 A 
ATOM     74  F   UNL A   1      39.863  32.499  38.504  1.00  0.00    -0.205 F 
ATOM     75  C   UNL A   1      41.389  35.724  39.335  1.00  0.00     0.022 A 
BRANCH  73  76
ATOM     76  S   UNL A   1      39.481  34.478  40.847  1.00  0.00     0.127 S 
ATOM     77  O   UNL A   1      39.589  35.825  41.404  1.00  0.00    -0.237 OA
ATOM     78  O   UNL A   1      38.191  34.176  40.226  1.00  0.00    -0.237 OA
ATOM     79  O   UNL A   1      40.017  33.410  41.680  1.00  0.00    -0.744 OA
ENDBRANCH  73  76
ENDBRANCH  55  69
BRANCH  56  80
ATOM     80  C   UNL A   1      41.401  27.774  29.330  1.00  0.00     0.023 A 
ATOM     81  C   UNL A   1      40.682  26.563  29.341  1.00  0.00     0.012 A 
ATOM     82  C   UNL A   1      42.088  28.155  28.161  1.00  0.00     0.148 A 
ATOM     83  C   UNL A   1      40.670  25.732  28.220  1.00  0.00     0.002 A 
ATOM     84  C   UNL A   1      42.026  27.348  27.029  1.00  0.00     0.091 A 
ATOM     85  F   UNL A   1      42.774  29.306  28.174  1.00  0.00    -0.205 F 
ATOM     86  C   UNL A   1      41.332  26.129  27.063  1.00  0.00     0.022 A 
BRANCH  84  87
ATOM     87  S   UNL A   1      42.732  27.846  25.454  1.00  0.00     0.127 S 
ATOM     88  O   UNL A   1      41.925  29.018  25.122  1.00  0.00    -0.237 OA
ATOM     89  O   UNL A   1      44.118  28.136  25.822  1.00  0.00    -0.237 OA
ATOM     90  O   UNL A   1      42.574  26.697  24.572  1.00  0.00    -0.744 OA
ENDBRANCH  84  87
ENDBRANCH  56  80
BRANCH  68  91
ATOM     91  C   UNL A   1      45.275  28.104  35.130  1.00  0.00     0.023 A 
ATOM     92  C   UNL A   1      46.580  28.548  34.837  1.00  0.00     0.012 A 
ATOM     93  C   UNL A   1      45.097  26.953  35.922  1.00  0.00     0.148 A 
ATOM     94  C   UNL A   1      47.689  27.838  35.293  1.00  0.00     0.002 A 
ATOM     95  C   UNL A   1      46.208  26.278  36.414  1.00  0.00     0.091 A 
ATOM     96  F   UNL A   1      43.848  26.535  36.174  1.00  0.00    -0.205 F 
ATOM     97  C   UNL A   1      47.504  26.712  36.091  1.00  0.00     0.022 A 
BRANCH  95  98
ATOM     98  S   UNL A   1      46.063  24.875  37.525  1.00  0.00     0.127 S 
ATOM     99  O   UNL A   1      45.394  23.890  36.676  1.00  0.00    -0.237 OA
ATOM    100  O   UNL A   1      47.461  24.569  37.828  1.00  0.00    -0.237 OA
ATOM    101  O   UNL A   1      45.290  25.348  38.666  1.00  0.00    -0.744 OA
ENDBRANCH  95  98
ENDBRANCH  68  91
ENDBRANCH  42  43
ENDBRANCH  34  37
ENDBRANCH  32  33
ENDBRANCH  31  32
ENDBRANCH  30  31
ENDBRANCH   1  30
TORSDOF 20
ENDMDL
