MODEL 1
REMARK VINA RESULT:     -11.6      0.000      0.000
REMARK SMILES CC(=O)N[C@@H](CCc1nc2ccccc2[nH]1)C(=O)NCCCCNC(=O)c1ccc(-c2c3nc(c(-c4cccc(S(=O)(=O)[O-])c4F)c4ccc([nH]4)c(-c4cccc(S(=O)(=O)[O-])c4F)c4nc(c(-c5cccc(S(=O)(=O)[O-])c5F)c5ccc2[nH]5)C=C4)C=C3)cc1
REMARK SMILES IDX 21 1 20 2 19 3 17 4 18 5 5 7 4 8 1 9 2 10 3 11 6 13 7 14
REMARK SMILES IDX 8 15 9 16 16 17 10 18 15 19 11 21 14 22 12 23 13 24 22 25
REMARK SMILES IDX 23 26 24 27 25 28 26 30 27 31 28 32 89 33 29 34 88 35 30 36
REMARK SMILES IDX 31 37 32 38 82 39 33 40 87 41 81 42 83 43 34 44 86 45 80 46
REMARK SMILES IDX 79 47 35 49 67 50 47 51 66 52 48 53 51 54 65 55 84 56 49 57
REMARK SMILES IDX 50 58 64 60 85 61 52 62 36 63 37 64 45 65 38 66 40 67 46 68
REMARK SMILES IDX 39 69 41 70 42 71 43 72 44 73 68 74 69 75 77 76 70 77 72 78
REMARK SMILES IDX 78 79 71 80 73 81 74 82 75 83 76 84 53 85 54 86 62 87 55 88
REMARK SMILES IDX 57 89 63 90 56 91 58 92 59 93 60 94 61 95
REMARK H PARENT 19 6 4 12 16 20 24 29 83 48 51 59
REMARK Flexibility Score: inf
ROOT
ATOM      1  C   UNL A   1      36.684  21.107  24.633  1.00  0.00     0.023 C 
ENDROOT
BRANCH   1   2
ATOM      2  C   UNL A   1      35.660  21.274  25.754  1.00  0.00     0.116 C 
BRANCH   2   3
ATOM      3  N   UNL A   1      34.542  20.351  25.660  1.00  0.00    -0.354 N 
ATOM      4  C   UNL A   1      33.255  20.543  25.260  1.00  0.00     0.242 C 
ATOM      5  O   UNL A   1      32.634  19.534  24.900  1.00  0.00    -0.273 OA
ATOM      6  H   UNL A   1      34.750  19.429  25.932  1.00  0.00     0.163 HD
BRANCH   4   7
ATOM      7  C   UNL A   1      32.611  21.922  25.019  1.00  0.00     0.171 C 
BRANCH   7   8
ATOM      8  N   UNL A   1      32.673  22.329  23.622  1.00  0.00    -0.345 N 
ATOM      9  C   UNL A   1      34.088  24.313  24.067  1.00  0.00     0.114 C 
ATOM     10  C   UNL A   1      33.458  23.328  23.112  1.00  0.00     0.217 C 
ATOM     11  O   UNL A   1      33.601  23.424  21.895  1.00  0.00    -0.275 OA
ATOM     12  H   UNL A   1      32.098  21.842  22.988  1.00  0.00     0.164 HD
ENDBRANCH   7   8
BRANCH   7  13
ATOM     13  C   UNL A   1      31.259  22.200  25.709  1.00  0.00     0.043 C 
BRANCH  13  14
ATOM     14  C   UNL A   1      31.127  23.331  26.724  1.00  0.00     0.078 C 
BRANCH  14  15
ATOM     15  C   UNL A   1      30.816  24.703  26.200  1.00  0.00     0.107 A 
ATOM     16  N   UNL A   1      31.429  25.810  26.578  1.00  0.00    -0.233 NA
ATOM     17  N   UNL A   1      29.911  24.997  25.206  1.00  0.00    -0.342 N 
ATOM     18  C   UNL A   1      31.061  26.776  25.668  1.00  0.00     0.089 A 
ATOM     19  C   UNL A   1      30.199  26.244  24.723  1.00  0.00     0.065 A 
ATOM     20  H   UNL A   1      29.182  24.411  24.897  1.00  0.00     0.168 HD
ATOM     21  C   UNL A   1      31.468  28.110  25.536  1.00  0.00     0.030 A 
ATOM     22  C   UNL A   1      29.787  26.918  23.574  1.00  0.00     0.028 A 
ATOM     23  C   UNL A   1      31.056  28.823  24.399  1.00  0.00     0.002 A 
ATOM     24  C   UNL A   1      30.259  28.223  23.420  1.00  0.00     0.002 A 
ENDBRANCH  14  15
ENDBRANCH  13  14
ENDBRANCH   7  13
ENDBRANCH   4   7
ENDBRANCH   2   3
ENDBRANCH   1   2
BRANCH   1  25
ATOM     25  C   UNL A   1      37.742  20.022  24.861  1.00  0.00     0.023 C 
BRANCH  25  26
ATOM     26  C   UNL A   1      38.904  20.403  25.775  1.00  0.00     0.116 C 
BRANCH  26  27
ATOM     27  N   UNL A   1      39.915  19.362  25.890  1.00  0.00    -0.352 N 
ATOM     28  C   UNL A   1      41.265  19.456  26.152  1.00  0.00     0.251 C 
ATOM     29  H   UNL A   1      39.580  18.445  25.761  1.00  0.00     0.163 HD
ATOM     30  O   UNL A   1      41.964  18.455  26.108  1.00  0.00    -0.269 OA
BRANCH  28  31
ATOM     31  C   UNL A   1      41.875  20.772  26.452  1.00  0.00     0.039 A 
ATOM     32  C   UNL A   1      42.136  21.653  25.399  1.00  0.00     0.014 A 
ATOM     33  C   UNL A   1      42.192  21.138  27.761  1.00  0.00     0.014 A 
ATOM     34  C   UNL A   1      42.636  22.931  25.670  1.00  0.00     0.010 A 
ATOM     35  C   UNL A   1      42.618  22.435  28.036  1.00  0.00     0.010 A 
ATOM     36  C   UNL A   1      42.842  23.348  26.994  1.00  0.00    -0.014 A 
BRANCH  36  37
ATOM     37  C   UNL A   1      43.281  24.733  27.321  1.00  0.00     0.031 A 
ATOM     38  C   UNL A   1      42.318  25.703  27.951  1.00  0.00     0.074 A 
ATOM     39  C   UNL A   1      44.511  25.149  26.959  1.00  0.00     0.049 A 
ATOM     40  N   UNL A   1      42.481  26.974  28.214  1.00  0.00    -0.248 NA
ATOM     41  C   UNL A   1      40.987  25.184  28.307  1.00  0.00     0.031 C 
ATOM     42  C   UNL A   1      45.518  24.329  26.279  1.00  0.00     0.029 A 
ATOM     43  N   UNL A   1      45.115  26.378  27.080  1.00  0.00    -0.354 N 
ATOM     44  C   UNL A   1      41.266  27.416  28.726  1.00  0.00     0.074 A 
ATOM     45  C   UNL A   1      40.366  26.283  28.709  1.00  0.00     0.031 C 
ATOM     46  C   UNL A   1      46.609  25.076  26.043  1.00  0.00     0.029 A 
ATOM     47  C   UNL A   1      46.371  26.435  26.520  1.00  0.00     0.049 A 
ATOM     48  H   UNL A   1      44.689  27.145  27.525  1.00  0.00     0.167 HD
ATOM     49  C   UNL A   1      40.936  28.642  29.195  1.00  0.00     0.034 A 
ATOM     50  C   UNL A   1      47.231  27.466  26.394  1.00  0.00     0.034 A 
ATOM     51  C   UNL A   1      41.846  29.754  29.256  1.00  0.00     0.049 A 
ATOM     52  C   UNL A   1      46.853  28.812  26.955  1.00  0.00     0.074 A 
ATOM     53  C   UNL A   1      41.629  31.014  29.787  1.00  0.00     0.029 A 
ATOM     54  N   UNL A   1      43.144  29.743  28.768  1.00  0.00    -0.354 N 
ATOM     55  N   UNL A   1      45.749  29.169  27.565  1.00  0.00    -0.248 NA
ATOM     56  C   UNL A   1      47.849  29.887  26.842  1.00  0.00     0.031 C 
ATOM     57  C   UNL A   1      42.790  31.772  29.601  1.00  0.00     0.029 A 
ATOM     58  C   UNL A   1      43.738  30.974  28.983  1.00  0.00     0.049 A 
ATOM     59  H   UNL A   1      43.577  28.973  28.334  1.00  0.00     0.167 HD
ATOM     60  C   UNL A   1      45.938  30.491  27.953  1.00  0.00     0.074 A 
ATOM     61  C   UNL A   1      47.266  30.870  27.514  1.00  0.00     0.031 C 
ATOM     62  C   UNL A   1      45.086  31.317  28.606  1.00  0.00     0.034 A 
BRANCH  49  63
ATOM     63  C   UNL A   1      39.542  28.837  29.730  1.00  0.00     0.023 A 
ATOM     64  C   UNL A   1      39.258  28.506  31.070  1.00  0.00     0.012 A 
ATOM     65  C   UNL A   1      38.529  29.404  28.929  1.00  0.00     0.148 A 
ATOM     66  C   UNL A   1      37.981  28.700  31.596  1.00  0.00     0.002 A 
ATOM     67  C   UNL A   1      37.272  29.638  29.474  1.00  0.00     0.091 A 
ATOM     68  F   UNL A   1      38.812  29.695  27.652  1.00  0.00    -0.205 F 
ATOM     69  C   UNL A   1      36.993  29.274  30.801  1.00  0.00     0.022 A 
BRANCH  67  70
ATOM     70  S   UNL A   1      35.957  30.450  28.559  1.00  0.00     0.127 S 
ATOM     71  O   UNL A   1      35.323  29.317  27.886  1.00  0.00    -0.237 OA
ATOM     72  O   UNL A   1      35.158  31.045  29.630  1.00  0.00    -0.237 OA
ATOM     73  O   UNL A   1      36.611  31.413  27.685  1.00  0.00    -0.744 OA
ENDBRANCH  67  70
ENDBRANCH  49  63
BRANCH  50  74
ATOM     74  C   UNL A   1      48.565  27.253  25.764  1.00  0.00     0.023 A 
ATOM     75  C   UNL A   1      49.637  26.794  26.555  1.00  0.00     0.012 A 
ATOM     76  C   UNL A   1      48.774  27.478  24.389  1.00  0.00     0.148 A 
ATOM     77  C   UNL A   1      50.900  26.597  25.996  1.00  0.00     0.002 A 
ATOM     78  C   UNL A   1      50.021  27.226  23.828  1.00  0.00     0.091 A 
ATOM     79  F   UNL A   1      47.744  27.923  23.655  1.00  0.00    -0.205 F 
ATOM     80  C   UNL A   1      51.090  26.804  24.633  1.00  0.00     0.022 A 
BRANCH  78  81
ATOM     81  S   UNL A   1      50.323  27.342  22.061  1.00  0.00     0.127 S 
ATOM     82  O   UNL A   1      50.114  28.766  21.814  1.00  0.00    -0.237 OA
ATOM     83  O   UNL A   1      51.714  26.897  21.963  1.00  0.00    -0.237 OA
ATOM     84  O   UNL A   1      49.361  26.442  21.438  1.00  0.00    -0.744 OA
ENDBRANCH  78  81
ENDBRANCH  50  74
BRANCH  62  85
ATOM     85  C   UNL A   1      45.567  32.701  28.958  1.00  0.00     0.023 A 
ATOM     86  C   UNL A   1      46.266  32.921  30.160  1.00  0.00     0.012 A 
ATOM     87  C   UNL A   1      45.415  33.760  28.040  1.00  0.00     0.148 A 
ATOM     88  C   UNL A   1      46.790  34.181  30.452  1.00  0.00     0.002 A 
ATOM     89  C   UNL A   1      45.981  34.997  28.315  1.00  0.00     0.091 A 
ATOM     90  F   UNL A   1      44.729  33.531  26.910  1.00  0.00    -0.205 F 
ATOM     91  C   UNL A   1      46.660  35.213  29.525  1.00  0.00     0.022 A 
BRANCH  89  92
ATOM     92  S   UNL A   1      45.953  36.355  27.138  1.00  0.00     0.127 S 
ATOM     93  O   UNL A   1      44.521  36.630  27.035  1.00  0.00    -0.237 OA
ATOM     94  O   UNL A   1      46.724  37.384  27.835  1.00  0.00    -0.237 OA
ATOM     95  O   UNL A   1      46.578  35.848  25.923  1.00  0.00    -0.744 OA
ENDBRANCH  89  92
ENDBRANCH  62  85
ENDBRANCH  36  37
ENDBRANCH  28  31
ENDBRANCH  26  27
ENDBRANCH  25  26
ENDBRANCH   1  25
TORSDOF 18
ENDMDL
MODEL 2
REMARK VINA RESULT:     -11.3      1.836      8.280
REMARK SMILES CC(=O)N[C@@H](CCc1nc2ccccc2[nH]1)C(=O)NCCCCNC(=O)c1ccc(-c2c3nc(c(-c4cccc(S(=O)(=O)[O-])c4F)c4ccc([nH]4)c(-c4cccc(S(=O)(=O)[O-])c4F)c4nc(c(-c5cccc(S(=O)(=O)[O-])c5F)c5ccc2[nH]5)C=C4)C=C3)cc1
REMARK SMILES IDX 21 1 20 2 19 3 17 4 18 5 5 7 4 8 1 9 2 10 3 11 6 13 7 14
REMARK SMILES IDX 8 15 9 16 16 17 10 18 15 19 11 21 14 22 12 23 13 24 22 25
REMARK SMILES IDX 23 26 24 27 25 28 26 30 27 31 28 32 89 33 29 34 88 35 30 36
REMARK SMILES IDX 31 37 32 38 82 39 33 40 87 41 81 42 83 43 34 44 86 45 80 46
REMARK SMILES IDX 79 47 35 49 67 50 47 51 66 52 48 53 51 54 65 55 84 56 49 57
REMARK SMILES IDX 50 58 64 60 85 61 52 62 36 63 37 64 45 65 38 66 40 67 46 68
REMARK SMILES IDX 39 69 41 70 42 71 43 72 44 73 68 74 69 75 77 76 70 77 72 78
REMARK SMILES IDX 78 79 71 80 73 81 74 82 75 83 76 84 53 85 54 86 62 87 55 88
REMARK SMILES IDX 57 89 63 90 56 91 58 92 59 93 60 94 61 95
REMARK H PARENT 19 6 4 12 16 20 24 29 83 48 51 59
REMARK Flexibility Score: inf
ROOT
ATOM      1  C   UNL A   1      35.360  23.260  22.887  1.00  0.00     0.023 C 
ENDROOT
BRANCH   1   2
ATOM      2  C   UNL A   1      34.565  23.997  23.964  1.00  0.00     0.116 C 
BRANCH   2   3
ATOM      3  N   UNL A   1      33.127  23.936  23.766  1.00  0.00    -0.354 N 
ATOM      4  C   UNL A   1      32.095  24.140  24.629  1.00  0.00     0.242 C 
ATOM      5  O   UNL A   1      30.999  24.416  24.122  1.00  0.00    -0.273 OA
ATOM      6  H   UNL A   1      32.851  23.708  22.849  1.00  0.00     0.163 HD
BRANCH   4   7
ATOM      7  C   UNL A   1      32.247  24.269  26.157  1.00  0.00     0.171 C 
BRANCH   7   8
ATOM      8  N   UNL A   1      31.459  25.364  26.704  1.00  0.00    -0.345 N 
ATOM      9  C   UNL A   1      33.194  27.079  26.270  1.00  0.00     0.114 C 
ATOM     10  C   UNL A   1      31.783  26.694  26.643  1.00  0.00     0.217 C 
ATOM     11  O   UNL A   1      30.936  27.537  26.929  1.00  0.00    -0.275 OA
ATOM     12  H   UNL A   1      30.618  25.128  27.159  1.00  0.00     0.164 HD
ENDBRANCH   7   8
BRANCH   7  13
ATOM     13  C   UNL A   1      32.196  22.966  26.983  1.00  0.00     0.043 C 
BRANCH  13  14
ATOM     14  C   UNL A   1      33.287  21.912  26.833  1.00  0.00     0.078 C 
BRANCH  14  15
ATOM     15  C   UNL A   1      33.016  20.756  25.913  1.00  0.00     0.107 A 
ATOM     16  N   UNL A   1      32.279  20.821  24.820  1.00  0.00    -0.233 NA
ATOM     17  N   UNL A   1      33.549  19.493  26.033  1.00  0.00    -0.342 N 
ATOM     18  C   UNL A   1      32.522  19.654  24.129  1.00  0.00     0.089 A 
ATOM     19  C   UNL A   1      33.419  18.861  24.826  1.00  0.00     0.065 A 
ATOM     20  H   UNL A   1      33.954  19.111  26.845  1.00  0.00     0.168 HD
ATOM     21  C   UNL A   1      32.072  19.223  22.875  1.00  0.00     0.030 A 
ATOM     22  C   UNL A   1      33.997  17.700  24.313  1.00  0.00     0.028 A 
ATOM     23  C   UNL A   1      32.622  18.049  22.337  1.00  0.00     0.002 A 
ATOM     24  C   UNL A   1      33.593  17.322  23.032  1.00  0.00     0.002 A 
ENDBRANCH  14  15
ENDBRANCH  13  14
ENDBRANCH   7  13
ENDBRANCH   4   7
ENDBRANCH   2   3
ENDBRANCH   1   2
BRANCH   1  25
ATOM     25  C   UNL A   1      36.629  22.551  23.372  1.00  0.00     0.023 C 
BRANCH  25  26
ATOM     26  C   UNL A   1      36.708  22.272  24.871  1.00  0.00     0.116 C 
BRANCH  26  27
ATOM     27  N   UNL A   1      37.595  21.168  25.207  1.00  0.00    -0.352 N 
ATOM     28  C   UNL A   1      38.835  21.174  25.808  1.00  0.00     0.251 C 
ATOM     29  H   UNL A   1      37.255  20.276  24.967  1.00  0.00     0.163 HD
ATOM     30  O   UNL A   1      39.465  20.133  25.913  1.00  0.00    -0.269 OA
BRANCH  28  31
ATOM     31  C   UNL A   1      39.420  22.444  26.297  1.00  0.00     0.039 A 
ATOM     32  C   UNL A   1      40.764  22.468  26.678  1.00  0.00     0.014 A 
ATOM     33  C   UNL A   1      38.651  23.605  26.385  1.00  0.00     0.014 A 
ATOM     34  C   UNL A   1      41.357  23.675  27.065  1.00  0.00     0.010 A 
ATOM     35  C   UNL A   1      39.259  24.819  26.697  1.00  0.00     0.010 A 
ATOM     36  C   UNL A   1      40.620  24.869  27.038  1.00  0.00    -0.014 A 
BRANCH  36  37
ATOM     37  C   UNL A   1      41.245  26.184  27.350  1.00  0.00     0.031 A 
ATOM     38  C   UNL A   1      42.671  26.456  26.955  1.00  0.00     0.074 A 
ATOM     39  C   UNL A   1      40.565  27.093  28.079  1.00  0.00     0.049 A 
ATOM     40  N   UNL A   1      43.419  27.494  27.228  1.00  0.00    -0.248 NA
ATOM     41  C   UNL A   1      43.356  25.413  26.174  1.00  0.00     0.031 C 
ATOM     42  C   UNL A   1      39.200  26.925  28.584  1.00  0.00     0.029 A 
ATOM     43  N   UNL A   1      40.942  28.327  28.551  1.00  0.00    -0.354 N 
ATOM     44  C   UNL A   1      44.670  27.214  26.691  1.00  0.00     0.074 A 
ATOM     45  C   UNL A   1      44.589  25.895  26.102  1.00  0.00     0.031 C 
ATOM     46  C   UNL A   1      38.856  28.012  29.295  1.00  0.00     0.029 A 
ATOM     47  C   UNL A   1      39.984  28.938  29.328  1.00  0.00     0.049 A 
ATOM     48  H   UNL A   1      41.815  28.736  28.353  1.00  0.00     0.167 HD
ATOM     49  C   UNL A   1      45.778  27.991  26.664  1.00  0.00     0.034 A 
ATOM     50  C   UNL A   1      40.012  30.107  30.001  1.00  0.00     0.034 A 
ATOM     51  C   UNL A   1      45.843  29.321  27.208  1.00  0.00     0.049 A 
ATOM     52  C   UNL A   1      41.245  30.969  29.925  1.00  0.00     0.074 A 
ATOM     53  C   UNL A   1      46.896  30.219  27.159  1.00  0.00     0.029 A 
ATOM     54  N   UNL A   1      44.817  29.944  27.901  1.00  0.00    -0.354 N 
ATOM     55  N   UNL A   1      42.369  30.746  29.290  1.00  0.00    -0.248 NA
ATOM     56  C   UNL A   1      41.202  32.259  30.629  1.00  0.00     0.031 C 
ATOM     57  C   UNL A   1      46.514  31.377  27.842  1.00  0.00     0.029 A 
ATOM     58  C   UNL A   1      45.213  31.213  28.288  1.00  0.00     0.049 A 
ATOM     59  H   UNL A   1      43.939  29.543  28.090  1.00  0.00     0.167 HD
ATOM     60  C   UNL A   1      43.145  31.884  29.474  1.00  0.00     0.074 A 
ATOM     61  C   UNL A   1      42.360  32.800  30.276  1.00  0.00     0.031 C 
ATOM     62  C   UNL A   1      44.396  32.144  29.025  1.00  0.00     0.034 A 
BRANCH  49  63
ATOM     63  C   UNL A   1      47.002  27.445  25.978  1.00  0.00     0.023 A 
ATOM     64  C   UNL A   1      47.844  26.548  26.666  1.00  0.00     0.012 A 
ATOM     65  C   UNL A   1      47.288  27.768  24.636  1.00  0.00     0.148 A 
ATOM     66  C   UNL A   1      48.970  26.010  26.045  1.00  0.00     0.002 A 
ATOM     67  C   UNL A   1      48.386  27.192  24.008  1.00  0.00     0.091 A 
ATOM     68  F   UNL A   1      46.488  28.638  24.003  1.00  0.00    -0.205 F 
ATOM     69  C   UNL A   1      49.235  26.324  24.715  1.00  0.00     0.022 A 
BRANCH  67  70
ATOM     70  S   UNL A   1      48.764  27.466  22.274  1.00  0.00     0.127 S 
ATOM     71  O   UNL A   1      47.869  28.576  21.950  1.00  0.00    -0.237 OA
ATOM     72  O   UNL A   1      50.182  27.821  22.319  1.00  0.00    -0.237 OA
ATOM     73  O   UNL A   1      48.475  26.210  21.597  1.00  0.00    -0.744 OA
ENDBRANCH  67  70
ENDBRANCH  49  63
BRANCH  50  74
ATOM     74  C   UNL A   1      38.809  30.563  30.754  1.00  0.00     0.023 A 
ATOM     75  C   UNL A   1      38.739  30.342  32.143  1.00  0.00     0.012 A 
ATOM     76  C   UNL A   1      37.750  31.233  30.111  1.00  0.00     0.148 A 
ATOM     77  C   UNL A   1      37.621  30.746  32.873  1.00  0.00     0.002 A 
ATOM     78  C   UNL A   1      36.664  31.683  30.854  1.00  0.00     0.091 A 
ATOM     79  F   UNL A   1      37.831  31.426  28.787  1.00  0.00    -0.205 F 
ATOM     80  C   UNL A   1      36.589  31.424  32.232  1.00  0.00     0.022 A 
BRANCH  78  81
ATOM     81  S   UNL A   1      35.350  32.675  30.135  1.00  0.00     0.127 S 
ATOM     82  O   UNL A   1      34.377  32.718  31.224  1.00  0.00    -0.237 OA
ATOM     83  O   UNL A   1      36.037  33.940  29.871  1.00  0.00    -0.237 OA
ATOM     84  O   UNL A   1      34.929  31.961  28.937  1.00  0.00    -0.744 OA
ENDBRANCH  78  81
ENDBRANCH  50  74
BRANCH  62  85
ATOM     85  C   UNL A   1      44.993  33.494  29.323  1.00  0.00     0.023 A 
ATOM     86  C   UNL A   1      45.762  33.686  30.488  1.00  0.00     0.012 A 
ATOM     87  C   UNL A   1      44.876  34.543  28.389  1.00  0.00     0.148 A 
ATOM     88  C   UNL A   1      46.390  34.908  30.727  1.00  0.00     0.002 A 
ATOM     89  C   UNL A   1      45.545  35.741  28.610  1.00  0.00     0.091 A 
ATOM     90  F   UNL A   1      44.124  34.344  27.297  1.00  0.00    -0.205 F 
ATOM     91  C   UNL A   1      46.293  35.929  29.783  1.00  0.00     0.022 A 
BRANCH  89  92
ATOM     92  S   UNL A   1      45.561  37.073  27.405  1.00  0.00     0.127 S 
ATOM     93  O   UNL A   1      46.359  38.087  28.092  1.00  0.00    -0.237 OA
ATOM     94  O   UNL A   1      46.224  36.447  26.261  1.00  0.00    -0.237 OA
ATOM     95  O   UNL A   1      44.166  37.428  27.177  1.00  0.00    -0.744 OA
ENDBRANCH  89  92
ENDBRANCH  62  85
ENDBRANCH  36  37
ENDBRANCH  28  31
ENDBRANCH  26  27
ENDBRANCH  25  26
ENDBRANCH   1  25
TORSDOF 18
ENDMDL
MODEL 3
REMARK VINA RESULT:     -11.1      1.864      7.873
REMARK SMILES CC(=O)N[C@@H](CCc1nc2ccccc2[nH]1)C(=O)NCCCCNC(=O)c1ccc(-c2c3nc(c(-c4cccc(S(=O)(=O)[O-])c4F)c4ccc([nH]4)c(-c4cccc(S(=O)(=O)[O-])c4F)c4nc(c(-c5cccc(S(=O)(=O)[O-])c5F)c5ccc2[nH]5)C=C4)C=C3)cc1
REMARK SMILES IDX 21 1 20 2 19 3 17 4 18 5 5 7 4 8 1 9 2 10 3 11 6 13 7 14
REMARK SMILES IDX 8 15 9 16 16 17 10 18 15 19 11 21 14 22 12 23 13 24 22 25
REMARK SMILES IDX 23 26 24 27 25 28 26 30 27 31 28 32 89 33 29 34 88 35 30 36
REMARK SMILES IDX 31 37 32 38 82 39 33 40 87 41 81 42 83 43 34 44 86 45 80 46
REMARK SMILES IDX 79 47 35 49 67 50 47 51 66 52 48 53 51 54 65 55 84 56 49 57
REMARK SMILES IDX 50 58 64 60 85 61 52 62 36 63 37 64 45 65 38 66 40 67 46 68
REMARK SMILES IDX 39 69 41 70 42 71 43 72 44 73 68 74 69 75 77 76 70 77 72 78
REMARK SMILES IDX 78 79 71 80 73 81 74 82 75 83 76 84 53 85 54 86 62 87 55 88
REMARK SMILES IDX 57 89 63 90 56 91 58 92 59 93 60 94 61 95
REMARK H PARENT 19 6 4 12 16 20 24 29 83 48 51 59
REMARK Flexibility Score: inf
ROOT
ATOM      1  C   UNL A   1      36.467  19.926  24.960  1.00  0.00     0.023 C 
ENDROOT
BRANCH   1   2
ATOM      2  C   UNL A   1      35.170  20.625  25.365  1.00  0.00     0.116 C 
BRANCH   2   3
ATOM      3  N   UNL A   1      34.020  19.736  25.400  1.00  0.00    -0.354 N 
ATOM      4  C   UNL A   1      32.718  19.944  25.064  1.00  0.00     0.242 C 
ATOM      5  O   UNL A   1      32.046  18.935  24.812  1.00  0.00    -0.273 OA
ATOM      6  H   UNL A   1      34.217  18.828  25.724  1.00  0.00     0.163 HD
BRANCH   4   7
ATOM      7  C   UNL A   1      32.103  21.325  24.765  1.00  0.00     0.171 C 
BRANCH   7   8
ATOM      8  N   UNL A   1      32.423  22.310  25.788  1.00  0.00    -0.345 N 
ATOM      9  C   UNL A   1      30.065  22.637  26.478  1.00  0.00     0.114 C 
ATOM     10  C   UNL A   1      31.546  22.831  26.703  1.00  0.00     0.217 C 
ATOM     11  O   UNL A   1      31.976  23.471  27.658  1.00  0.00    -0.275 OA
ATOM     12  H   UNL A   1      33.353  22.632  25.826  1.00  0.00     0.164 HD
ENDBRANCH   7   8
BRANCH   7  13
ATOM     13  C   UNL A   1      32.209  21.846  23.316  1.00  0.00     0.043 C 
BRANCH  13  14
ATOM     14  C   UNL A   1      33.378  22.732  22.897  1.00  0.00     0.078 C 
BRANCH  14  15
ATOM     15  C   UNL A   1      33.243  24.211  23.116  1.00  0.00     0.107 A 
ATOM     16  N   UNL A   1      33.327  24.809  24.291  1.00  0.00    -0.233 NA
ATOM     17  N   UNL A   1      33.090  25.157  22.130  1.00  0.00    -0.342 N 
ATOM     18  C   UNL A   1      33.442  26.155  24.023  1.00  0.00     0.089 A 
ATOM     19  C   UNL A   1      33.418  26.378  22.656  1.00  0.00     0.065 A 
ATOM     20  H   UNL A   1      32.794  24.987  21.206  1.00  0.00     0.168 HD
ATOM     21  C   UNL A   1      33.638  27.245  24.881  1.00  0.00     0.030 A 
ATOM     22  C   UNL A   1      33.686  27.609  22.060  1.00  0.00     0.028 A 
ATOM     23  C   UNL A   1      33.894  28.503  24.313  1.00  0.00     0.002 A 
ATOM     24  C   UNL A   1      33.951  28.671  22.927  1.00  0.00     0.002 A 
ENDBRANCH  14  15
ENDBRANCH  13  14
ENDBRANCH   7  13
ENDBRANCH   4   7
ENDBRANCH   2   3
ENDBRANCH   1   2
BRANCH   1  25
ATOM     25  C   UNL A   1      37.621  20.853  24.565  1.00  0.00     0.023 C 
BRANCH  25  26
ATOM     26  C   UNL A   1      38.388  21.493  25.720  1.00  0.00     0.116 C 
BRANCH  26  27
ATOM     27  N   UNL A   1      39.458  20.654  26.239  1.00  0.00    -0.352 N 
ATOM     28  C   UNL A   1      40.623  20.998  26.891  1.00  0.00     0.251 C 
ATOM     29  H   UNL A   1      39.329  19.688  26.102  1.00  0.00     0.163 HD
ATOM     30  O   UNL A   1      41.446  20.136  27.160  1.00  0.00    -0.269 OA
BRANCH  28  31
ATOM     31  C   UNL A   1      40.893  22.413  27.236  1.00  0.00     0.039 A 
ATOM     32  C   UNL A   1      41.680  22.697  28.355  1.00  0.00     0.014 A 
ATOM     33  C   UNL A   1      40.374  23.455  26.467  1.00  0.00     0.014 A 
ATOM     34  C   UNL A   1      42.015  24.023  28.651  1.00  0.00     0.010 A 
ATOM     35  C   UNL A   1      40.769  24.767  26.718  1.00  0.00     0.010 A 
ATOM     36  C   UNL A   1      41.597  25.067  27.810  1.00  0.00    -0.014 A 
BRANCH  36  37
ATOM     37  C   UNL A   1      42.015  26.476  28.042  1.00  0.00     0.031 A 
ATOM     38  C   UNL A   1      43.411  26.918  27.695  1.00  0.00     0.074 A 
ATOM     39  C   UNL A   1      41.174  27.332  28.658  1.00  0.00     0.049 A 
ATOM     40  N   UNL A   1      43.992  28.070  27.916  1.00  0.00    -0.248 NA
ATOM     41  C   UNL A   1      44.279  25.927  27.037  1.00  0.00     0.031 C 
ATOM     42  C   UNL A   1      39.818  27.012  29.109  1.00  0.00     0.029 A 
ATOM     43  N   UNL A   1      41.349  28.640  29.044  1.00  0.00    -0.354 N 
ATOM     44  C   UNL A   1      45.299  27.930  27.465  1.00  0.00     0.074 A 
ATOM     45  C   UNL A   1      45.435  26.572  26.985  1.00  0.00     0.031 C 
ATOM     46  C   UNL A   1      39.286  28.089  29.710  1.00  0.00     0.029 A 
ATOM     47  C   UNL A   1      40.271  29.166  29.720  1.00  0.00     0.049 A 
ATOM     48  H   UNL A   1      42.168  29.152  28.855  1.00  0.00     0.167 HD
ATOM     49  C   UNL A   1      46.288  28.853  27.427  1.00  0.00     0.034 A 
ATOM     50  C   UNL A   1      40.098  30.374  30.294  1.00  0.00     0.034 A 
ATOM     51  C   UNL A   1      46.137  30.216  27.860  1.00  0.00     0.049 A 
ATOM     52  C   UNL A   1      41.203  31.394  30.206  1.00  0.00     0.074 A 
ATOM     53  C   UNL A   1      47.058  31.247  27.788  1.00  0.00     0.029 A 
ATOM     54  N   UNL A   1      44.996  30.737  28.449  1.00  0.00    -0.354 N 
ATOM     55  N   UNL A   1      42.383  31.286  29.646  1.00  0.00    -0.248 NA
ATOM     56  C   UNL A   1      40.941  32.715  30.798  1.00  0.00     0.031 C 
ATOM     57  C   UNL A   1      46.480  32.388  28.353  1.00  0.00     0.029 A 
ATOM     58  C   UNL A   1      45.190  32.075  28.748  1.00  0.00     0.049 A 
ATOM     59  H   UNL A   1      44.172  30.231  28.628  1.00  0.00     0.167 HD
ATOM     60  C   UNL A   1      42.982  32.534  29.773  1.00  0.00     0.074 A 
ATOM     61  C   UNL A   1      42.033  33.387  30.457  1.00  0.00     0.031 C 
ATOM     62  C   UNL A   1      44.210  32.933  29.365  1.00  0.00     0.034 A 
BRANCH  49  63
ATOM     63  C   UNL A   1      47.615  28.436  26.848  1.00  0.00     0.023 A 
ATOM     64  C   UNL A   1      48.733  28.302  27.697  1.00  0.00     0.012 A 
ATOM     65  C   UNL A   1      47.744  28.117  25.481  1.00  0.00     0.148 A 
ATOM     66  C   UNL A   1      49.966  27.894  27.189  1.00  0.00     0.002 A 
ATOM     67  C   UNL A   1      48.965  27.667  24.992  1.00  0.00     0.091 A 
ATOM     68  F   UNL A   1      46.676  28.268  24.686  1.00  0.00    -0.205 F 
ATOM     69  C   UNL A   1      50.079  27.568  25.841  1.00  0.00     0.022 A 
BRANCH  67  70
ATOM     70  S   UNL A   1      49.190  27.141  23.290  1.00  0.00     0.127 S 
ATOM     71  O   UNL A   1      48.270  26.006  23.208  1.00  0.00    -0.237 OA
ATOM     72  O   UNL A   1      48.764  28.324  22.542  1.00  0.00    -0.237 OA
ATOM     73  O   UNL A   1      50.602  26.814  23.153  1.00  0.00    -0.744 OA
ENDBRANCH  67  70
ENDBRANCH  49  63
BRANCH  50  74
ATOM     74  C   UNL A   1      38.802  30.711  30.947  1.00  0.00     0.023 A 
ATOM     75  C   UNL A   1      38.614  30.404  32.309  1.00  0.00     0.012 A 
ATOM     76  C   UNL A   1      37.766  31.351  30.239  1.00  0.00     0.148 A 
ATOM     77  C   UNL A   1      37.407  30.695  32.945  1.00  0.00     0.002 A 
ATOM     78  C   UNL A   1      36.586  31.689  30.893  1.00  0.00     0.091 A 
ATOM     79  F   UNL A   1      37.959  31.626  28.941  1.00  0.00    -0.205 F 
ATOM     80  C   UNL A   1      36.398  31.345  32.242  1.00  0.00     0.022 A 
BRANCH  78  81
ATOM     81  S   UNL A   1      35.283  32.639  30.102  1.00  0.00     0.127 S 
ATOM     82  O   UNL A   1      36.005  33.833  29.667  1.00  0.00    -0.237 OA
ATOM     83  O   UNL A   1      34.868  31.742  29.023  1.00  0.00    -0.237 OA
ATOM     84  O   UNL A   1      34.272  32.849  31.129  1.00  0.00    -0.744 OA
ENDBRANCH  78  81
ENDBRANCH  50  74
BRANCH  62  85
ATOM     85  C   UNL A   1      44.596  34.374  29.578  1.00  0.00     0.023 A 
ATOM     86  C   UNL A   1      45.169  34.779  30.799  1.00  0.00     0.012 A 
ATOM     87  C   UNL A   1      44.487  35.301  28.522  1.00  0.00     0.148 A 
ATOM     88  C   UNL A   1      45.609  36.091  30.973  1.00  0.00     0.002 A 
ATOM     89  C   UNL A   1      44.972  36.592  28.685  1.00  0.00     0.091 A 
ATOM     90  F   UNL A   1      43.922  34.898  27.374  1.00  0.00    -0.205 F 
ATOM     91  C   UNL A   1      45.524  36.992  29.913  1.00  0.00     0.022 A 
BRANCH  89  92
ATOM     92  S   UNL A   1      44.998  37.790  27.346  1.00  0.00     0.127 S 
ATOM     93  O   UNL A   1      45.537  38.973  28.015  1.00  0.00    -0.237 OA
ATOM     94  O   UNL A   1      45.908  37.163  26.388  1.00  0.00    -0.237 OA
ATOM     95  O   UNL A   1      43.621  37.909  26.886  1.00  0.00    -0.744 OA
ENDBRANCH  89  92
ENDBRANCH  62  85
ENDBRANCH  36  37
ENDBRANCH  28  31
ENDBRANCH  26  27
ENDBRANCH  25  26
ENDBRANCH   1  25
TORSDOF 18
ENDMDL
