MODEL 1
REMARK VINA RESULT:     -11.3      0.000      0.000
REMARK SMILES Cc1nc2cc(SCC(=O)NCCCCNC(=O)c3ccc(-c4c5nc(c(-c6cccc(S(=O)(=O)[O-])c6F)c6ccc([nH]6)c(-c6cccc(S(=O)(=O)[O-])c6F)c6nc(c(-c7cccc(S(=O)(=O)[O-])c7F)c7ccc4[nH]7)C=C6)C=C5)cc3)ccc2s1
REMARK SMILES IDX 14 1 13 2 12 3 11 4 9 5 10 6 8 8 7 9 6 10 1 11 2 12 3 13
REMARK SMILES IDX 85 14 4 15 84 16 5 17 83 18 82 19 15 20 16 21 17 22 18 24
REMARK SMILES IDX 19 25 20 26 81 27 21 28 80 29 22 30 23 31 24 32 74 33 25 34
REMARK SMILES IDX 79 35 73 36 75 37 26 38 78 39 72 40 71 41 27 43 59 44 39 45
REMARK SMILES IDX 58 46 40 47 43 48 57 49 76 50 41 51 42 52 56 54 77 55 44 56
REMARK SMILES IDX 28 57 29 58 37 59 30 60 32 61 38 62 31 63 33 64 34 65 35 66
REMARK SMILES IDX 36 67 60 68 61 69 69 70 62 71 64 72 70 73 63 74 65 75 66 76
REMARK SMILES IDX 67 77 68 78 45 79 46 80 54 81 47 82 49 83 55 84 48 85 50 86
REMARK SMILES IDX 51 87 52 88 53 89
REMARK H PARENT 11 7 16 23 75 42 43 53
REMARK Flexibility Score: inf
ROOT
ATOM      1  C   UNL A   1      31.491  30.872  26.362  1.00  0.00     0.023 C 
ENDROOT
BRANCH   1   2
ATOM      2  C   UNL A   1      31.473  29.663  25.420  1.00  0.00     0.023 C 
BRANCH   2   3
ATOM      3  C   UNL A   1      32.774  28.863  25.385  1.00  0.00     0.116 C 
BRANCH   3   4
ATOM      4  N   UNL A   1      32.632  27.588  26.061  1.00  0.00    -0.355 N 
ATOM      5  C   UNL A   1      32.931  26.334  25.624  1.00  0.00     0.230 C 
ATOM      6  O   UNL A   1      32.705  25.388  26.384  1.00  0.00    -0.274 OA
ATOM      7  H   UNL A   1      32.264  27.637  26.973  1.00  0.00     0.163 HD
BRANCH   5   8
ATOM      8  C   UNL A   1      33.620  26.103  24.293  1.00  0.00     0.174 C 
BRANCH   8   9
ATOM      9  S   UNL A   1      32.542  25.506  22.954  1.00  0.00    -0.116 SA
BRANCH   9  10
ATOM     10  C   UNL A   1      31.043  26.473  23.064  1.00  0.00     0.010 A 
ATOM     11  C   UNL A   1      28.105  31.470  21.189  1.00  0.00     0.079 C 
ATOM     12  C   UNL A   1      28.591  30.212  21.815  1.00  0.00     0.091 A 
ATOM     13  N   UNL A   1      29.786  29.701  21.620  1.00  0.00    -0.241 NA
ATOM     14  S   UNL A   1      27.557  29.316  22.852  1.00  0.00    -0.119 S 
ATOM     15  C   UNL A   1      29.911  28.514  22.323  1.00  0.00     0.083 A 
ATOM     16  C   UNL A   1      28.784  28.127  23.048  1.00  0.00     0.055 A 
ATOM     17  C   UNL A   1      31.049  27.682  22.349  1.00  0.00     0.045 A 
ATOM     18  C   UNL A   1      28.757  26.933  23.782  1.00  0.00     0.022 A 
ATOM     19  C   UNL A   1      29.892  26.109  23.758  1.00  0.00     0.016 A 
ENDBRANCH   9  10
ENDBRANCH   8   9
ENDBRANCH   5   8
ENDBRANCH   3   4
ENDBRANCH   2   3
ENDBRANCH   1   2
BRANCH   1  20
ATOM     20  C   UNL A   1      32.860  31.246  26.921  1.00  0.00     0.116 C 
BRANCH  20  21
ATOM     21  N   UNL A   1      32.982  32.667  27.214  1.00  0.00    -0.352 N 
ATOM     22  C   UNL A   1      33.929  33.323  27.961  1.00  0.00     0.251 C 
ATOM     23  H   UNL A   1      32.286  33.239  26.819  1.00  0.00     0.163 HD
ATOM     24  O   UNL A   1      33.783  34.518  28.212  1.00  0.00    -0.269 OA
BRANCH  22  25
ATOM     25  C   UNL A   1      35.104  32.593  28.486  1.00  0.00     0.039 A 
ATOM     26  C   UNL A   1      36.361  33.197  28.401  1.00  0.00     0.014 A 
ATOM     27  C   UNL A   1      34.976  31.324  29.056  1.00  0.00     0.014 A 
ATOM     28  C   UNL A   1      37.478  32.553  28.939  1.00  0.00     0.010 A 
ATOM     29  C   UNL A   1      36.075  30.720  29.662  1.00  0.00     0.010 A 
ATOM     30  C   UNL A   1      37.341  31.323  29.603  1.00  0.00    -0.014 A 
BRANCH  30  31
ATOM     31  C   UNL A   1      38.509  30.670  30.252  1.00  0.00     0.031 A 
ATOM     32  C   UNL A   1      38.923  31.051  31.649  1.00  0.00     0.074 A 
ATOM     33  C   UNL A   1      39.240  29.775  29.557  1.00  0.00     0.049 A 
ATOM     34  N   UNL A   1      39.917  30.594  32.366  1.00  0.00    -0.248 NA
ATOM     35  C   UNL A   1      38.135  32.099  32.318  1.00  0.00     0.031 C 
ATOM     36  C   UNL A   1      38.995  29.379  28.168  1.00  0.00     0.029 A 
ATOM     37  N   UNL A   1      40.349  29.049  29.917  1.00  0.00    -0.354 N 
ATOM     38  C   UNL A   1      39.894  31.316  33.553  1.00  0.00     0.074 A 
ATOM     39  C   UNL A   1      38.810  32.268  33.446  1.00  0.00     0.031 C 
ATOM     40  C   UNL A   1      39.916  28.476  27.799  1.00  0.00     0.029 A 
ATOM     41  C   UNL A   1      40.836  28.249  28.909  1.00  0.00     0.049 A 
ATOM     42  H   UNL A   1      40.757  29.097  30.812  1.00  0.00     0.167 HD
ATOM     43  C   UNL A   1      40.682  31.180  34.648  1.00  0.00     0.034 A 
ATOM     44  C   UNL A   1      41.907  27.432  28.878  1.00  0.00     0.034 A 
ATOM     45  C   UNL A   1      41.739  30.212  34.766  1.00  0.00     0.049 A 
ATOM     46  C   UNL A   1      42.747  27.278  30.117  1.00  0.00     0.074 A 
ATOM     47  C   UNL A   1      42.535  29.937  35.864  1.00  0.00     0.029 A 
ATOM     48  N   UNL A   1      42.159  29.369  33.749  1.00  0.00    -0.354 N 
ATOM     49  N   UNL A   1      42.604  27.849  31.288  1.00  0.00    -0.248 NA
ATOM     50  C   UNL A   1      43.873  26.337  30.042  1.00  0.00     0.031 C 
ATOM     51  C   UNL A   1      43.460  28.955  35.500  1.00  0.00     0.029 A 
ATOM     52  C   UNL A   1      43.215  28.587  34.186  1.00  0.00     0.049 A 
ATOM     53  H   UNL A   1      41.766  29.333  32.847  1.00  0.00     0.167 HD
ATOM     54  C   UNL A   1      43.599  27.313  32.097  1.00  0.00     0.074 A 
ATOM     55  C   UNL A   1      44.320  26.351  31.290  1.00  0.00     0.031 C 
ATOM     56  C   UNL A   1      43.899  27.602  33.388  1.00  0.00     0.034 A 
BRANCH  43  57
ATOM     57  C   UNL A   1      40.402  32.076  35.828  1.00  0.00     0.023 A 
ATOM     58  C   UNL A   1      41.225  33.197  36.065  1.00  0.00     0.012 A 
ATOM     59  C   UNL A   1      39.294  31.847  36.666  1.00  0.00     0.148 A 
ATOM     60  C   UNL A   1      40.975  34.051  37.139  1.00  0.00     0.002 A 
ATOM     61  C   UNL A   1      39.021  32.730  37.704  1.00  0.00     0.091 A 
ATOM     62  F   UNL A   1      38.532  30.767  36.438  1.00  0.00    -0.205 F 
ATOM     63  C   UNL A   1      39.867  33.823  37.950  1.00  0.00     0.022 A 
BRANCH  61  64
ATOM     64  S   UNL A   1      37.574  32.573  38.757  1.00  0.00     0.127 S 
ATOM     65  O   UNL A   1      36.502  32.971  37.844  1.00  0.00    -0.237 OA
ATOM     66  O   UNL A   1      37.591  31.149  39.091  1.00  0.00    -0.237 OA
ATOM     67  O   UNL A   1      37.796  33.465  39.885  1.00  0.00    -0.744 OA
ENDBRANCH  61  64
ENDBRANCH  43  57
BRANCH  44  68
ATOM     68  C   UNL A   1      42.214  26.651  27.646  1.00  0.00     0.023 A 
ATOM     69  C   UNL A   1      42.840  27.290  26.556  1.00  0.00     0.012 A 
ATOM     70  C   UNL A   1      41.904  25.281  27.553  1.00  0.00     0.148 A 
ATOM     71  C   UNL A   1      43.116  26.586  25.383  1.00  0.00     0.002 A 
ATOM     72  C   UNL A   1      42.236  24.572  26.404  1.00  0.00     0.091 A 
ATOM     73  F   UNL A   1      41.300  24.696  28.597  1.00  0.00    -0.205 F 
ATOM     74  C   UNL A   1      42.824  25.227  25.311  1.00  0.00     0.022 A 
BRANCH  72  75
ATOM     75  S   UNL A   1      42.015  22.795  26.271  1.00  0.00     0.127 S 
ATOM     76  O   UNL A   1      42.617  22.516  24.970  1.00  0.00    -0.237 OA
ATOM     77  O   UNL A   1      42.778  22.310  27.420  1.00  0.00    -0.237 OA
ATOM     78  O   UNL A   1      40.579  22.569  26.364  1.00  0.00    -0.744 OA
ENDBRANCH  72  75
ENDBRANCH  44  68
BRANCH  56  79
ATOM     79  C   UNL A   1      45.038  26.846  34.025  1.00  0.00     0.023 A 
ATOM     80  C   UNL A   1      46.355  27.337  33.924  1.00  0.00     0.012 A 
ATOM     81  C   UNL A   1      44.793  25.675  34.771  1.00  0.00     0.148 A 
ATOM     82  C   UNL A   1      47.416  26.651  34.517  1.00  0.00     0.002 A 
ATOM     83  C   UNL A   1      45.847  25.029  35.406  1.00  0.00     0.091 A 
ATOM     84  F   UNL A   1      43.537  25.213  34.844  1.00  0.00    -0.205 F 
ATOM     85  C   UNL A   1      47.160  25.506  35.266  1.00  0.00     0.022 A 
BRANCH  83  86
ATOM     86  S   UNL A   1      45.602  23.604  36.472  1.00  0.00     0.127 S 
ATOM     87  O   UNL A   1      46.975  23.279  36.855  1.00  0.00    -0.237 OA
ATOM     88  O   UNL A   1      44.784  24.161  37.550  1.00  0.00    -0.237 OA
ATOM     89  O   UNL A   1      44.928  22.602  35.657  1.00  0.00    -0.744 OA
ENDBRANCH  83  86
ENDBRANCH  56  79
ENDBRANCH  30  31
ENDBRANCH  22  25
ENDBRANCH  20  21
ENDBRANCH   1  20
TORSDOF 16
ENDMDL
MODEL 2
REMARK VINA RESULT:     -11.2      2.596      8.649
REMARK SMILES Cc1nc2cc(SCC(=O)NCCCCNC(=O)c3ccc(-c4c5nc(c(-c6cccc(S(=O)(=O)[O-])c6F)c6ccc([nH]6)c(-c6cccc(S(=O)(=O)[O-])c6F)c6nc(c(-c7cccc(S(=O)(=O)[O-])c7F)c7ccc4[nH]7)C=C6)C=C5)cc3)ccc2s1
REMARK SMILES IDX 14 1 13 2 12 3 11 4 9 5 10 6 8 8 7 9 6 10 1 11 2 12 3 13
REMARK SMILES IDX 85 14 4 15 84 16 5 17 83 18 82 19 15 20 16 21 17 22 18 24
REMARK SMILES IDX 19 25 20 26 81 27 21 28 80 29 22 30 23 31 24 32 74 33 25 34
REMARK SMILES IDX 79 35 73 36 75 37 26 38 78 39 72 40 71 41 27 43 59 44 39 45
REMARK SMILES IDX 58 46 40 47 43 48 57 49 76 50 41 51 42 52 56 54 77 55 44 56
REMARK SMILES IDX 28 57 29 58 37 59 30 60 32 61 38 62 31 63 33 64 34 65 35 66
REMARK SMILES IDX 36 67 60 68 61 69 69 70 62 71 64 72 70 73 63 74 65 75 66 76
REMARK SMILES IDX 67 77 68 78 45 79 46 80 54 81 47 82 49 83 55 84 48 85 50 86
REMARK SMILES IDX 51 87 52 88 53 89
REMARK H PARENT 11 7 16 23 75 42 43 53
REMARK Flexibility Score: inf
ROOT
ATOM      1  C   UNL A   1      31.586  32.026  26.885  1.00  0.00     0.023 C 
ENDROOT
BRANCH   1   2
ATOM      2  C   UNL A   1      31.784  30.507  26.865  1.00  0.00     0.023 C 
BRANCH   2   3
ATOM      3  C   UNL A   1      32.204  29.935  25.511  1.00  0.00     0.116 C 
BRANCH   3   4
ATOM      4  N   UNL A   1      31.151  30.080  24.525  1.00  0.00    -0.355 N 
ATOM      5  C   UNL A   1      30.593  29.147  23.706  1.00  0.00     0.230 C 
ATOM      6  O   UNL A   1      29.710  29.516  22.927  1.00  0.00    -0.274 OA
ATOM      7  H   UNL A   1      30.785  30.990  24.435  1.00  0.00     0.163 HD
BRANCH   5   8
ATOM      8  C   UNL A   1      30.960  27.680  23.812  1.00  0.00     0.174 C 
BRANCH   8   9
ATOM      9  S   UNL A   1      32.449  27.183  22.892  1.00  0.00    -0.116 SA
BRANCH   9  10
ATOM     10  C   UNL A   1      33.049  25.703  23.695  1.00  0.00     0.010 A 
ATOM     11  C   UNL A   1      32.750  19.624  23.968  1.00  0.00     0.079 C 
ATOM     12  C   UNL A   1      33.001  21.081  24.128  1.00  0.00     0.091 A 
ATOM     13  N   UNL A   1      32.387  22.018  23.440  1.00  0.00    -0.241 NA
ATOM     14  S   UNL A   1      34.176  21.630  25.253  1.00  0.00    -0.119 S 
ATOM     15  C   UNL A   1      32.869  23.264  23.807  1.00  0.00     0.083 A 
ATOM     16  C   UNL A   1      33.869  23.255  24.779  1.00  0.00     0.055 A 
ATOM     17  C   UNL A   1      32.452  24.502  23.277  1.00  0.00     0.045 A 
ATOM     18  C   UNL A   1      34.471  24.440  25.224  1.00  0.00     0.022 A 
ATOM     19  C   UNL A   1      34.061  25.654  24.652  1.00  0.00     0.016 A 
ENDBRANCH   9  10
ENDBRANCH   8   9
ENDBRANCH   5   8
ENDBRANCH   3   4
ENDBRANCH   2   3
ENDBRANCH   1   2
BRANCH   1  20
ATOM     20  C   UNL A   1      32.832  32.845  27.209  1.00  0.00     0.116 C 
BRANCH  20  21
ATOM     21  N   UNL A   1      32.520  34.199  27.644  1.00  0.00    -0.352 N 
ATOM     22  C   UNL A   1      33.064  34.928  28.673  1.00  0.00     0.251 C 
ATOM     23  H   UNL A   1      31.820  34.656  27.127  1.00  0.00     0.163 HD
ATOM     24  O   UNL A   1      32.568  36.012  28.976  1.00  0.00    -0.269 OA
BRANCH  22  25
ATOM     25  C   UNL A   1      34.222  34.404  29.430  1.00  0.00     0.039 A 
ATOM     26  C   UNL A   1      33.990  33.753  30.644  1.00  0.00     0.014 A 
ATOM     27  C   UNL A   1      35.528  34.552  28.954  1.00  0.00     0.014 A 
ATOM     28  C   UNL A   1      35.061  33.202  31.351  1.00  0.00     0.010 A 
ATOM     29  C   UNL A   1      36.583  33.933  29.620  1.00  0.00     0.010 A 
ATOM     30  C   UNL A   1      36.365  33.258  30.830  1.00  0.00    -0.014 A 
BRANCH  30  31
ATOM     31  C   UNL A   1      37.498  32.600  31.533  1.00  0.00     0.031 A 
ATOM     32  C   UNL A   1      38.238  31.455  30.894  1.00  0.00     0.074 A 
ATOM     33  C   UNL A   1      37.823  32.995  32.781  1.00  0.00     0.049 A 
ATOM     34  N   UNL A   1      39.242  30.760  31.362  1.00  0.00    -0.248 NA
ATOM     35  C   UNL A   1      37.776  31.018  29.567  1.00  0.00     0.031 C 
ATOM     36  C   UNL A   1      37.133  34.036  33.546  1.00  0.00     0.029 A 
ATOM     37  N   UNL A   1      38.805  32.554  33.634  1.00  0.00    -0.354 N 
ATOM     38  C   UNL A   1      39.512  29.788  30.407  1.00  0.00     0.074 A 
ATOM     39  C   UNL A   1      38.540  29.957  29.348  1.00  0.00     0.031 C 
ATOM     40  C   UNL A   1      37.719  34.162  34.747  1.00  0.00     0.029 A 
ATOM     41  C   UNL A   1      38.804  33.192  34.853  1.00  0.00     0.049 A 
ATOM     42  H   UNL A   1      39.449  31.848  33.396  1.00  0.00     0.167 HD
ATOM     43  C   UNL A   1      40.495  28.855  30.395  1.00  0.00     0.034 A 
ATOM     44  C   UNL A   1      39.583  33.013  35.938  1.00  0.00     0.034 A 
ATOM     45  C   UNL A   1      41.480  28.707  31.432  1.00  0.00     0.049 A 
ATOM     46  C   UNL A   1      40.687  31.991  35.885  1.00  0.00     0.074 A 
ATOM     47  C   UNL A   1      42.568  27.853  31.471  1.00  0.00     0.029 A 
ATOM     48  N   UNL A   1      41.490  29.419  32.623  1.00  0.00    -0.354 N 
ATOM     49  N   UNL A   1      41.030  31.195  34.902  1.00  0.00    -0.248 NA
ATOM     50  C   UNL A   1      41.537  31.872  37.078  1.00  0.00     0.031 C 
ATOM     51  C   UNL A   1      43.214  28.021  32.699  1.00  0.00     0.029 A 
ATOM     52  C   UNL A   1      42.554  29.011  33.410  1.00  0.00     0.049 A 
ATOM     53  H   UNL A   1      40.837  30.112  32.871  1.00  0.00     0.167 HD
ATOM     54  C   UNL A   1      42.152  30.504  35.345  1.00  0.00     0.074 A 
ATOM     55  C   UNL A   1      42.449  30.997  36.674  1.00  0.00     0.031 C 
ATOM     56  C   UNL A   1      42.865  29.537  34.714  1.00  0.00     0.034 A 
BRANCH  43  57
ATOM     57  C   UNL A   1      40.583  27.945  29.196  1.00  0.00     0.023 A 
ATOM     58  C   UNL A   1      39.712  26.840  29.092  1.00  0.00     0.012 A 
ATOM     59  C   UNL A   1      41.482  28.213  28.146  1.00  0.00     0.148 A 
ATOM     60  C   UNL A   1      39.761  25.995  27.983  1.00  0.00     0.002 A 
ATOM     61  C   UNL A   1      41.492  27.396  27.021  1.00  0.00     0.091 A 
ATOM     62  F   UNL A   1      42.315  29.257  28.268  1.00  0.00    -0.205 F 
ATOM     63  C   UNL A   1      40.643  26.280  26.945  1.00  0.00     0.022 A 
BRANCH  61  64
ATOM     64  S   UNL A   1      42.530  27.723  25.592  1.00  0.00     0.127 S 
ATOM     65  O   UNL A   1      42.292  26.532  24.777  1.00  0.00    -0.237 OA
ATOM     66  O   UNL A   1      41.941  28.953  25.061  1.00  0.00    -0.237 OA
ATOM     67  O   UNL A   1      43.885  27.869  26.103  1.00  0.00    -0.744 OA
ENDBRANCH  61  64
ENDBRANCH  43  57
BRANCH  44  68
ATOM     68  C   UNL A   1      39.384  33.859  37.148  1.00  0.00     0.023 A 
ATOM     69  C   UNL A   1      39.837  35.194  37.146  1.00  0.00     0.012 A 
ATOM     70  C   UNL A   1      38.737  33.356  38.293  1.00  0.00     0.148 A 
ATOM     71  C   UNL A   1      39.682  35.999  38.275  1.00  0.00     0.002 A 
ATOM     72  C   UNL A   1      38.534  34.181  39.393  1.00  0.00     0.091 A 
ATOM     73  F   UNL A   1      38.323  32.081  38.279  1.00  0.00    -0.205 F 
ATOM     74  C   UNL A   1      39.023  35.497  39.393  1.00  0.00     0.022 A 
BRANCH  72  75
ATOM     75  S   UNL A   1      37.583  33.662  40.826  1.00  0.00     0.127 S 
ATOM     76  O   UNL A   1      36.349  33.187  40.209  1.00  0.00    -0.237 OA
ATOM     77  O   UNL A   1      38.435  32.615  41.388  1.00  0.00    -0.237 OA
ATOM     78  O   UNL A   1      37.455  34.848  41.663  1.00  0.00    -0.744 OA
ENDBRANCH  72  75
ENDBRANCH  44  68
BRANCH  56  79
ATOM     79  C   UNL A   1      44.059  28.969  35.438  1.00  0.00     0.023 A 
ATOM     80  C   UNL A   1      45.339  29.520  35.230  1.00  0.00     0.012 A 
ATOM     81  C   UNL A   1      43.903  27.921  36.369  1.00  0.00     0.148 A 
ATOM     82  C   UNL A   1      46.450  29.010  35.901  1.00  0.00     0.002 A 
ATOM     83  C   UNL A   1      45.005  27.455  37.075  1.00  0.00     0.091 A 
ATOM     84  F   UNL A   1      42.681  27.397  36.544  1.00  0.00    -0.205 F 
ATOM     85  C   UNL A   1      46.282  27.987  36.830  1.00  0.00     0.022 A 
BRANCH  83  86
ATOM     86  S   UNL A   1      44.869  26.210  38.362  1.00  0.00     0.127 S 
ATOM     87  O   UNL A   1      44.389  25.053  37.607  1.00  0.00    -0.237 OA
ATOM     88  O   UNL A   1      46.250  26.100  38.833  1.00  0.00    -0.237 OA
ATOM     89  O   UNL A   1      43.935  26.745  39.343  1.00  0.00    -0.744 OA
ENDBRANCH  83  86
ENDBRANCH  56  79
ENDBRANCH  30  31
ENDBRANCH  22  25
ENDBRANCH  20  21
ENDBRANCH   1  20
TORSDOF 16
ENDMDL
MODEL 3
REMARK VINA RESULT:     -11.2      2.656      4.144
REMARK SMILES Cc1nc2cc(SCC(=O)NCCCCNC(=O)c3ccc(-c4c5nc(c(-c6cccc(S(=O)(=O)[O-])c6F)c6ccc([nH]6)c(-c6cccc(S(=O)(=O)[O-])c6F)c6nc(c(-c7cccc(S(=O)(=O)[O-])c7F)c7ccc4[nH]7)C=C6)C=C5)cc3)ccc2s1
REMARK SMILES IDX 14 1 13 2 12 3 11 4 9 5 10 6 8 8 7 9 6 10 1 11 2 12 3 13
REMARK SMILES IDX 85 14 4 15 84 16 5 17 83 18 82 19 15 20 16 21 17 22 18 24
REMARK SMILES IDX 19 25 20 26 81 27 21 28 80 29 22 30 23 31 24 32 74 33 25 34
REMARK SMILES IDX 79 35 73 36 75 37 26 38 78 39 72 40 71 41 27 43 59 44 39 45
REMARK SMILES IDX 58 46 40 47 43 48 57 49 76 50 41 51 42 52 56 54 77 55 44 56
REMARK SMILES IDX 28 57 29 58 37 59 30 60 32 61 38 62 31 63 33 64 34 65 35 66
REMARK SMILES IDX 36 67 60 68 61 69 69 70 62 71 64 72 70 73 63 74 65 75 66 76
REMARK SMILES IDX 67 77 68 78 45 79 46 80 54 81 47 82 49 83 55 84 48 85 50 86
REMARK SMILES IDX 51 87 52 88 53 89
REMARK H PARENT 11 7 16 23 75 42 43 53
REMARK Flexibility Score: inf
ROOT
ATOM      1  C   UNL A   1      33.068  28.092  27.110  1.00  0.00     0.023 C 
ENDROOT
BRANCH   1   2
ATOM      2  C   UNL A   1      31.552  28.101  26.888  1.00  0.00     0.023 C 
BRANCH   2   3
ATOM      3  C   UNL A   1      31.010  26.889  26.131  1.00  0.00     0.116 C 
BRANCH   3   4
ATOM      4  N   UNL A   1      31.314  25.652  26.823  1.00  0.00    -0.355 N 
ATOM      5  C   UNL A   1      30.980  24.372  26.501  1.00  0.00     0.230 C 
ATOM      6  O   UNL A   1      31.343  23.471  27.263  1.00  0.00    -0.274 OA
ATOM      7  H   UNL A   1      31.842  25.752  27.648  1.00  0.00     0.163 HD
BRANCH   5   8
ATOM      8  C   UNL A   1      30.279  24.040  25.199  1.00  0.00     0.174 C 
BRANCH   8   9
ATOM      9  S   UNL A   1      31.331  24.092  23.715  1.00  0.00    -0.116 SA
BRANCH   9  10
ATOM     10  C   UNL A   1      32.807  23.172  24.129  1.00  0.00     0.010 A 
ATOM     11  C   UNL A   1      38.556  23.470  26.122  1.00  0.00     0.079 C 
ATOM     12  C   UNL A   1      37.207  23.115  25.606  1.00  0.00     0.091 A 
ATOM     13  N   UNL A   1      36.271  23.991  25.317  1.00  0.00    -0.241 NA
ATOM     14  S   UNL A   1      36.785  21.468  25.376  1.00  0.00    -0.119 S 
ATOM     15  C   UNL A   1      35.128  23.335  24.889  1.00  0.00     0.083 A 
ATOM     16  C   UNL A   1      35.211  21.943  24.869  1.00  0.00     0.055 A 
ATOM     17  C   UNL A   1      33.919  23.946  24.501  1.00  0.00     0.045 A 
ATOM     18  C   UNL A   1      34.121  21.148  24.488  1.00  0.00     0.022 A 
ATOM     19  C   UNL A   1      32.919  21.784  24.142  1.00  0.00     0.016 A 
ENDBRANCH   9  10
ENDBRANCH   8   9
ENDBRANCH   5   8
ENDBRANCH   3   4
ENDBRANCH   2   3
ENDBRANCH   1   2
BRANCH   1  20
ATOM     20  C   UNL A   1      33.858  29.094  26.275  1.00  0.00     0.116 C 
BRANCH  20  21
ATOM     21  N   UNL A   1      33.779  30.451  26.796  1.00  0.00    -0.352 N 
ATOM     22  C   UNL A   1      34.613  31.093  27.679  1.00  0.00     0.251 C 
ATOM     23  H   UNL A   1      33.019  30.984  26.471  1.00  0.00     0.163 HD
ATOM     24  O   UNL A   1      34.301  32.202  28.112  1.00  0.00    -0.269 OA
BRANCH  22  25
ATOM     25  C   UNL A   1      35.866  30.448  28.128  1.00  0.00     0.039 A 
ATOM     26  C   UNL A   1      37.015  30.598  27.347  1.00  0.00     0.014 A 
ATOM     27  C   UNL A   1      35.916  29.699  29.306  1.00  0.00     0.014 A 
ATOM     28  C   UNL A   1      38.223  30.045  27.777  1.00  0.00     0.010 A 
ATOM     29  C   UNL A   1      37.136  29.217  29.773  1.00  0.00     0.010 A 
ATOM     30  C   UNL A   1      38.303  29.377  29.010  1.00  0.00    -0.014 A 
BRANCH  30  31
ATOM     31  C   UNL A   1      39.602  28.859  29.516  1.00  0.00     0.031 A 
ATOM     32  C   UNL A   1      40.317  29.551  30.647  1.00  0.00     0.074 A 
ATOM     33  C   UNL A   1      40.173  27.796  28.913  1.00  0.00     0.049 A 
ATOM     34  N   UNL A   1      41.457  29.245  31.209  1.00  0.00    -0.248 NA
ATOM     35  C   UNL A   1      39.681  30.757  31.202  1.00  0.00     0.031 C 
ATOM     36  C   UNL A   1      39.625  27.086  27.755  1.00  0.00     0.029 A 
ATOM     37  N   UNL A   1      41.349  27.139  29.178  1.00  0.00    -0.354 N 
ATOM     38  C   UNL A   1      41.691  30.232  32.159  1.00  0.00     0.074 A 
ATOM     39  C   UNL A   1      40.592  31.169  32.071  1.00  0.00     0.031 C 
ATOM     40  C   UNL A   1      40.456  26.087  27.418  1.00  0.00     0.029 A 
ATOM     41  C   UNL A   1      41.610  26.103  28.311  1.00  0.00     0.049 A 
ATOM     42  H   UNL A   1      41.950  27.387  29.918  1.00  0.00     0.167 HD
ATOM     43  C   UNL A   1      42.712  30.337  33.045  1.00  0.00     0.034 A 
ATOM     44  C   UNL A   1      42.662  25.264  28.238  1.00  0.00     0.034 A 
ATOM     45  C   UNL A   1      43.787  29.388  33.153  1.00  0.00     0.049 A 
ATOM     46  C   UNL A   1      43.766  25.383  29.254  1.00  0.00     0.074 A 
ATOM     47  C   UNL A   1      44.819  29.358  34.075  1.00  0.00     0.029 A 
ATOM     48  N   UNL A   1      43.981  28.310  32.303  1.00  0.00    -0.354 N 
ATOM     49  N   UNL A   1      43.883  26.225  30.252  1.00  0.00    -0.248 NA
ATOM     50  C   UNL A   1      44.864  24.412  29.157  1.00  0.00     0.031 C 
ATOM     51  C   UNL A   1      45.657  28.284  33.760  1.00  0.00     0.029 A 
ATOM     52  C   UNL A   1      45.125  27.619  32.667  1.00  0.00     0.049 A 
ATOM     53  H   UNL A   1      43.393  28.071  31.551  1.00  0.00     0.167 HD
ATOM     54  C   UNL A   1      45.047  25.865  30.920  1.00  0.00     0.074 A 
ATOM     55  C   UNL A   1      45.584  24.710  30.230  1.00  0.00     0.031 C 
ATOM     56  C   UNL A   1      45.629  26.447  31.998  1.00  0.00     0.034 A 
BRANCH  43  57
ATOM     57  C   UNL A   1      42.691  31.501  34.003  1.00  0.00     0.023 A 
ATOM     58  C   UNL A   1      43.245  32.738  33.612  1.00  0.00     0.012 A 
ATOM     59  C   UNL A   1      42.072  31.392  35.263  1.00  0.00     0.148 A 
ATOM     60  C   UNL A   1      43.220  33.834  34.474  1.00  0.00     0.002 A 
ATOM     61  C   UNL A   1      42.007  32.502  36.097  1.00  0.00     0.091 A 
ATOM     62  F   UNL A   1      41.566  30.205  35.626  1.00  0.00    -0.205 F 
ATOM     63  C   UNL A   1      42.592  33.719  35.710  1.00  0.00     0.022 A 
BRANCH  61  64
ATOM     64  S   UNL A   1      41.148  32.482  37.675  1.00  0.00     0.127 S 
ATOM     65  O   UNL A   1      41.195  33.895  38.053  1.00  0.00    -0.237 OA
ATOM     66  O   UNL A   1      39.821  31.998  37.295  1.00  0.00    -0.237 OA
ATOM     67  O   UNL A   1      41.903  31.581  38.534  1.00  0.00    -0.744 OA
ENDBRANCH  61  64
ENDBRANCH  43  57
BRANCH  44  68
ATOM     68  C   UNL A   1      42.695  24.198  27.197  1.00  0.00     0.023 A 
ATOM     69  C   UNL A   1      43.375  24.431  25.985  1.00  0.00     0.012 A 
ATOM     70  C   UNL A   1      42.071  22.953  27.406  1.00  0.00     0.148 A 
ATOM     71  C   UNL A   1      43.400  23.458  24.985  1.00  0.00     0.002 A 
ATOM     72  C   UNL A   1      42.151  21.966  26.430  1.00  0.00     0.091 A 
ATOM     73  F   UNL A   1      41.422  22.755  28.562  1.00  0.00    -0.205 F 
ATOM     74  C   UNL A   1      42.798  22.223  25.211  1.00  0.00     0.022 A 
BRANCH  72  75
ATOM     75  S   UNL A   1      41.518  20.305  26.685  1.00  0.00     0.127 S 
ATOM     76  O   UNL A   1      42.277  19.872  27.854  1.00  0.00    -0.237 OA
ATOM     77  O   UNL A   1      40.098  20.559  26.930  1.00  0.00    -0.237 OA
ATOM     78  O   UNL A   1      41.795  19.585  25.449  1.00  0.00    -0.744 OA
ENDBRANCH  72  75
ENDBRANCH  44  68
BRANCH  56  79
ATOM     79  C   UNL A   1      46.898  25.825  32.525  1.00  0.00     0.023 A 
ATOM     80  C   UNL A   1      48.150  26.288  32.073  1.00  0.00     0.012 A 
ATOM     81  C   UNL A   1      46.850  24.819  33.511  1.00  0.00     0.148 A 
ATOM     82  C   UNL A   1      49.332  25.729  32.560  1.00  0.00     0.002 A 
ATOM     83  C   UNL A   1      48.031  24.306  34.032  1.00  0.00     0.091 A 
ATOM     84  F   UNL A   1      45.650  24.379  33.919  1.00  0.00    -0.205 F 
ATOM     85  C   UNL A   1      49.272  24.747  33.546  1.00  0.00     0.022 A 
BRANCH  83  86
ATOM     86  S   UNL A   1      48.055  23.112  35.373  1.00  0.00     0.127 S 
ATOM     87  O   UNL A   1      47.229  22.035  34.828  1.00  0.00    -0.237 OA
ATOM     88  O   UNL A   1      49.479  22.793  35.480  1.00  0.00    -0.237 OA
ATOM     89  O   UNL A   1      47.499  23.797  36.532  1.00  0.00    -0.744 OA
ENDBRANCH  83  86
ENDBRANCH  56  79
ENDBRANCH  30  31
ENDBRANCH  22  25
ENDBRANCH  20  21
ENDBRANCH   1  20
TORSDOF 16
ENDMDL
