MODEL 1
REMARK VINA RESULT:     -12.0      0.000      0.000
REMARK SMILES CC(C)(C)OC(=O)N1C[C@@H](COCc2ccccc2)O[C@@H](C(=O)NCCCCNC(=O)c2ccc(-c3c4nc(c(-c5cccc(S(=O)(=O)[O-])c5F)c5ccc([nH]5)c(-c5cccc(S(=O)(=O)[O-])c5F)c5nc(c(-c6cccc(S(=O)(=O)[O-])c6F)c6ccc3[nH]6)C=C5)C=C4)cc2)C1
REMARK SMILES IDX 26 1 25 2 24 3 22 4 23 5 21 7 8 8 9 9 95 10 10 11 20 12 6 13
REMARK SMILES IDX 7 14 5 15 2 16 1 17 3 18 4 19 11 20 12 21 13 22 14 23 15 24
REMARK SMILES IDX 19 25 16 26 18 27 17 28 27 29 28 30 29 31 30 32 31 34 32 35
REMARK SMILES IDX 33 36 94 37 34 38 93 39 35 40 36 41 37 42 87 43 38 44 92 45
REMARK SMILES IDX 86 46 88 47 39 48 91 49 85 50 84 51 40 53 72 54 52 55 71 56
REMARK SMILES IDX 53 57 56 58 70 59 89 60 54 61 55 62 69 64 90 65 57 66 41 67
REMARK SMILES IDX 42 68 50 69 43 70 45 71 51 72 44 73 46 74 47 75 48 76 49 77
REMARK SMILES IDX 73 78 74 79 82 80 75 81 77 82 83 83 76 84 78 85 79 86 80 87
REMARK SMILES IDX 81 88 58 89 59 90 67 91 60 92 62 93 68 94 61 95 63 96 64 97
REMARK SMILES IDX 65 98 66 99
REMARK H PARENT 24 6 29 33 88 52 56 63
REMARK Flexibility Score: inf
ROOT
ATOM      1  C   UNL A   1      31.856  27.769  27.280  1.00  0.00     0.023 C 
ENDROOT
BRANCH   1   2
ATOM      2  C   UNL A   1      32.011  26.549  26.374  1.00  0.00     0.116 C 
BRANCH   2   3
ATOM      3  N   UNL A   1      31.276  25.407  26.890  1.00  0.00    -0.354 N 
ATOM      4  C   UNL A   1      31.527  24.075  26.731  1.00  0.00     0.251 C 
ATOM      5  O   UNL A   1      30.748  23.264  27.237  1.00  0.00    -0.272 OA
ATOM      6  H   UNL A   1      30.485  25.626  27.434  1.00  0.00     0.163 HD
BRANCH   4   7
ATOM      7  C   UNL A   1      32.729  23.600  25.912  1.00  0.00     0.227 C 
ATOM      8  N   UNL A   1      33.759  21.652  24.842  1.00  0.00    -0.302 N 
ATOM      9  C   UNL A   1      33.948  22.433  23.622  1.00  0.00     0.157 C 
ATOM     10  C   UNL A   1      32.655  22.085  25.688  1.00  0.00     0.165 C 
ATOM     11  C   UNL A   1      33.984  23.937  23.900  1.00  0.00     0.164 C 
ATOM     12  O   UNL A   1      32.825  24.323  24.673  1.00  0.00    -0.359 OA
BRANCH   8  13
ATOM     13  C   UNL A   1      34.407  20.468  25.102  1.00  0.00     0.410 C 
ATOM     14  O   UNL A   1      35.616  20.324  25.000  1.00  0.00    -0.224 OA
BRANCH  13  15
ATOM     15  O   UNL A   1      33.530  19.484  25.421  1.00  0.00    -0.444 OA
BRANCH  15  16
ATOM     16  C   UNL A   1      33.334  18.328  24.568  1.00  0.00     0.106 C 
ATOM     17  C   UNL A   1      32.518  17.353  25.429  1.00  0.00     0.056 C 
ATOM     18  C   UNL A   1      34.699  17.716  24.253  1.00  0.00     0.056 C 
ATOM     19  C   UNL A   1      32.533  18.616  23.290  1.00  0.00     0.056 C 
ENDBRANCH  15  16
ENDBRANCH  13  15
ENDBRANCH   8  13
BRANCH  11  20
ATOM     20  C   UNL A   1      34.016  24.834  22.643  1.00  0.00     0.194 C 
BRANCH  20  21
ATOM     21  O   UNL A   1      32.761  25.301  22.141  1.00  0.00    -0.374 OA
BRANCH  21  22
ATOM     22  C   UNL A   1      32.473  26.701  22.221  1.00  0.00     0.195 C 
BRANCH  22  23
ATOM     23  C   UNL A   1      31.071  27.065  22.637  1.00  0.00    -0.022 A 
ATOM     24  C   UNL A   1      30.554  28.343  22.375  1.00  0.00     0.006 A 
ATOM     25  C   UNL A   1      30.290  26.148  23.354  1.00  0.00     0.006 A 
ATOM     26  C   UNL A   1      29.291  28.705  22.844  1.00  0.00     0.000 A 
ATOM     27  C   UNL A   1      29.023  26.511  23.814  1.00  0.00     0.000 A 
ATOM     28  C   UNL A   1      28.528  27.790  23.565  1.00  0.00     0.000 A 
ENDBRANCH  22  23
ENDBRANCH  21  22
ENDBRANCH  20  21
ENDBRANCH  11  20
ENDBRANCH   4   7
ENDBRANCH   2   3
ENDBRANCH   1   2
BRANCH   1  29
ATOM     29  C   UNL A   1      31.421  29.043  26.559  1.00  0.00     0.023 C 
BRANCH  29  30
ATOM     30  C   UNL A   1      32.562  29.931  26.078  1.00  0.00     0.116 C 
BRANCH  30  31
ATOM     31  N   UNL A   1      32.375  31.332  26.425  1.00  0.00    -0.352 N 
ATOM     32  C   UNL A   1      33.136  32.123  27.252  1.00  0.00     0.251 C 
ATOM     33  H   UNL A   1      31.599  31.773  26.010  1.00  0.00     0.163 HD
ATOM     34  O   UNL A   1      32.755  33.254  27.537  1.00  0.00    -0.269 OA
BRANCH  32  35
ATOM     35  C   UNL A   1      34.394  31.594  27.820  1.00  0.00     0.039 A 
ATOM     36  C   UNL A   1      35.469  32.465  27.998  1.00  0.00     0.014 A 
ATOM     37  C   UNL A   1      34.506  30.250  28.194  1.00  0.00     0.014 A 
ATOM     38  C   UNL A   1      36.638  32.003  28.606  1.00  0.00     0.010 A 
ATOM     39  C   UNL A   1      35.640  29.813  28.870  1.00  0.00     0.010 A 
ATOM     40  C   UNL A   1      36.722  30.681  29.076  1.00  0.00    -0.014 A 
BRANCH  40  41
ATOM     41  C   UNL A   1      37.928  30.206  29.801  1.00  0.00     0.031 A 
ATOM     42  C   UNL A   1      38.207  30.665  31.207  1.00  0.00     0.074 A 
ATOM     43  C   UNL A   1      38.810  29.410  29.166  1.00  0.00     0.049 A 
ATOM     44  N   UNL A   1      39.199  30.343  31.996  1.00  0.00    -0.248 NA
ATOM     45  C   UNL A   1      37.266  31.633  31.794  1.00  0.00     0.031 C 
ATOM     46  C   UNL A   1      38.704  28.974  27.772  1.00  0.00     0.029 A 
ATOM     47  N   UNL A   1      39.978  28.840  29.605  1.00  0.00    -0.354 N 
ATOM     48  C   UNL A   1      39.018  31.084  33.157  1.00  0.00     0.074 A 
ATOM     49  C   UNL A   1      37.846  31.907  32.953  1.00  0.00     0.031 C 
ATOM     50  C   UNL A   1      39.751  28.188  27.476  1.00  0.00     0.029 A 
ATOM     51  C   UNL A   1      40.613  28.080  28.649  1.00  0.00     0.049 A 
ATOM     52  H   UNL A   1      40.329  28.961  30.516  1.00  0.00     0.167 HD
ATOM     53  C   UNL A   1      39.738  31.057  34.304  1.00  0.00     0.034 A 
ATOM     54  C   UNL A   1      41.754  27.367  28.714  1.00  0.00     0.034 A 
ATOM     55  C   UNL A   1      40.881  30.209  34.519  1.00  0.00     0.049 A 
ATOM     56  C   UNL A   1      42.504  27.308  30.017  1.00  0.00     0.074 A 
ATOM     57  C   UNL A   1      41.627  30.043  35.672  1.00  0.00     0.029 A 
ATOM     58  N   UNL A   1      41.448  29.388  33.556  1.00  0.00    -0.354 N 
ATOM     59  N   UNL A   1      42.219  27.882  31.161  1.00  0.00    -0.248 NA
ATOM     60  C   UNL A   1      43.710  26.469  30.048  1.00  0.00     0.031 C 
ATOM     61  C   UNL A   1      42.656  29.134  35.400  1.00  0.00     0.029 A 
ATOM     62  C   UNL A   1      42.537  28.716  34.085  1.00  0.00     0.049 A 
ATOM     63  H   UNL A   1      41.123  29.295  32.632  1.00  0.00     0.167 HD
ATOM     64  C   UNL A   1      43.190  27.449  32.057  1.00  0.00     0.074 A 
ATOM     65  C   UNL A   1      44.054  26.542  31.327  1.00  0.00     0.031 C 
ATOM     66  C   UNL A   1      43.362  27.783  33.360  1.00  0.00     0.034 A 
BRANCH  53  67
ATOM     67  C   UNL A   1      39.269  31.931  35.440  1.00  0.00     0.023 A 
ATOM     68  C   UNL A   1      38.346  31.416  36.375  1.00  0.00     0.012 A 
ATOM     69  C   UNL A   1      39.760  33.240  35.608  1.00  0.00     0.148 A 
ATOM     70  C   UNL A   1      37.889  32.199  37.433  1.00  0.00     0.002 A 
ATOM     71  C   UNL A   1      39.335  34.000  36.693  1.00  0.00     0.091 A 
ATOM     72  F   UNL A   1      40.619  33.724  34.699  1.00  0.00    -0.205 F 
ATOM     73  C   UNL A   1      38.390  33.487  37.596  1.00  0.00     0.022 A 
BRANCH  71  74
ATOM     74  S   UNL A   1      39.982  35.641  37.036  1.00  0.00     0.127 S 
ATOM     75  O   UNL A   1      39.273  35.986  38.268  1.00  0.00    -0.237 OA
ATOM     76  O   UNL A   1      41.411  35.380  37.209  1.00  0.00    -0.237 OA
ATOM     77  O   UNL A   1      39.652  36.452  35.873  1.00  0.00    -0.744 OA
ENDBRANCH  71  74
ENDBRANCH  53  67
BRANCH  54  78
ATOM     78  C   UNL A   1      42.201  26.574  27.535  1.00  0.00     0.023 A 
ATOM     79  C   UNL A   1      42.963  27.204  26.531  1.00  0.00     0.012 A 
ATOM     80  C   UNL A   1      41.913  25.201  27.419  1.00  0.00     0.148 A 
ATOM     81  C   UNL A   1      43.404  26.488  25.418  1.00  0.00     0.002 A 
ATOM     82  C   UNL A   1      42.401  24.481  26.334  1.00  0.00     0.091 A 
ATOM     83  F   UNL A   1      41.179  24.623  28.381  1.00  0.00    -0.205 F 
ATOM     84  C   UNL A   1      43.132  25.127  25.324  1.00  0.00     0.022 A 
BRANCH  82  85
ATOM     85  S   UNL A   1      42.213  22.701  26.196  1.00  0.00     0.127 S 
ATOM     86  O   UNL A   1      42.896  22.233  27.398  1.00  0.00    -0.237 OA
ATOM     87  O   UNL A   1      40.758  22.549  26.215  1.00  0.00    -0.237 OA
ATOM     88  O   UNL A   1      42.837  22.337  24.931  1.00  0.00    -0.744 OA
ENDBRANCH  82  85
ENDBRANCH  54  78
BRANCH  66  89
ATOM     89  C   UNL A   1      44.518  27.148  34.091  1.00  0.00     0.023 A 
ATOM     90  C   UNL A   1      45.798  27.735  34.021  1.00  0.00     0.012 A 
ATOM     91  C   UNL A   1      44.329  25.997  34.880  1.00  0.00     0.148 A 
ATOM     92  C   UNL A   1      46.879  27.162  34.690  1.00  0.00     0.002 A 
ATOM     93  C   UNL A   1      45.401  25.460  35.584  1.00  0.00     0.091 A 
ATOM     94  F   UNL A   1      43.110  25.438  34.920  1.00  0.00    -0.205 F 
ATOM     95  C   UNL A   1      46.679  26.033  35.479  1.00  0.00     0.022 A 
BRANCH  93  96
ATOM     96  S   UNL A   1      45.210  24.064  36.698  1.00  0.00     0.127 S 
ATOM     97  O   UNL A   1      44.707  23.029  35.797  1.00  0.00    -0.237 OA
ATOM     98  O   UNL A   1      46.578  23.849  37.172  1.00  0.00    -0.237 OA
ATOM     99  O   UNL A   1      44.282  24.507  37.730  1.00  0.00    -0.744 OA
ENDBRANCH  93  96
ENDBRANCH  66  89
ENDBRANCH  40  41
ENDBRANCH  32  35
ENDBRANCH  30  31
ENDBRANCH  29  30
ENDBRANCH   1  29
TORSDOF 21
ENDMDL
MODEL 2
REMARK VINA RESULT:     -11.5      2.267      3.400
REMARK SMILES CC(C)(C)OC(=O)N1C[C@@H](COCc2ccccc2)O[C@@H](C(=O)NCCCCNC(=O)c2ccc(-c3c4nc(c(-c5cccc(S(=O)(=O)[O-])c5F)c5ccc([nH]5)c(-c5cccc(S(=O)(=O)[O-])c5F)c5nc(c(-c6cccc(S(=O)(=O)[O-])c6F)c6ccc3[nH]6)C=C5)C=C4)cc2)C1
REMARK SMILES IDX 26 1 25 2 24 3 22 4 23 5 21 7 8 8 9 9 95 10 10 11 20 12 6 13
REMARK SMILES IDX 7 14 5 15 2 16 1 17 3 18 4 19 11 20 12 21 13 22 14 23 15 24
REMARK SMILES IDX 19 25 16 26 18 27 17 28 27 29 28 30 29 31 30 32 31 34 32 35
REMARK SMILES IDX 33 36 94 37 34 38 93 39 35 40 36 41 37 42 87 43 38 44 92 45
REMARK SMILES IDX 86 46 88 47 39 48 91 49 85 50 84 51 40 53 72 54 52 55 71 56
REMARK SMILES IDX 53 57 56 58 70 59 89 60 54 61 55 62 69 64 90 65 57 66 41 67
REMARK SMILES IDX 42 68 50 69 43 70 45 71 51 72 44 73 46 74 47 75 48 76 49 77
REMARK SMILES IDX 73 78 74 79 82 80 75 81 77 82 83 83 76 84 78 85 79 86 80 87
REMARK SMILES IDX 81 88 58 89 59 90 67 91 60 92 62 93 68 94 61 95 63 96 64 97
REMARK SMILES IDX 65 98 66 99
REMARK H PARENT 24 6 29 33 88 52 56 63
REMARK Flexibility Score: inf
ROOT
ATOM      1  C   UNL A   1      34.520  31.459  27.679  1.00  0.00     0.023 C 
ENDROOT
BRANCH   1   2
ATOM      2  C   UNL A   1      34.246  30.065  27.119  1.00  0.00     0.116 C 
BRANCH   2   3
ATOM      3  N   UNL A   1      33.075  29.465  27.735  1.00  0.00    -0.354 N 
ATOM      4  C   UNL A   1      32.298  28.435  27.292  1.00  0.00     0.251 C 
ATOM      5  O   UNL A   1      31.321  28.101  27.967  1.00  0.00    -0.272 OA
ATOM      6  H   UNL A   1      32.804  29.859  28.596  1.00  0.00     0.163 HD
BRANCH   4   7
ATOM      7  C   UNL A   1      32.614  27.732  25.970  1.00  0.00     0.227 C 
ATOM      8  N   UNL A   1      32.659  25.562  24.835  1.00  0.00    -0.302 N 
ATOM      9  C   UNL A   1      31.942  26.148  23.705  1.00  0.00     0.157 C 
ATOM     10  C   UNL A   1      32.434  26.217  26.117  1.00  0.00     0.165 C 
ATOM     11  C   UNL A   1      32.133  27.664  23.626  1.00  0.00     0.164 C 
ATOM     12  O   UNL A   1      31.818  28.268  24.901  1.00  0.00    -0.359 OA
BRANCH   8  13
ATOM     13  C   UNL A   1      33.330  24.363  24.779  1.00  0.00     0.410 C 
ATOM     14  O   UNL A   1      34.547  24.269  24.812  1.00  0.00    -0.224 OA
BRANCH  13  15
ATOM     15  O   UNL A   1      32.473  23.324  24.621  1.00  0.00    -0.444 OA
BRANCH  15  16
ATOM     16  C   UNL A   1      32.055  22.501  25.739  1.00  0.00     0.106 C 
ATOM     17  C   UNL A   1      32.129  21.064  25.202  1.00  0.00     0.056 C 
ATOM     18  C   UNL A   1      30.606  22.845  26.084  1.00  0.00     0.056 C 
ATOM     19  C   UNL A   1      32.968  22.595  26.968  1.00  0.00     0.056 C 
ENDBRANCH  15  16
ENDBRANCH  13  15
ENDBRANCH   8  13
BRANCH  11  20
ATOM     20  C   UNL A   1      31.274  28.376  22.557  1.00  0.00     0.194 C 
BRANCH  20  21
ATOM     21  O   UNL A   1      29.930  27.920  22.388  1.00  0.00    -0.374 OA
BRANCH  21  22
ATOM     22  C   UNL A   1      28.877  28.651  23.024  1.00  0.00     0.195 C 
BRANCH  22  23
ATOM     23  C   UNL A   1      28.694  30.077  22.571  1.00  0.00    -0.022 A 
ATOM     24  C   UNL A   1      28.819  31.140  23.479  1.00  0.00     0.006 A 
ATOM     25  C   UNL A   1      28.326  30.352  21.247  1.00  0.00     0.006 A 
ATOM     26  C   UNL A   1      28.556  32.449  23.075  1.00  0.00     0.000 A 
ATOM     27  C   UNL A   1      28.073  31.664  20.845  1.00  0.00     0.000 A 
ATOM     28  C   UNL A   1      28.181  32.710  21.760  1.00  0.00     0.000 A 
ENDBRANCH  22  23
ENDBRANCH  21  22
ENDBRANCH  20  21
ENDBRANCH  11  20
ENDBRANCH   4   7
ENDBRANCH   2   3
ENDBRANCH   1   2
BRANCH   1  29
ATOM     29  C   UNL A   1      33.268  32.270  28.003  1.00  0.00     0.023 C 
BRANCH  29  30
ATOM     30  C   UNL A   1      33.368  33.759  27.693  1.00  0.00     0.116 C 
BRANCH  30  31
ATOM     31  N   UNL A   1      32.929  34.598  28.797  1.00  0.00    -0.352 N 
ATOM     32  C   UNL A   1      33.401  34.641  30.087  1.00  0.00     0.251 C 
ATOM     33  H   UNL A   1      32.195  35.222  28.592  1.00  0.00     0.163 HD
ATOM     34  O   UNL A   1      32.822  35.321  30.928  1.00  0.00    -0.269 OA
BRANCH  32  35
ATOM     35  C   UNL A   1      34.585  33.839  30.461  1.00  0.00     0.039 A 
ATOM     36  C   UNL A   1      35.835  34.219  29.970  1.00  0.00     0.014 A 
ATOM     37  C   UNL A   1      34.467  32.732  31.308  1.00  0.00     0.014 A 
ATOM     38  C   UNL A   1      36.975  33.523  30.375  1.00  0.00     0.010 A 
ATOM     39  C   UNL A   1      35.612  32.092  31.772  1.00  0.00     0.010 A 
ATOM     40  C   UNL A   1      36.877  32.473  31.304  1.00  0.00    -0.014 A 
BRANCH  40  41
ATOM     41  C   UNL A   1      38.093  31.785  31.807  1.00  0.00     0.031 A 
ATOM     42  C   UNL A   1      38.716  32.188  33.116  1.00  0.00     0.074 A 
ATOM     43  C   UNL A   1      38.677  30.837  31.049  1.00  0.00     0.049 A 
ATOM     44  N   UNL A   1      39.766  31.690  33.717  1.00  0.00    -0.248 NA
ATOM     45  C   UNL A   1      38.098  33.317  33.832  1.00  0.00     0.031 C 
ATOM     46  C   UNL A   1      38.227  30.423  29.718  1.00  0.00     0.029 A 
ATOM     47  N   UNL A   1      39.784  30.060  31.282  1.00  0.00    -0.354 N 
ATOM     48  C   UNL A   1      39.950  32.456  34.861  1.00  0.00     0.074 A 
ATOM     49  C   UNL A   1      38.930  33.482  34.849  1.00  0.00     0.031 C 
ATOM     50  C   UNL A   1      39.038  29.455  29.261  1.00  0.00     0.029 A 
ATOM     51  C   UNL A   1      40.074  29.193  30.254  1.00  0.00     0.049 A 
ATOM     52  H   UNL A   1      40.320  30.117  32.105  1.00  0.00     0.167 HD
ATOM     53  C   UNL A   1      40.860  32.300  35.852  1.00  0.00     0.034 A 
ATOM     54  C   UNL A   1      41.058  28.280  30.131  1.00  0.00     0.034 A 
ATOM     55  C   UNL A   1      41.849  31.255  35.880  1.00  0.00     0.049 A 
ATOM     56  C   UNL A   1      42.021  28.088  31.270  1.00  0.00     0.074 A 
ATOM     57  C   UNL A   1      42.760  30.957  36.878  1.00  0.00     0.029 A 
ATOM     58  N   UNL A   1      42.062  30.339  34.861  1.00  0.00    -0.354 N 
ATOM     59  N   UNL A   1      42.071  28.708  32.424  1.00  0.00    -0.248 NA
ATOM     60  C   UNL A   1      43.038  27.039  31.106  1.00  0.00     0.031 C 
ATOM     61  C   UNL A   1      43.536  29.872  36.453  1.00  0.00     0.029 A 
ATOM     62  C   UNL A   1      43.092  29.479  35.201  1.00  0.00     0.049 A 
ATOM     63  H   UNL A   1      41.553  30.305  34.019  1.00  0.00     0.167 HD
ATOM     64  C   UNL A   1      43.101  28.105  33.137  1.00  0.00     0.074 A 
ATOM     65  C   UNL A   1      43.629  27.051  32.294  1.00  0.00     0.031 C 
ATOM     66  C   UNL A   1      43.578  28.406  34.370  1.00  0.00     0.034 A 
BRANCH  53  67
ATOM     67  C   UNL A   1      40.785  33.250  37.020  1.00  0.00     0.023 A 
ATOM     68  C   UNL A   1      39.803  33.049  38.014  1.00  0.00     0.012 A 
ATOM     69  C   UNL A   1      41.698  34.313  37.160  1.00  0.00     0.148 A 
ATOM     70  C   UNL A   1      39.704  33.912  39.104  1.00  0.00     0.002 A 
ATOM     71  C   UNL A   1      41.623  35.142  38.275  1.00  0.00     0.091 A 
ATOM     72  F   UNL A   1      42.611  34.505  36.198  1.00  0.00    -0.205 F 
ATOM     73  C   UNL A   1      40.619  34.952  39.239  1.00  0.00     0.022 A 
BRANCH  71  74
ATOM     74  S   UNL A   1      42.805  36.460  38.580  1.00  0.00     0.127 S 
ATOM     75  O   UNL A   1      44.056  35.713  38.702  1.00  0.00    -0.237 OA
ATOM     76  O   UNL A   1      42.692  37.264  37.363  1.00  0.00    -0.237 OA
ATOM     77  O   UNL A   1      42.352  37.129  39.791  1.00  0.00    -0.744 OA
ENDBRANCH  71  74
ENDBRANCH  53  67
BRANCH  54  78
ATOM     78  C   UNL A   1      41.118  27.414  28.920  1.00  0.00     0.023 A 
ATOM     79  C   UNL A   1      40.212  26.342  28.796  1.00  0.00     0.012 A 
ATOM     80  C   UNL A   1      42.033  27.663  27.881  1.00  0.00     0.148 A 
ATOM     81  C   UNL A   1      40.236  25.516  27.672  1.00  0.00     0.002 A 
ATOM     82  C   UNL A   1      42.017  26.869  26.739  1.00  0.00     0.091 A 
ATOM     83  F   UNL A   1      42.893  28.682  28.022  1.00  0.00    -0.205 F 
ATOM     84  C   UNL A   1      41.130  25.785  26.641  1.00  0.00     0.022 A 
BRANCH  82  85
ATOM     85  S   UNL A   1      43.040  27.220  25.306  1.00  0.00     0.127 S 
ATOM     86  O   UNL A   1      43.008  25.944  24.596  1.00  0.00    -0.237 OA
ATOM     87  O   UNL A   1      42.295  28.303  24.661  1.00  0.00    -0.237 OA
ATOM     88  O   UNL A   1      44.337  27.618  25.836  1.00  0.00    -0.744 OA
ENDBRANCH  82  85
ENDBRANCH  54  78
BRANCH  66  89
ATOM     89  C   UNL A   1      44.718  27.570  34.895  1.00  0.00     0.023 A 
ATOM     90  C   UNL A   1      46.047  28.004  34.710  1.00  0.00     0.012 A 
ATOM     91  C   UNL A   1      44.473  26.379  35.606  1.00  0.00     0.148 A 
ATOM     92  C   UNL A   1      47.114  27.243  35.188  1.00  0.00     0.002 A 
ATOM     93  C   UNL A   1      45.541  25.652  36.121  1.00  0.00     0.091 A 
ATOM     94  F   UNL A   1      43.205  25.969  35.754  1.00  0.00    -0.205 F 
ATOM     95  C   UNL A   1      46.861  26.076  35.902  1.00  0.00     0.022 A 
BRANCH  93  96
ATOM     96  S   UNL A   1      45.299  24.188  37.134  1.00  0.00     0.127 S 
ATOM     97  O   UNL A   1      44.587  23.303  36.214  1.00  0.00    -0.237 OA
ATOM     98  O   UNL A   1      46.672  23.782  37.433  1.00  0.00    -0.237 OA
ATOM     99  O   UNL A   1      44.540  24.632  38.296  1.00  0.00    -0.744 OA
ENDBRANCH  93  96
ENDBRANCH  66  89
ENDBRANCH  40  41
ENDBRANCH  32  35
ENDBRANCH  30  31
ENDBRANCH  29  30
ENDBRANCH   1  29
TORSDOF 21
ENDMDL
MODEL 3
REMARK VINA RESULT:     -11.3      4.380      9.451
REMARK SMILES CC(C)(C)OC(=O)N1C[C@@H](COCc2ccccc2)O[C@@H](C(=O)NCCCCNC(=O)c2ccc(-c3c4nc(c(-c5cccc(S(=O)(=O)[O-])c5F)c5ccc([nH]5)c(-c5cccc(S(=O)(=O)[O-])c5F)c5nc(c(-c6cccc(S(=O)(=O)[O-])c6F)c6ccc3[nH]6)C=C5)C=C4)cc2)C1
REMARK SMILES IDX 26 1 25 2 24 3 22 4 23 5 21 7 8 8 9 9 95 10 10 11 20 12 6 13
REMARK SMILES IDX 7 14 5 15 2 16 1 17 3 18 4 19 11 20 12 21 13 22 14 23 15 24
REMARK SMILES IDX 19 25 16 26 18 27 17 28 27 29 28 30 29 31 30 32 31 34 32 35
REMARK SMILES IDX 33 36 94 37 34 38 93 39 35 40 36 41 37 42 87 43 38 44 92 45
REMARK SMILES IDX 86 46 88 47 39 48 91 49 85 50 84 51 40 53 72 54 52 55 71 56
REMARK SMILES IDX 53 57 56 58 70 59 89 60 54 61 55 62 69 64 90 65 57 66 41 67
REMARK SMILES IDX 42 68 50 69 43 70 45 71 51 72 44 73 46 74 47 75 48 76 49 77
REMARK SMILES IDX 73 78 74 79 82 80 75 81 77 82 83 83 76 84 78 85 79 86 80 87
REMARK SMILES IDX 81 88 58 89 59 90 67 91 60 92 62 93 68 94 61 95 63 96 64 97
REMARK SMILES IDX 65 98 66 99
REMARK H PARENT 24 6 29 33 88 52 56 63
REMARK Flexibility Score: inf
ROOT
ATOM      1  C   UNL A   1      34.580  22.504  24.397  1.00  0.00     0.023 C 
ENDROOT
BRANCH   1   2
ATOM      2  C   UNL A   1      33.155  23.054  24.383  1.00  0.00     0.116 C 
BRANCH   2   3
ATOM      3  N   UNL A   1      32.523  22.927  25.685  1.00  0.00    -0.354 N 
ATOM      4  C   UNL A   1      31.839  23.860  26.408  1.00  0.00     0.251 C 
ATOM      5  O   UNL A   1      31.405  23.543  27.518  1.00  0.00    -0.272 OA
ATOM      6  H   UNL A   1      32.598  22.038  26.104  1.00  0.00     0.163 HD
BRANCH   4   7
ATOM      7  C   UNL A   1      31.647  25.278  25.868  1.00  0.00     0.227 C 
ATOM      8  N   UNL A   1      32.689  27.059  24.547  1.00  0.00    -0.302 N 
ATOM      9  C   UNL A   1      31.453  27.204  23.782  1.00  0.00     0.157 C 
ATOM     10  C   UNL A   1      32.907  25.740  25.127  1.00  0.00     0.165 C 
ATOM     11  C   UNL A   1      30.234  26.700  24.558  1.00  0.00     0.164 C 
ATOM     12  O   UNL A   1      30.476  25.358  25.039  1.00  0.00    -0.359 OA
BRANCH   8  13
ATOM     13  C   UNL A   1      33.694  27.997  24.563  1.00  0.00     0.410 C 
ATOM     14  O   UNL A   1      34.168  28.495  23.554  1.00  0.00    -0.224 OA
BRANCH  13  15
ATOM     15  O   UNL A   1      34.122  28.242  25.827  1.00  0.00    -0.444 OA
BRANCH  15  16
ATOM     16  C   UNL A   1      33.423  29.156  26.708  1.00  0.00     0.106 C 
ATOM     17  C   UNL A   1      32.711  30.131  25.758  1.00  0.00     0.056 C 
ATOM     18  C   UNL A   1      34.455  29.915  27.543  1.00  0.00     0.056 C 
ATOM     19  C   UNL A   1      32.358  28.492  27.590  1.00  0.00     0.056 C 
ENDBRANCH  15  16
ENDBRANCH  13  15
ENDBRANCH   8  13
BRANCH  11  20
ATOM     20  C   UNL A   1      28.915  26.667  23.754  1.00  0.00     0.194 C 
BRANCH  20  21
ATOM     21  O   UNL A   1      28.169  27.884  23.670  1.00  0.00    -0.374 OA
BRANCH  21  22
ATOM     22  C   UNL A   1      28.035  28.514  22.393  1.00  0.00     0.195 C 
BRANCH  22  23
ATOM     23  C   UNL A   1      28.279  30.001  22.359  1.00  0.00    -0.022 A 
ATOM     24  C   UNL A   1      28.646  30.694  23.523  1.00  0.00     0.006 A 
ATOM     25  C   UNL A   1      28.072  30.721  21.175  1.00  0.00     0.006 A 
ATOM     26  C   UNL A   1      28.779  32.083  23.507  1.00  0.00     0.000 A 
ATOM     27  C   UNL A   1      28.215  32.109  21.160  1.00  0.00     0.000 A 
ATOM     28  C   UNL A   1      28.561  32.789  22.327  1.00  0.00     0.000 A 
ENDBRANCH  22  23
ENDBRANCH  21  22
ENDBRANCH  20  21
ENDBRANCH  11  20
ENDBRANCH   4   7
ENDBRANCH   2   3
ENDBRANCH   1   2
BRANCH   1  29
ATOM     29  C   UNL A   1      35.265  22.553  25.761  1.00  0.00     0.023 C 
BRANCH  29  30
ATOM     30  C   UNL A   1      36.606  23.277  25.780  1.00  0.00     0.116 C 
BRANCH  30  31
ATOM     31  N   UNL A   1      37.733  22.376  25.973  1.00  0.00    -0.352 N 
ATOM     32  C   UNL A   1      39.001  22.666  26.414  1.00  0.00     0.251 C 
ATOM     33  H   UNL A   1      37.563  21.430  25.760  1.00  0.00     0.163 HD
ATOM     34  O   UNL A   1      39.871  21.800  26.392  1.00  0.00    -0.269 OA
BRANCH  32  35
ATOM     35  C   UNL A   1      39.320  24.031  26.884  1.00  0.00     0.039 A 
ATOM     36  C   UNL A   1      39.155  24.332  28.237  1.00  0.00     0.014 A 
ATOM     37  C   UNL A   1      39.798  25.003  25.999  1.00  0.00     0.014 A 
ATOM     38  C   UNL A   1      39.525  25.591  28.713  1.00  0.00     0.010 A 
ATOM     39  C   UNL A   1      40.241  26.228  26.490  1.00  0.00     0.010 A 
ATOM     40  C   UNL A   1      40.101  26.539  27.850  1.00  0.00    -0.014 A 
BRANCH  40  41
ATOM     41  C   UNL A   1      40.578  27.847  28.366  1.00  0.00     0.031 A 
ATOM     42  C   UNL A   1      42.049  28.152  28.438  1.00  0.00     0.074 A 
ATOM     43  C   UNL A   1      39.682  28.740  28.833  1.00  0.00     0.049 A 
ATOM     44  N   UNL A   1      42.645  29.243  28.845  1.00  0.00    -0.248 NA
ATOM     45  C   UNL A   1      42.975  27.083  28.029  1.00  0.00     0.031 C 
ATOM     46  C   UNL A   1      38.236  28.526  28.907  1.00  0.00     0.029 A 
ATOM     47  N   UNL A   1      39.859  29.999  29.347  1.00  0.00    -0.354 N 
ATOM     48  C   UNL A   1      44.008  28.985  28.765  1.00  0.00     0.074 A 
ATOM     49  C   UNL A   1      44.152  27.618  28.315  1.00  0.00     0.031 C 
ATOM     50  C   UNL A   1      37.654  29.624  29.416  1.00  0.00     0.029 A 
ATOM     51  C   UNL A   1      38.685  30.610  29.723  1.00  0.00     0.049 A 
ATOM     52  H   UNL A   1      40.741  30.426  29.438  1.00  0.00     0.167 HD
ATOM     53  C   UNL A   1      45.047  29.820  29.009  1.00  0.00     0.034 A 
ATOM     54  C   UNL A   1      38.463  31.832  30.246  1.00  0.00     0.034 A 
ATOM     55  C   UNL A   1      44.900  31.191  29.420  1.00  0.00     0.049 A 
ATOM     56  C   UNL A   1      39.629  32.759  30.453  1.00  0.00     0.074 A 
ATOM     57  C   UNL A   1      45.885  32.145  29.609  1.00  0.00     0.029 A 
ATOM     58  N   UNL A   1      43.691  31.804  29.712  1.00  0.00    -0.354 N 
ATOM     59  N   UNL A   1      40.900  32.556  30.208  1.00  0.00    -0.248 NA
ATOM     60  C   UNL A   1      39.323  34.100  30.971  1.00  0.00     0.031 C 
ATOM     61  C   UNL A   1      45.271  33.329  30.033  1.00  0.00     0.029 A 
ATOM     62  C   UNL A   1      43.903  33.121  30.085  1.00  0.00     0.049 A 
ATOM     63  H   UNL A   1      42.810  31.367  29.660  1.00  0.00     0.167 HD
ATOM     64  C   UNL A   1      41.543  33.752  30.508  1.00  0.00     0.074 A 
ATOM     65  C   UNL A   1      40.514  34.682  30.928  1.00  0.00     0.031 C 
ATOM     66  C   UNL A   1      42.865  34.049  30.458  1.00  0.00     0.034 A 
BRANCH  53  67
ATOM     67  C   UNL A   1      46.437  29.285  28.776  1.00  0.00     0.023 A 
ATOM     68  C   UNL A   1      47.265  29.001  29.882  1.00  0.00     0.012 A 
ATOM     69  C   UNL A   1      46.914  29.027  27.476  1.00  0.00     0.148 A 
ATOM     70  C   UNL A   1      48.557  28.510  29.700  1.00  0.00     0.002 A 
ATOM     71  C   UNL A   1      48.186  28.493  27.304  1.00  0.00     0.091 A 
ATOM     72  F   UNL A   1      46.124  29.323  26.433  1.00  0.00    -0.205 F 
ATOM     73  C   UNL A   1      49.014  28.248  28.412  1.00  0.00     0.022 A 
BRANCH  71  74
ATOM     74  S   UNL A   1      48.836  28.045  25.689  1.00  0.00     0.127 S 
ATOM     75  O   UNL A   1      50.104  28.774  25.668  1.00  0.00    -0.237 OA
ATOM     76  O   UNL A   1      48.971  26.593  25.802  1.00  0.00    -0.237 OA
ATOM     77  O   UNL A   1      47.842  28.487  24.722  1.00  0.00    -0.744 OA
ENDBRANCH  71  74
ENDBRANCH  53  67
BRANCH  54  78
ATOM     78  C   UNL A   1      37.068  32.280  30.517  1.00  0.00     0.023 A 
ATOM     79  C   UNL A   1      36.539  32.136  31.815  1.00  0.00     0.012 A 
ATOM     80  C   UNL A   1      36.280  32.879  29.516  1.00  0.00     0.148 A 
ATOM     81  C   UNL A   1      35.239  32.552  32.104  1.00  0.00     0.002 A 
ATOM     82  C   UNL A   1      35.005  33.341  29.824  1.00  0.00     0.091 A 
ATOM     83  F   UNL A   1      36.799  32.998  28.286  1.00  0.00    -0.205 F 
ATOM     84  C   UNL A   1      34.477  33.163  31.113  1.00  0.00     0.022 A 
BRANCH  82  85
ATOM     85  S   UNL A   1      34.002  34.256  28.649  1.00  0.00     0.127 S 
ATOM     86  O   UNL A   1      33.739  33.245  27.629  1.00  0.00    -0.237 OA
ATOM     87  O   UNL A   1      32.843  34.624  29.465  1.00  0.00    -0.237 OA
ATOM     88  O   UNL A   1      34.821  35.385  28.228  1.00  0.00    -0.744 OA
ENDBRANCH  82  85
ENDBRANCH  54  78
BRANCH  66  89
ATOM     89  C   UNL A   1      43.276  35.446  30.848  1.00  0.00     0.023 A 
ATOM     90  C   UNL A   1      43.487  36.418  29.849  1.00  0.00     0.012 A 
ATOM     91  C   UNL A   1      43.411  35.808  32.202  1.00  0.00     0.148 A 
ATOM     92  C   UNL A   1      43.868  37.715  30.190  1.00  0.00     0.002 A 
ATOM     93  C   UNL A   1      43.743  37.117  32.536  1.00  0.00     0.091 A 
ATOM     94  F   UNL A   1      43.228  34.867  33.140  1.00  0.00    -0.205 F 
ATOM     95  C   UNL A   1      43.985  38.067  31.531  1.00  0.00     0.022 A 
BRANCH  93  96
ATOM     96  S   UNL A   1      43.821  37.677  34.241  1.00  0.00     0.127 S 
ATOM     97  O   UNL A   1      44.904  36.855  34.777  1.00  0.00    -0.237 OA
ATOM     98  O   UNL A   1      44.147  39.096  34.092  1.00  0.00    -0.237 OA
ATOM     99  O   UNL A   1      42.500  37.422  34.802  1.00  0.00    -0.744 OA
ENDBRANCH  93  96
ENDBRANCH  66  89
ENDBRANCH  40  41
ENDBRANCH  32  35
ENDBRANCH  30  31
ENDBRANCH  29  30
ENDBRANCH   1  29
TORSDOF 21
ENDMDL
