MODEL 1
REMARK VINA RESULT:     -11.9      0.000      0.000
REMARK SMILES COc1ccc(/C=C(/Sc2nc(C)n[nH]2)C(=O)NCCCCNC(=O)c2ccc(-c3c4nc(c(-c5cccc(S(=O)(=O)[O-])c5F)c5ccc([nH]5)c(-c5cccc(S(=O)(=O)[O-])c5F)c5nc(c(-c6cccc(S(=O)(=O)[O-])c6F)c6ccc3[nH]6)C=C5)C=C4)cc2)cc1OC
REMARK SMILES IDX 21 1 20 2 19 3 18 4 16 5 17 6 8 8 7 9 6 10 3 11 4 12 90 13
REMARK SMILES IDX 5 14 89 15 2 16 1 17 91 18 92 19 9 20 10 21 11 22 15 23
REMARK SMILES IDX 12 24 14 25 13 27 22 28 23 29 24 30 25 32 26 33 27 34 88 35
REMARK SMILES IDX 28 36 87 37 29 38 30 39 31 40 81 41 32 42 86 43 80 44 82 45
REMARK SMILES IDX 33 46 85 47 79 48 78 49 34 51 66 52 46 53 65 54 47 55 50 56
REMARK SMILES IDX 64 57 83 58 48 59 49 60 63 62 84 63 51 64 35 65 36 66 44 67
REMARK SMILES IDX 37 68 39 69 45 70 38 71 40 72 41 73 42 74 43 75 67 76 68 77
REMARK SMILES IDX 76 78 69 79 71 80 77 81 70 82 72 83 73 84 74 85 75 86 52 87
REMARK SMILES IDX 53 88 61 89 54 90 56 91 62 92 55 93 57 94 58 95 59 96 60 97
REMARK H PARENT 18 7 15 26 23 31 82 50 50 61
REMARK Flexibility Score: inf
ROOT
ATOM      1  C   UNL A   1      33.304  28.929  27.242  1.00  0.00     0.023 C 
ENDROOT
BRANCH   1   2
ATOM      2  C   UNL A   1      33.061  27.816  26.216  1.00  0.00     0.023 C 
BRANCH   2   3
ATOM      3  C   UNL A   1      31.952  26.801  26.505  1.00  0.00     0.116 C 
BRANCH   3   4
ATOM      4  N   UNL A   1      30.826  26.843  25.588  1.00  0.00    -0.352 N 
ATOM      5  C   UNL A   1      30.685  26.824  24.227  1.00  0.00     0.258 C 
ATOM      6  O   UNL A   1      29.535  26.609  23.841  1.00  0.00    -0.269 OA
ATOM      7  H   UNL A   1      29.961  26.898  26.055  1.00  0.00     0.163 HD
BRANCH   5   8
ATOM      8  C   UNL A   1      31.809  27.039  23.232  1.00  0.00     0.081 C 
ATOM      9  C   UNL A   1      32.661  26.048  22.864  1.00  0.00     0.029 C 
BRANCH   9  10
ATOM     10  C   UNL A   1      32.836  24.599  23.189  1.00  0.00    -0.020 A 
ATOM     11  C   UNL A   1      33.348  21.949  24.115  1.00  0.00     0.160 A 
ATOM     12  C   UNL A   1      32.150  22.273  23.471  1.00  0.00     0.051 A 
ATOM     13  C   UNL A   1      34.337  22.924  24.245  1.00  0.00     0.161 A 
ATOM     14  C   UNL A   1      31.913  23.573  22.990  1.00  0.00     0.012 A 
ATOM     15  C   UNL A   1      34.058  24.230  23.795  1.00  0.00     0.058 A 
BRANCH  11  16
ATOM     16  O   UNL A   1      33.548  20.646  24.487  1.00  0.00    -0.493 OA
ATOM     17  C   UNL A   1      32.578  19.773  23.899  1.00  0.00     0.278 C 
ENDBRANCH  11  16
BRANCH  13  18
ATOM     18  O   UNL A   1      35.605  22.798  24.750  1.00  0.00    -0.493 OA
ATOM     19  C   UNL A   1      36.644  22.385  23.878  1.00  0.00     0.278 C 
ENDBRANCH  13  18
ENDBRANCH   9  10
BRANCH   8  20
ATOM     20  S   UNL A   1      32.191  28.730  22.963  1.00  0.00    -0.045 SA
BRANCH  20  21
ATOM     21  C   UNL A   1      30.730  29.627  22.857  1.00  0.00     0.188 A 
ATOM     22  N   UNL A   1      29.855  30.048  23.739  1.00  0.00    -0.206 NA
ATOM     23  N   UNL A   1      30.343  30.032  21.614  1.00  0.00    -0.254 N 
ATOM     24  C   UNL A   1      28.905  30.672  22.957  1.00  0.00     0.148 A 
ATOM     25  N   UNL A   1      29.186  30.712  21.648  1.00  0.00    -0.158 NA
ATOM     26  H   UNL A   1      30.852  29.848  20.791  1.00  0.00     0.192 HD
ATOM     27  C   UNL A   1      27.652  31.239  23.499  1.00  0.00     0.092 C 
ENDBRANCH  20  21
ENDBRANCH   8  20
ENDBRANCH   5   8
ENDBRANCH   3   4
ENDBRANCH   2   3
ENDBRANCH   1   2
BRANCH   1  28
ATOM     28  C   UNL A   1      34.356  29.962  26.863  1.00  0.00     0.116 C 
BRANCH  28  29
ATOM     29  N   UNL A   1      34.207  31.245  27.556  1.00  0.00    -0.352 N 
ATOM     30  C   UNL A   1      34.857  31.664  28.711  1.00  0.00     0.251 C 
ATOM     31  H   UNL A   1      33.572  31.883  27.159  1.00  0.00     0.163 HD
ATOM     32  O   UNL A   1      34.417  32.573  29.391  1.00  0.00    -0.269 OA
BRANCH  30  33
ATOM     33  C   UNL A   1      36.109  30.980  29.085  1.00  0.00     0.039 A 
ATOM     34  C   UNL A   1      36.200  29.587  29.173  1.00  0.00     0.014 A 
ATOM     35  C   UNL A   1      37.225  31.783  29.295  1.00  0.00     0.014 A 
ATOM     36  C   UNL A   1      37.451  29.010  29.382  1.00  0.00     0.010 A 
ATOM     37  C   UNL A   1      38.468  31.215  29.318  1.00  0.00     0.010 A 
ATOM     38  C   UNL A   1      38.584  29.834  29.432  1.00  0.00    -0.014 A 
BRANCH  38  39
ATOM     39  C   UNL A   1      39.930  29.284  29.515  1.00  0.00     0.031 A 
ATOM     40  C   UNL A   1      40.442  29.061  30.893  1.00  0.00     0.074 A 
ATOM     41  C   UNL A   1      40.554  28.782  28.426  1.00  0.00     0.049 A 
ATOM     42  N   UNL A   1      41.427  29.674  31.463  1.00  0.00    -0.248 NA
ATOM     43  C   UNL A   1      39.711  28.153  31.788  1.00  0.00     0.031 C 
ATOM     44  C   UNL A   1      40.025  28.653  27.061  1.00  0.00     0.029 A 
ATOM     45  N   UNL A   1      41.732  28.108  28.353  1.00  0.00    -0.354 N 
ATOM     46  C   UNL A   1      41.591  29.059  32.702  1.00  0.00     0.074 A 
ATOM     47  C   UNL A   1      40.395  28.288  32.928  1.00  0.00     0.031 C 
ATOM     48  C   UNL A   1      40.732  27.715  26.395  1.00  0.00     0.029 A 
ATOM     49  C   UNL A   1      41.856  27.314  27.216  1.00  0.00     0.049 A 
ATOM     50  H   UNL A   1      42.435  28.177  29.040  1.00  0.00     0.167 HD
ATOM     51  C   UNL A   1      42.802  29.039  33.327  1.00  0.00     0.034 A 
ATOM     52  C   UNL A   1      42.780  26.345  27.007  1.00  0.00     0.034 A 
ATOM     53  C   UNL A   1      43.741  29.919  32.676  1.00  0.00     0.049 A 
ATOM     54  C   UNL A   1      43.919  26.636  27.909  1.00  0.00     0.074 A 
ATOM     55  C   UNL A   1      43.777  31.267  32.384  1.00  0.00     0.029 A 
ATOM     56  N   UNL A   1      44.671  29.327  31.853  1.00  0.00    -0.354 N 
ATOM     57  N   UNL A   1      44.665  27.699  27.792  1.00  0.00    -0.248 NA
ATOM     58  C   UNL A   1      43.943  25.996  29.213  1.00  0.00     0.031 C 
ATOM     59  C   UNL A   1      44.349  31.338  31.080  1.00  0.00     0.029 A 
ATOM     60  C   UNL A   1      44.700  30.045  30.688  1.00  0.00     0.049 A 
ATOM     61  H   UNL A   1      45.215  28.534  32.064  1.00  0.00     0.167 HD
ATOM     62  C   UNL A   1      44.847  28.132  29.099  1.00  0.00     0.074 A 
ATOM     63  C   UNL A   1      44.489  26.983  29.931  1.00  0.00     0.031 C 
ATOM     64  C   UNL A   1      44.967  29.461  29.391  1.00  0.00     0.034 A 
BRANCH  51  65
ATOM     65  C   UNL A   1      43.286  27.982  34.291  1.00  0.00     0.023 A 
ATOM     66  C   UNL A   1      43.818  28.429  35.523  1.00  0.00     0.012 A 
ATOM     67  C   UNL A   1      43.504  26.628  33.951  1.00  0.00     0.148 A 
ATOM     68  C   UNL A   1      44.576  27.590  36.345  1.00  0.00     0.002 A 
ATOM     69  C   UNL A   1      44.191  25.777  34.810  1.00  0.00     0.091 A 
ATOM     70  F   UNL A   1      43.169  26.183  32.738  1.00  0.00    -0.205 F 
ATOM     71  C   UNL A   1      44.758  26.259  35.992  1.00  0.00     0.022 A 
BRANCH  69  72
ATOM     72  S   UNL A   1      44.418  24.034  34.429  1.00  0.00     0.127 S 
ATOM     73  O   UNL A   1      45.194  23.582  35.581  1.00  0.00    -0.237 OA
ATOM     74  O   UNL A   1      43.036  23.556  34.386  1.00  0.00    -0.237 OA
ATOM     75  O   UNL A   1      45.101  24.003  33.143  1.00  0.00    -0.744 OA
ENDBRANCH  69  72
ENDBRANCH  51  65
BRANCH  52  76
ATOM     76  C   UNL A   1      42.635  25.053  26.297  1.00  0.00     0.023 A 
ATOM     77  C   UNL A   1      43.612  24.652  25.366  1.00  0.00     0.012 A 
ATOM     78  C   UNL A   1      41.700  24.086  26.734  1.00  0.00     0.148 A 
ATOM     79  C   UNL A   1      43.685  23.327  24.917  1.00  0.00     0.002 A 
ATOM     80  C   UNL A   1      41.770  22.773  26.278  1.00  0.00     0.091 A 
ATOM     81  F   UNL A   1      40.806  24.425  27.672  1.00  0.00    -0.205 F 
ATOM     82  C   UNL A   1      42.770  22.386  25.380  1.00  0.00     0.022 A 
BRANCH  80  83
ATOM     83  S   UNL A   1      40.631  21.510  26.858  1.00  0.00     0.127 S 
ATOM     84  O   UNL A   1      39.341  22.027  26.399  1.00  0.00    -0.237 OA
ATOM     85  O   UNL A   1      41.107  20.328  26.145  1.00  0.00    -0.237 OA
ATOM     86  O   UNL A   1      40.783  21.494  28.308  1.00  0.00    -0.744 OA
ENDBRANCH  80  83
ENDBRANCH  52  76
BRANCH  64  87
ATOM     87  C   UNL A   1      45.124  30.434  28.245  1.00  0.00     0.023 A 
ATOM     88  C   UNL A   1      44.019  30.954  27.539  1.00  0.00     0.012 A 
ATOM     89  C   UNL A   1      46.395  30.975  27.999  1.00  0.00     0.148 A 
ATOM     90  C   UNL A   1      44.180  31.970  26.593  1.00  0.00     0.002 A 
ATOM     91  C   UNL A   1      46.547  32.018  27.092  1.00  0.00     0.091 A 
ATOM     92  F   UNL A   1      47.437  30.479  28.684  1.00  0.00    -0.205 F 
ATOM     93  C   UNL A   1      45.444  32.512  26.380  1.00  0.00     0.022 A 
BRANCH  91  94
ATOM     94  S   UNL A   1      48.124  32.841  26.869  1.00  0.00     0.127 S 
ATOM     95  O   UNL A   1      48.366  33.402  28.197  1.00  0.00    -0.237 OA
ATOM     96  O   UNL A   1      49.009  31.734  26.503  1.00  0.00    -0.237 OA
ATOM     97  O   UNL A   1      47.921  33.815  25.803  1.00  0.00    -0.744 OA
ENDBRANCH  91  94
ENDBRANCH  64  87
ENDBRANCH  38  39
ENDBRANCH  30  33
ENDBRANCH  28  29
ENDBRANCH   1  28
TORSDOF 19
ENDMDL
MODEL 2
REMARK VINA RESULT:     -11.6      1.773      2.318
REMARK SMILES COc1ccc(/C=C(/Sc2nc(C)n[nH]2)C(=O)NCCCCNC(=O)c2ccc(-c3c4nc(c(-c5cccc(S(=O)(=O)[O-])c5F)c5ccc([nH]5)c(-c5cccc(S(=O)(=O)[O-])c5F)c5nc(c(-c6cccc(S(=O)(=O)[O-])c6F)c6ccc3[nH]6)C=C5)C=C4)cc2)cc1OC
REMARK SMILES IDX 21 1 20 2 19 3 18 4 16 5 17 6 8 8 7 9 6 10 3 11 4 12 90 13
REMARK SMILES IDX 5 14 89 15 2 16 1 17 91 18 92 19 9 20 10 21 11 22 15 23
REMARK SMILES IDX 12 24 14 25 13 27 22 28 23 29 24 30 25 32 26 33 27 34 88 35
REMARK SMILES IDX 28 36 87 37 29 38 30 39 31 40 81 41 32 42 86 43 80 44 82 45
REMARK SMILES IDX 33 46 85 47 79 48 78 49 34 51 66 52 46 53 65 54 47 55 50 56
REMARK SMILES IDX 64 57 83 58 48 59 49 60 63 62 84 63 51 64 35 65 36 66 44 67
REMARK SMILES IDX 37 68 39 69 45 70 38 71 40 72 41 73 42 74 43 75 67 76 68 77
REMARK SMILES IDX 76 78 69 79 71 80 77 81 70 82 72 83 73 84 74 85 75 86 52 87
REMARK SMILES IDX 53 88 61 89 54 90 56 91 62 92 55 93 57 94 58 95 59 96 60 97
REMARK H PARENT 18 7 15 26 23 31 82 50 50 61
REMARK Flexibility Score: inf
ROOT
ATOM      1  C   UNL A   1      32.711  29.153  27.161  1.00  0.00     0.023 C 
ENDROOT
BRANCH   1   2
ATOM      2  C   UNL A   1      32.111  28.474  25.925  1.00  0.00     0.023 C 
BRANCH   2   3
ATOM      3  C   UNL A   1      31.708  29.357  24.741  1.00  0.00     0.116 C 
BRANCH   3   4
ATOM      4  N   UNL A   1      31.579  28.663  23.472  1.00  0.00    -0.352 N 
ATOM      5  C   UNL A   1      30.564  28.014  22.822  1.00  0.00     0.258 C 
ATOM      6  O   UNL A   1      30.791  27.784  21.633  1.00  0.00    -0.269 OA
ATOM      7  H   UNL A   1      32.419  28.657  22.959  1.00  0.00     0.163 HD
BRANCH   5   8
ATOM      8  C   UNL A   1      29.252  27.595  23.456  1.00  0.00     0.081 C 
ATOM      9  C   UNL A   1      29.136  26.488  24.234  1.00  0.00     0.029 C 
BRANCH   9  10
ATOM     10  C   UNL A   1      30.051  25.413  24.727  1.00  0.00    -0.020 A 
ATOM     11  C   UNL A   1      32.003  23.432  25.364  1.00  0.00     0.160 A 
ATOM     12  C   UNL A   1      31.401  24.204  26.362  1.00  0.00     0.051 A 
ATOM     13  C   UNL A   1      31.591  23.589  24.040  1.00  0.00     0.161 A 
ATOM     14  C   UNL A   1      30.418  25.159  26.048  1.00  0.00     0.012 A 
ATOM     15  C   UNL A   1      30.638  24.583  23.745  1.00  0.00     0.058 A 
BRANCH  11  16
ATOM     16  O   UNL A   1      32.893  22.465  25.747  1.00  0.00    -0.493 OA
ATOM     17  C   UNL A   1      34.248  22.907  25.611  1.00  0.00     0.278 C 
ENDBRANCH  11  16
BRANCH  13  18
ATOM     18  O   UNL A   1      31.976  22.879  22.933  1.00  0.00    -0.493 OA
ATOM     19  C   UNL A   1      33.158  23.270  22.255  1.00  0.00     0.278 C 
ENDBRANCH  13  18
ENDBRANCH   9  10
BRANCH   8  20
ATOM     20  S   UNL A   1      27.850  28.373  22.744  1.00  0.00    -0.045 SA
BRANCH  20  21
ATOM     21  C   UNL A   1      28.164  30.054  22.578  1.00  0.00     0.188 A 
ATOM     22  N   UNL A   1      28.723  30.956  23.351  1.00  0.00    -0.206 NA
ATOM     23  N   UNL A   1      27.787  30.640  21.407  1.00  0.00    -0.254 N 
ATOM     24  C   UNL A   1      28.609  32.111  22.607  1.00  0.00     0.148 A 
ATOM     25  N   UNL A   1      28.069  31.952  21.391  1.00  0.00    -0.158 NA
ATOM     26  H   UNL A   1      27.359  30.158  20.661  1.00  0.00     0.192 HD
ATOM     27  C   UNL A   1      29.023  33.441  23.103  1.00  0.00     0.092 C 
ENDBRANCH  20  21
ENDBRANCH   8  20
ENDBRANCH   5   8
ENDBRANCH   3   4
ENDBRANCH   2   3
ENDBRANCH   1   2
BRANCH   1  28
ATOM     28  C   UNL A   1      33.740  30.242  26.886  1.00  0.00     0.116 C 
BRANCH  28  29
ATOM     29  N   UNL A   1      33.578  31.437  27.719  1.00  0.00    -0.352 N 
ATOM     30  C   UNL A   1      34.406  31.870  28.747  1.00  0.00     0.251 C 
ATOM     31  H   UNL A   1      32.791  31.996  27.529  1.00  0.00     0.163 HD
ATOM     32  O   UNL A   1      34.011  32.653  29.592  1.00  0.00    -0.269 OA
BRANCH  30  33
ATOM     33  C   UNL A   1      35.790  31.361  28.780  1.00  0.00     0.039 A 
ATOM     34  C   UNL A   1      36.898  32.214  28.731  1.00  0.00     0.014 A 
ATOM     35  C   UNL A   1      35.952  29.988  28.922  1.00  0.00     0.014 A 
ATOM     36  C   UNL A   1      38.169  31.672  28.920  1.00  0.00     0.010 A 
ATOM     37  C   UNL A   1      37.171  29.488  29.285  1.00  0.00     0.010 A 
ATOM     38  C   UNL A   1      38.292  30.308  29.218  1.00  0.00    -0.014 A 
BRANCH  38  39
ATOM     39  C   UNL A   1      39.575  29.709  29.557  1.00  0.00     0.031 A 
ATOM     40  C   UNL A   1      39.944  29.769  30.996  1.00  0.00     0.074 A 
ATOM     41  C   UNL A   1      40.249  28.940  28.674  1.00  0.00     0.049 A 
ATOM     42  N   UNL A   1      40.922  30.433  31.520  1.00  0.00    -0.248 NA
ATOM     43  C   UNL A   1      39.065  29.130  31.986  1.00  0.00     0.031 C 
ATOM     44  C   UNL A   1      39.834  28.542  27.321  1.00  0.00     0.029 A 
ATOM     45  N   UNL A   1      41.370  28.196  28.871  1.00  0.00    -0.354 N 
ATOM     46  C   UNL A   1      40.925  30.102  32.873  1.00  0.00     0.074 A 
ATOM     47  C   UNL A   1      39.655  29.475  33.134  1.00  0.00     0.031 C 
ATOM     48  C   UNL A   1      40.517  27.437  26.951  1.00  0.00     0.029 A 
ATOM     49  C   UNL A   1      41.527  27.163  27.952  1.00  0.00     0.049 A 
ATOM     50  H   UNL A   1      42.012  28.374  29.596  1.00  0.00     0.167 HD
ATOM     51  C   UNL A   1      42.071  30.148  33.609  1.00  0.00     0.034 A 
ATOM     52  C   UNL A   1      42.384  26.116  28.055  1.00  0.00     0.034 A 
ATOM     53  C   UNL A   1      43.133  30.801  32.885  1.00  0.00     0.049 A 
ATOM     54  C   UNL A   1      43.459  26.532  28.985  1.00  0.00     0.074 A 
ATOM     55  C   UNL A   1      43.305  32.046  32.312  1.00  0.00     0.029 A 
ATOM     56  N   UNL A   1      44.080  29.985  32.311  1.00  0.00    -0.354 N 
ATOM     57  N   UNL A   1      44.297  27.495  28.719  1.00  0.00    -0.248 NA
ATOM     58  C   UNL A   1      43.315  26.199  30.393  1.00  0.00     0.031 C 
ATOM     59  C   UNL A   1      43.994  31.788  31.091  1.00  0.00     0.029 A 
ATOM     60  C   UNL A   1      44.270  30.421  31.027  1.00  0.00     0.049 A 
ATOM     61  H   UNL A   1      44.536  29.227  32.743  1.00  0.00     0.167 HD
ATOM     62  C   UNL A   1      44.398  28.197  29.913  1.00  0.00     0.074 A 
ATOM     63  C   UNL A   1      43.875  27.286  30.932  1.00  0.00     0.031 C 
ATOM     64  C   UNL A   1      44.601  29.548  29.922  1.00  0.00     0.034 A 
BRANCH  51  65
ATOM     65  C   UNL A   1      42.380  29.305  34.824  1.00  0.00     0.023 A 
ATOM     66  C   UNL A   1      43.193  29.890  35.823  1.00  0.00     0.012 A 
ATOM     67  C   UNL A   1      42.159  27.913  34.910  1.00  0.00     0.148 A 
ATOM     68  C   UNL A   1      43.801  29.120  36.820  1.00  0.00     0.002 A 
ATOM     69  C   UNL A   1      42.702  27.165  35.949  1.00  0.00     0.091 A 
ATOM     70  F   UNL A   1      41.536  27.274  33.916  1.00  0.00    -0.205 F 
ATOM     71  C   UNL A   1      43.551  27.757  36.888  1.00  0.00     0.022 A 
BRANCH  69  72
ATOM     72  S   UNL A   1      42.375  25.405  36.116  1.00  0.00     0.127 S 
ATOM     73  O   UNL A   1      42.995  25.113  37.406  1.00  0.00    -0.237 OA
ATOM     74  O   UNL A   1      40.912  25.372  36.110  1.00  0.00    -0.237 OA
ATOM     75  O   UNL A   1      42.991  24.783  34.953  1.00  0.00    -0.744 OA
ENDBRANCH  69  72
ENDBRANCH  51  65
BRANCH  52  76
ATOM     76  C   UNL A   1      42.195  24.710  27.630  1.00  0.00     0.023 A 
ATOM     77  C   UNL A   1      40.933  24.100  27.771  1.00  0.00     0.012 A 
ATOM     78  C   UNL A   1      43.160  24.058  26.828  1.00  0.00     0.148 A 
ATOM     79  C   UNL A   1      40.627  22.906  27.105  1.00  0.00     0.002 A 
ATOM     80  C   UNL A   1      42.854  22.868  26.176  1.00  0.00     0.091 A 
ATOM     81  F   UNL A   1      44.341  24.654  26.621  1.00  0.00    -0.205 F 
ATOM     82  C   UNL A   1      41.585  22.294  26.300  1.00  0.00     0.022 A 
BRANCH  80  83
ATOM     83  S   UNL A   1      44.042  22.046  25.105  1.00  0.00     0.127 S 
ATOM     84  O   UNL A   1      45.286  22.183  25.866  1.00  0.00    -0.237 OA
ATOM     85  O   UNL A   1      43.505  20.690  25.048  1.00  0.00    -0.237 OA
ATOM     86  O   UNL A   1      44.021  22.802  23.859  1.00  0.00    -0.744 OA
ENDBRANCH  80  83
ENDBRANCH  52  76
BRANCH  64  87
ATOM     87  C   UNL A   1      44.938  30.228  28.615  1.00  0.00     0.023 A 
ATOM     88  C   UNL A   1      43.944  30.665  27.713  1.00  0.00     0.012 A 
ATOM     89  C   UNL A   1      46.270  30.601  28.381  1.00  0.00     0.148 A 
ATOM     90  C   UNL A   1      44.274  31.432  26.592  1.00  0.00     0.002 A 
ATOM     91  C   UNL A   1      46.590  31.402  27.292  1.00  0.00     0.091 A 
ATOM     92  F   UNL A   1      47.205  30.188  29.251  1.00  0.00    -0.205 F 
ATOM     93  C   UNL A   1      45.597  31.812  26.389  1.00  0.00     0.022 A 
BRANCH  91  94
ATOM     94  S   UNL A   1      48.253  32.030  27.049  1.00  0.00     0.127 S 
ATOM     95  O   UNL A   1      48.063  32.980  25.956  1.00  0.00    -0.237 OA
ATOM     96  O   UNL A   1      48.551  32.642  28.345  1.00  0.00    -0.237 OA
ATOM     97  O   UNL A   1      49.078  30.869  26.738  1.00  0.00    -0.744 OA
ENDBRANCH  91  94
ENDBRANCH  64  87
ENDBRANCH  38  39
ENDBRANCH  30  33
ENDBRANCH  28  29
ENDBRANCH   1  28
TORSDOF 19
ENDMDL
MODEL 3
REMARK VINA RESULT:     -11.5      2.218      4.133
REMARK SMILES COc1ccc(/C=C(/Sc2nc(C)n[nH]2)C(=O)NCCCCNC(=O)c2ccc(-c3c4nc(c(-c5cccc(S(=O)(=O)[O-])c5F)c5ccc([nH]5)c(-c5cccc(S(=O)(=O)[O-])c5F)c5nc(c(-c6cccc(S(=O)(=O)[O-])c6F)c6ccc3[nH]6)C=C5)C=C4)cc2)cc1OC
REMARK SMILES IDX 21 1 20 2 19 3 18 4 16 5 17 6 8 8 7 9 6 10 3 11 4 12 90 13
REMARK SMILES IDX 5 14 89 15 2 16 1 17 91 18 92 19 9 20 10 21 11 22 15 23
REMARK SMILES IDX 12 24 14 25 13 27 22 28 23 29 24 30 25 32 26 33 27 34 88 35
REMARK SMILES IDX 28 36 87 37 29 38 30 39 31 40 81 41 32 42 86 43 80 44 82 45
REMARK SMILES IDX 33 46 85 47 79 48 78 49 34 51 66 52 46 53 65 54 47 55 50 56
REMARK SMILES IDX 64 57 83 58 48 59 49 60 63 62 84 63 51 64 35 65 36 66 44 67
REMARK SMILES IDX 37 68 39 69 45 70 38 71 40 72 41 73 42 74 43 75 67 76 68 77
REMARK SMILES IDX 76 78 69 79 71 80 77 81 70 82 72 83 73 84 74 85 75 86 52 87
REMARK SMILES IDX 53 88 61 89 54 90 56 91 62 92 55 93 57 94 58 95 59 96 60 97
REMARK H PARENT 18 7 15 26 23 31 82 50 50 61
REMARK Flexibility Score: inf
ROOT
ATOM      1  C   UNL A   1      33.506  28.603  27.299  1.00  0.00     0.023 C 
ENDROOT
BRANCH   1   2
ATOM      2  C   UNL A   1      32.833  27.737  26.228  1.00  0.00     0.023 C 
BRANCH   2   3
ATOM      3  C   UNL A   1      33.119  26.233  26.232  1.00  0.00     0.116 C 
BRANCH   3   4
ATOM      4  N   UNL A   1      32.056  25.406  26.774  1.00  0.00    -0.352 N 
ATOM      5  C   UNL A   1      31.371  24.302  26.342  1.00  0.00     0.258 C 
ATOM      6  O   UNL A   1      30.717  23.738  27.221  1.00  0.00    -0.269 OA
ATOM      7  H   UNL A   1      31.757  25.711  27.662  1.00  0.00     0.163 HD
BRANCH   5   8
ATOM      8  C   UNL A   1      31.382  23.773  24.922  1.00  0.00     0.081 C 
ATOM      9  C   UNL A   1      30.924  24.495  23.867  1.00  0.00     0.029 C 
BRANCH   9  10
ATOM     10  C   UNL A   1      30.337  25.855  23.663  1.00  0.00    -0.020 A 
ATOM     11  C   UNL A   1      29.418  28.463  22.963  1.00  0.00     0.160 A 
ATOM     12  C   UNL A   1      28.565  27.531  23.560  1.00  0.00     0.051 A 
ATOM     13  C   UNL A   1      30.760  28.133  22.769  1.00  0.00     0.161 A 
ATOM     14  C   UNL A   1      29.029  26.256  23.931  1.00  0.00     0.012 A 
ATOM     15  C   UNL A   1      31.189  26.835  23.107  1.00  0.00     0.058 A 
BRANCH  11  16
ATOM     16  O   UNL A   1      28.924  29.713  22.701  1.00  0.00    -0.493 OA
ATOM     17  C   UNL A   1      27.512  29.687  22.469  1.00  0.00     0.278 C 
ENDBRANCH  11  16
BRANCH  13  18
ATOM     18  O   UNL A   1      31.777  28.920  22.293  1.00  0.00    -0.493 OA
ATOM     19  C   UNL A   1      33.108  28.603  22.664  1.00  0.00     0.278 C 
ENDBRANCH  13  18
ENDBRANCH   9  10
BRANCH   8  20
ATOM     20  S   UNL A   1      31.596  22.034  24.825  1.00  0.00    -0.045 SA
BRANCH  20  21
ATOM     21  C   UNL A   1      33.276  21.676  24.783  1.00  0.00     0.188 A 
ATOM     22  N   UNL A   1      34.359  22.405  24.647  1.00  0.00    -0.206 NA
ATOM     23  N   UNL A   1      33.633  20.369  24.931  1.00  0.00    -0.254 N 
ATOM     24  C   UNL A   1      35.367  21.464  24.664  1.00  0.00     0.148 A 
ATOM     25  N   UNL A   1      34.964  20.204  24.871  1.00  0.00    -0.158 NA
ATOM     26  H   UNL A   1      32.991  19.633  25.066  1.00  0.00     0.192 HD
ATOM     27  C   UNL A   1      36.792  21.797  24.449  1.00  0.00     0.092 C 
ENDBRANCH  20  21
ENDBRANCH   8  20
ENDBRANCH   5   8
ENDBRANCH   3   4
ENDBRANCH   2   3
ENDBRANCH   1   2
BRANCH   1  28
ATOM     28  C   UNL A   1      34.559  29.581  26.797  1.00  0.00     0.116 C 
BRANCH  28  29
ATOM     29  N   UNL A   1      34.374  30.953  27.277  1.00  0.00    -0.352 N 
ATOM     30  C   UNL A   1      34.962  31.547  28.387  1.00  0.00     0.251 C 
ATOM     31  H   UNL A   1      33.761  31.518  26.755  1.00  0.00     0.163 HD
ATOM     32  O   UNL A   1      34.487  32.546  28.897  1.00  0.00    -0.269 OA
BRANCH  30  33
ATOM     33  C   UNL A   1      36.193  30.938  28.926  1.00  0.00     0.039 A 
ATOM     34  C   UNL A   1      36.241  29.605  29.348  1.00  0.00     0.014 A 
ATOM     35  C   UNL A   1      37.332  31.735  28.945  1.00  0.00     0.014 A 
ATOM     36  C   UNL A   1      37.474  29.059  29.701  1.00  0.00     0.010 A 
ATOM     37  C   UNL A   1      38.557  31.153  29.115  1.00  0.00     0.010 A 
ATOM     38  C   UNL A   1      38.631  29.837  29.560  1.00  0.00    -0.014 A 
BRANCH  38  39
ATOM     39  C   UNL A   1      39.960  29.284  29.784  1.00  0.00     0.031 A 
ATOM     40  C   UNL A   1      40.397  29.238  31.205  1.00  0.00     0.074 A 
ATOM     41  C   UNL A   1      40.627  28.635  28.805  1.00  0.00     0.049 A 
ATOM     42  N   UNL A   1      41.364  29.907  31.741  1.00  0.00    -0.248 NA
ATOM     43  C   UNL A   1      39.604  28.466  32.172  1.00  0.00     0.031 C 
ATOM     44  C   UNL A   1      40.165  28.334  27.443  1.00  0.00     0.029 A 
ATOM     45  N   UNL A   1      41.793  27.941  28.882  1.00  0.00    -0.354 N 
ATOM     46  C   UNL A   1      41.453  29.458  33.057  1.00  0.00     0.074 A 
ATOM     47  C   UNL A   1      40.233  28.741  33.318  1.00  0.00     0.031 C 
ATOM     48  C   UNL A   1      40.884  27.307  26.943  1.00  0.00     0.029 A 
ATOM     49  C   UNL A   1      41.957  27.002  27.868  1.00  0.00     0.049 A 
ATOM     50  H   UNL A   1      42.461  28.090  29.591  1.00  0.00     0.167 HD
ATOM     51  C   UNL A   1      42.631  29.504  33.741  1.00  0.00     0.034 A 
ATOM     52  C   UNL A   1      42.871  26.001  27.836  1.00  0.00     0.034 A 
ATOM     53  C   UNL A   1      43.620  30.277  33.031  1.00  0.00     0.049 A 
ATOM     54  C   UNL A   1      43.969  26.392  28.750  1.00  0.00     0.074 A 
ATOM     55  C   UNL A   1      43.698  31.575  32.566  1.00  0.00     0.029 A 
ATOM     56  N   UNL A   1      44.577  29.569  32.342  1.00  0.00    -0.354 N 
ATOM     57  N   UNL A   1      44.741  27.421  28.534  1.00  0.00    -0.248 NA
ATOM     58  C   UNL A   1      43.913  25.930  30.127  1.00  0.00     0.031 C 
ATOM     59  C   UNL A   1      44.336  31.465  31.296  1.00  0.00     0.029 A 
ATOM     60  C   UNL A   1      44.680  30.127  31.096  1.00  0.00     0.049 A 
ATOM     61  H   UNL A   1      45.094  28.803  32.683  1.00  0.00     0.167 HD
ATOM     62  C   UNL A   1      44.866  28.019  29.781  1.00  0.00     0.074 A 
ATOM     63  C   UNL A   1      44.443  26.995  30.736  1.00  0.00     0.031 C 
ATOM     64  C   UNL A   1      44.999  29.374  29.903  1.00  0.00     0.034 A 
BRANCH  51  65
ATOM     65  C   UNL A   1      43.045  28.577  34.859  1.00  0.00     0.023 A 
ATOM     66  C   UNL A   1      43.599  29.171  36.017  1.00  0.00     0.012 A 
ATOM     67  C   UNL A   1      43.178  27.177  34.730  1.00  0.00     0.148 A 
ATOM     68  C   UNL A   1      44.300  28.420  36.966  1.00  0.00     0.002 A 
ATOM     69  C   UNL A   1      43.808  26.423  35.716  1.00  0.00     0.091 A 
ATOM     70  F   UNL A   1      42.821  26.575  33.593  1.00  0.00    -0.205 F 
ATOM     71  C   UNL A   1      44.399  27.043  36.819  1.00  0.00     0.022 A 
BRANCH  69  72
ATOM     72  S   UNL A   1      43.926  24.633  35.604  1.00  0.00     0.127 S 
ATOM     73  O   UNL A   1      42.518  24.250  35.538  1.00  0.00    -0.237 OA
ATOM     74  O   UNL A   1      44.675  24.461  34.359  1.00  0.00    -0.237 OA
ATOM     75  O   UNL A   1      44.649  24.216  36.798  1.00  0.00    -0.744 OA
ENDBRANCH  69  72
ENDBRANCH  51  65
BRANCH  52  76
ATOM     76  C   UNL A   1      42.734  24.629  27.295  1.00  0.00     0.023 A 
ATOM     77  C   UNL A   1      41.469  24.009  27.273  1.00  0.00     0.012 A 
ATOM     78  C   UNL A   1      43.774  24.039  26.541  1.00  0.00     0.148 A 
ATOM     79  C   UNL A   1      41.236  22.866  26.496  1.00  0.00     0.002 A 
ATOM     80  C   UNL A   1      43.541  22.898  25.779  1.00  0.00     0.091 A 
ATOM     81  F   UNL A   1      44.965  24.650  26.490  1.00  0.00    -0.205 F 
ATOM     82  C   UNL A   1      42.270  22.316  25.742  1.00  0.00     0.022 A 
BRANCH  80  83
ATOM     83  S   UNL A   1      44.830  22.159  24.767  1.00  0.00     0.127 S 
ATOM     84  O   UNL A   1      45.080  23.207  23.776  1.00  0.00    -0.237 OA
ATOM     85  O   UNL A   1      45.901  21.967  25.741  1.00  0.00    -0.237 OA
ATOM     86  O   UNL A   1      44.236  20.948  24.215  1.00  0.00    -0.744 OA
ENDBRANCH  80  83
ENDBRANCH  52  76
BRANCH  64  87
ATOM     87  C   UNL A   1      45.233  30.184  28.649  1.00  0.00     0.023 A 
ATOM     88  C   UNL A   1      44.173  30.679  27.860  1.00  0.00     0.012 A 
ATOM     89  C   UNL A   1      46.539  30.613  28.366  1.00  0.00     0.148 A 
ATOM     90  C   UNL A   1      44.411  31.558  26.799  1.00  0.00     0.002 A 
ATOM     91  C   UNL A   1      46.769  31.523  27.341  1.00  0.00     0.091 A 
ATOM     92  F   UNL A   1      47.538  30.143  29.129  1.00  0.00    -0.205 F 
ATOM     93  C   UNL A   1      45.710  31.990  26.548  1.00  0.00     0.022 A 
BRANCH  91  94
ATOM     94  S   UNL A   1      48.398  32.214  27.052  1.00  0.00     0.127 S 
ATOM     95  O   UNL A   1      48.722  32.786  28.357  1.00  0.00    -0.237 OA
ATOM     96  O   UNL A   1      49.183  31.032  26.691  1.00  0.00    -0.237 OA
ATOM     97  O   UNL A   1      48.240  33.175  25.967  1.00  0.00    -0.744 OA
ENDBRANCH  91  94
ENDBRANCH  64  87
ENDBRANCH  38  39
ENDBRANCH  30  33
ENDBRANCH  28  29
ENDBRANCH   1  28
TORSDOF 19
ENDMDL
