MODEL 1
REMARK VINA RESULT:     -13.1      0.000      0.000
REMARK SMILES Cc1cc(N2CCC[C@H]2C2CCCC2)cc(C(=O)NCCCCNC(=O)c2ccc(-c3c4nc(c(-c5cccc(S(=O)(=O)[O-])c5F)c5ccc([nH]5)c(-c5cccc(S(=O)(=O)[O-])c5F)c5nc(c(-c6cccc(S(=O)(=O)[O-])c6F)c6ccc3[nH]6)C=C5)C=C4)cc2)c1N
REMARK SMILES IDX 22 1 21 2 20 3 19 4 17 5 18 6 16 8 1 9 2 10 3 11 90 12 4 13
REMARK SMILES IDX 15 14 91 15 5 18 6 19 9 20 7 21 8 22 10 23 11 24 14 25 12 26
REMARK SMILES IDX 13 27 23 28 24 29 25 30 26 32 27 33 28 34 89 35 29 36 88 37
REMARK SMILES IDX 30 38 31 39 32 40 82 41 33 42 87 43 81 44 83 45 34 46 86 47
REMARK SMILES IDX 80 48 79 49 35 51 67 52 47 53 66 54 48 55 51 56 65 57 84 58
REMARK SMILES IDX 49 59 50 60 64 62 85 63 52 64 36 65 37 66 45 67 38 68 40 69
REMARK SMILES IDX 46 70 39 71 41 72 42 73 43 74 44 75 68 76 69 77 77 78 70 79
REMARK SMILES IDX 72 80 78 81 71 82 73 83 74 84 75 85 76 86 53 87 54 88 62 89
REMARK SMILES IDX 55 90 57 91 63 92 56 93 58 94 59 95 60 96 61 97
REMARK H PARENT 19 7 91 16 91 17 24 31 83 50 51 61
REMARK Flexibility Score: inf
ROOT
ATOM      1  C   UNL A   1      31.647  30.086  25.505  1.00  0.00     0.023 C 
ENDROOT
BRANCH   1   2
ATOM      2  C   UNL A   1      31.457  28.607  25.153  1.00  0.00     0.023 C 
BRANCH   2   3
ATOM      3  C   UNL A   1      31.894  27.638  26.260  1.00  0.00     0.116 C 
BRANCH   3   4
ATOM      4  N   UNL A   1      30.862  26.651  26.512  1.00  0.00    -0.352 N 
ATOM      5  C   UNL A   1      30.687  25.338  26.159  1.00  0.00     0.253 C 
ATOM      6  O   UNL A   1      29.677  24.793  26.620  1.00  0.00    -0.269 OA
ATOM      7  H   UNL A   1      30.122  27.003  27.058  1.00  0.00     0.163 HD
BRANCH   5   8
ATOM      8  C   UNL A   1      31.625  24.532  25.304  1.00  0.00     0.065 A 
ATOM      9  C   UNL A   1      32.819  24.501  21.652  1.00  0.00     0.046 C 
ATOM     10  C   UNL A   1      32.629  24.151  23.104  1.00  0.00    -0.025 A 
ATOM     11  C   UNL A   1      33.397  23.115  23.658  1.00  0.00     0.031 A 
ATOM     12  C   UNL A   1      31.727  24.862  23.921  1.00  0.00     0.047 A 
ATOM     13  C   UNL A   1      33.339  22.795  25.020  1.00  0.00     0.038 A 
ATOM     14  C   UNL A   1      32.484  23.553  25.835  1.00  0.00     0.042 A 
BRANCH  12  15
ATOM     15  N   UNL A   1      30.843  25.772  23.321  1.00  0.00    -0.398 N 
ATOM     16  H   UNL A   1      30.717  26.667  23.712  1.00  0.00     0.156 HD
ATOM     17  H   UNL A   1      30.349  25.517  22.509  1.00  0.00     0.156 HD
ENDBRANCH  12  15
BRANCH  13  18
ATOM     18  N   UNL A   1      34.122  21.771  25.575  1.00  0.00    -0.368 N 
ATOM     19  C   UNL A   1      35.181  22.217  26.495  1.00  0.00     0.117 C 
ATOM     20  C   UNL A   1      34.677  20.754  24.635  1.00  0.00     0.085 C 
ATOM     21  C   UNL A   1      36.483  21.906  25.765  1.00  0.00     0.024 C 
ATOM     22  C   UNL A   1      36.161  20.615  25.041  1.00  0.00     0.027 C 
BRANCH  20  23
ATOM     23  C   UNL A   1      33.979  19.382  24.705  1.00  0.00     0.011 C 
ATOM     24  C   UNL A   1      32.754  19.199  23.802  1.00  0.00     0.006 C 
ATOM     25  C   UNL A   1      34.875  18.187  24.379  1.00  0.00     0.006 C 
ATOM     26  C   UNL A   1      32.564  17.693  23.762  1.00  0.00     0.000 C 
ATOM     27  C   UNL A   1      33.979  17.145  23.721  1.00  0.00     0.000 C 
ENDBRANCH  20  23
ENDBRANCH  13  18
ENDBRANCH   5   8
ENDBRANCH   3   4
ENDBRANCH   2   3
ENDBRANCH   1   2
BRANCH   1  28
ATOM     28  C   UNL A   1      32.209  30.378  26.896  1.00  0.00     0.116 C 
BRANCH  28  29
ATOM     29  N   UNL A   1      32.287  31.795  27.228  1.00  0.00    -0.352 N 
ATOM     30  C   UNL A   1      33.383  32.553  27.576  1.00  0.00     0.251 C 
ATOM     31  H   UNL A   1      31.430  32.281  27.199  1.00  0.00     0.163 HD
ATOM     32  O   UNL A   1      33.264  33.760  27.767  1.00  0.00    -0.269 OA
BRANCH  30  33
ATOM     33  C   UNL A   1      34.680  31.886  27.826  1.00  0.00     0.039 A 
ATOM     34  C   UNL A   1      35.802  32.697  28.016  1.00  0.00     0.014 A 
ATOM     35  C   UNL A   1      34.767  30.505  28.006  1.00  0.00     0.014 A 
ATOM     36  C   UNL A   1      36.977  32.140  28.525  1.00  0.00     0.010 A 
ATOM     37  C   UNL A   1      35.915  29.965  28.583  1.00  0.00     0.010 A 
ATOM     38  C   UNL A   1      37.014  30.785  28.886  1.00  0.00    -0.014 A 
BRANCH  38  39
ATOM     39  C   UNL A   1      38.143  30.234  29.678  1.00  0.00     0.031 A 
ATOM     40  C   UNL A   1      38.376  30.673  31.094  1.00  0.00     0.074 A 
ATOM     41  C   UNL A   1      39.032  29.420  29.070  1.00  0.00     0.049 A 
ATOM     42  N   UNL A   1      39.347  30.348  31.906  1.00  0.00    -0.248 NA
ATOM     43  C   UNL A   1      37.410  31.627  31.662  1.00  0.00     0.031 C 
ATOM     44  C   UNL A   1      38.974  29.002  27.666  1.00  0.00     0.029 A 
ATOM     45  N   UNL A   1      40.174  28.823  29.543  1.00  0.00    -0.354 N 
ATOM     46  C   UNL A   1      39.136  31.083  33.065  1.00  0.00     0.074 A 
ATOM     47  C   UNL A   1      37.957  31.893  32.840  1.00  0.00     0.031 C 
ATOM     48  C   UNL A   1      40.026  28.211  27.396  1.00  0.00     0.029 A 
ATOM     49  C   UNL A   1      40.845  28.084  28.595  1.00  0.00     0.049 A 
ATOM     50  H   UNL A   1      40.484  28.914  30.473  1.00  0.00     0.167 HD
ATOM     51  C   UNL A   1      39.839  31.062  34.222  1.00  0.00     0.034 A 
ATOM     52  C   UNL A   1      41.992  27.381  28.681  1.00  0.00     0.034 A 
ATOM     53  C   UNL A   1      40.974  30.214  34.461  1.00  0.00     0.049 A 
ATOM     54  C   UNL A   1      42.709  27.313  30.002  1.00  0.00     0.074 A 
ATOM     55  C   UNL A   1      41.691  30.046  35.632  1.00  0.00     0.029 A 
ATOM     56  N   UNL A   1      41.557  29.387  33.513  1.00  0.00    -0.354 N 
ATOM     57  N   UNL A   1      42.390  27.878  31.140  1.00  0.00    -0.248 NA
ATOM     58  C   UNL A   1      43.920  26.481  30.061  1.00  0.00     0.031 C 
ATOM     59  C   UNL A   1      42.712  29.119  35.391  1.00  0.00     0.029 A 
ATOM     60  C   UNL A   1      42.625  28.707  34.071  1.00  0.00     0.049 A 
ATOM     61  H   UNL A   1      41.256  29.299  32.580  1.00  0.00     0.167 HD
ATOM     62  C   UNL A   1      43.339  27.446  32.059  1.00  0.00     0.074 A 
ATOM     63  C   UNL A   1      44.233  26.555  31.348  1.00  0.00     0.031 C 
ATOM     64  C   UNL A   1      43.469  27.774  33.368  1.00  0.00     0.034 A 
BRANCH  51  65
ATOM     65  C   UNL A   1      39.349  31.936  35.346  1.00  0.00     0.023 A 
ATOM     66  C   UNL A   1      38.418  31.412  36.268  1.00  0.00     0.012 A 
ATOM     67  C   UNL A   1      39.831  33.246  35.519  1.00  0.00     0.148 A 
ATOM     68  C   UNL A   1      37.949  32.191  37.323  1.00  0.00     0.002 A 
ATOM     69  C   UNL A   1      39.387  34.005  36.597  1.00  0.00     0.091 A 
ATOM     70  F   UNL A   1      40.695  33.737  34.618  1.00  0.00    -0.205 F 
ATOM     71  C   UNL A   1      38.440  33.482  37.494  1.00  0.00     0.022 A 
BRANCH  69  72
ATOM     72  S   UNL A   1      40.015  35.653  36.937  1.00  0.00     0.127 S 
ATOM     73  O   UNL A   1      39.336  35.976  38.191  1.00  0.00    -0.237 OA
ATOM     74  O   UNL A   1      41.454  35.419  37.065  1.00  0.00    -0.237 OA
ATOM     75  O   UNL A   1      39.637  36.464  35.788  1.00  0.00    -0.744 OA
ENDBRANCH  69  72
ENDBRANCH  51  65
BRANCH  52  76
ATOM     76  C   UNL A   1      42.477  26.608  27.502  1.00  0.00     0.023 A 
ATOM     77  C   UNL A   1      43.330  27.239  26.575  1.00  0.00     0.012 A 
ATOM     78  C   UNL A   1      42.144  25.252  27.316  1.00  0.00     0.148 A 
ATOM     79  C   UNL A   1      43.821  26.541  25.470  1.00  0.00     0.002 A 
ATOM     80  C   UNL A   1      42.678  24.550  26.241  1.00  0.00     0.091 A 
ATOM     81  F   UNL A   1      41.321  24.673  28.202  1.00  0.00    -0.205 F 
ATOM     82  C   UNL A   1      43.505  25.196  25.309  1.00  0.00     0.022 A 
BRANCH  80  83
ATOM     83  S   UNL A   1      42.428  22.783  26.033  1.00  0.00     0.127 S 
ATOM     84  O   UNL A   1      43.025  22.548  24.722  1.00  0.00    -0.237 OA
ATOM     85  O   UNL A   1      43.180  22.231  27.161  1.00  0.00    -0.237 OA
ATOM     86  O   UNL A   1      40.987  22.583  26.124  1.00  0.00    -0.744 OA
ENDBRANCH  80  83
ENDBRANCH  52  76
BRANCH  64  87
ATOM     87  C   UNL A   1      44.603  27.150  34.135  1.00  0.00     0.023 A 
ATOM     88  C   UNL A   1      45.849  27.802  34.183  1.00  0.00     0.012 A 
ATOM     89  C   UNL A   1      44.410  25.967  34.874  1.00  0.00     0.148 A 
ATOM     90  C   UNL A   1      46.895  27.276  34.940  1.00  0.00     0.002 A 
ATOM     91  C   UNL A   1      45.444  25.470  35.660  1.00  0.00     0.091 A 
ATOM     92  F   UNL A   1      43.223  25.347  34.795  1.00  0.00    -0.205 F 
ATOM     93  C   UNL A   1      46.688  26.119  35.688  1.00  0.00     0.022 A 
BRANCH  91  94
ATOM     94  S   UNL A   1      45.231  24.037  36.722  1.00  0.00     0.127 S 
ATOM     95  O   UNL A   1      44.414  24.584  37.803  1.00  0.00    -0.237 OA
ATOM     96  O   UNL A   1      44.530  23.096  35.845  1.00  0.00    -0.237 OA
ATOM     97  O   UNL A   1      46.575  23.619  37.095  1.00  0.00    -0.744 OA
ENDBRANCH  91  94
ENDBRANCH  64  87
ENDBRANCH  38  39
ENDBRANCH  30  33
ENDBRANCH  28  29
ENDBRANCH   1  28
TORSDOF 17
ENDMDL
MODEL 2
REMARK VINA RESULT:     -12.8      4.837      8.285
REMARK SMILES Cc1cc(N2CCC[C@H]2C2CCCC2)cc(C(=O)NCCCCNC(=O)c2ccc(-c3c4nc(c(-c5cccc(S(=O)(=O)[O-])c5F)c5ccc([nH]5)c(-c5cccc(S(=O)(=O)[O-])c5F)c5nc(c(-c6cccc(S(=O)(=O)[O-])c6F)c6ccc3[nH]6)C=C5)C=C4)cc2)c1N
REMARK SMILES IDX 22 1 21 2 20 3 19 4 17 5 18 6 16 8 1 9 2 10 3 11 90 12 4 13
REMARK SMILES IDX 15 14 91 15 5 18 6 19 9 20 7 21 8 22 10 23 11 24 14 25 12 26
REMARK SMILES IDX 13 27 23 28 24 29 25 30 26 32 27 33 28 34 89 35 29 36 88 37
REMARK SMILES IDX 30 38 31 39 32 40 82 41 33 42 87 43 81 44 83 45 34 46 86 47
REMARK SMILES IDX 80 48 79 49 35 51 67 52 47 53 66 54 48 55 51 56 65 57 84 58
REMARK SMILES IDX 49 59 50 60 64 62 85 63 52 64 36 65 37 66 45 67 38 68 40 69
REMARK SMILES IDX 46 70 39 71 41 72 42 73 43 74 44 75 68 76 69 77 77 78 70 79
REMARK SMILES IDX 72 80 78 81 71 82 73 83 74 84 75 85 76 86 53 87 54 88 62 89
REMARK SMILES IDX 55 90 57 91 63 92 56 93 58 94 59 95 60 96 61 97
REMARK H PARENT 19 7 91 16 91 17 24 31 83 50 51 61
REMARK Flexibility Score: inf
ROOT
ATOM      1  C   UNL A   1      37.168  21.737  23.934  1.00  0.00     0.023 C 
ENDROOT
BRANCH   1   2
ATOM      2  C   UNL A   1      36.752  23.203  23.767  1.00  0.00     0.023 C 
BRANCH   2   3
ATOM      3  C   UNL A   1      35.314  23.502  24.211  1.00  0.00     0.116 C 
BRANCH   3   4
ATOM      4  N   UNL A   1      34.369  22.709  23.449  1.00  0.00    -0.352 N 
ATOM      5  C   UNL A   1      33.001  22.649  23.388  1.00  0.00     0.253 C 
ATOM      6  O   UNL A   1      32.539  21.862  22.554  1.00  0.00    -0.269 OA
ATOM      7  H   UNL A   1      34.808  22.072  22.839  1.00  0.00     0.163 HD
BRANCH   5   8
ATOM      8  C   UNL A   1      32.054  23.471  24.218  1.00  0.00     0.065 A 
ATOM      9  C   UNL A   1      29.805  22.971  27.292  1.00  0.00     0.046 C 
ATOM     10  C   UNL A   1      30.506  23.586  26.111  1.00  0.00    -0.025 A 
ATOM     11  C   UNL A   1      30.319  24.952  25.847  1.00  0.00     0.031 A 
ATOM     12  C   UNL A   1      31.367  22.831  25.290  1.00  0.00     0.047 A 
ATOM     13  C   UNL A   1      31.008  25.611  24.821  1.00  0.00     0.038 A 
ATOM     14  C   UNL A   1      31.911  24.861  24.051  1.00  0.00     0.042 A 
BRANCH  12  15
ATOM     15  N   UNL A   1      31.409  21.437  25.454  1.00  0.00    -0.398 N 
ATOM     16  H   UNL A   1      30.860  20.857  24.877  1.00  0.00     0.156 HD
ATOM     17  H   UNL A   1      31.986  21.039  26.144  1.00  0.00     0.156 HD
ENDBRANCH  12  15
BRANCH  13  18
ATOM     18  N   UNL A   1      30.833  26.981  24.571  1.00  0.00    -0.368 N 
ATOM     19  C   UNL A   1      29.645  27.330  23.777  1.00  0.00     0.117 C 
ATOM     20  C   UNL A   1      32.013  27.734  24.055  1.00  0.00     0.085 C 
ATOM     21  C   UNL A   1      30.202  27.840  22.453  1.00  0.00     0.024 C 
ATOM     22  C   UNL A   1      31.462  28.566  22.877  1.00  0.00     0.027 C 
BRANCH  20  23
ATOM     23  C   UNL A   1      32.675  28.661  25.093  1.00  0.00     0.011 C 
ATOM     24  C   UNL A   1      31.723  29.449  26.001  1.00  0.00     0.006 C 
ATOM     25  C   UNL A   1      33.634  27.966  26.059  1.00  0.00     0.006 C 
ATOM     26  C   UNL A   1      32.616  29.903  27.142  1.00  0.00     0.000 C 
ATOM     27  C   UNL A   1      33.541  28.723  27.378  1.00  0.00     0.000 C 
ENDBRANCH  20  23
ENDBRANCH  13  18
ENDBRANCH   5   8
ENDBRANCH   3   4
ENDBRANCH   2   3
ENDBRANCH   1   2
BRANCH   1  28
ATOM     28  C   UNL A   1      37.436  21.275  25.365  1.00  0.00     0.116 C 
BRANCH  28  29
ATOM     29  N   UNL A   1      38.610  20.424  25.511  1.00  0.00    -0.352 N 
ATOM     30  C   UNL A   1      39.755  20.630  26.249  1.00  0.00     0.251 C 
ATOM     31  H   UNL A   1      38.581  19.577  25.007  1.00  0.00     0.163 HD
ATOM     32  O   UNL A   1      40.625  19.765  26.296  1.00  0.00    -0.269 OA
BRANCH  30  33
ATOM     33  C   UNL A   1      39.978  21.944  26.893  1.00  0.00     0.039 A 
ATOM     34  C   UNL A   1      40.978  22.029  27.866  1.00  0.00     0.014 A 
ATOM     35  C   UNL A   1      39.319  23.093  26.455  1.00  0.00     0.014 A 
ATOM     36  C   UNL A   1      41.415  23.283  28.297  1.00  0.00     0.010 A 
ATOM     37  C   UNL A   1      39.806  24.343  26.831  1.00  0.00     0.010 A 
ATOM     38  C   UNL A   1      40.886  24.448  27.723  1.00  0.00    -0.014 A 
BRANCH  38  39
ATOM     39  C   UNL A   1      41.518  25.772  27.957  1.00  0.00     0.031 A 
ATOM     40  C   UNL A   1      40.781  26.859  28.682  1.00  0.00     0.074 A 
ATOM     41  C   UNL A   1      42.723  26.026  27.403  1.00  0.00     0.049 A 
ATOM     42  N   UNL A   1      41.154  28.091  28.914  1.00  0.00    -0.248 NA
ATOM     43  C   UNL A   1      39.437  26.532  29.185  1.00  0.00     0.031 C 
ATOM     44  C   UNL A   1      43.495  25.085  26.587  1.00  0.00     0.029 A 
ATOM     45  N   UNL A   1      43.497  27.161  27.417  1.00  0.00    -0.354 N 
ATOM     46  C   UNL A   1      40.081  28.698  29.552  1.00  0.00     0.074 A 
ATOM     47  C   UNL A   1      39.031  27.706  29.648  1.00  0.00     0.031 C 
ATOM     48  C   UNL A   1      44.633  25.677  26.187  1.00  0.00     0.029 A 
ATOM     49  C   UNL A   1      44.663  27.043  26.695  1.00  0.00     0.049 A 
ATOM     50  H   UNL A   1      43.242  27.980  27.898  1.00  0.00     0.167 HD
ATOM     51  C   UNL A   1      39.989  29.956  30.044  1.00  0.00     0.034 A 
ATOM     52  C   UNL A   1      45.648  27.934  26.468  1.00  0.00     0.034 A 
ATOM     53  C   UNL A   1      41.055  30.920  29.999  1.00  0.00     0.049 A 
ATOM     54  C   UNL A   1      45.554  29.300  27.093  1.00  0.00     0.074 A 
ATOM     55  C   UNL A   1      41.096  32.185  30.557  1.00  0.00     0.029 A 
ATOM     56  N   UNL A   1      42.270  30.725  29.361  1.00  0.00    -0.354 N 
ATOM     57  N   UNL A   1      44.603  29.796  27.847  1.00  0.00    -0.248 NA
ATOM     58  C   UNL A   1      46.684  30.214  26.869  1.00  0.00     0.031 C 
ATOM     59  C   UNL A   1      42.336  32.758  30.254  1.00  0.00     0.029 A 
ATOM     60  C   UNL A   1      43.068  31.846  29.511  1.00  0.00     0.049 A 
ATOM     61  H   UNL A   1      42.527  29.910  28.873  1.00  0.00     0.167 HD
ATOM     62  C   UNL A   1      45.033  31.065  28.215  1.00  0.00     0.074 A 
ATOM     63  C   UNL A   1      46.339  31.254  27.618  1.00  0.00     0.031 C 
ATOM     64  C   UNL A   1      44.393  31.996  28.964  1.00  0.00     0.034 A 
BRANCH  51  65
ATOM     65  C   UNL A   1      38.711  30.336  30.741  1.00  0.00     0.023 A 
ATOM     66  C   UNL A   1      38.522  29.955  32.087  1.00  0.00     0.012 A 
ATOM     67  C   UNL A   1      37.720  31.097  30.093  1.00  0.00     0.148 A 
ATOM     68  C   UNL A   1      37.354  30.295  32.764  1.00  0.00     0.002 A 
ATOM     69  C   UNL A   1      36.573  31.466  30.788  1.00  0.00     0.091 A 
ATOM     70  F   UNL A   1      37.904  31.428  28.807  1.00  0.00    -0.205 F 
ATOM     71  C   UNL A   1      36.384  31.058  32.120  1.00  0.00     0.022 A 
BRANCH  69  72
ATOM     72  S   UNL A   1      35.301  32.506  30.061  1.00  0.00     0.127 S 
ATOM     73  O   UNL A   1      34.347  32.620  31.163  1.00  0.00    -0.237 OA
ATOM     74  O   UNL A   1      36.036  33.735  29.762  1.00  0.00    -0.237 OA
ATOM     75  O   UNL A   1      34.827  31.787  28.886  1.00  0.00    -0.744 OA
ENDBRANCH  69  72
ENDBRANCH  51  65
BRANCH  52  76
ATOM     76  C   UNL A   1      46.852  27.527  25.689  1.00  0.00     0.023 A 
ATOM     77  C   UNL A   1      46.880  27.765  24.301  1.00  0.00     0.012 A 
ATOM     78  C   UNL A   1      47.978  26.953  26.310  1.00  0.00     0.148 A 
ATOM     79  C   UNL A   1      47.998  27.417  23.541  1.00  0.00     0.002 A 
ATOM     80  C   UNL A   1      49.107  26.655  25.555  1.00  0.00     0.091 A 
ATOM     81  F   UNL A   1      47.926  26.722  27.629  1.00  0.00    -0.205 F 
ATOM     82  C   UNL A   1      49.114  26.872  24.169  1.00  0.00     0.022 A 
BRANCH  80  83
ATOM     83  S   UNL A   1      50.633  26.074  26.305  1.00  0.00     0.127 S 
ATOM     84  O   UNL A   1      50.958  27.172  27.212  1.00  0.00    -0.237 OA
ATOM     85  O   UNL A   1      50.202  24.839  26.962  1.00  0.00    -0.237 OA
ATOM     86  O   UNL A   1      51.555  25.868  25.196  1.00  0.00    -0.744 OA
ENDBRANCH  80  83
ENDBRANCH  52  76
BRANCH  64  87
ATOM     87  C   UNL A   1      45.101  33.301  29.209  1.00  0.00     0.023 A 
ATOM     88  C   UNL A   1      45.901  33.452  30.357  1.00  0.00     0.012 A 
ATOM     89  C   UNL A   1      45.042  34.343  28.263  1.00  0.00     0.148 A 
ATOM     90  C   UNL A   1      46.618  34.628  30.572  1.00  0.00     0.002 A 
ATOM     91  C   UNL A   1      45.792  35.497  28.462  1.00  0.00     0.091 A 
ATOM     92  F   UNL A   1      44.255  34.190  27.188  1.00  0.00    -0.205 F 
ATOM     93  C   UNL A   1      46.574  35.644  29.619  1.00  0.00     0.022 A 
BRANCH  91  94
ATOM     94  S   UNL A   1      45.861  36.813  27.242  1.00  0.00     0.127 S 
ATOM     95  O   UNL A   1      46.273  36.087  26.042  1.00  0.00    -0.237 OA
ATOM     96  O   UNL A   1      44.479  37.294  27.218  1.00  0.00    -0.237 OA
ATOM     97  O   UNL A   1      46.822  37.779  27.755  1.00  0.00    -0.744 OA
ENDBRANCH  91  94
ENDBRANCH  64  87
ENDBRANCH  38  39
ENDBRANCH  30  33
ENDBRANCH  28  29
ENDBRANCH   1  28
TORSDOF 17
ENDMDL
MODEL 3
REMARK VINA RESULT:     -12.7      5.473      9.083
REMARK SMILES Cc1cc(N2CCC[C@H]2C2CCCC2)cc(C(=O)NCCCCNC(=O)c2ccc(-c3c4nc(c(-c5cccc(S(=O)(=O)[O-])c5F)c5ccc([nH]5)c(-c5cccc(S(=O)(=O)[O-])c5F)c5nc(c(-c6cccc(S(=O)(=O)[O-])c6F)c6ccc3[nH]6)C=C5)C=C4)cc2)c1N
REMARK SMILES IDX 22 1 21 2 20 3 19 4 17 5 18 6 16 8 1 9 2 10 3 11 90 12 4 13
REMARK SMILES IDX 15 14 91 15 5 18 6 19 9 20 7 21 8 22 10 23 11 24 14 25 12 26
REMARK SMILES IDX 13 27 23 28 24 29 25 30 26 32 27 33 28 34 89 35 29 36 88 37
REMARK SMILES IDX 30 38 31 39 32 40 82 41 33 42 87 43 81 44 83 45 34 46 86 47
REMARK SMILES IDX 80 48 79 49 35 51 67 52 47 53 66 54 48 55 51 56 65 57 84 58
REMARK SMILES IDX 49 59 50 60 64 62 85 63 52 64 36 65 37 66 45 67 38 68 40 69
REMARK SMILES IDX 46 70 39 71 41 72 42 73 43 74 44 75 68 76 69 77 77 78 70 79
REMARK SMILES IDX 72 80 78 81 71 82 73 83 74 84 75 85 76 86 53 87 54 88 62 89
REMARK SMILES IDX 55 90 57 91 63 92 56 93 58 94 59 95 60 96 61 97
REMARK H PARENT 19 7 91 16 91 17 24 31 83 50 51 61
REMARK Flexibility Score: inf
ROOT
ATOM      1  C   UNL A   1      37.887  21.448  25.367  1.00  0.00     0.023 C 
ENDROOT
BRANCH   1   2
ATOM      2  C   UNL A   1      37.423  22.844  24.937  1.00  0.00     0.023 C 
BRANCH   2   3
ATOM      3  C   UNL A   1      36.811  23.678  26.070  1.00  0.00     0.116 C 
BRANCH   3   4
ATOM      4  N   UNL A   1      35.858  22.890  26.828  1.00  0.00    -0.352 N 
ATOM      5  C   UNL A   1      34.586  22.439  26.590  1.00  0.00     0.253 C 
ATOM      6  O   UNL A   1      34.098  21.727  27.476  1.00  0.00    -0.269 OA
ATOM      7  H   UNL A   1      36.203  22.617  27.709  1.00  0.00     0.163 HD
BRANCH   5   8
ATOM      8  C   UNL A   1      33.779  22.717  25.351  1.00  0.00     0.065 A 
ATOM      9  C   UNL A   1      32.152  20.702  22.514  1.00  0.00     0.046 C 
ATOM     10  C   UNL A   1      32.619  21.839  23.383  1.00  0.00    -0.025 A 
ATOM     11  C   UNL A   1      32.225  23.147  23.058  1.00  0.00     0.031 A 
ATOM     12  C   UNL A   1      33.410  21.614  24.527  1.00  0.00     0.047 A 
ATOM     13  C   UNL A   1      32.547  24.241  23.871  1.00  0.00     0.038 A 
ATOM     14  C   UNL A   1      33.281  23.995  25.042  1.00  0.00     0.042 A 
BRANCH  12  15
ATOM     15  N   UNL A   1      33.941  20.333  24.741  1.00  0.00    -0.398 N 
ATOM     16  H   UNL A   1      33.338  19.565  24.874  1.00  0.00     0.156 HD
ATOM     17  H   UNL A   1      34.916  20.199  24.759  1.00  0.00     0.156 HD
ENDBRANCH  12  15
BRANCH  13  18
ATOM     18  N   UNL A   1      32.136  25.546  23.554  1.00  0.00    -0.368 N 
ATOM     19  C   UNL A   1      32.047  25.846  22.116  1.00  0.00     0.117 C 
ATOM     20  C   UNL A   1      32.830  26.665  24.254  1.00  0.00     0.085 C 
ATOM     21  C   UNL A   1      33.165  26.852  21.864  1.00  0.00     0.024 C 
ATOM     22  C   UNL A   1      33.170  27.675  23.136  1.00  0.00     0.027 C 
BRANCH  20  23
ATOM     23  C   UNL A   1      31.983  27.351  25.344  1.00  0.00     0.011 C 
ATOM     24  C   UNL A   1      32.421  27.109  26.794  1.00  0.00     0.006 C 
ATOM     25  C   UNL A   1      31.887  28.871  25.224  1.00  0.00     0.006 C 
ATOM     26  C   UNL A   1      31.710  28.206  27.567  1.00  0.00     0.000 C 
ATOM     27  C   UNL A   1      31.779  29.410  26.645  1.00  0.00     0.000 C 
ENDBRANCH  20  23
ENDBRANCH  13  18
ENDBRANCH   5   8
ENDBRANCH   3   4
ENDBRANCH   2   3
ENDBRANCH   1   2
BRANCH   1  28
ATOM     28  C   UNL A   1      39.243  21.378  26.069  1.00  0.00     0.116 C 
BRANCH  28  29
ATOM     29  N   UNL A   1      39.939  20.109  25.906  1.00  0.00    -0.352 N 
ATOM     30  C   UNL A   1      41.263  19.801  26.130  1.00  0.00     0.251 C 
ATOM     31  H   UNL A   1      39.381  19.361  25.588  1.00  0.00     0.163 HD
ATOM     32  O   UNL A   1      41.663  18.649  25.991  1.00  0.00    -0.269 OA
BRANCH  30  33
ATOM     33  C   UNL A   1      42.221  20.888  26.432  1.00  0.00     0.039 A 
ATOM     34  C   UNL A   1      42.707  21.643  25.360  1.00  0.00     0.014 A 
ATOM     35  C   UNL A   1      42.529  21.247  27.745  1.00  0.00     0.014 A 
ATOM     36  C   UNL A   1      43.383  22.838  25.609  1.00  0.00     0.010 A 
ATOM     37  C   UNL A   1      43.138  22.475  27.991  1.00  0.00     0.010 A 
ATOM     38  C   UNL A   1      43.533  23.301  26.925  1.00  0.00    -0.014 A 
BRANCH  38  39
ATOM     39  C   UNL A   1      43.994  24.685  27.202  1.00  0.00     0.031 A 
ATOM     40  C   UNL A   1      43.047  25.721  27.732  1.00  0.00     0.074 A 
ATOM     41  C   UNL A   1      45.253  25.035  26.858  1.00  0.00     0.049 A 
ATOM     42  N   UNL A   1      43.262  26.989  27.967  1.00  0.00    -0.248 NA
ATOM     43  C   UNL A   1      41.668  25.284  28.006  1.00  0.00     0.031 C 
ATOM     44  C   UNL A   1      46.238  24.146  26.237  1.00  0.00     0.029 A 
ATOM     45  N   UNL A   1      45.909  26.238  26.953  1.00  0.00    -0.354 N 
ATOM     46  C   UNL A   1      42.043  27.512  28.376  1.00  0.00     0.074 A 
ATOM     47  C   UNL A   1      41.084  26.428  28.333  1.00  0.00     0.031 C 
ATOM     48  C   UNL A   1      47.373  24.830  26.016  1.00  0.00     0.029 A 
ATOM     49  C   UNL A   1      47.191  26.208  26.454  1.00  0.00     0.049 A 
ATOM     50  H   UNL A   1      45.500  27.045  27.341  1.00  0.00     0.167 HD
ATOM     51  C   UNL A   1      41.755  28.771  28.782  1.00  0.00     0.034 A 
ATOM     52  C   UNL A   1      48.119  27.181  26.362  1.00  0.00     0.034 A 
ATOM     53  C   UNL A   1      42.722  29.829  28.880  1.00  0.00     0.049 A 
ATOM     54  C   UNL A   1      47.796  28.551  26.894  1.00  0.00     0.074 A 
ATOM     55  C   UNL A   1      42.551  31.110  29.375  1.00  0.00     0.029 A 
ATOM     56  N   UNL A   1      44.045  29.730  28.476  1.00  0.00    -0.354 N 
ATOM     57  N   UNL A   1      46.685  28.978  27.443  1.00  0.00    -0.248 NA
ATOM     58  C   UNL A   1      48.862  29.560  26.828  1.00  0.00     0.031 C 
ATOM     59  C   UNL A   1      43.771  31.787  29.267  1.00  0.00     0.029 A 
ATOM     60  C   UNL A   1      44.702  30.926  28.710  1.00  0.00     0.049 A 
ATOM     61  H   UNL A   1      44.456  28.928  28.080  1.00  0.00     0.167 HD
ATOM     62  C   UNL A   1      46.928  30.294  27.820  1.00  0.00     0.074 A 
ATOM     63  C   UNL A   1      48.299  30.586  27.453  1.00  0.00     0.031 C 
ATOM     64  C   UNL A   1      46.085  31.184  28.398  1.00  0.00     0.034 A 
BRANCH  51  65
ATOM     65  C   UNL A   1      40.343  29.050  29.225  1.00  0.00     0.023 A 
ATOM     66  C   UNL A   1      39.381  29.419  28.262  1.00  0.00     0.012 A 
ATOM     67  C   UNL A   1      39.956  28.909  30.570  1.00  0.00     0.148 A 
ATOM     68  C   UNL A   1      38.065  29.678  28.636  1.00  0.00     0.002 A 
ATOM     69  C   UNL A   1      38.631  29.132  30.931  1.00  0.00     0.091 A 
ATOM     70  F   UNL A   1      40.889  28.583  31.477  1.00  0.00    -0.205 F 
ATOM     71  C   UNL A   1      37.687  29.525  29.967  1.00  0.00     0.022 A 
BRANCH  69  72
ATOM     72  S   UNL A   1      38.037  28.893  32.609  1.00  0.00     0.127 S 
ATOM     73  O   UNL A   1      36.648  29.335  32.498  1.00  0.00    -0.237 OA
ATOM     74  O   UNL A   1      38.205  27.452  32.798  1.00  0.00    -0.237 OA
ATOM     75  O   UNL A   1      38.896  29.714  33.452  1.00  0.00    -0.744 OA
ENDBRANCH  69  72
ENDBRANCH  51  65
BRANCH  52  76
ATOM     76  C   UNL A   1      49.474  26.865  25.827  1.00  0.00     0.023 A 
ATOM     77  C   UNL A   1      50.382  26.158  26.640  1.00  0.00     0.012 A 
ATOM     78  C   UNL A   1      49.855  27.214  24.517  1.00  0.00     0.148 A 
ATOM     79  C   UNL A   1      51.652  25.826  26.167  1.00  0.00     0.002 A 
ATOM     80  C   UNL A   1      51.103  26.837  24.035  1.00  0.00     0.091 A 
ATOM     81  F   UNL A   1      48.983  27.899  23.764  1.00  0.00    -0.205 F 
ATOM     82  C   UNL A   1      52.009  26.155  24.863  1.00  0.00     0.022 A 
BRANCH  80  83
ATOM     83  S   UNL A   1      51.591  27.105  22.327  1.00  0.00     0.127 S 
ATOM     84  O   UNL A   1      50.395  26.683  21.604  1.00  0.00    -0.237 OA
ATOM     85  O   UNL A   1      51.850  28.546  22.304  1.00  0.00    -0.237 OA
ATOM     86  O   UNL A   1      52.779  26.284  22.130  1.00  0.00    -0.744 OA
ENDBRANCH  80  83
ENDBRANCH  52  76
BRANCH  64  87
ATOM     87  C   UNL A   1      46.620  32.557  28.700  1.00  0.00     0.023 A 
ATOM     88  C   UNL A   1      47.250  32.800  29.936  1.00  0.00     0.012 A 
ATOM     89  C   UNL A   1      46.576  33.578  27.731  1.00  0.00     0.148 A 
ATOM     90  C   UNL A   1      47.811  34.046  30.212  1.00  0.00     0.002 A 
ATOM     91  C   UNL A   1      47.174  34.805  27.998  1.00  0.00     0.091 A 
ATOM     92  F   UNL A   1      45.950  33.335  26.570  1.00  0.00    -0.205 F 
ATOM     93  C   UNL A   1      47.784  35.043  29.239  1.00  0.00     0.022 A 
BRANCH  91  94
ATOM     94  S   UNL A   1      47.262  36.110  26.766  1.00  0.00     0.127 S 
ATOM     95  O   UNL A   1      48.071  35.483  25.723  1.00  0.00    -0.237 OA
ATOM     96  O   UNL A   1      45.856  36.305  26.412  1.00  0.00    -0.237 OA
ATOM     97  O   UNL A   1      47.874  37.248  27.439  1.00  0.00    -0.744 OA
ENDBRANCH  91  94
ENDBRANCH  64  87
ENDBRANCH  38  39
ENDBRANCH  30  33
ENDBRANCH  28  29
ENDBRANCH   1  28
TORSDOF 17
ENDMDL
