MODEL 1
REMARK VINA RESULT:     -11.2      0.000      0.000
REMARK SMILES C[C@@H](C(=O)[C@H](C)[C@@H](C)C(=O)NCCCCNC(=O)c1ccc(-c2c3nc(c(-c4cccc(S(=O)(=O)[O-])c4F)c4ccc([nH]4)c(-c4cccc(S(=O)(=O)[O-])c4F)c4nc(c(-c5cccc(S(=O)(=O)[O-])c5F)c5ccc2[nH]5)C=C4)C=C3)cc1)c1ccccc1
REMARK SMILES IDX 13 1 12 2 11 3 9 4 10 5 7 7 8 8 5 9 6 10 3 11 4 12 2 13 1 14
REMARK SMILES IDX 82 15 83 16 87 17 84 18 86 19 85 20 14 21 15 22 16 23 17 24
REMARK SMILES IDX 18 26 19 27 20 28 81 29 21 30 80 31 22 32 23 33 24 34 74 35
REMARK SMILES IDX 25 36 79 37 73 38 75 39 26 40 78 41 72 42 71 43 27 45 59 46
REMARK SMILES IDX 39 47 58 48 40 49 43 50 57 51 76 52 41 53 42 54 56 56 77 57
REMARK SMILES IDX 44 58 28 59 29 60 37 61 30 62 32 63 38 64 31 65 33 66 34 67
REMARK SMILES IDX 35 68 36 69 60 70 61 71 69 72 62 73 64 74 70 75 63 76 65 77
REMARK SMILES IDX 66 78 67 79 68 80 45 81 46 82 54 83 47 84 49 85 55 86 48 87
REMARK SMILES IDX 50 88 51 89 52 90 53 91
REMARK H PARENT 11 6 16 25 75 44 43 55
REMARK Flexibility Score: inf
ROOT
ATOM      1  C   UNL A   1      32.105  30.095  26.203  1.00  0.00     0.023 C 
ENDROOT
BRANCH   1   2
ATOM      2  C   UNL A   1      31.743  29.031  27.238  1.00  0.00     0.116 C 
BRANCH   2   3
ATOM      3  N   UNL A   1      32.418  27.773  26.979  1.00  0.00    -0.356 N 
ATOM      4  C   UNL A   1      32.016  26.650  26.327  1.00  0.00     0.223 C 
ATOM      5  O   UNL A   1      32.800  25.699  26.278  1.00  0.00    -0.275 OA
ATOM      6  H   UNL A   1      33.331  27.725  27.341  1.00  0.00     0.163 HD
BRANCH   4   7
ATOM      7  C   UNL A   1      30.696  26.569  25.561  1.00  0.00     0.085 C 
ATOM      8  C   UNL A   1      29.835  25.470  26.203  1.00  0.00     0.019 C 
BRANCH   7   9
ATOM      9  C   UNL A   1      30.836  26.482  24.024  1.00  0.00     0.066 C 
ATOM     10  C   UNL A   1      30.769  25.047  23.515  1.00  0.00     0.017 C 
BRANCH   9  11
ATOM     11  C   UNL A   1      29.890  27.479  23.314  1.00  0.00     0.143 C 
ATOM     12  O   UNL A   1      28.674  27.332  23.478  1.00  0.00    -0.299 OA
BRANCH  11  13
ATOM     13  C   UNL A   1      30.442  28.596  22.404  1.00  0.00     0.083 C 
ATOM     14  C   UNL A   1      31.925  28.875  22.694  1.00  0.00     0.021 C 
BRANCH  13  15
ATOM     15  C   UNL A   1      29.627  29.893  22.514  1.00  0.00    -0.038 A 
ATOM     16  C   UNL A   1      28.958  30.393  21.385  1.00  0.00     0.004 A 
ATOM     17  C   UNL A   1      29.512  30.613  23.719  1.00  0.00     0.004 A 
ATOM     18  C   UNL A   1      28.246  31.596  21.450  1.00  0.00     0.000 A 
ATOM     19  C   UNL A   1      28.812  31.821  23.778  1.00  0.00     0.000 A 
ATOM     20  C   UNL A   1      28.185  32.316  22.641  1.00  0.00     0.000 A 
ENDBRANCH  13  15
ENDBRANCH  11  13
ENDBRANCH   9  11
ENDBRANCH   7   9
ENDBRANCH   4   7
ENDBRANCH   2   3
ENDBRANCH   1   2
BRANCH   1  21
ATOM     21  C   UNL A   1      31.796  31.530  26.630  1.00  0.00     0.023 C 
BRANCH  21  22
ATOM     22  C   UNL A   1      32.946  32.263  27.309  1.00  0.00     0.116 C 
BRANCH  22  23
ATOM     23  N   UNL A   1      32.628  33.644  27.647  1.00  0.00    -0.352 N 
ATOM     24  C   UNL A   1      33.204  34.447  28.601  1.00  0.00     0.251 C 
ATOM     25  H   UNL A   1      31.903  34.055  27.123  1.00  0.00     0.163 HD
ATOM     26  O   UNL A   1      32.741  35.560  28.835  1.00  0.00    -0.269 OA
BRANCH  24  27
ATOM     27  C   UNL A   1      34.365  33.945  29.362  1.00  0.00     0.039 A 
ATOM     28  C   UNL A   1      34.142  33.149  30.488  1.00  0.00     0.014 A 
ATOM     29  C   UNL A   1      35.667  34.223  28.937  1.00  0.00     0.014 A 
ATOM     30  C   UNL A   1      35.228  32.574  31.151  1.00  0.00     0.010 A 
ATOM     31  C   UNL A   1      36.741  33.593  29.557  1.00  0.00     0.010 A 
ATOM     32  C   UNL A   1      36.533  32.764  30.669  1.00  0.00    -0.014 A 
BRANCH  32  33
ATOM     33  C   UNL A   1      37.696  32.090  31.300  1.00  0.00     0.031 A 
ATOM     34  C   UNL A   1      38.268  32.617  32.587  1.00  0.00     0.074 A 
ATOM     35  C   UNL A   1      38.298  31.068  30.661  1.00  0.00     0.049 A 
ATOM     36  N   UNL A   1      39.316  32.206  33.253  1.00  0.00    -0.248 NA
ATOM     37  C   UNL A   1      37.593  33.779  33.191  1.00  0.00     0.031 C 
ATOM     38  C   UNL A   1      37.891  30.522  29.363  1.00  0.00     0.029 A 
ATOM     39  N   UNL A   1      39.400  30.323  31.001  1.00  0.00    -0.354 N 
ATOM     40  C   UNL A   1      39.451  33.078  34.325  1.00  0.00     0.074 A 
ATOM     41  C   UNL A   1      38.397  34.061  34.208  1.00  0.00     0.031 C 
ATOM     42  C   UNL A   1      38.727  29.530  29.021  1.00  0.00     0.029 A 
ATOM     43  C   UNL A   1      39.744  29.383  30.057  1.00  0.00     0.049 A 
ATOM     44  H   UNL A   1      39.897  30.450  31.841  1.00  0.00     0.167 HD
ATOM     45  C   UNL A   1      40.353  33.046  35.336  1.00  0.00     0.034 A 
ATOM     46  C   UNL A   1      40.764  28.503  30.031  1.00  0.00     0.034 A 
ATOM     47  C   UNL A   1      41.362  32.034  35.480  1.00  0.00     0.049 A 
ATOM     48  C   UNL A   1      41.715  28.452  31.197  1.00  0.00     0.074 A 
ATOM     49  C   UNL A   1      42.254  31.852  36.522  1.00  0.00     0.029 A 
ATOM     50  N   UNL A   1      41.618  31.034  34.556  1.00  0.00    -0.354 N 
ATOM     51  N   UNL A   1      41.719  29.174  32.291  1.00  0.00    -0.248 NA
ATOM     52  C   UNL A   1      42.780  27.440  31.142  1.00  0.00     0.031 C 
ATOM     53  C   UNL A   1      43.059  30.749  36.221  1.00  0.00     0.029 A 
ATOM     54  C   UNL A   1      42.658  30.235  34.999  1.00  0.00     0.049 A 
ATOM     55  H   UNL A   1      41.132  30.910  33.709  1.00  0.00     0.167 HD
ATOM     56  C   UNL A   1      42.760  28.682  33.070  1.00  0.00     0.074 A 
ATOM     57  C   UNL A   1      43.352  27.585  32.330  1.00  0.00     0.031 C 
ATOM     58  C   UNL A   1      43.197  29.109  34.280  1.00  0.00     0.034 A 
BRANCH  45  59
ATOM     59  C   UNL A   1      40.245  34.104  36.403  1.00  0.00     0.023 A 
ATOM     60  C   UNL A   1      40.637  35.425  36.109  1.00  0.00     0.012 A 
ATOM     61  C   UNL A   1      39.704  33.808  37.669  1.00  0.00     0.148 A 
ATOM     62  C   UNL A   1      40.524  36.430  37.068  1.00  0.00     0.002 A 
ATOM     63  C   UNL A   1      39.554  34.825  38.607  1.00  0.00     0.091 A 
ATOM     64  F   UNL A   1      39.358  32.541  37.939  1.00  0.00    -0.205 F 
ATOM     65  C   UNL A   1      39.974  36.132  38.311  1.00  0.00     0.022 A 
BRANCH  63  66
ATOM     66  S   UNL A   1      38.787  34.559  40.209  1.00  0.00     0.127 S 
ATOM     67  O   UNL A   1      39.849  33.865  40.934  1.00  0.00    -0.237 OA
ATOM     68  O   UNL A   1      38.533  35.927  40.661  1.00  0.00    -0.237 OA
ATOM     69  O   UNL A   1      37.587  33.775  39.952  1.00  0.00    -0.744 OA
ENDBRANCH  63  66
ENDBRANCH  45  59
BRANCH  46  70
ATOM     70  C   UNL A   1      40.889  27.541  28.900  1.00  0.00     0.023 A 
ATOM     71  C   UNL A   1      40.052  26.409  28.868  1.00  0.00     0.012 A 
ATOM     72  C   UNL A   1      41.803  27.749  27.850  1.00  0.00     0.148 A 
ATOM     73  C   UNL A   1      40.143  25.484  27.826  1.00  0.00     0.002 A 
ATOM     74  C   UNL A   1      41.853  26.852  26.789  1.00  0.00     0.091 A 
ATOM     75  F   UNL A   1      42.601  28.825  27.905  1.00  0.00    -0.205 F 
ATOM     76  C   UNL A   1      41.035  25.711  26.783  1.00  0.00     0.022 A 
BRANCH  74  77
ATOM     77  S   UNL A   1      42.881  27.130  25.342  1.00  0.00     0.127 S 
ATOM     78  O   UNL A   1      42.697  25.885  24.600  1.00  0.00    -0.237 OA
ATOM     79  O   UNL A   1      42.248  28.304  24.741  1.00  0.00    -0.237 OA
ATOM     80  O   UNL A   1      44.221  27.370  25.857  1.00  0.00    -0.744 OA
ENDBRANCH  74  77
ENDBRANCH  46  70
BRANCH  58  81
ATOM     81  C   UNL A   1      44.352  28.373  34.905  1.00  0.00     0.023 A 
ATOM     82  C   UNL A   1      45.672  28.776  34.624  1.00  0.00     0.012 A 
ATOM     83  C   UNL A   1      44.127  27.339  35.835  1.00  0.00     0.148 A 
ATOM     84  C   UNL A   1      46.752  28.142  35.235  1.00  0.00     0.002 A 
ATOM     85  C   UNL A   1      45.207  26.742  36.476  1.00  0.00     0.091 A 
ATOM     86  F   UNL A   1      42.865  26.956  36.074  1.00  0.00    -0.205 F 
ATOM     87  C   UNL A   1      46.519  27.136  36.170  1.00  0.00     0.022 A 
BRANCH  85  88
ATOM     88  S   UNL A   1      44.995  25.505  37.762  1.00  0.00     0.127 S 
ATOM     89  O   UNL A   1      44.354  24.417  37.026  1.00  0.00    -0.237 OA
ATOM     90  O   UNL A   1      46.375  25.236  38.168  1.00  0.00    -0.237 OA
ATOM     91  O   UNL A   1      44.178  26.135  38.791  1.00  0.00    -0.744 OA
ENDBRANCH  85  88
ENDBRANCH  58  81
ENDBRANCH  32  33
ENDBRANCH  24  27
ENDBRANCH  22  23
ENDBRANCH  21  22
ENDBRANCH   1  21
TORSDOF 18
ENDMDL
MODEL 2
REMARK VINA RESULT:     -11.1      0.620      7.900
REMARK SMILES C[C@@H](C(=O)[C@H](C)[C@@H](C)C(=O)NCCCCNC(=O)c1ccc(-c2c3nc(c(-c4cccc(S(=O)(=O)[O-])c4F)c4ccc([nH]4)c(-c4cccc(S(=O)(=O)[O-])c4F)c4nc(c(-c5cccc(S(=O)(=O)[O-])c5F)c5ccc2[nH]5)C=C4)C=C3)cc1)c1ccccc1
REMARK SMILES IDX 13 1 12 2 11 3 9 4 10 5 7 7 8 8 5 9 6 10 3 11 4 12 2 13 1 14
REMARK SMILES IDX 82 15 83 16 87 17 84 18 86 19 85 20 14 21 15 22 16 23 17 24
REMARK SMILES IDX 18 26 19 27 20 28 81 29 21 30 80 31 22 32 23 33 24 34 74 35
REMARK SMILES IDX 25 36 79 37 73 38 75 39 26 40 78 41 72 42 71 43 27 45 59 46
REMARK SMILES IDX 39 47 58 48 40 49 43 50 57 51 76 52 41 53 42 54 56 56 77 57
REMARK SMILES IDX 44 58 28 59 29 60 37 61 30 62 32 63 38 64 31 65 33 66 34 67
REMARK SMILES IDX 35 68 36 69 60 70 61 71 69 72 62 73 64 74 70 75 63 76 65 77
REMARK SMILES IDX 66 78 67 79 68 80 45 81 46 82 54 83 47 84 49 85 55 86 48 87
REMARK SMILES IDX 50 88 51 89 52 90 53 91
REMARK H PARENT 11 6 16 25 75 44 43 55
REMARK Flexibility Score: inf
ROOT
ATOM      1  C   UNL A   1      31.735  30.572  26.249  1.00  0.00     0.023 C 
ENDROOT
BRANCH   1   2
ATOM      2  C   UNL A   1      32.169  29.489  27.236  1.00  0.00     0.116 C 
BRANCH   2   3
ATOM      3  N   UNL A   1      32.986  28.474  26.599  1.00  0.00    -0.356 N 
ATOM      4  C   UNL A   1      32.654  27.357  25.899  1.00  0.00     0.223 C 
ATOM      5  O   UNL A   1      33.570  26.642  25.484  1.00  0.00    -0.275 OA
ATOM      6  H   UNL A   1      33.954  28.619  26.692  1.00  0.00     0.163 HD
BRANCH   4   7
ATOM      7  C   UNL A   1      31.214  27.025  25.510  1.00  0.00     0.085 C 
ATOM      8  C   UNL A   1      30.628  26.096  26.585  1.00  0.00     0.019 C 
BRANCH   7   9
ATOM      9  C   UNL A   1      31.024  26.547  24.052  1.00  0.00     0.066 C 
ATOM     10  C   UNL A   1      30.761  25.047  23.962  1.00  0.00     0.017 C 
BRANCH   9  11
ATOM     11  C   UNL A   1      30.016  27.440  23.292  1.00  0.00     0.143 C 
ATOM     12  O   UNL A   1      28.813  27.197  23.435  1.00  0.00    -0.299 OA
BRANCH  11  13
ATOM     13  C   UNL A   1      30.495  28.573  22.360  1.00  0.00     0.083 C 
ATOM     14  C   UNL A   1      31.966  28.932  22.623  1.00  0.00     0.021 C 
BRANCH  13  15
ATOM     15  C   UNL A   1      29.615  29.827  22.469  1.00  0.00    -0.038 A 
ATOM     16  C   UNL A   1      29.619  30.581  23.653  1.00  0.00     0.004 A 
ATOM     17  C   UNL A   1      28.792  30.267  21.412  1.00  0.00     0.004 A 
ATOM     18  C   UNL A   1      28.793  31.701  23.791  1.00  0.00     0.000 A 
ATOM     19  C   UNL A   1      27.957  31.377  21.559  1.00  0.00     0.000 A 
ATOM     20  C   UNL A   1      27.952  32.091  22.751  1.00  0.00     0.000 A 
ENDBRANCH  13  15
ENDBRANCH  11  13
ENDBRANCH   9  11
ENDBRANCH   7   9
ENDBRANCH   4   7
ENDBRANCH   2   3
ENDBRANCH   1   2
BRANCH   1  21
ATOM     21  C   UNL A   1      31.501  31.948  26.874  1.00  0.00     0.023 C 
BRANCH  21  22
ATOM     22  C   UNL A   1      32.728  32.850  26.926  1.00  0.00     0.116 C 
BRANCH  22  23
ATOM     23  N   UNL A   1      32.484  34.113  27.611  1.00  0.00    -0.352 N 
ATOM     24  C   UNL A   1      33.140  34.637  28.698  1.00  0.00     0.251 C 
ATOM     25  H   UNL A   1      31.752  34.661  27.247  1.00  0.00     0.163 HD
ATOM     26  O   UNL A   1      32.735  35.669  29.225  1.00  0.00    -0.269 OA
BRANCH  24  27
ATOM     27  C   UNL A   1      34.315  33.929  29.244  1.00  0.00     0.039 A 
ATOM     28  C   UNL A   1      35.592  34.382  28.907  1.00  0.00     0.014 A 
ATOM     29  C   UNL A   1      34.152  32.853  30.119  1.00  0.00     0.014 A 
ATOM     30  C   UNL A   1      36.710  33.794  29.503  1.00  0.00     0.010 A 
ATOM     31  C   UNL A   1      35.261  32.317  30.764  1.00  0.00     0.010 A 
ATOM     32  C   UNL A   1      36.551  32.781  30.462  1.00  0.00    -0.014 A 
BRANCH  32  33
ATOM     33  C   UNL A   1      37.716  32.204  31.179  1.00  0.00     0.031 A 
ATOM     34  C   UNL A   1      38.474  31.051  30.583  1.00  0.00     0.074 A 
ATOM     35  C   UNL A   1      38.026  32.652  32.411  1.00  0.00     0.049 A 
ATOM     36  N   UNL A   1      39.474  30.373  31.086  1.00  0.00    -0.248 NA
ATOM     37  C   UNL A   1      38.034  30.575  29.260  1.00  0.00     0.031 C 
ATOM     38  C   UNL A   1      37.310  33.706  33.135  1.00  0.00     0.029 A 
ATOM     39  N   UNL A   1      39.005  32.257  33.288  1.00  0.00    -0.354 N 
ATOM     40  C   UNL A   1      39.753  29.371  30.166  1.00  0.00     0.074 A 
ATOM     41  C   UNL A   1      38.800  29.507  29.087  1.00  0.00     0.031 C 
ATOM     42  C   UNL A   1      37.876  33.877  34.340  1.00  0.00     0.029 A 
ATOM     43  C   UNL A   1      38.977  32.930  34.488  1.00  0.00     0.049 A 
ATOM     44  H   UNL A   1      39.666  31.558  33.079  1.00  0.00     0.167 HD
ATOM     45  C   UNL A   1      40.736  28.438  30.201  1.00  0.00     0.034 A 
ATOM     46  C   UNL A   1      39.750  32.798  35.584  1.00  0.00     0.034 A 
ATOM     47  C   UNL A   1      41.716  28.343  31.247  1.00  0.00     0.049 A 
ATOM     48  C   UNL A   1      40.871  31.793  35.569  1.00  0.00     0.074 A 
ATOM     49  C   UNL A   1      42.814  27.504  31.322  1.00  0.00     0.029 A 
ATOM     50  N   UNL A   1      41.719  29.109  32.401  1.00  0.00    -0.354 N 
ATOM     51  N   UNL A   1      41.230  30.970  34.614  1.00  0.00    -0.248 NA
ATOM     52  C   UNL A   1      41.717  31.724  36.770  1.00  0.00     0.031 C 
ATOM     53  C   UNL A   1      43.472  27.753  32.530  1.00  0.00     0.029 A 
ATOM     54  C   UNL A   1      42.794  28.759  33.200  1.00  0.00     0.049 A 
ATOM     55  H   UNL A   1      41.053  29.801  32.622  1.00  0.00     0.167 HD
ATOM     56  C   UNL A   1      42.362  30.313  35.081  1.00  0.00     0.074 A 
ATOM     57  C   UNL A   1      42.642  30.849  36.398  1.00  0.00     0.031 C 
ATOM     58  C   UNL A   1      43.095  29.343  34.481  1.00  0.00     0.034 A 
BRANCH  45  59
ATOM     59  C   UNL A   1      40.838  27.486  29.038  1.00  0.00     0.023 A 
ATOM     60  C   UNL A   1      40.001  26.352  28.997  1.00  0.00     0.012 A 
ATOM     61  C   UNL A   1      41.711  27.741  27.963  1.00  0.00     0.148 A 
ATOM     62  C   UNL A   1      40.055  25.468  27.921  1.00  0.00     0.002 A 
ATOM     63  C   UNL A   1      41.729  26.877  26.873  1.00  0.00     0.091 A 
ATOM     64  F   UNL A   1      42.515  28.811  28.030  1.00  0.00    -0.205 F 
ATOM     65  C   UNL A   1      40.910  25.735  26.857  1.00  0.00     0.022 A 
BRANCH  63  66
ATOM     66  S   UNL A   1      42.738  27.175  25.418  1.00  0.00     0.127 S 
ATOM     67  O   UNL A   1      44.079  27.246  25.998  1.00  0.00    -0.237 OA
ATOM     68  O   UNL A   1      42.485  25.978  24.615  1.00  0.00    -0.237 OA
ATOM     69  O   UNL A   1      42.241  28.412  24.833  1.00  0.00    -0.744 OA
ENDBRANCH  63  66
ENDBRANCH  45  59
BRANCH  46  70
ATOM     70  C   UNL A   1      39.545  33.697  36.754  1.00  0.00     0.023 A 
ATOM     71  C   UNL A   1      39.926  35.049  36.654  1.00  0.00     0.012 A 
ATOM     72  C   UNL A   1      38.955  33.237  37.946  1.00  0.00     0.148 A 
ATOM     73  C   UNL A   1      39.752  35.921  37.730  1.00  0.00     0.002 A 
ATOM     74  C   UNL A   1      38.737  34.122  38.996  1.00  0.00     0.091 A 
ATOM     75  F   UNL A   1      38.611  31.943  38.027  1.00  0.00    -0.205 F 
ATOM     76  C   UNL A   1      39.149  35.460  38.896  1.00  0.00     0.022 A 
BRANCH  74  77
ATOM     77  S   UNL A   1      37.853  33.646  40.487  1.00  0.00     0.127 S 
ATOM     78  O   UNL A   1      38.759  32.660  41.069  1.00  0.00    -0.237 OA
ATOM     79  O   UNL A   1      37.775  34.915  41.211  1.00  0.00    -0.237 OA
ATOM     80  O   UNL A   1      36.567  33.137  40.031  1.00  0.00    -0.744 OA
ENDBRANCH  74  77
ENDBRANCH  46  70
BRANCH  58  81
ATOM     81  C   UNL A   1      44.293  28.813  35.223  1.00  0.00     0.023 A 
ATOM     82  C   UNL A   1      45.559  29.395  35.012  1.00  0.00     0.012 A 
ATOM     83  C   UNL A   1      44.151  27.798  36.188  1.00  0.00     0.148 A 
ATOM     84  C   UNL A   1      46.670  28.955  35.730  1.00  0.00     0.002 A 
ATOM     85  C   UNL A   1      45.253  27.395  36.933  1.00  0.00     0.091 A 
ATOM     86  F   UNL A   1      42.942  27.242  36.360  1.00  0.00    -0.205 F 
ATOM     87  C   UNL A   1      46.514  27.965  36.698  1.00  0.00     0.022 A 
BRANCH  85  88
ATOM     88  S   UNL A   1      45.125  26.197  38.266  1.00  0.00     0.127 S 
ATOM     89  O   UNL A   1      44.765  24.980  37.539  1.00  0.00    -0.237 OA
ATOM     90  O   UNL A   1      46.480  26.197  38.819  1.00  0.00    -0.237 OA
ATOM     91  O   UNL A   1      44.106  26.712  39.170  1.00  0.00    -0.744 OA
ENDBRANCH  85  88
ENDBRANCH  58  81
ENDBRANCH  32  33
ENDBRANCH  24  27
ENDBRANCH  22  23
ENDBRANCH  21  22
ENDBRANCH   1  21
TORSDOF 18
ENDMDL
MODEL 3
REMARK VINA RESULT:     -11.1      2.502      4.199
REMARK SMILES C[C@@H](C(=O)[C@H](C)[C@@H](C)C(=O)NCCCCNC(=O)c1ccc(-c2c3nc(c(-c4cccc(S(=O)(=O)[O-])c4F)c4ccc([nH]4)c(-c4cccc(S(=O)(=O)[O-])c4F)c4nc(c(-c5cccc(S(=O)(=O)[O-])c5F)c5ccc2[nH]5)C=C4)C=C3)cc1)c1ccccc1
REMARK SMILES IDX 13 1 12 2 11 3 9 4 10 5 7 7 8 8 5 9 6 10 3 11 4 12 2 13 1 14
REMARK SMILES IDX 82 15 83 16 87 17 84 18 86 19 85 20 14 21 15 22 16 23 17 24
REMARK SMILES IDX 18 26 19 27 20 28 81 29 21 30 80 31 22 32 23 33 24 34 74 35
REMARK SMILES IDX 25 36 79 37 73 38 75 39 26 40 78 41 72 42 71 43 27 45 59 46
REMARK SMILES IDX 39 47 58 48 40 49 43 50 57 51 76 52 41 53 42 54 56 56 77 57
REMARK SMILES IDX 44 58 28 59 29 60 37 61 30 62 32 63 38 64 31 65 33 66 34 67
REMARK SMILES IDX 35 68 36 69 60 70 61 71 69 72 62 73 64 74 70 75 63 76 65 77
REMARK SMILES IDX 66 78 67 79 68 80 45 81 46 82 54 83 47 84 49 85 55 86 48 87
REMARK SMILES IDX 50 88 51 89 52 90 53 91
REMARK H PARENT 11 6 16 25 75 44 43 55
REMARK Flexibility Score: inf
ROOT
ATOM      1  C   UNL A   1      31.698  28.745  25.710  1.00  0.00     0.023 C 
ENDROOT
BRANCH   1   2
ATOM      2  C   UNL A   1      32.462  28.221  24.495  1.00  0.00     0.116 C 
BRANCH   2   3
ATOM      3  N   UNL A   1      33.526  27.312  24.876  1.00  0.00    -0.356 N 
ATOM      4  C   UNL A   1      33.511  25.996  25.214  1.00  0.00     0.223 C 
ATOM      5  O   UNL A   1      34.580  25.467  25.528  1.00  0.00    -0.275 OA
ATOM      6  H   UNL A   1      34.419  27.723  24.894  1.00  0.00     0.163 HD
BRANCH   4   7
ATOM      7  C   UNL A   1      32.255  25.131  25.105  1.00  0.00     0.085 C 
ATOM      8  C   UNL A   1      32.363  23.995  26.135  1.00  0.00     0.019 C 
BRANCH   7   9
ATOM      9  C   UNL A   1      31.890  24.687  23.671  1.00  0.00     0.066 C 
ATOM     10  C   UNL A   1      30.850  25.599  23.027  1.00  0.00     0.017 C 
BRANCH   9  11
ATOM     11  C   UNL A   1      33.156  24.428  22.820  1.00  0.00     0.143 C 
ATOM     12  O   UNL A   1      33.732  25.408  22.336  1.00  0.00    -0.299 OA
BRANCH  11  13
ATOM     13  C   UNL A   1      33.662  22.994  22.557  1.00  0.00     0.083 C 
ATOM     14  C   UNL A   1      32.514  21.974  22.611  1.00  0.00     0.021 C 
BRANCH  13  15
ATOM     15  C   UNL A   1      34.782  22.585  23.526  1.00  0.00    -0.038 A 
ATOM     16  C   UNL A   1      34.511  21.676  24.560  1.00  0.00     0.004 A 
ATOM     17  C   UNL A   1      36.094  23.086  23.418  1.00  0.00     0.004 A 
ATOM     18  C   UNL A   1      35.503  21.323  25.481  1.00  0.00     0.000 A 
ATOM     19  C   UNL A   1      37.079  22.744  24.348  1.00  0.00     0.000 A 
ATOM     20  C   UNL A   1      36.782  21.867  25.384  1.00  0.00     0.000 A 
ENDBRANCH  13  15
ENDBRANCH  11  13
ENDBRANCH   9  11
ENDBRANCH   7   9
ENDBRANCH   4   7
ENDBRANCH   2   3
ENDBRANCH   1   2
BRANCH   1  21
ATOM     21  C   UNL A   1      31.795  30.257  25.921  1.00  0.00     0.023 C 
BRANCH  21  22
ATOM     22  C   UNL A   1      32.722  30.693  27.049  1.00  0.00     0.116 C 
BRANCH  22  23
ATOM     23  N   UNL A   1      32.844  32.140  27.164  1.00  0.00    -0.352 N 
ATOM     24  C   UNL A   1      33.866  32.871  27.719  1.00  0.00     0.251 C 
ATOM     25  H   UNL A   1      32.095  32.663  26.796  1.00  0.00     0.163 HD
ATOM     26  O   UNL A   1      33.762  34.089  27.836  1.00  0.00    -0.269 OA
BRANCH  24  27
ATOM     27  C   UNL A   1      35.075  32.173  28.202  1.00  0.00     0.039 A 
ATOM     28  C   UNL A   1      36.276  32.880  28.281  1.00  0.00     0.014 A 
ATOM     29  C   UNL A   1      35.006  30.840  28.615  1.00  0.00     0.014 A 
ATOM     30  C   UNL A   1      37.399  32.267  28.841  1.00  0.00     0.010 A 
ATOM     31  C   UNL A   1      36.106  30.256  29.235  1.00  0.00     0.010 A 
ATOM     32  C   UNL A   1      37.312  30.962  29.354  1.00  0.00    -0.014 A 
BRANCH  32  33
ATOM     33  C   UNL A   1      38.465  30.321  30.037  1.00  0.00     0.031 A 
ATOM     34  C   UNL A   1      38.843  30.738  31.431  1.00  0.00     0.074 A 
ATOM     35  C   UNL A   1      39.229  29.440  29.363  1.00  0.00     0.049 A 
ATOM     36  N   UNL A   1      39.852  30.342  32.164  1.00  0.00    -0.248 NA
ATOM     37  C   UNL A   1      37.995  31.754  32.077  1.00  0.00     0.031 C 
ATOM     38  C   UNL A   1      39.018  29.021  27.974  1.00  0.00     0.029 A 
ATOM     39  N   UNL A   1      40.359  28.759  29.744  1.00  0.00    -0.354 N 
ATOM     40  C   UNL A   1      39.784  31.087  33.335  1.00  0.00     0.074 A 
ATOM     41  C   UNL A   1      38.655  31.980  33.205  1.00  0.00     0.031 C 
ATOM     42  C   UNL A   1      39.981  28.155  27.624  1.00  0.00     0.029 A 
ATOM     43  C   UNL A   1      40.892  27.973  28.748  1.00  0.00     0.049 A 
ATOM     44  H   UNL A   1      40.751  28.827  30.645  1.00  0.00     0.167 HD
ATOM     45  C   UNL A   1      40.574  31.012  34.433  1.00  0.00     0.034 A 
ATOM     46  C   UNL A   1      41.993  27.196  28.743  1.00  0.00     0.034 A 
ATOM     47  C   UNL A   1      41.660  30.083  34.581  1.00  0.00     0.049 A 
ATOM     48  C   UNL A   1      42.817  27.089  29.999  1.00  0.00     0.074 A 
ATOM     49  C   UNL A   1      42.451  29.855  35.693  1.00  0.00     0.029 A 
ATOM     50  N   UNL A   1      42.110  29.227  33.588  1.00  0.00    -0.354 N 
ATOM     51  N   UNL A   1      42.634  27.671  31.159  1.00  0.00    -0.248 NA
ATOM     52  C   UNL A   1      43.979  26.187  29.956  1.00  0.00     0.031 C 
ATOM     53  C   UNL A   1      43.390  28.871  35.367  1.00  0.00     0.029 A 
ATOM     54  C   UNL A   1      43.173  28.475  34.057  1.00  0.00     0.049 A 
ATOM     55  H   UNL A   1      41.730  29.165  32.682  1.00  0.00     0.167 HD
ATOM     56  C   UNL A   1      43.631  27.181  31.994  1.00  0.00     0.074 A 
ATOM     57  C   UNL A   1      44.405  26.238  31.211  1.00  0.00     0.031 C 
ATOM     58  C   UNL A   1      43.894  27.496  33.286  1.00  0.00     0.034 A 
BRANCH  45  59
ATOM     59  C   UNL A   1      40.250  31.920  35.591  1.00  0.00     0.023 A 
ATOM     60  C   UNL A   1      41.047  33.058  35.822  1.00  0.00     0.012 A 
ATOM     61  C   UNL A   1      39.128  31.684  36.409  1.00  0.00     0.148 A 
ATOM     62  C   UNL A   1      40.756  33.930  36.869  1.00  0.00     0.002 A 
ATOM     63  C   UNL A   1      38.818  32.581  37.425  1.00  0.00     0.091 A 
ATOM     64  F   UNL A   1      38.394  30.583  36.189  1.00  0.00    -0.205 F 
ATOM     65  C   UNL A   1      39.637  33.698  37.663  1.00  0.00     0.022 A 
BRANCH  63  66
ATOM     66  S   UNL A   1      37.355  32.411  38.454  1.00  0.00     0.127 S 
ATOM     67  O   UNL A   1      37.745  33.158  39.648  1.00  0.00    -0.237 OA
ATOM     68  O   UNL A   1      36.327  33.059  37.639  1.00  0.00    -0.237 OA
ATOM     69  O   UNL A   1      37.163  30.980  38.643  1.00  0.00    -0.744 OA
ENDBRANCH  63  66
ENDBRANCH  45  59
BRANCH  46  70
ATOM     70  C   UNL A   1      42.332  26.392  27.536  1.00  0.00     0.023 A 
ATOM     71  C   UNL A   1      43.040  27.004  26.482  1.00  0.00     0.012 A 
ATOM     72  C   UNL A   1      41.989  25.031  27.432  1.00  0.00     0.148 A 
ATOM     73  C   UNL A   1      43.373  26.283  25.334  1.00  0.00     0.002 A 
ATOM     74  C   UNL A   1      42.368  24.305  26.308  1.00  0.00     0.091 A 
ATOM     75  F   UNL A   1      41.304  24.470  28.439  1.00  0.00    -0.205 F 
ATOM     76  C   UNL A   1      43.046  24.933  25.252  1.00  0.00     0.022 A 
BRANCH  74  77
ATOM     77  S   UNL A   1      42.101  22.534  26.172  1.00  0.00     0.127 S 
ATOM     78  O   UNL A   1      40.643  22.451  26.171  1.00  0.00    -0.237 OA
ATOM     79  O   UNL A   1      42.737  22.228  24.890  1.00  0.00    -0.237 OA
ATOM     80  O   UNL A   1      42.770  21.950  27.326  1.00  0.00    -0.744 OA
ENDBRANCH  74  77
ENDBRANCH  46  70
BRANCH  58  81
ATOM     81  C   UNL A   1      45.045  26.793  33.956  1.00  0.00     0.023 A 
ATOM     82  C   UNL A   1      46.347  27.320  33.842  1.00  0.00     0.012 A 
ATOM     83  C   UNL A   1      44.825  25.662  34.765  1.00  0.00     0.148 A 
ATOM     84  C   UNL A   1      47.416  26.715  34.500  1.00  0.00     0.002 A 
ATOM     85  C   UNL A   1      45.889  25.091  35.455  1.00  0.00     0.091 A 
ATOM     86  F   UNL A   1      43.583  25.163  34.845  1.00  0.00    -0.205 F 
ATOM     87  C   UNL A   1      47.185  25.610  35.316  1.00  0.00     0.022 A 
BRANCH  85  88
ATOM     88  S   UNL A   1      45.665  23.726  36.602  1.00  0.00     0.127 S 
ATOM     89  O   UNL A   1      47.026  23.528  37.099  1.00  0.00    -0.237 OA
ATOM     90  O   UNL A   1      44.735  24.289  37.582  1.00  0.00    -0.237 OA
ATOM     91  O   UNL A   1      45.119  22.628  35.816  1.00  0.00    -0.744 OA
ENDBRANCH  85  88
ENDBRANCH  58  81
ENDBRANCH  32  33
ENDBRANCH  24  27
ENDBRANCH  22  23
ENDBRANCH  21  22
ENDBRANCH   1  21
TORSDOF 18
ENDMDL
