MODEL 1
REMARK VINA RESULT:     -11.1      0.000      0.000
REMARK SMILES CC(C)C[C@H](NC(N)=O)C(=O)N[C@@H](C(=O)NCCCCNC(=O)c1ccc(-c2c3nc(c(-c4cccc(S(=O)(=O)[O-])c4F)c4ccc([nH]4)c(-c4cccc(S(=O)(=O)[O-])c4F)c4nc(c(-c5cccc(S(=O)(=O)[O-])c5F)c5ccc2[nH]5)C=C4)C=C3)cc1)C(C)C
REMARK SMILES IDX 18 1 17 2 16 3 14 4 15 5 13 7 12 8 10 9 11 10 5 12 4 13 2 14
REMARK SMILES IDX 1 15 3 16 6 17 7 18 8 20 9 21 87 24 88 25 89 26 19 27 20 28
REMARK SMILES IDX 21 29 22 30 23 32 24 33 25 34 86 35 26 36 85 37 27 38 28 39
REMARK SMILES IDX 29 40 79 41 30 42 84 43 78 44 80 45 31 46 83 47 77 48 76 49
REMARK SMILES IDX 32 51 64 52 44 53 63 54 45 55 48 56 62 57 81 58 46 59 47 60
REMARK SMILES IDX 61 62 82 63 49 64 33 65 34 66 42 67 35 68 37 69 43 70 36 71
REMARK SMILES IDX 38 72 39 73 40 74 41 75 65 76 66 77 74 78 67 79 69 80 75 81
REMARK SMILES IDX 68 82 70 83 71 84 72 85 73 86 50 87 51 88 59 89 52 90 54 91
REMARK SMILES IDX 60 92 53 93 55 94 56 95 57 96 58 97
REMARK H PARENT 16 6 12 11 6 19 8 22 8 23 21 31 80 50 48 61
REMARK Flexibility Score: inf
ROOT
ATOM      1  C   UNL A   1      31.455  28.125  25.677  1.00  0.00     0.023 C 
ENDROOT
BRANCH   1   2
ATOM      2  C   UNL A   1      32.788  27.396  25.706  1.00  0.00     0.116 C 
BRANCH   2   3
ATOM      3  N   UNL A   1      33.352  27.193  24.401  1.00  0.00    -0.354 N 
ATOM      4  C   UNL A   1      33.401  26.084  23.616  1.00  0.00     0.242 C 
ATOM      5  O   UNL A   1      33.793  26.293  22.461  1.00  0.00    -0.273 OA
ATOM      6  H   UNL A   1      33.773  27.991  24.008  1.00  0.00     0.163 HD
BRANCH   4   7
ATOM      7  C   UNL A   1      32.889  24.663  24.076  1.00  0.00     0.173 C 
BRANCH   7   8
ATOM      8  N   UNL A   1      33.992  23.890  24.659  1.00  0.00    -0.342 N 
ATOM      9  C   UNL A   1      34.036  22.929  25.622  1.00  0.00     0.243 C 
ATOM     10  O   UNL A   1      35.158  22.715  26.108  1.00  0.00    -0.273 OA
ATOM     11  H   UNL A   1      34.873  24.108  24.278  1.00  0.00     0.164 HD
BRANCH   9  12
ATOM     12  C   UNL A   1      32.816  22.122  26.183  1.00  0.00     0.173 C 
BRANCH  12  13
ATOM     13  C   UNL A   1      31.846  22.839  27.140  1.00  0.00     0.038 C 
BRANCH  13  14
ATOM     14  C   UNL A   1      30.463  23.180  26.578  1.00  0.00    -0.015 C 
ATOM     15  C   UNL A   1      29.297  22.585  27.358  1.00  0.00     0.007 C 
ATOM     16  C   UNL A   1      30.308  24.695  26.444  1.00  0.00     0.007 C 
ENDBRANCH  13  14
ENDBRANCH  12  13
BRANCH  12  17
ATOM     17  N   UNL A   1      33.088  20.707  26.497  1.00  0.00    -0.327 N 
ATOM     18  C   UNL A   1      32.717  19.609  25.785  1.00  0.00     0.312 C 
ATOM     19  H   UNL A   1      33.599  20.537  27.322  1.00  0.00     0.166 HD
ATOM     20  N   UNL A   1      32.975  18.447  26.432  1.00  0.00    -0.352 N 
ATOM     21  O   UNL A   1      32.195  19.595  24.686  1.00  0.00    -0.249 OA
ATOM     22  H   UNL A   1      33.398  18.462  27.321  1.00  0.00     0.161 HD
ATOM     23  H   UNL A   1      32.739  17.588  26.014  1.00  0.00     0.161 HD
ENDBRANCH  12  17
ENDBRANCH   9  12
ENDBRANCH   7   8
BRANCH   7  24
ATOM     24  C   UNL A   1      32.272  23.981  22.800  1.00  0.00     0.015 C 
ATOM     25  C   UNL A   1      32.910  22.688  22.294  1.00  0.00     0.010 C 
ATOM     26  C   UNL A   1      30.775  23.714  23.024  1.00  0.00     0.010 C 
ENDBRANCH   7  24
ENDBRANCH   4   7
ENDBRANCH   2   3
ENDBRANCH   1   2
BRANCH   1  27
ATOM     27  C   UNL A   1      31.584  29.620  25.411  1.00  0.00     0.023 C 
BRANCH  27  28
ATOM     28  C   UNL A   1      32.675  30.315  26.214  1.00  0.00     0.116 C 
BRANCH  28  29
ATOM     29  N   UNL A   1      32.319  31.669  26.625  1.00  0.00    -0.352 N 
ATOM     30  C   UNL A   1      33.069  32.530  27.396  1.00  0.00     0.251 C 
ATOM     31  H   UNL A   1      31.446  32.005  26.316  1.00  0.00     0.163 HD
ATOM     32  O   UNL A   1      32.621  33.610  27.762  1.00  0.00    -0.269 OA
BRANCH  30  33
ATOM     33  C   UNL A   1      34.416  32.088  27.797  1.00  0.00     0.039 A 
ATOM     34  C   UNL A   1      35.444  33.030  27.892  1.00  0.00     0.014 A 
ATOM     35  C   UNL A   1      34.599  30.777  28.241  1.00  0.00     0.014 A 
ATOM     36  C   UNL A   1      36.642  32.673  28.512  1.00  0.00     0.010 A 
ATOM     37  C   UNL A   1      35.758  30.452  28.933  1.00  0.00     0.010 A 
ATOM     38  C   UNL A   1      36.790  31.396  29.079  1.00  0.00    -0.014 A 
BRANCH  38  39
ATOM     39  C   UNL A   1      38.006  30.999  29.832  1.00  0.00     0.031 A 
ATOM     40  C   UNL A   1      38.941  29.985  29.231  1.00  0.00     0.074 A 
ATOM     41  C   UNL A   1      38.201  31.438  31.092  1.00  0.00     0.049 A 
ATOM     42  N   UNL A   1      39.949  29.362  29.780  1.00  0.00    -0.248 NA
ATOM     43  C   UNL A   1      38.679  29.591  27.835  1.00  0.00     0.031 C 
ATOM     44  C   UNL A   1      37.339  32.381  31.807  1.00  0.00     0.029 A 
ATOM     45  N   UNL A   1      39.170  31.114  32.012  1.00  0.00    -0.354 N 
ATOM     46  C   UNL A   1      40.407  28.470  28.821  1.00  0.00     0.074 A 
ATOM     47  C   UNL A   1      39.548  28.607  27.666  1.00  0.00     0.031 C 
ATOM     48  C   UNL A   1      37.810  32.551  33.054  1.00  0.00     0.029 A 
ATOM     49  C   UNL A   1      38.978  31.697  33.244  1.00  0.00     0.049 A 
ATOM     50  H   UNL A   1      39.928  30.520  31.808  1.00  0.00     0.167 HD
ATOM     51  C   UNL A   1      41.462  27.626  28.885  1.00  0.00     0.034 A 
ATOM     52  C   UNL A   1      39.649  31.538  34.403  1.00  0.00     0.034 A 
ATOM     53  C   UNL A   1      42.338  27.524  30.019  1.00  0.00     0.049 A 
ATOM     54  C   UNL A   1      40.829  30.603  34.445  1.00  0.00     0.074 A 
ATOM     55  C   UNL A   1      43.484  26.761  30.151  1.00  0.00     0.029 A 
ATOM     56  N   UNL A   1      42.162  28.198  31.217  1.00  0.00    -0.354 N 
ATOM     57  N   UNL A   1      41.328  29.862  33.485  1.00  0.00    -0.248 NA
ATOM     58  C   UNL A   1      41.557  30.499  35.719  1.00  0.00     0.031 C 
ATOM     59  C   UNL A   1      43.982  26.948  31.443  1.00  0.00     0.029 A 
ATOM     60  C   UNL A   1      43.172  27.861  32.098  1.00  0.00     0.049 A 
ATOM     61  H   UNL A   1      41.428  28.824  31.411  1.00  0.00     0.167 HD
ATOM     62  C   UNL A   1      42.452  29.245  34.023  1.00  0.00     0.074 A 
ATOM     63  C   UNL A   1      42.566  29.702  35.392  1.00  0.00     0.031 C 
ATOM     64  C   UNL A   1      43.310  28.376  33.436  1.00  0.00     0.034 A 
BRANCH  51  65
ATOM     65  C   UNL A   1      41.748  26.768  27.682  1.00  0.00     0.023 A 
ATOM     66  C   UNL A   1      42.393  27.328  26.560  1.00  0.00     0.012 A 
ATOM     67  C   UNL A   1      41.429  25.396  27.683  1.00  0.00     0.148 A 
ATOM     68  C   UNL A   1      42.680  26.546  25.441  1.00  0.00     0.002 A 
ATOM     69  C   UNL A   1      41.764  24.612  26.586  1.00  0.00     0.091 A 
ATOM     70  F   UNL A   1      40.799  24.887  28.751  1.00  0.00    -0.205 F 
ATOM     71  C   UNL A   1      42.376  25.188  25.460  1.00  0.00     0.022 A 
BRANCH  69  72
ATOM     72  S   UNL A   1      41.492  22.838  26.545  1.00  0.00     0.127 S 
ATOM     73  O   UNL A   1      42.121  22.473  25.276  1.00  0.00    -0.237 OA
ATOM     74  O   UNL A   1      42.216  22.390  27.736  1.00  0.00    -0.237 OA
ATOM     75  O   UNL A   1      40.050  22.649  26.604  1.00  0.00    -0.744 OA
ENDBRANCH  69  72
ENDBRANCH  51  65
BRANCH  52  76
ATOM     76  C   UNL A   1      39.250  32.312  35.614  1.00  0.00     0.023 A 
ATOM     77  C   UNL A   1      38.397  31.719  36.566  1.00  0.00     0.012 A 
ATOM     78  C   UNL A   1      39.715  33.623  35.835  1.00  0.00     0.148 A 
ATOM     79  C   UNL A   1      37.986  32.428  37.695  1.00  0.00     0.002 A 
ATOM     80  C   UNL A   1      39.347  34.303  36.990  1.00  0.00     0.091 A 
ATOM     81  F   UNL A   1      40.518  34.174  34.914  1.00  0.00    -0.205 F 
ATOM     82  C   UNL A   1      38.468  33.715  37.911  1.00  0.00     0.022 A 
BRANCH  80  83
ATOM     83  S   UNL A   1      40.017  35.915  37.416  1.00  0.00     0.127 S 
ATOM     84  O   UNL A   1      41.432  35.609  37.610  1.00  0.00    -0.237 OA
ATOM     85  O   UNL A   1      39.712  36.693  36.214  1.00  0.00    -0.237 OA
ATOM     86  O   UNL A   1      39.293  36.340  38.606  1.00  0.00    -0.744 OA
ENDBRANCH  80  83
ENDBRANCH  52  76
BRANCH  64  87
ATOM     87  C   UNL A   1      44.499  27.903  34.229  1.00  0.00     0.023 A 
ATOM     88  C   UNL A   1      45.697  28.643  34.221  1.00  0.00     0.012 A 
ATOM     89  C   UNL A   1      44.375  26.792  35.087  1.00  0.00     0.148 A 
ATOM     90  C   UNL A   1      46.760  28.272  35.043  1.00  0.00     0.002 A 
ATOM     91  C   UNL A   1      45.417  26.461  35.941  1.00  0.00     0.091 A 
ATOM     92  F   UNL A   1      43.229  26.095  35.065  1.00  0.00    -0.205 F 
ATOM     93  C   UNL A   1      46.615  27.193  35.914  1.00  0.00     0.022 A 
BRANCH  91  94
ATOM     94  S   UNL A   1      45.283  25.157  37.170  1.00  0.00     0.127 S 
ATOM     95  O   UNL A   1      44.130  25.603  37.951  1.00  0.00    -0.237 OA
ATOM     96  O   UNL A   1      45.039  23.977  36.340  1.00  0.00    -0.237 OA
ATOM     97  O   UNL A   1      46.550  25.144  37.888  1.00  0.00    -0.744 OA
ENDBRANCH  91  94
ENDBRANCH  64  87
ENDBRANCH  38  39
ENDBRANCH  30  33
ENDBRANCH  28  29
ENDBRANCH  27  28
ENDBRANCH   1  27
TORSDOF 20
ENDMDL
MODEL 2
REMARK VINA RESULT:     -11.0      5.499      8.839
REMARK SMILES CC(C)C[C@H](NC(N)=O)C(=O)N[C@@H](C(=O)NCCCCNC(=O)c1ccc(-c2c3nc(c(-c4cccc(S(=O)(=O)[O-])c4F)c4ccc([nH]4)c(-c4cccc(S(=O)(=O)[O-])c4F)c4nc(c(-c5cccc(S(=O)(=O)[O-])c5F)c5ccc2[nH]5)C=C4)C=C3)cc1)C(C)C
REMARK SMILES IDX 18 1 17 2 16 3 14 4 15 5 13 7 12 8 10 9 11 10 5 12 4 13 2 14
REMARK SMILES IDX 1 15 3 16 6 17 7 18 8 20 9 21 87 24 88 25 89 26 19 27 20 28
REMARK SMILES IDX 21 29 22 30 23 32 24 33 25 34 86 35 26 36 85 37 27 38 28 39
REMARK SMILES IDX 29 40 79 41 30 42 84 43 78 44 80 45 31 46 83 47 77 48 76 49
REMARK SMILES IDX 32 51 64 52 44 53 63 54 45 55 48 56 62 57 81 58 46 59 47 60
REMARK SMILES IDX 61 62 82 63 49 64 33 65 34 66 42 67 35 68 37 69 43 70 36 71
REMARK SMILES IDX 38 72 39 73 40 74 41 75 65 76 66 77 74 78 67 79 69 80 75 81
REMARK SMILES IDX 68 82 70 83 71 84 72 85 73 86 50 87 51 88 59 89 52 90 54 91
REMARK SMILES IDX 60 92 53 93 55 94 56 95 57 96 58 97
REMARK H PARENT 16 6 12 11 6 19 8 22 8 23 21 31 80 50 48 61
REMARK Flexibility Score: inf
ROOT
ATOM      1  C   UNL A   1      36.965  21.640  24.369  1.00  0.00     0.023 C 
ENDROOT
BRANCH   1   2
ATOM      2  C   UNL A   1      36.525  22.705  25.359  1.00  0.00     0.116 C 
BRANCH   2   3
ATOM      3  N   UNL A   1      35.801  22.174  26.479  1.00  0.00    -0.354 N 
ATOM      4  C   UNL A   1      34.467  22.009  26.679  1.00  0.00     0.242 C 
ATOM      5  O   UNL A   1      34.179  21.344  27.681  1.00  0.00    -0.273 OA
ATOM      6  H   UNL A   1      36.367  21.880  27.230  1.00  0.00     0.163 HD
BRANCH   4   7
ATOM      7  C   UNL A   1      33.362  22.504  25.665  1.00  0.00     0.173 C 
BRANCH   7   8
ATOM      8  N   UNL A   1      32.049  22.539  26.321  1.00  0.00    -0.342 N 
ATOM      9  C   UNL A   1      31.144  23.536  26.519  1.00  0.00     0.243 C 
ATOM     10  O   UNL A   1      30.289  23.311  27.390  1.00  0.00    -0.273 OA
ATOM     11  H   UNL A   1      31.768  21.671  26.688  1.00  0.00     0.164 HD
BRANCH   9  12
ATOM     12  C   UNL A   1      31.117  24.922  25.789  1.00  0.00     0.173 C 
BRANCH  12  13
ATOM     13  C   UNL A   1      31.934  26.079  26.393  1.00  0.00     0.038 C 
BRANCH  13  14
ATOM     14  C   UNL A   1      33.145  26.551  25.587  1.00  0.00    -0.015 C 
ATOM     15  C   UNL A   1      33.494  25.672  24.392  1.00  0.00     0.007 C 
ATOM     16  C   UNL A   1      32.955  28.005  25.152  1.00  0.00     0.007 C 
ENDBRANCH  13  14
ENDBRANCH  12  13
BRANCH  12  17
ATOM     17  N   UNL A   1      29.818  25.300  25.203  1.00  0.00    -0.327 N 
ATOM     18  C   UNL A   1      29.592  25.989  24.052  1.00  0.00     0.312 C 
ATOM     19  H   UNL A   1      29.018  25.019  25.704  1.00  0.00     0.166 HD
ATOM     20  N   UNL A   1      28.289  26.320  23.881  1.00  0.00    -0.352 N 
ATOM     21  O   UNL A   1      30.421  26.319  23.225  1.00  0.00    -0.249 OA
ATOM     22  H   UNL A   1      27.621  26.051  24.552  1.00  0.00     0.161 HD
ATOM     23  H   UNL A   1      28.010  26.829  23.087  1.00  0.00     0.161 HD
ENDBRANCH  12  17
ENDBRANCH   9  12
ENDBRANCH   7   8
BRANCH   7  24
ATOM     24  C   UNL A   1      33.408  21.516  24.443  1.00  0.00     0.015 C 
ATOM     25  C   UNL A   1      32.843  20.109  24.632  1.00  0.00     0.010 C 
ATOM     26  C   UNL A   1      32.704  22.150  23.232  1.00  0.00     0.010 C 
ENDBRANCH   7  24
ENDBRANCH   4   7
ENDBRANCH   2   3
ENDBRANCH   1   2
BRANCH   1  27
ATOM     27  C   UNL A   1      37.639  20.440  25.024  1.00  0.00     0.023 C 
BRANCH  27  28
ATOM     28  C   UNL A   1      38.952  20.757  25.727  1.00  0.00     0.116 C 
BRANCH  28  29
ATOM     29  N   UNL A   1      39.812  19.591  25.901  1.00  0.00    -0.352 N 
ATOM     30  C   UNL A   1      41.160  19.586  26.185  1.00  0.00     0.251 C 
ATOM     31  H   UNL A   1      39.381  18.711  25.805  1.00  0.00     0.163 HD
ATOM     32  O   UNL A   1      41.801  18.542  26.208  1.00  0.00    -0.269 OA
BRANCH  30  33
ATOM     33  C   UNL A   1      41.812  20.887  26.422  1.00  0.00     0.039 A 
ATOM     34  C   UNL A   1      42.249  21.640  25.329  1.00  0.00     0.014 A 
ATOM     35  C   UNL A   1      41.824  21.417  27.713  1.00  0.00     0.014 A 
ATOM     36  C   UNL A   1      42.627  22.969  25.525  1.00  0.00     0.010 A 
ATOM     37  C   UNL A   1      42.118  22.763  27.888  1.00  0.00     0.010 A 
ATOM     38  C   UNL A   1      42.519  23.553  26.797  1.00  0.00    -0.014 A 
BRANCH  38  39
ATOM     39  C   UNL A   1      42.817  24.988  27.039  1.00  0.00     0.031 A 
ATOM     40  C   UNL A   1      44.215  25.494  26.812  1.00  0.00     0.074 A 
ATOM     41  C   UNL A   1      41.883  25.796  27.582  1.00  0.00     0.049 A 
ATOM     42  N   UNL A   1      44.738  26.648  27.130  1.00  0.00    -0.248 NA
ATOM     43  C   UNL A   1      45.160  24.559  26.176  1.00  0.00     0.031 C 
ATOM     44  C   UNL A   1      40.506  25.411  27.899  1.00  0.00     0.029 A 
ATOM     45  N   UNL A   1      41.966  27.102  28.002  1.00  0.00    -0.354 N 
ATOM     46  C   UNL A   1      46.080  26.559  26.784  1.00  0.00     0.074 A 
ATOM     47  C   UNL A   1      46.299  25.229  26.260  1.00  0.00     0.031 C 
ATOM     48  C   UNL A   1      39.879  26.452  28.471  1.00  0.00     0.029 A 
ATOM     49  C   UNL A   1      40.817  27.562  28.605  1.00  0.00     0.049 A 
ATOM     50  H   UNL A   1      42.771  27.656  27.883  1.00  0.00     0.167 HD
ATOM     51  C   UNL A   1      47.041  27.508  26.871  1.00  0.00     0.034 A 
ATOM     52  C   UNL A   1      40.560  28.733  29.222  1.00  0.00     0.034 A 
ATOM     53  C   UNL A   1      46.808  28.841  27.350  1.00  0.00     0.049 A 
ATOM     54  C   UNL A   1      41.642  29.777  29.294  1.00  0.00     0.074 A 
ATOM     55  C   UNL A   1      47.695  29.901  27.400  1.00  0.00     0.029 A 
ATOM     56  N   UNL A   1      45.607  29.296  27.870  1.00  0.00    -0.354 N 
ATOM     57  N   UNL A   1      42.872  29.723  28.843  1.00  0.00    -0.248 NA
ATOM     58  C   UNL A   1      41.298  31.056  29.936  1.00  0.00     0.031 C 
ATOM     59  C   UNL A   1      47.039  30.988  27.983  1.00  0.00     0.029 A 
ATOM     60  C   UNL A   1      45.732  30.618  28.254  1.00  0.00     0.049 A 
ATOM     61  H   UNL A   1      44.787  28.758  27.954  1.00  0.00     0.167 HD
ATOM     62  C   UNL A   1      43.430  30.970  29.100  1.00  0.00     0.074 A 
ATOM     63  C   UNL A   1      42.404  31.764  29.743  1.00  0.00     0.031 C 
ATOM     64  C   UNL A   1      44.681  31.416  28.831  1.00  0.00     0.034 A 
BRANCH  51  65
ATOM     65  C   UNL A   1      48.426  27.146  26.407  1.00  0.00     0.023 A 
ATOM     66  C   UNL A   1      49.288  26.431  27.263  1.00  0.00     0.012 A 
ATOM     67  C   UNL A   1      48.856  27.467  25.104  1.00  0.00     0.148 A 
ATOM     68  C   UNL A   1      50.570  26.074  26.845  1.00  0.00     0.002 A 
ATOM     69  C   UNL A   1      50.115  27.064  24.677  1.00  0.00     0.091 A 
ATOM     70  F   UNL A   1      48.030  28.165  24.312  1.00  0.00    -0.205 F 
ATOM     71  C   UNL A   1      50.978  26.381  25.551  1.00  0.00     0.022 A 
BRANCH  69  72
ATOM     72  S   UNL A   1      50.702  27.336  23.003  1.00  0.00     0.127 S 
ATOM     73  O   UNL A   1      52.034  26.732  23.056  1.00  0.00    -0.237 OA
ATOM     74  O   UNL A   1      49.725  26.588  22.210  1.00  0.00    -0.237 OA
ATOM     75  O   UNL A   1      50.679  28.776  22.795  1.00  0.00    -0.744 OA
ENDBRANCH  69  72
ENDBRANCH  51  65
BRANCH  52  76
ATOM     76  C   UNL A   1      39.206  29.001  29.787  1.00  0.00     0.023 A 
ATOM     77  C   UNL A   1      38.887  28.531  31.077  1.00  0.00     0.012 A 
ATOM     78  C   UNL A   1      38.238  29.726  29.065  1.00  0.00     0.148 A 
ATOM     79  C   UNL A   1      37.620  28.745  31.621  1.00  0.00     0.002 A 
ATOM     80  C   UNL A   1      36.997  29.985  29.636  1.00  0.00     0.091 A 
ATOM     81  F   UNL A   1      38.556  30.159  27.837  1.00  0.00    -0.205 F 
ATOM     82  C   UNL A   1      36.679  29.478  30.905  1.00  0.00     0.022 A 
BRANCH  80  83
ATOM     83  S   UNL A   1      35.768  31.028  28.843  1.00  0.00     0.127 S 
ATOM     84  O   UNL A   1      36.605  31.958  28.091  1.00  0.00    -0.237 OA
ATOM     85  O   UNL A   1      35.035  30.059  28.027  1.00  0.00    -0.237 OA
ATOM     86  O   UNL A   1      34.988  31.611  29.927  1.00  0.00    -0.744 OA
ENDBRANCH  80  83
ENDBRANCH  52  76
BRANCH  64  87
ATOM     87  C   UNL A   1      45.012  32.848  29.156  1.00  0.00     0.023 A 
ATOM     88  C   UNL A   1      45.563  33.182  30.407  1.00  0.00     0.012 A 
ATOM     89  C   UNL A   1      44.896  33.839  28.160  1.00  0.00     0.148 A 
ATOM     90  C   UNL A   1      45.979  34.488  30.668  1.00  0.00     0.002 A 
ATOM     91  C   UNL A   1      45.360  35.123  28.409  1.00  0.00     0.091 A 
ATOM     92  F   UNL A   1      44.354  33.498  26.982  1.00  0.00    -0.205 F 
ATOM     93  C   UNL A   1      45.892  35.453  29.666  1.00  0.00     0.022 A 
BRANCH  91  94
ATOM     94  S   UNL A   1      45.389  36.401  27.147  1.00  0.00     0.127 S 
ATOM     95  O   UNL A   1      46.211  37.430  27.784  1.00  0.00    -0.237 OA
ATOM     96  O   UNL A   1      46.031  35.713  26.027  1.00  0.00    -0.237 OA
ATOM     97  O   UNL A   1      44.000  36.775  26.916  1.00  0.00    -0.744 OA
ENDBRANCH  91  94
ENDBRANCH  64  87
ENDBRANCH  38  39
ENDBRANCH  30  33
ENDBRANCH  28  29
ENDBRANCH  27  28
ENDBRANCH   1  27
TORSDOF 20
ENDMDL
MODEL 3
REMARK VINA RESULT:     -11.0      2.441      3.330
REMARK SMILES CC(C)C[C@H](NC(N)=O)C(=O)N[C@@H](C(=O)NCCCCNC(=O)c1ccc(-c2c3nc(c(-c4cccc(S(=O)(=O)[O-])c4F)c4ccc([nH]4)c(-c4cccc(S(=O)(=O)[O-])c4F)c4nc(c(-c5cccc(S(=O)(=O)[O-])c5F)c5ccc2[nH]5)C=C4)C=C3)cc1)C(C)C
REMARK SMILES IDX 18 1 17 2 16 3 14 4 15 5 13 7 12 8 10 9 11 10 5 12 4 13 2 14
REMARK SMILES IDX 1 15 3 16 6 17 7 18 8 20 9 21 87 24 88 25 89 26 19 27 20 28
REMARK SMILES IDX 21 29 22 30 23 32 24 33 25 34 86 35 26 36 85 37 27 38 28 39
REMARK SMILES IDX 29 40 79 41 30 42 84 43 78 44 80 45 31 46 83 47 77 48 76 49
REMARK SMILES IDX 32 51 64 52 44 53 63 54 45 55 48 56 62 57 81 58 46 59 47 60
REMARK SMILES IDX 61 62 82 63 49 64 33 65 34 66 42 67 35 68 37 69 43 70 36 71
REMARK SMILES IDX 38 72 39 73 40 74 41 75 65 76 66 77 74 78 67 79 69 80 75 81
REMARK SMILES IDX 68 82 70 83 71 84 72 85 73 86 50 87 51 88 59 89 52 90 54 91
REMARK SMILES IDX 60 92 53 93 55 94 56 95 57 96 58 97
REMARK H PARENT 16 6 12 11 6 19 8 22 8 23 21 31 80 50 48 61
REMARK Flexibility Score: inf
ROOT
ATOM      1  C   UNL A   1      31.393  30.995  25.690  1.00  0.00     0.023 C 
ENDROOT
BRANCH   1   2
ATOM      2  C   UNL A   1      32.406  29.870  25.823  1.00  0.00     0.116 C 
BRANCH   2   3
ATOM      3  N   UNL A   1      33.246  29.724  24.668  1.00  0.00    -0.354 N 
ATOM      4  C   UNL A   1      33.172  28.865  23.617  1.00  0.00     0.242 C 
ATOM      5  O   UNL A   1      33.946  29.126  22.688  1.00  0.00    -0.273 OA
ATOM      6  H   UNL A   1      34.004  30.351  24.631  1.00  0.00     0.163 HD
BRANCH   4   7
ATOM      7  C   UNL A   1      32.109  27.701  23.511  1.00  0.00     0.173 C 
BRANCH   7   8
ATOM      8  N   UNL A   1      32.399  26.852  22.349  1.00  0.00    -0.342 N 
ATOM      9  C   UNL A   1      33.026  25.651  22.219  1.00  0.00     0.243 C 
ATOM     10  O   UNL A   1      33.392  25.365  21.068  1.00  0.00    -0.273 OA
ATOM     11  H   UNL A   1      32.077  27.224  21.497  1.00  0.00     0.164 HD
BRANCH   9  12
ATOM     12  C   UNL A   1      33.351  24.645  23.376  1.00  0.00     0.173 C 
BRANCH  12  13
ATOM     13  C   UNL A   1      34.132  23.364  23.029  1.00  0.00     0.038 C 
BRANCH  13  14
ATOM     14  C   UNL A   1      35.304  23.012  23.948  1.00  0.00    -0.015 C 
ATOM     15  C   UNL A   1      36.652  22.907  23.246  1.00  0.00     0.007 C 
ATOM     16  C   UNL A   1      35.375  24.001  25.113  1.00  0.00     0.007 C 
ENDBRANCH  13  14
ENDBRANCH  12  13
BRANCH  12  17
ATOM     17  N   UNL A   1      32.292  24.489  24.390  1.00  0.00    -0.327 N 
ATOM     18  C   UNL A   1      31.029  24.018  24.211  1.00  0.00     0.312 C 
ATOM     19  H   UNL A   1      32.528  24.759  25.308  1.00  0.00     0.166 HD
ATOM     20  N   UNL A   1      30.250  24.161  25.311  1.00  0.00    -0.352 N 
ATOM     21  O   UNL A   1      30.574  23.520  23.199  1.00  0.00    -0.249 OA
ATOM     22  H   UNL A   1      30.621  24.564  26.128  1.00  0.00     0.161 HD
ATOM     23  H   UNL A   1      29.312  23.863  25.292  1.00  0.00     0.161 HD
ENDBRANCH  12  17
ENDBRANCH   9  12
ENDBRANCH   7   8
BRANCH   7  24
ATOM     24  C   UNL A   1      30.701  28.396  23.422  1.00  0.00     0.015 C 
ATOM     25  C   UNL A   1      30.427  29.323  22.239  1.00  0.00     0.010 C 
ATOM     26  C   UNL A   1      29.592  27.331  23.455  1.00  0.00     0.010 C 
ENDBRANCH   7  24
ENDBRANCH   4   7
ENDBRANCH   2   3
ENDBRANCH   1   2
BRANCH   1  27
ATOM     27  C   UNL A   1      31.365  31.934  26.889  1.00  0.00     0.023 C 
BRANCH  27  28
ATOM     28  C   UNL A   1      32.643  32.736  27.096  1.00  0.00     0.116 C 
BRANCH  28  29
ATOM     29  N   UNL A   1      32.423  34.012  27.770  1.00  0.00    -0.352 N 
ATOM     30  C   UNL A   1      33.191  34.569  28.769  1.00  0.00     0.251 C 
ATOM     31  H   UNL A   1      31.640  34.533  27.477  1.00  0.00     0.163 HD
ATOM     32  O   UNL A   1      32.850  35.603  29.331  1.00  0.00    -0.269 OA
BRANCH  30  33
ATOM     33  C   UNL A   1      34.418  33.855  29.165  1.00  0.00     0.039 A 
ATOM     34  C   UNL A   1      35.653  34.313  28.701  1.00  0.00     0.014 A 
ATOM     35  C   UNL A   1      34.339  32.848  30.128  1.00  0.00     0.014 A 
ATOM     36  C   UNL A   1      36.825  33.810  29.269  1.00  0.00     0.010 A 
ATOM     37  C   UNL A   1      35.503  32.414  30.749  1.00  0.00     0.010 A 
ATOM     38  C   UNL A   1      36.756  32.892  30.329  1.00  0.00    -0.014 A 
BRANCH  38  39
ATOM     39  C   UNL A   1      37.969  32.400  31.031  1.00  0.00     0.031 A 
ATOM     40  C   UNL A   1      38.728  31.237  30.453  1.00  0.00     0.074 A 
ATOM     41  C   UNL A   1      38.308  32.898  32.238  1.00  0.00     0.049 A 
ATOM     42  N   UNL A   1      39.692  30.533  30.983  1.00  0.00    -0.248 NA
ATOM     43  C   UNL A   1      38.318  30.782  29.112  1.00  0.00     0.031 C 
ATOM     44  C   UNL A   1      37.620  33.989  32.931  1.00  0.00     0.029 A 
ATOM     45  N   UNL A   1      39.296  32.521  33.115  1.00  0.00    -0.354 N 
ATOM     46  C   UNL A   1      39.967  29.525  30.069  1.00  0.00     0.074 A 
ATOM     47  C   UNL A   1      39.048  29.688  28.965  1.00  0.00     0.031 C 
ATOM     48  C   UNL A   1      38.200  34.186  34.127  1.00  0.00     0.029 A 
ATOM     49  C   UNL A   1      39.267  33.208  34.307  1.00  0.00     0.049 A 
ATOM     50  H   UNL A   1      39.961  31.824  32.910  1.00  0.00     0.167 HD
ATOM     51  C   UNL A   1      40.916  28.563  30.131  1.00  0.00     0.034 A 
ATOM     52  C   UNL A   1      39.999  33.048  35.430  1.00  0.00     0.034 A 
ATOM     53  C   UNL A   1      41.855  28.432  31.209  1.00  0.00     0.049 A 
ATOM     54  C   UNL A   1      41.058  31.978  35.468  1.00  0.00     0.074 A 
ATOM     55  C   UNL A   1      42.908  27.543  31.326  1.00  0.00     0.029 A 
ATOM     56  N   UNL A   1      41.851  29.205  32.360  1.00  0.00    -0.354 N 
ATOM     57  N   UNL A   1      41.391  31.115  34.540  1.00  0.00    -0.248 NA
ATOM     58  C   UNL A   1      41.861  31.874  36.697  1.00  0.00     0.031 C 
ATOM     59  C   UNL A   1      43.519  27.756  32.565  1.00  0.00     0.029 A 
ATOM     60  C   UNL A   1      42.875  28.807  33.198  1.00  0.00     0.049 A 
ATOM     61  H   UNL A   1      41.212  29.930  32.551  1.00  0.00     0.167 HD
ATOM     62  C   UNL A   1      42.471  30.402  35.050  1.00  0.00     0.074 A 
ATOM     63  C   UNL A   1      42.739  30.936  36.369  1.00  0.00     0.031 C 
ATOM     64  C   UNL A   1      43.172  29.393  34.479  1.00  0.00     0.034 A 
BRANCH  51  65
ATOM     65  C   UNL A   1      41.007  27.594  28.983  1.00  0.00     0.023 A 
ATOM     66  C   UNL A   1      40.174  26.456  28.957  1.00  0.00     0.012 A 
ATOM     67  C   UNL A   1      41.878  27.837  27.903  1.00  0.00     0.148 A 
ATOM     68  C   UNL A   1      40.234  25.555  27.895  1.00  0.00     0.002 A 
ATOM     69  C   UNL A   1      41.895  26.962  26.823  1.00  0.00     0.091 A 
ATOM     70  F   UNL A   1      42.677  28.912  27.955  1.00  0.00    -0.205 F 
ATOM     71  C   UNL A   1      41.085  25.814  26.825  1.00  0.00     0.022 A 
BRANCH  69  72
ATOM     72  S   UNL A   1      42.893  27.250  25.360  1.00  0.00     0.127 S 
ATOM     73  O   UNL A   1      42.200  28.384  24.748  1.00  0.00    -0.237 OA
ATOM     74  O   UNL A   1      44.199  27.574  25.938  1.00  0.00    -0.237 OA
ATOM     75  O   UNL A   1      42.857  26.012  24.595  1.00  0.00    -0.744 OA
ENDBRANCH  69  72
ENDBRANCH  51  65
BRANCH  52  76
ATOM     76  C   UNL A   1      39.786  33.949  36.599  1.00  0.00     0.023 A 
ATOM     77  C   UNL A   1      40.165  35.303  36.508  1.00  0.00     0.012 A 
ATOM     78  C   UNL A   1      39.202  33.481  37.792  1.00  0.00     0.148 A 
ATOM     79  C   UNL A   1      40.002  36.164  37.595  1.00  0.00     0.002 A 
ATOM     80  C   UNL A   1      38.989  34.357  38.850  1.00  0.00     0.091 A 
ATOM     81  F   UNL A   1      38.855  32.188  37.862  1.00  0.00    -0.205 F 
ATOM     82  C   UNL A   1      39.407  35.694  38.761  1.00  0.00     0.022 A 
BRANCH  80  83
ATOM     83  S   UNL A   1      38.116  33.873  40.343  1.00  0.00     0.127 S 
ATOM     84  O   UNL A   1      39.058  32.937  40.951  1.00  0.00    -0.237 OA
ATOM     85  O   UNL A   1      37.982  35.153  41.039  1.00  0.00    -0.237 OA
ATOM     86  O   UNL A   1      36.855  33.299  39.894  1.00  0.00    -0.744 OA
ENDBRANCH  80  83
ENDBRANCH  52  76
BRANCH  64  87
ATOM     87  C   UNL A   1      44.352  28.832  35.228  1.00  0.00     0.023 A 
ATOM     88  C   UNL A   1      45.622  29.425  35.097  1.00  0.00     0.012 A 
ATOM     89  C   UNL A   1      44.161  27.796  36.164  1.00  0.00     0.148 A 
ATOM     90  C   UNL A   1      46.690  28.981  35.876  1.00  0.00     0.002 A 
ATOM     91  C   UNL A   1      45.215  27.396  36.973  1.00  0.00     0.091 A 
ATOM     92  F   UNL A   1      42.945  27.239  36.258  1.00  0.00    -0.205 F 
ATOM     93  C   UNL A   1      46.483  27.980  36.824  1.00  0.00     0.022 A 
BRANCH  91  94
ATOM     94  S   UNL A   1      45.018  26.193  38.292  1.00  0.00     0.127 S 
ATOM     95  O   UNL A   1      46.403  25.794  38.540  1.00  0.00    -0.237 OA
ATOM     96  O   UNL A   1      44.415  26.997  39.355  1.00  0.00    -0.237 OA
ATOM     97  O   UNL A   1      44.158  25.145  37.760  1.00  0.00    -0.744 OA
ENDBRANCH  91  94
ENDBRANCH  64  87
ENDBRANCH  38  39
ENDBRANCH  30  33
ENDBRANCH  28  29
ENDBRANCH  27  28
ENDBRANCH   1  27
TORSDOF 20
ENDMDL
