MODEL 1
REMARK VINA RESULT:     -12.9      0.000      0.000
REMARK SMILES O=C(NCCCCNC(=O)[C@@H]1CCCC[C@@H]1NS(=O)(=O)c1ccc2ccccc2c1)c1ccc(-c2c3nc(c(-c4cccc(S(=O)(=O)[O-])c4F)c4ccc([nH]4)c(-c4cccc(S(=O)(=O)[O-])c4F)c4nc(c(-c5cccc(S(=O)(=O)[O-])c5F)c5ccc2[nH]5)C=C4)C=C3)cc1
REMARK SMILES IDX 5 1 4 2 3 3 1 4 2 5 31 7 32 8 93 9 33 10 92 11 34 12 35 13
REMARK SMILES IDX 36 14 86 15 37 16 91 17 85 18 87 19 38 20 90 21 84 22 83 23
REMARK SMILES IDX 39 25 71 26 51 27 70 28 52 29 55 30 69 31 88 32 53 33 54 34
REMARK SMILES IDX 68 36 89 37 56 38 40 39 41 40 49 41 42 42 44 43 50 44 43 45
REMARK SMILES IDX 45 46 46 47 47 48 48 49 72 50 73 51 81 52 74 53 76 54 82 55
REMARK SMILES IDX 75 56 77 57 78 58 79 59 80 60 57 61 58 62 66 63 59 64 61 65
REMARK SMILES IDX 67 66 60 67 62 68 63 69 64 70 65 71 6 72 7 73 8 74 9 75
REMARK SMILES IDX 10 77 11 78 12 79 16 80 13 81 15 82 14 83 17 84 18 86 19 87
REMARK SMILES IDX 20 88 21 89 22 90 30 91 23 92 29 93 24 94 28 95 25 96 27 97
REMARK SMILES IDX 26 98
REMARK H PARENT 3 6 87 24 55 35 8 76 17 85
REMARK Flexibility Score: inf
ROOT
ATOM      1  C   UNL A   1      31.712  29.724  26.934  1.00  0.00     0.023 C 
ENDROOT
BRANCH   1   2
ATOM      2  C   UNL A   1      32.838  30.665  26.507  1.00  0.00     0.116 C 
BRANCH   2   3
ATOM      3  N   UNL A   1      32.663  32.065  26.862  1.00  0.00    -0.352 N 
ATOM      4  O   UNL A   1      33.181  34.025  27.883  1.00  0.00    -0.269 OA
ATOM      5  C   UNL A   1      33.492  32.867  27.622  1.00  0.00     0.251 C 
ATOM      6  H   UNL A   1      31.850  32.498  26.515  1.00  0.00     0.163 HD
BRANCH   5   7
ATOM      7  C   UNL A   1      34.754  32.292  28.137  1.00  0.00     0.039 A 
ATOM      8  C   UNL A   1      34.728  31.057  28.785  1.00  0.00     0.014 A 
ATOM      9  C   UNL A   1      35.942  33.021  28.047  1.00  0.00     0.014 A 
ATOM     10  C   UNL A   1      35.845  30.637  29.496  1.00  0.00     0.010 A 
ATOM     11  C   UNL A   1      37.096  32.544  28.684  1.00  0.00     0.010 A 
ATOM     12  C   UNL A   1      37.048  31.367  29.448  1.00  0.00    -0.014 A 
BRANCH  12  13
ATOM     13  C   UNL A   1      38.246  30.813  30.136  1.00  0.00     0.031 A 
ATOM     14  C   UNL A   1      38.627  31.214  31.538  1.00  0.00     0.074 A 
ATOM     15  C   UNL A   1      38.983  29.895  29.479  1.00  0.00     0.049 A 
ATOM     16  N   UNL A   1      39.608  30.765  32.281  1.00  0.00    -0.248 NA
ATOM     17  C   UNL A   1      37.814  32.251  32.193  1.00  0.00     0.031 C 
ATOM     18  C   UNL A   1      38.747  29.463  28.098  1.00  0.00     0.029 A 
ATOM     19  N   UNL A   1      40.066  29.153  29.875  1.00  0.00    -0.354 N 
ATOM     20  C   UNL A   1      39.550  31.475  33.476  1.00  0.00     0.074 A 
ATOM     21  C   UNL A   1      38.442  32.400  33.353  1.00  0.00     0.031 C 
ATOM     22  C   UNL A   1      39.631  28.510  27.775  1.00  0.00     0.029 A 
ATOM     23  C   UNL A   1      40.541  28.313  28.896  1.00  0.00     0.049 A 
ATOM     24  H   UNL A   1      40.466  29.215  30.773  1.00  0.00     0.167 HD
ATOM     25  C   UNL A   1      40.335  31.355  34.576  1.00  0.00     0.034 A 
ATOM     26  C   UNL A   1      41.607  27.493  28.881  1.00  0.00     0.034 A 
ATOM     27  C   UNL A   1      41.428  30.424  34.694  1.00  0.00     0.049 A 
ATOM     28  C   UNL A   1      42.451  27.380  30.116  1.00  0.00     0.074 A 
ATOM     29  C   UNL A   1      42.255  30.201  35.784  1.00  0.00     0.029 A 
ATOM     30  N   UNL A   1      41.859  29.566  33.693  1.00  0.00    -0.354 N 
ATOM     31  N   UNL A   1      42.303  27.977  31.273  1.00  0.00    -0.248 NA
ATOM     32  C   UNL A   1      43.590  26.456  30.054  1.00  0.00     0.031 C 
ATOM     33  C   UNL A   1      43.202  29.235  35.430  1.00  0.00     0.029 A 
ATOM     34  C   UNL A   1      42.942  28.822  34.135  1.00  0.00     0.049 A 
ATOM     35  H   UNL A   1      41.454  29.496  32.798  1.00  0.00     0.167 HD
ATOM     36  C   UNL A   1      43.318  27.486  32.084  1.00  0.00     0.074 A 
ATOM     37  C   UNL A   1      44.044  26.509  31.297  1.00  0.00     0.031 C 
ATOM     38  C   UNL A   1      43.636  27.827  33.357  1.00  0.00     0.034 A 
BRANCH  25  39
ATOM     39  C   UNL A   1      40.026  32.226  35.771  1.00  0.00     0.023 A 
ATOM     40  C   UNL A   1      40.719  33.442  35.940  1.00  0.00     0.012 A 
ATOM     41  C   UNL A   1      38.986  31.897  36.664  1.00  0.00     0.148 A 
ATOM     42  C   UNL A   1      40.398  34.306  36.989  1.00  0.00     0.002 A 
ATOM     43  C   UNL A   1      38.643  32.781  37.682  1.00  0.00     0.091 A 
ATOM     44  F   UNL A   1      38.344  30.732  36.494  1.00  0.00    -0.205 F 
ATOM     45  C   UNL A   1      39.355  33.980  37.851  1.00  0.00     0.022 A 
BRANCH  43  46
ATOM     46  S   UNL A   1      37.265  32.499  38.799  1.00  0.00     0.127 S 
ATOM     47  O   UNL A   1      37.394  31.068  39.072  1.00  0.00    -0.237 OA
ATOM     48  O   UNL A   1      37.602  33.367  39.927  1.00  0.00    -0.237 OA
ATOM     49  O   UNL A   1      36.065  32.884  38.067  1.00  0.00    -0.744 OA
ENDBRANCH  43  46
ENDBRANCH  25  39
BRANCH  26  50
ATOM     50  C   UNL A   1      41.934  26.718  27.651  1.00  0.00     0.023 A 
ATOM     51  C   UNL A   1      42.539  27.360  26.554  1.00  0.00     0.012 A 
ATOM     52  C   UNL A   1      41.655  25.340  27.574  1.00  0.00     0.148 A 
ATOM     53  C   UNL A   1      42.819  26.651  25.385  1.00  0.00     0.002 A 
ATOM     54  C   UNL A   1      41.999  24.626  26.434  1.00  0.00     0.091 A 
ATOM     55  F   UNL A   1      41.067  24.750  28.624  1.00  0.00    -0.205 F 
ATOM     56  C   UNL A   1      42.560  25.283  25.329  1.00  0.00     0.022 A 
BRANCH  54  57
ATOM     57  S   UNL A   1      41.832  22.842  26.340  1.00  0.00     0.127 S 
ATOM     58  O   UNL A   1      42.463  22.551  25.056  1.00  0.00    -0.237 OA
ATOM     59  O   UNL A   1      42.589  22.403  27.513  1.00  0.00    -0.237 OA
ATOM     60  O   UNL A   1      40.402  22.578  26.419  1.00  0.00    -0.744 OA
ENDBRANCH  54  57
ENDBRANCH  26  50
BRANCH  38  61
ATOM     61  C   UNL A   1      44.803  27.112  33.987  1.00  0.00     0.023 A 
ATOM     62  C   UNL A   1      46.110  27.619  33.826  1.00  0.00     0.012 A 
ATOM     63  C   UNL A   1      44.605  25.946  34.750  1.00  0.00     0.148 A 
ATOM     64  C   UNL A   1      47.204  26.947  34.370  1.00  0.00     0.002 A 
ATOM     65  C   UNL A   1      45.694  25.312  35.336  1.00  0.00     0.091 A 
ATOM     66  F   UNL A   1      43.359  25.468  34.877  1.00  0.00    -0.205 F 
ATOM     67  C   UNL A   1      46.995  25.799  35.131  1.00  0.00     0.022 A 
BRANCH  65  68
ATOM     68  S   UNL A   1      45.515  23.884  36.410  1.00  0.00     0.127 S 
ATOM     69  O   UNL A   1      46.907  23.568  36.722  1.00  0.00    -0.237 OA
ATOM     70  O   UNL A   1      44.749  24.434  37.530  1.00  0.00    -0.237 OA
ATOM     71  O   UNL A   1      44.806  22.880  35.630  1.00  0.00    -0.744 OA
ENDBRANCH  65  68
ENDBRANCH  38  61
ENDBRANCH  12  13
ENDBRANCH   5   7
ENDBRANCH   2   3
ENDBRANCH   1   2
BRANCH   1  72
ATOM     72  C   UNL A   1      32.061  28.368  27.557  1.00  0.00     0.023 C 
BRANCH  72  73
ATOM     73  C   UNL A   1      32.904  27.410  26.718  1.00  0.00     0.116 C 
BRANCH  73  74
ATOM     74  N   UNL A   1      32.254  26.156  26.378  1.00  0.00    -0.356 N 
ATOM     75  C   UNL A   1      31.306  25.828  25.451  1.00  0.00     0.224 C 
ATOM     76  H   UNL A   1      32.557  25.393  26.922  1.00  0.00     0.163 HD
ATOM     77  O   UNL A   1      30.924  24.653  25.465  1.00  0.00    -0.275 OA
BRANCH  75  78
ATOM     78  C   UNL A   1      30.599  26.846  24.558  1.00  0.00     0.096 C 
ATOM     79  C   UNL A   1      29.263  26.331  23.961  1.00  0.00     0.015 C 
ATOM     80  C   UNL A   1      31.357  27.572  23.445  1.00  0.00     0.082 C 
ATOM     81  C   UNL A   1      28.384  27.494  23.480  1.00  0.00     0.001 C 
ATOM     82  C   UNL A   1      30.535  28.861  23.174  1.00  0.00     0.021 C 
ATOM     83  C   UNL A   1      29.121  28.566  22.672  1.00  0.00     0.002 C 
BRANCH  80  84
ATOM     84  N   UNL A   1      31.451  26.807  22.170  1.00  0.00    -0.207 NA
ATOM     85  H   UNL A   1      31.136  27.452  21.445  1.00  0.00     0.141 HD
BRANCH  84  86
ATOM     86  S   UNL A   1      32.852  26.095  21.556  1.00  0.00     0.240 S 
ATOM     87  O   UNL A   1      32.455  25.599  20.258  1.00  0.00    -0.207 OA
ATOM     88  O   UNL A   1      33.912  27.069  21.665  1.00  0.00    -0.207 OA
BRANCH  86  89
ATOM     89  C   UNL A   1      33.232  24.673  22.560  1.00  0.00     0.083 A 
ATOM     90  C   UNL A   1      34.273  24.743  23.484  1.00  0.00     0.022 A 
ATOM     91  C   UNL A   1      32.432  23.526  22.527  1.00  0.00     0.030 A 
ATOM     92  C   UNL A   1      34.574  23.633  24.284  1.00  0.00     0.010 A 
ATOM     93  C   UNL A   1      32.790  22.362  23.243  1.00  0.00    -0.017 A 
ATOM     94  C   UNL A   1      33.877  22.421  24.139  1.00  0.00    -0.018 A 
ATOM     95  C   UNL A   1      32.130  21.130  23.057  1.00  0.00     0.009 A 
ATOM     96  C   UNL A   1      34.254  21.262  24.845  1.00  0.00     0.009 A 
ATOM     97  C   UNL A   1      32.557  19.973  23.718  1.00  0.00     0.001 A 
ATOM     98  C   UNL A   1      33.613  20.043  24.620  1.00  0.00     0.001 A 
ENDBRANCH  86  89
ENDBRANCH  84  86
ENDBRANCH  80  84
ENDBRANCH  75  78
ENDBRANCH  73  74
ENDBRANCH  72  73
ENDBRANCH   1  72
TORSDOF 17
ENDMDL
MODEL 2
REMARK VINA RESULT:     -12.8      1.020      3.240
REMARK SMILES O=C(NCCCCNC(=O)[C@@H]1CCCC[C@@H]1NS(=O)(=O)c1ccc2ccccc2c1)c1ccc(-c2c3nc(c(-c4cccc(S(=O)(=O)[O-])c4F)c4ccc([nH]4)c(-c4cccc(S(=O)(=O)[O-])c4F)c4nc(c(-c5cccc(S(=O)(=O)[O-])c5F)c5ccc2[nH]5)C=C4)C=C3)cc1
REMARK SMILES IDX 5 1 4 2 3 3 1 4 2 5 31 7 32 8 93 9 33 10 92 11 34 12 35 13
REMARK SMILES IDX 36 14 86 15 37 16 91 17 85 18 87 19 38 20 90 21 84 22 83 23
REMARK SMILES IDX 39 25 71 26 51 27 70 28 52 29 55 30 69 31 88 32 53 33 54 34
REMARK SMILES IDX 68 36 89 37 56 38 40 39 41 40 49 41 42 42 44 43 50 44 43 45
REMARK SMILES IDX 45 46 46 47 47 48 48 49 72 50 73 51 81 52 74 53 76 54 82 55
REMARK SMILES IDX 75 56 77 57 78 58 79 59 80 60 57 61 58 62 66 63 59 64 61 65
REMARK SMILES IDX 67 66 60 67 62 68 63 69 64 70 65 71 6 72 7 73 8 74 9 75
REMARK SMILES IDX 10 77 11 78 12 79 16 80 13 81 15 82 14 83 17 84 18 86 19 87
REMARK SMILES IDX 20 88 21 89 22 90 30 91 23 92 29 93 24 94 28 95 25 96 27 97
REMARK SMILES IDX 26 98
REMARK H PARENT 3 6 87 24 55 35 8 76 17 85
REMARK Flexibility Score: inf
ROOT
ATOM      1  C   UNL A   1      31.956  29.072  27.054  1.00  0.00     0.023 C 
ENDROOT
BRANCH   1   2
ATOM      2  C   UNL A   1      32.999  30.049  26.512  1.00  0.00     0.116 C 
BRANCH   2   3
ATOM      3  N   UNL A   1      32.782  31.452  26.834  1.00  0.00    -0.352 N 
ATOM      4  O   UNL A   1      33.250  33.453  27.794  1.00  0.00    -0.269 OA
ATOM      5  C   UNL A   1      33.597  32.301  27.557  1.00  0.00     0.251 C 
ATOM      6  H   UNL A   1      31.947  31.846  26.493  1.00  0.00     0.163 HD
BRANCH   5   7
ATOM      7  C   UNL A   1      34.887  31.783  28.061  1.00  0.00     0.039 A 
ATOM      8  C   UNL A   1      34.934  30.518  28.647  1.00  0.00     0.014 A 
ATOM      9  C   UNL A   1      36.027  32.591  28.024  1.00  0.00     0.014 A 
ATOM     10  C   UNL A   1      36.069  30.136  29.352  1.00  0.00     0.010 A 
ATOM     11  C   UNL A   1      37.202  32.158  28.653  1.00  0.00     0.010 A 
ATOM     12  C   UNL A   1      37.223  30.943  29.358  1.00  0.00    -0.014 A 
BRANCH  12  13
ATOM     13  C   UNL A   1      38.446  30.435  30.035  1.00  0.00     0.031 A 
ATOM     14  C   UNL A   1      38.833  30.861  31.428  1.00  0.00     0.074 A 
ATOM     15  C   UNL A   1      39.203  29.533  29.376  1.00  0.00     0.049 A 
ATOM     16  N   UNL A   1      39.837  30.451  32.161  1.00  0.00    -0.248 NA
ATOM     17  C   UNL A   1      37.996  31.878  32.084  1.00  0.00     0.031 C 
ATOM     18  C   UNL A   1      38.962  29.081  28.003  1.00  0.00     0.029 A 
ATOM     19  N   UNL A   1      40.314  28.830  29.765  1.00  0.00    -0.354 N 
ATOM     20  C   UNL A   1      39.772  31.170  33.350  1.00  0.00     0.074 A 
ATOM     21  C   UNL A   1      38.634  32.058  33.234  1.00  0.00     0.031 C 
ATOM     22  C   UNL A   1      39.872  28.153  27.676  1.00  0.00     0.029 A 
ATOM     23  C   UNL A   1      40.802  27.996  28.787  1.00  0.00     0.049 A 
ATOM     24  H   UNL A   1      40.723  28.914  30.657  1.00  0.00     0.167 HD
ATOM     25  C   UNL A   1      40.574  31.086  34.441  1.00  0.00     0.034 A 
ATOM     26  C   UNL A   1      41.893  27.209  28.766  1.00  0.00     0.034 A 
ATOM     27  C   UNL A   1      41.698  30.190  34.553  1.00  0.00     0.049 A 
ATOM     28  C   UNL A   1      42.756  27.135  29.990  1.00  0.00     0.074 A 
ATOM     29  C   UNL A   1      42.546  30.004  35.634  1.00  0.00     0.029 A 
ATOM     30  N   UNL A   1      42.143  29.336  33.554  1.00  0.00    -0.354 N 
ATOM     31  N   UNL A   1      42.605  27.738  31.144  1.00  0.00    -0.248 NA
ATOM     32  C   UNL A   1      43.924  26.247  29.922  1.00  0.00     0.031 C 
ATOM     33  C   UNL A   1      43.519  29.064  35.276  1.00  0.00     0.029 A 
ATOM     34  C   UNL A   1      43.254  28.631  33.989  1.00  0.00     0.049 A 
ATOM     35  H   UNL A   1      41.728  29.245  32.665  1.00  0.00     0.167 HD
ATOM     36  C   UNL A   1      43.645  27.287  31.945  1.00  0.00     0.074 A 
ATOM     37  C   UNL A   1      44.392  26.326  31.158  1.00  0.00     0.031 C 
ATOM     38  C   UNL A   1      43.969  27.651  33.211  1.00  0.00     0.034 A 
BRANCH  25  39
ATOM     39  C   UNL A   1      40.254  31.958  35.632  1.00  0.00     0.023 A 
ATOM     40  C   UNL A   1      41.018  33.119  35.865  1.00  0.00     0.012 A 
ATOM     41  C   UNL A   1      39.140  31.690  36.454  1.00  0.00     0.148 A 
ATOM     42  C   UNL A   1      40.694  33.988  36.910  1.00  0.00     0.002 A 
ATOM     43  C   UNL A   1      38.798  32.580  37.466  1.00  0.00     0.091 A 
ATOM     44  F   UNL A   1      38.431  30.576  36.223  1.00  0.00    -0.205 F 
ATOM     45  C   UNL A   1      39.579  33.723  37.701  1.00  0.00     0.022 A 
BRANCH  43  46
ATOM     46  S   UNL A   1      37.337  32.379  38.492  1.00  0.00     0.127 S 
ATOM     47  O   UNL A   1      36.309  33.018  37.670  1.00  0.00    -0.237 OA
ATOM     48  O   UNL A   1      37.225  30.924  38.585  1.00  0.00    -0.237 OA
ATOM     49  O   UNL A   1      37.631  33.052  39.750  1.00  0.00    -0.744 OA
ENDBRANCH  43  46
ENDBRANCH  25  39
BRANCH  26  50
ATOM     50  C   UNL A   1      42.229  26.434  27.538  1.00  0.00     0.023 A 
ATOM     51  C   UNL A   1      42.857  27.070  26.452  1.00  0.00     0.012 A 
ATOM     52  C   UNL A   1      41.935  25.059  27.454  1.00  0.00     0.148 A 
ATOM     53  C   UNL A   1      43.145  26.361  25.285  1.00  0.00     0.002 A 
ATOM     54  C   UNL A   1      42.286  24.344  26.318  1.00  0.00     0.091 A 
ATOM     55  F   UNL A   1      41.324  24.474  28.495  1.00  0.00    -0.205 F 
ATOM     56  C   UNL A   1      42.870  24.996  25.223  1.00  0.00     0.022 A 
BRANCH  54  57
ATOM     57  S   UNL A   1      42.099  22.561  26.217  1.00  0.00     0.127 S 
ATOM     58  O   UNL A   1      40.647  22.413  26.211  1.00  0.00    -0.237 OA
ATOM     59  O   UNL A   1      42.756  22.259  24.945  1.00  0.00    -0.237 OA
ATOM     60  O   UNL A   1      42.788  22.029  27.385  1.00  0.00    -0.744 OA
ENDBRANCH  54  57
ENDBRANCH  26  50
BRANCH  38  61
ATOM     61  C   UNL A   1      45.167  26.979  33.831  1.00  0.00     0.023 A 
ATOM     62  C   UNL A   1      46.463  27.473  33.575  1.00  0.00     0.012 A 
ATOM     63  C   UNL A   1      45.008  25.868  34.681  1.00  0.00     0.148 A 
ATOM     64  C   UNL A   1      47.583  26.838  34.110  1.00  0.00     0.002 A 
ATOM     65  C   UNL A   1      46.124  25.274  35.256  1.00  0.00     0.091 A 
ATOM     66  F   UNL A   1      43.770  25.400  34.899  1.00  0.00    -0.205 F 
ATOM     67  C   UNL A   1      47.413  25.745  34.957  1.00  0.00     0.022 A 
BRANCH  65  68
ATOM     68  S   UNL A   1      45.999  23.923  36.432  1.00  0.00     0.127 S 
ATOM     69  O   UNL A   1      47.406  23.642  36.715  1.00  0.00    -0.237 OA
ATOM     70  O   UNL A   1      45.267  24.542  37.538  1.00  0.00    -0.237 OA
ATOM     71  O   UNL A   1      45.275  22.860  35.749  1.00  0.00    -0.744 OA
ENDBRANCH  65  68
ENDBRANCH  38  61
ENDBRANCH  12  13
ENDBRANCH   5   7
ENDBRANCH   2   3
ENDBRANCH   1   2
BRANCH   1  72
ATOM     72  C   UNL A   1      31.580  27.839  26.226  1.00  0.00     0.023 C 
BRANCH  72  73
ATOM     73  C   UNL A   1      32.547  26.657  26.252  1.00  0.00     0.116 C 
BRANCH  73  74
ATOM     74  N   UNL A   1      31.922  25.355  26.414  1.00  0.00    -0.356 N 
ATOM     75  C   UNL A   1      32.297  24.097  26.038  1.00  0.00     0.224 C 
ATOM     76  H   UNL A   1      31.060  25.386  26.889  1.00  0.00     0.163 HD
ATOM     77  O   UNL A   1      31.487  23.198  26.289  1.00  0.00    -0.275 OA
BRANCH  75  78
ATOM     78  C   UNL A   1      33.535  23.792  25.197  1.00  0.00     0.096 C 
ATOM     79  C   UNL A   1      34.849  24.366  25.789  1.00  0.00     0.015 C 
ATOM     80  C   UNL A   1      33.546  24.060  23.691  1.00  0.00     0.082 C 
ATOM     81  C   UNL A   1      36.079  23.662  25.199  1.00  0.00     0.001 C 
ATOM     82  C   UNL A   1      34.659  23.135  23.126  1.00  0.00     0.021 C 
ATOM     83  C   UNL A   1      36.044  23.473  23.679  1.00  0.00     0.002 C 
BRANCH  80  84
ATOM     84  N   UNL A   1      33.880  25.464  23.323  1.00  0.00    -0.207 NA
ATOM     85  H   UNL A   1      34.889  25.470  23.171  1.00  0.00     0.141 HD
BRANCH  84  86
ATOM     86  S   UNL A   1      33.227  26.319  22.023  1.00  0.00     0.240 S 
ATOM     87  O   UNL A   1      34.061  27.494  21.920  1.00  0.00    -0.207 OA
ATOM     88  O   UNL A   1      33.129  25.400  20.912  1.00  0.00    -0.207 OA
BRANCH  86  89
ATOM     89  C   UNL A   1      31.601  26.875  22.491  1.00  0.00     0.083 A 
ATOM     90  C   UNL A   1      30.727  25.992  23.122  1.00  0.00     0.022 A 
ATOM     91  C   UNL A   1      31.224  28.215  22.349  1.00  0.00     0.030 A 
ATOM     92  C   UNL A   1      29.450  26.423  23.502  1.00  0.00     0.010 A 
ATOM     93  C   UNL A   1      29.904  28.637  22.623  1.00  0.00    -0.017 A 
ATOM     94  C   UNL A   1      29.005  27.725  23.212  1.00  0.00    -0.018 A 
ATOM     95  C   UNL A   1      29.437  29.924  22.281  1.00  0.00     0.009 A 
ATOM     96  C   UNL A   1      27.682  28.129  23.473  1.00  0.00     0.009 A 
ATOM     97  C   UNL A   1      28.103  30.288  22.488  1.00  0.00     0.001 A 
ATOM     98  C   UNL A   1      27.228  29.394  23.094  1.00  0.00     0.001 A 
ENDBRANCH  86  89
ENDBRANCH  84  86
ENDBRANCH  80  84
ENDBRANCH  75  78
ENDBRANCH  73  74
ENDBRANCH  72  73
ENDBRANCH   1  72
TORSDOF 17
ENDMDL
MODEL 3
REMARK VINA RESULT:     -12.6      5.438      8.946
REMARK SMILES O=C(NCCCCNC(=O)[C@@H]1CCCC[C@@H]1NS(=O)(=O)c1ccc2ccccc2c1)c1ccc(-c2c3nc(c(-c4cccc(S(=O)(=O)[O-])c4F)c4ccc([nH]4)c(-c4cccc(S(=O)(=O)[O-])c4F)c4nc(c(-c5cccc(S(=O)(=O)[O-])c5F)c5ccc2[nH]5)C=C4)C=C3)cc1
REMARK SMILES IDX 5 1 4 2 3 3 1 4 2 5 31 7 32 8 93 9 33 10 92 11 34 12 35 13
REMARK SMILES IDX 36 14 86 15 37 16 91 17 85 18 87 19 38 20 90 21 84 22 83 23
REMARK SMILES IDX 39 25 71 26 51 27 70 28 52 29 55 30 69 31 88 32 53 33 54 34
REMARK SMILES IDX 68 36 89 37 56 38 40 39 41 40 49 41 42 42 44 43 50 44 43 45
REMARK SMILES IDX 45 46 46 47 47 48 48 49 72 50 73 51 81 52 74 53 76 54 82 55
REMARK SMILES IDX 75 56 77 57 78 58 79 59 80 60 57 61 58 62 66 63 59 64 61 65
REMARK SMILES IDX 67 66 60 67 62 68 63 69 64 70 65 71 6 72 7 73 8 74 9 75
REMARK SMILES IDX 10 77 11 78 12 79 16 80 13 81 15 82 14 83 17 84 18 86 19 87
REMARK SMILES IDX 20 88 21 89 22 90 30 91 23 92 29 93 24 94 28 95 25 96 27 97
REMARK SMILES IDX 26 98
REMARK H PARENT 3 6 87 24 55 35 8 76 17 85
REMARK Flexibility Score: inf
ROOT
ATOM      1  C   UNL A   1      38.066  19.876  24.853  1.00  0.00     0.023 C 
ENDROOT
BRANCH   1   2
ATOM      2  C   UNL A   1      38.904  19.739  26.124  1.00  0.00     0.116 C 
BRANCH   2   3
ATOM      3  N   UNL A   1      40.131  18.968  25.994  1.00  0.00    -0.352 N 
ATOM      4  O   UNL A   1      42.375  18.640  25.937  1.00  0.00    -0.269 OA
ATOM      5  C   UNL A   1      41.434  19.403  26.132  1.00  0.00     0.251 C 
ATOM      6  H   UNL A   1      40.018  18.014  25.782  1.00  0.00     0.163 HD
BRANCH   5   7
ATOM      7  C   UNL A   1      41.674  20.816  26.495  1.00  0.00     0.039 A 
ATOM      8  C   UNL A   1      41.421  21.816  25.555  1.00  0.00     0.014 A 
ATOM      9  C   UNL A   1      42.226  21.136  27.738  1.00  0.00     0.014 A 
ATOM     10  C   UNL A   1      41.885  23.104  25.788  1.00  0.00     0.010 A 
ATOM     11  C   UNL A   1      42.604  22.458  28.008  1.00  0.00     0.010 A 
ATOM     12  C   UNL A   1      42.474  23.448  27.021  1.00  0.00    -0.014 A 
BRANCH  12  13
ATOM     13  C   UNL A   1      42.852  24.868  27.260  1.00  0.00     0.031 A 
ATOM     14  C   UNL A   1      41.922  25.848  27.928  1.00  0.00     0.074 A 
ATOM     15  C   UNL A   1      44.088  25.262  26.892  1.00  0.00     0.049 A 
ATOM     16  N   UNL A   1      42.144  27.096  28.254  1.00  0.00    -0.248 NA
ATOM     17  C   UNL A   1      40.570  25.377  28.270  1.00  0.00     0.031 C 
ATOM     18  C   UNL A   1      45.061  24.420  26.190  1.00  0.00     0.029 A 
ATOM     19  N   UNL A   1      44.744  26.454  27.060  1.00  0.00    -0.354 N 
ATOM     20  C   UNL A   1      40.963  27.570  28.815  1.00  0.00     0.074 A 
ATOM     21  C   UNL A   1      40.016  26.474  28.771  1.00  0.00     0.031 C 
ATOM     22  C   UNL A   1      46.199  25.106  26.019  1.00  0.00     0.029 A 
ATOM     23  C   UNL A   1      46.014  26.457  26.534  1.00  0.00     0.049 A 
ATOM     24  H   UNL A   1      44.345  27.232  27.514  1.00  0.00     0.167 HD
ATOM     25  C   UNL A   1      40.698  28.795  29.333  1.00  0.00     0.034 A 
ATOM     26  C   UNL A   1      46.927  27.442  26.444  1.00  0.00     0.034 A 
ATOM     27  C   UNL A   1      41.650  29.877  29.385  1.00  0.00     0.049 A 
ATOM     28  C   UNL A   1      46.604  28.784  27.032  1.00  0.00     0.074 A 
ATOM     29  C   UNL A   1      41.487  31.142  29.926  1.00  0.00     0.029 A 
ATOM     30  N   UNL A   1      42.938  29.833  28.871  1.00  0.00    -0.354 N 
ATOM     31  N   UNL A   1      45.522  29.169  27.661  1.00  0.00    -0.248 NA
ATOM     32  C   UNL A   1      47.642  29.817  26.925  1.00  0.00     0.031 C 
ATOM     33  C   UNL A   1      42.662  31.870  29.711  1.00  0.00     0.029 A 
ATOM     34  C   UNL A   1      43.574  31.047  29.074  1.00  0.00     0.049 A 
ATOM     35  H   UNL A   1      43.340  29.052  28.426  1.00  0.00     0.167 HD
ATOM     36  C   UNL A   1      45.755  30.484  28.044  1.00  0.00     0.074 A 
ATOM     37  C   UNL A   1      47.100  30.810  27.614  1.00  0.00     0.031 C 
ATOM     38  C   UNL A   1      44.925  31.351  28.674  1.00  0.00     0.034 A 
BRANCH  25  39
ATOM     39  C   UNL A   1      39.332  29.039  29.929  1.00  0.00     0.023 A 
ATOM     40  C   UNL A   1      39.052  28.582  31.232  1.00  0.00     0.012 A 
ATOM     41  C   UNL A   1      38.365  29.808  29.247  1.00  0.00     0.148 A 
ATOM     42  C   UNL A   1      37.826  28.864  31.839  1.00  0.00     0.002 A 
ATOM     43  C   UNL A   1      37.164  30.121  29.873  1.00  0.00     0.091 A 
ATOM     44  F   UNL A   1      38.645  30.227  28.005  1.00  0.00    -0.205 F 
ATOM     45  C   UNL A   1      36.889  29.641  31.165  1.00  0.00     0.022 A 
BRANCH  43  46
ATOM     46  S   UNL A   1      35.920  31.182  29.128  1.00  0.00     0.127 S 
ATOM     47  O   UNL A   1      35.179  31.638  30.304  1.00  0.00    -0.237 OA
ATOM     48  O   UNL A   1      36.738  32.211  28.488  1.00  0.00    -0.237 OA
ATOM     49  O   UNL A   1      35.166  30.339  28.210  1.00  0.00    -0.744 OA
ENDBRANCH  43  46
ENDBRANCH  25  39
BRANCH  26  50
ATOM     50  C   UNL A   1      48.230  27.190  25.766  1.00  0.00     0.023 A 
ATOM     51  C   UNL A   1      49.326  26.706  26.504  1.00  0.00     0.012 A 
ATOM     52  C   UNL A   1      48.377  27.421  24.385  1.00  0.00     0.148 A 
ATOM     53  C   UNL A   1      50.560  26.499  25.885  1.00  0.00     0.002 A 
ATOM     54  C   UNL A   1      49.587  27.149  23.762  1.00  0.00     0.091 A 
ATOM     55  F   UNL A   1      47.325  27.895  23.702  1.00  0.00    -0.205 F 
ATOM     56  C   UNL A   1      50.687  26.709  24.514  1.00  0.00     0.022 A 
BRANCH  54  57
ATOM     57  S   UNL A   1      49.789  27.253  21.982  1.00  0.00     0.127 S 
ATOM     58  O   UNL A   1      48.835  26.253  21.514  1.00  0.00    -0.237 OA
ATOM     59  O   UNL A   1      49.410  28.642  21.714  1.00  0.00    -0.237 OA
ATOM     60  O   UNL A   1      51.194  26.959  21.730  1.00  0.00    -0.744 OA
ENDBRANCH  54  57
ENDBRANCH  26  50
BRANCH  38  61
ATOM     61  C   UNL A   1      45.465  32.728  28.963  1.00  0.00     0.023 A 
ATOM     62  C   UNL A   1      46.105  32.989  30.192  1.00  0.00     0.012 A 
ATOM     63  C   UNL A   1      45.351  33.760  28.012  1.00  0.00     0.148 A 
ATOM     64  C   UNL A   1      46.575  34.268  30.491  1.00  0.00     0.002 A 
ATOM     65  C   UNL A   1      45.871  35.017  28.294  1.00  0.00     0.091 A 
ATOM     66  F   UNL A   1      44.723  33.499  26.856  1.00  0.00    -0.205 F 
ATOM     67  C   UNL A   1      46.465  35.278  29.539  1.00  0.00     0.022 A 
BRANCH  65  68
ATOM     68  S   UNL A   1      45.862  36.354  27.094  1.00  0.00     0.127 S 
ATOM     69  O   UNL A   1      44.457  36.758  27.108  1.00  0.00    -0.237 OA
ATOM     70  O   UNL A   1      46.780  37.319  27.701  1.00  0.00    -0.237 OA
ATOM     71  O   UNL A   1      46.334  35.777  25.844  1.00  0.00    -0.744 OA
ENDBRANCH  65  68
ENDBRANCH  38  61
ENDBRANCH  12  13
ENDBRANCH   5   7
ENDBRANCH   2   3
ENDBRANCH   1   2
BRANCH   1  72
ATOM     72  C   UNL A   1      37.329  21.191  24.578  1.00  0.00     0.023 C 
BRANCH  72  73
ATOM     73  C   UNL A   1      36.609  21.849  25.753  1.00  0.00     0.116 C 
BRANCH  73  74
ATOM     74  N   UNL A   1      36.118  23.193  25.500  1.00  0.00    -0.356 N 
ATOM     75  C   UNL A   1      35.013  23.666  24.851  1.00  0.00     0.224 C 
ATOM     76  H   UNL A   1      36.694  23.901  25.869  1.00  0.00     0.163 HD
ATOM     77  O   UNL A   1      34.924  24.895  24.768  1.00  0.00    -0.275 OA
BRANCH  75  78
ATOM     78  C   UNL A   1      34.019  22.780  24.102  1.00  0.00     0.096 C 
ATOM     79  C   UNL A   1      33.253  23.518  22.973  1.00  0.00     0.015 C 
ATOM     80  C   UNL A   1      33.011  21.916  24.862  1.00  0.00     0.082 C 
ATOM     81  C   UNL A   1      32.643  22.525  21.974  1.00  0.00     0.001 C 
ATOM     82  C   UNL A   1      32.616  20.791  23.867  1.00  0.00     0.021 C 
ATOM     83  C   UNL A   1      31.929  21.329  22.611  1.00  0.00     0.002 C 
BRANCH  80  84
ATOM     84  N   UNL A   1      31.771  22.636  25.264  1.00  0.00    -0.207 NA
ATOM     85  H   UNL A   1      31.080  21.906  25.436  1.00  0.00     0.141 HD
BRANCH  84  86
ATOM     86  S   UNL A   1      31.632  23.696  26.570  1.00  0.00     0.240 S 
ATOM     87  O   UNL A   1      30.356  23.364  27.159  1.00  0.00    -0.207 OA
ATOM     88  O   UNL A   1      32.843  23.578  27.348  1.00  0.00    -0.207 OA
BRANCH  86  89
ATOM     89  C   UNL A   1      31.490  25.350  25.922  1.00  0.00     0.083 A 
ATOM     90  C   UNL A   1      32.309  26.358  26.425  1.00  0.00     0.022 A 
ATOM     91  C   UNL A   1      30.657  25.634  24.834  1.00  0.00     0.030 A 
ATOM     92  C   UNL A   1      32.210  27.660  25.916  1.00  0.00     0.010 A 
ATOM     93  C   UNL A   1      30.464  26.960  24.385  1.00  0.00    -0.017 A 
ATOM     94  C   UNL A   1      31.258  27.987  24.935  1.00  0.00    -0.018 A 
ATOM     95  C   UNL A   1      29.471  27.300  23.444  1.00  0.00     0.009 A 
ATOM     96  C   UNL A   1      31.062  29.314  24.509  1.00  0.00     0.009 A 
ATOM     97  C   UNL A   1      29.246  28.632  23.079  1.00  0.00     0.001 A 
ATOM     98  C   UNL A   1      30.049  29.638  23.604  1.00  0.00     0.001 A 
ENDBRANCH  86  89
ENDBRANCH  84  86
ENDBRANCH  80  84
ENDBRANCH  75  78
ENDBRANCH  73  74
ENDBRANCH  72  73
ENDBRANCH   1  72
TORSDOF 17
ENDMDL
