MODEL 1
REMARK VINA RESULT:     -12.0      0.000      0.000
REMARK SMILES COc1ccc(Cl)cc1-c1cnc(OC)c(C(=O)NCCCCNC(=O)c2ccc(-c3c4nc(c(-c5cccc(S(=O)(=O)[O-])c5F)c5ccc([nH]5)c(-c5cccc(S(=O)(=O)[O-])c5F)c5nc(c(-c6cccc(S(=O)(=O)[O-])c6F)c6ccc3[nH]6)C=C5)C=C4)cc2)c1
REMARK SMILES IDX 22 1 21 2 20 3 19 4 17 5 18 6 16 8 10 9 11 10 90 11 12 12
REMARK SMILES IDX 13 13 9 14 3 15 4 16 5 17 8 18 6 19 7 20 2 21 1 22 14 23
REMARK SMILES IDX 15 24 23 25 24 26 25 27 26 29 27 30 28 31 89 32 29 33 88 34
REMARK SMILES IDX 30 35 31 36 32 37 82 38 33 39 87 40 81 41 83 42 34 43 86 44
REMARK SMILES IDX 80 45 79 46 35 48 67 49 47 50 66 51 48 52 51 53 65 54 84 55
REMARK SMILES IDX 49 56 50 57 64 59 85 60 52 61 36 62 37 63 45 64 38 65 40 66
REMARK SMILES IDX 46 67 39 68 41 69 42 70 43 71 44 72 68 73 69 74 77 75 70 76
REMARK SMILES IDX 72 77 78 78 71 79 73 80 74 81 75 82 76 83 53 84 54 85 62 86
REMARK SMILES IDX 55 87 57 88 63 89 56 90 58 91 59 92 60 93 61 94
REMARK H PARENT 19 7 24 28 83 47 51 58
REMARK Flexibility Score: inf
ROOT
ATOM      1  C   UNL A   1      31.693  31.724  26.871  1.00  0.00     0.023 C 
ENDROOT
BRANCH   1   2
ATOM      2  C   UNL A   1      32.031  30.423  26.137  1.00  0.00     0.023 C 
BRANCH   2   3
ATOM      3  C   UNL A   1      32.772  29.394  26.997  1.00  0.00     0.116 C 
BRANCH   3   4
ATOM      4  N   UNL A   1      31.921  28.246  27.227  1.00  0.00    -0.352 N 
ATOM      5  C   UNL A   1      31.704  27.082  26.533  1.00  0.00     0.256 C 
ATOM      6  O   UNL A   1      30.710  26.446  26.874  1.00  0.00    -0.269 OA
ATOM      7  H   UNL A   1      31.388  28.314  28.052  1.00  0.00     0.163 HD
BRANCH   5   8
ATOM      8  C   UNL A   1      32.582  26.597  25.432  1.00  0.00     0.102 A 
ATOM      9  C   UNL A   1      34.187  24.947  24.602  1.00  0.00     0.005 A 
ATOM     10  C   UNL A   1      34.016  25.501  23.346  1.00  0.00     0.124 A 
ATOM     11  C   UNL A   1      33.534  25.595  25.656  1.00  0.00     0.030 A 
ATOM     12  N   UNL A   1      33.204  26.556  23.087  1.00  0.00    -0.221 NA
ATOM     13  C   UNL A   1      32.466  27.061  24.116  1.00  0.00     0.226 A 
BRANCH   9  14
ATOM     14  C   UNL A   1      34.867  23.663  24.837  1.00  0.00     0.027 A 
ATOM     15  C   UNL A   1      34.150  22.440  24.732  1.00  0.00     0.126 A 
ATOM     16  C   UNL A   1      34.784  21.220  24.992  1.00  0.00     0.048 A 
ATOM     17  C   UNL A   1      36.124  21.200  25.376  1.00  0.00     0.024 A 
ATOM     18  C   UNL A   1      36.216  23.618  25.220  1.00  0.00     0.033 A 
ATOM     19  C   UNL A   1      36.832  22.394  25.488  1.00  0.00     0.041 A 
ATOM     20  Cl  UNL A   1      38.485  22.355  25.967  1.00  0.00    -0.084 Cl
BRANCH  15  21
ATOM     21  O   UNL A   1      32.842  22.530  24.322  1.00  0.00    -0.496 OA
ATOM     22  C   UNL A   1      32.516  21.939  23.068  1.00  0.00     0.278 C 
ENDBRANCH  15  21
ENDBRANCH   9  14
BRANCH  13  23
ATOM     23  O   UNL A   1      31.442  27.849  23.666  1.00  0.00    -0.480 OA
ATOM     24  C   UNL A   1      30.700  27.316  22.574  1.00  0.00     0.280 C 
ENDBRANCH  13  23
ENDBRANCH   5   8
ENDBRANCH   3   4
ENDBRANCH   2   3
ENDBRANCH   1   2
BRANCH   1  25
ATOM     25  C   UNL A   1      32.900  32.541  27.313  1.00  0.00     0.116 C 
BRANCH  25  26
ATOM     26  N   UNL A   1      32.565  33.921  27.626  1.00  0.00    -0.352 N 
ATOM     27  C   UNL A   1      33.112  34.738  28.588  1.00  0.00     0.251 C 
ATOM     28  H   UNL A   1      31.851  34.323  27.079  1.00  0.00     0.163 HD
ATOM     29  O   UNL A   1      32.643  35.843  28.797  1.00  0.00    -0.269 OA
BRANCH  27  30
ATOM     30  C   UNL A   1      34.254  34.236  29.382  1.00  0.00     0.039 A 
ATOM     31  C   UNL A   1      33.991  33.492  30.534  1.00  0.00     0.014 A 
ATOM     32  C   UNL A   1      35.568  34.470  28.970  1.00  0.00     0.014 A 
ATOM     33  C   UNL A   1      35.052  32.933  31.247  1.00  0.00     0.010 A 
ATOM     34  C   UNL A   1      36.619  33.857  29.644  1.00  0.00     0.010 A 
ATOM     35  C   UNL A   1      36.372  33.088  30.791  1.00  0.00    -0.014 A 
BRANCH  35  36
ATOM     36  C   UNL A   1      37.508  32.448  31.498  1.00  0.00     0.031 A 
ATOM     37  C   UNL A   1      38.239  31.298  30.862  1.00  0.00     0.074 A 
ATOM     38  C   UNL A   1      37.821  32.845  32.746  1.00  0.00     0.049 A 
ATOM     39  N   UNL A   1      39.225  30.583  31.340  1.00  0.00    -0.248 NA
ATOM     40  C   UNL A   1      37.788  30.877  29.525  1.00  0.00     0.031 C 
ATOM     41  C   UNL A   1      37.128  33.893  33.499  1.00  0.00     0.029 A 
ATOM     42  N   UNL A   1      38.788  32.398  33.611  1.00  0.00    -0.354 N 
ATOM     43  C   UNL A   1      39.487  29.611  30.383  1.00  0.00     0.074 A 
ATOM     44  C   UNL A   1      38.535  29.803  29.312  1.00  0.00     0.031 C 
ATOM     45  C   UNL A   1      37.696  34.012  34.711  1.00  0.00     0.029 A 
ATOM     46  C   UNL A   1      38.775  33.037  34.828  1.00  0.00     0.049 A 
ATOM     47  H   UNL A   1      39.429  31.688  33.382  1.00  0.00     0.167 HD
ATOM     48  C   UNL A   1      40.457  28.666  30.378  1.00  0.00     0.034 A 
ATOM     49  C   UNL A   1      39.550  32.858  35.917  1.00  0.00     0.034 A 
ATOM     50  C   UNL A   1      41.432  28.511  31.424  1.00  0.00     0.049 A 
ATOM     51  C   UNL A   1      40.652  31.835  35.866  1.00  0.00     0.074 A 
ATOM     52  C   UNL A   1      42.508  27.643  31.476  1.00  0.00     0.029 A 
ATOM     53  N   UNL A   1      41.449  29.240  32.603  1.00  0.00    -0.354 N 
ATOM     54  N   UNL A   1      40.991  31.035  34.883  1.00  0.00    -0.248 NA
ATOM     55  C   UNL A   1      41.505  31.717  37.057  1.00  0.00     0.031 C 
ATOM     56  C   UNL A   1      43.168  27.839  32.694  1.00  0.00     0.029 A 
ATOM     57  C   UNL A   1      42.513  28.841  33.392  1.00  0.00     0.049 A 
ATOM     58  H   UNL A   1      40.798  29.939  32.844  1.00  0.00     0.167 HD
ATOM     59  C   UNL A   1      42.116  30.347  35.321  1.00  0.00     0.074 A 
ATOM     60  C   UNL A   1      42.414  30.841  36.651  1.00  0.00     0.031 C 
ATOM     61  C   UNL A   1      42.830  29.384  34.688  1.00  0.00     0.034 A 
BRANCH  48  62
ATOM     62  C   UNL A   1      40.549  27.768  29.173  1.00  0.00     0.023 A 
ATOM     63  C   UNL A   1      39.689  26.654  29.074  1.00  0.00     0.012 A 
ATOM     64  C   UNL A   1      41.443  28.046  28.121  1.00  0.00     0.148 A 
ATOM     65  C   UNL A   1      39.744  25.809  27.966  1.00  0.00     0.002 A 
ATOM     66  C   UNL A   1      41.461  27.223  27.000  1.00  0.00     0.091 A 
ATOM     67  F   UNL A   1      42.268  29.095  28.242  1.00  0.00    -0.205 F 
ATOM     68  C   UNL A   1      40.622  26.099  26.926  1.00  0.00     0.022 A 
BRANCH  66  69
ATOM     69  S   UNL A   1      42.502  27.555  25.573  1.00  0.00     0.127 S 
ATOM     70  O   UNL A   1      43.828  27.624  26.186  1.00  0.00    -0.237 OA
ATOM     71  O   UNL A   1      42.276  26.372  24.743  1.00  0.00    -0.237 OA
ATOM     72  O   UNL A   1      42.010  28.800  25.002  1.00  0.00    -0.744 OA
ENDBRANCH  66  69
ENDBRANCH  48  62
BRANCH  49  73
ATOM     73  C   UNL A   1      39.365  33.726  37.114  1.00  0.00     0.023 A 
ATOM     74  C   UNL A   1      39.809  35.063  37.068  1.00  0.00     0.012 A 
ATOM     75  C   UNL A   1      38.730  33.254  38.278  1.00  0.00     0.148 A 
ATOM     76  C   UNL A   1      39.652  35.904  38.170  1.00  0.00     0.002 A 
ATOM     77  C   UNL A   1      38.529  34.112  39.353  1.00  0.00     0.091 A 
ATOM     78  F   UNL A   1      38.324  31.977  38.307  1.00  0.00    -0.205 F 
ATOM     79  C   UNL A   1      39.005  35.432  39.308  1.00  0.00     0.022 A 
BRANCH  77  80
ATOM     80  S   UNL A   1      37.589  33.630  40.807  1.00  0.00     0.127 S 
ATOM     81  O   UNL A   1      37.416  34.910  41.488  1.00  0.00    -0.237 OA
ATOM     82  O   UNL A   1      36.372  33.077  40.212  1.00  0.00    -0.237 OA
ATOM     83  O   UNL A   1      38.417  32.649  41.497  1.00  0.00    -0.744 OA
ENDBRANCH  77  80
ENDBRANCH  49  73
BRANCH  61  84
ATOM     84  C   UNL A   1      44.026  28.817  35.405  1.00  0.00     0.023 A 
ATOM     85  C   UNL A   1      45.298  29.389  35.205  1.00  0.00     0.012 A 
ATOM     86  C   UNL A   1      43.879  27.768  36.333  1.00  0.00     0.148 A 
ATOM     87  C   UNL A   1      46.409  28.907  35.894  1.00  0.00     0.002 A 
ATOM     88  C   UNL A   1      44.981  27.323  37.052  1.00  0.00     0.091 A 
ATOM     89  F   UNL A   1      42.664  27.222  36.494  1.00  0.00    -0.205 F 
ATOM     90  C   UNL A   1      46.249  27.883  36.826  1.00  0.00     0.022 A 
BRANCH  88  91
ATOM     91  S   UNL A   1      44.848  26.076  38.339  1.00  0.00     0.127 S 
ATOM     92  O   UNL A   1      46.230  25.982  38.807  1.00  0.00    -0.237 OA
ATOM     93  O   UNL A   1      43.925  26.703  39.286  1.00  0.00    -0.237 OA
ATOM     94  O   UNL A   1      44.324  24.884  37.686  1.00  0.00    -0.744 OA
ENDBRANCH  88  91
ENDBRANCH  61  84
ENDBRANCH  35  36
ENDBRANCH  27  30
ENDBRANCH  25  26
ENDBRANCH   1  25
TORSDOF 17
ENDMDL
MODEL 2
REMARK VINA RESULT:     -11.6      3.605      8.466
REMARK SMILES COc1ccc(Cl)cc1-c1cnc(OC)c(C(=O)NCCCCNC(=O)c2ccc(-c3c4nc(c(-c5cccc(S(=O)(=O)[O-])c5F)c5ccc([nH]5)c(-c5cccc(S(=O)(=O)[O-])c5F)c5nc(c(-c6cccc(S(=O)(=O)[O-])c6F)c6ccc3[nH]6)C=C5)C=C4)cc2)c1
REMARK SMILES IDX 22 1 21 2 20 3 19 4 17 5 18 6 16 8 10 9 11 10 90 11 12 12
REMARK SMILES IDX 13 13 9 14 3 15 4 16 5 17 8 18 6 19 7 20 2 21 1 22 14 23
REMARK SMILES IDX 15 24 23 25 24 26 25 27 26 29 27 30 28 31 89 32 29 33 88 34
REMARK SMILES IDX 30 35 31 36 32 37 82 38 33 39 87 40 81 41 83 42 34 43 86 44
REMARK SMILES IDX 80 45 79 46 35 48 67 49 47 50 66 51 48 52 51 53 65 54 84 55
REMARK SMILES IDX 49 56 50 57 64 59 85 60 52 61 36 62 37 63 45 64 38 65 40 66
REMARK SMILES IDX 46 67 39 68 41 69 42 70 43 71 44 72 68 73 69 74 77 75 70 76
REMARK SMILES IDX 72 77 78 78 71 79 73 80 74 81 75 82 76 83 53 84 54 85 62 86
REMARK SMILES IDX 55 87 57 88 63 89 56 90 58 91 59 92 60 93 61 94
REMARK H PARENT 19 7 24 28 83 47 51 58
REMARK Flexibility Score: inf
ROOT
ATOM      1  C   UNL A   1      33.652  28.068  26.775  1.00  0.00     0.023 C 
ENDROOT
BRANCH   1   2
ATOM      2  C   UNL A   1      32.290  28.252  27.451  1.00  0.00     0.023 C 
BRANCH   2   3
ATOM      3  C   UNL A   1      31.096  27.892  26.561  1.00  0.00     0.116 C 
BRANCH   3   4
ATOM      4  N   UNL A   1      30.679  26.532  26.828  1.00  0.00    -0.352 N 
ATOM      5  C   UNL A   1      30.898  25.338  26.186  1.00  0.00     0.256 C 
ATOM      6  O   UNL A   1      30.168  24.414  26.537  1.00  0.00    -0.269 OA
ATOM      7  H   UNL A   1      30.124  26.445  27.637  1.00  0.00     0.163 HD
BRANCH   5   8
ATOM      8  C   UNL A   1      31.929  25.141  25.130  1.00  0.00     0.102 A 
ATOM      9  C   UNL A   1      34.047  24.138  24.429  1.00  0.00     0.005 A 
ATOM     10  C   UNL A   1      33.732  24.520  23.137  1.00  0.00     0.124 A 
ATOM     11  C   UNL A   1      33.169  24.564  25.430  1.00  0.00     0.030 A 
ATOM     12  N   UNL A   1      32.605  25.194  22.800  1.00  0.00    -0.221 NA
ATOM     13  C   UNL A   1      31.699  25.456  23.785  1.00  0.00     0.226 A 
BRANCH   9  14
ATOM     14  C   UNL A   1      35.136  23.201  24.755  1.00  0.00     0.027 A 
ATOM     15  C   UNL A   1      34.936  21.798  24.639  1.00  0.00     0.126 A 
ATOM     16  C   UNL A   1      35.954  20.904  24.984  1.00  0.00     0.048 A 
ATOM     17  C   UNL A   1      37.171  21.387  25.466  1.00  0.00     0.024 A 
ATOM     18  C   UNL A   1      36.369  23.665  25.237  1.00  0.00     0.033 A 
ATOM     19  C   UNL A   1      37.372  22.759  25.590  1.00  0.00     0.041 A 
ATOM     20  Cl  UNL A   1      38.877  23.342  26.189  1.00  0.00    -0.084 Cl
BRANCH  15  21
ATOM     21  O   UNL A   1      33.725  21.392  24.131  1.00  0.00    -0.496 OA
ATOM     22  C   UNL A   1      32.998  20.429  24.889  1.00  0.00     0.278 C 
ENDBRANCH  15  21
ENDBRANCH   9  14
BRANCH  13  23
ATOM     23  O   UNL A   1      30.476  25.795  23.272  1.00  0.00    -0.480 OA
ATOM     24  C   UNL A   1      30.226  27.193  23.176  1.00  0.00     0.280 C 
ENDBRANCH  13  23
ENDBRANCH   5   8
ENDBRANCH   3   4
ENDBRANCH   2   3
ENDBRANCH   1   2
BRANCH   1  25
ATOM     25  C   UNL A   1      34.178  29.302  26.054  1.00  0.00     0.116 C 
BRANCH  25  26
ATOM     26  N   UNL A   1      33.928  30.534  26.787  1.00  0.00    -0.352 N 
ATOM     27  C   UNL A   1      34.634  31.060  27.844  1.00  0.00     0.251 C 
ATOM     28  H   UNL A   1      33.151  31.059  26.488  1.00  0.00     0.163 HD
ATOM     29  O   UNL A   1      34.229  32.053  28.422  1.00  0.00    -0.269 OA
BRANCH  27  30
ATOM     30  C   UNL A   1      35.870  30.376  28.285  1.00  0.00     0.039 A 
ATOM     31  C   UNL A   1      37.051  30.612  27.580  1.00  0.00     0.014 A 
ATOM     32  C   UNL A   1      35.861  29.539  29.403  1.00  0.00     0.014 A 
ATOM     33  C   UNL A   1      38.244  30.047  28.033  1.00  0.00     0.010 A 
ATOM     34  C   UNL A   1      37.062  29.033  29.891  1.00  0.00     0.010 A 
ATOM     35  C   UNL A   1      38.262  29.277  29.208  1.00  0.00    -0.014 A 
BRANCH  35  36
ATOM     36  C   UNL A   1      39.530  28.723  29.742  1.00  0.00     0.031 A 
ATOM     37  C   UNL A   1      40.175  29.344  30.951  1.00  0.00     0.074 A 
ATOM     38  C   UNL A   1      40.143  27.718  29.088  1.00  0.00     0.049 A 
ATOM     39  N   UNL A   1      41.301  29.031  31.536  1.00  0.00    -0.248 NA
ATOM     40  C   UNL A   1      39.478  30.486  31.566  1.00  0.00     0.031 C 
ATOM     41  C   UNL A   1      39.657  27.091  27.856  1.00  0.00     0.029 A 
ATOM     42  N   UNL A   1      41.320  27.064  29.351  1.00  0.00    -0.354 N 
ATOM     43  C   UNL A   1      41.465  29.952  32.562  1.00  0.00     0.074 A 
ATOM     44  C   UNL A   1      40.341  30.861  32.498  1.00  0.00     0.031 C 
ATOM     45  C   UNL A   1      40.525  26.139  27.476  1.00  0.00     0.029 A 
ATOM     46  C   UNL A   1      41.637  26.103  28.420  1.00  0.00     0.049 A 
ATOM     47  H   UNL A   1      41.883  27.264  30.133  1.00  0.00     0.167 HD
ATOM     48  C   UNL A   1      42.442  30.016  33.497  1.00  0.00     0.034 A 
ATOM     49  C   UNL A   1      42.704  25.285  28.339  1.00  0.00     0.034 A 
ATOM     50  C   UNL A   1      43.531  29.081  33.586  1.00  0.00     0.049 A 
ATOM     51  C   UNL A   1      43.751  25.343  29.419  1.00  0.00     0.074 A 
ATOM     52  C   UNL A   1      44.525  29.005  34.544  1.00  0.00     0.029 A 
ATOM     53  N   UNL A   1      43.770  28.059  32.679  1.00  0.00    -0.354 N 
ATOM     54  N   UNL A   1      43.802  26.115  30.478  1.00  0.00    -0.248 NA
ATOM     55  C   UNL A   1      44.865  24.390  29.316  1.00  0.00     0.031 C 
ATOM     56  C   UNL A   1      45.373  27.944  34.210  1.00  0.00     0.029 A 
ATOM     57  C   UNL A   1      44.896  27.348  33.053  1.00  0.00     0.049 A 
ATOM     58  H   UNL A   1      43.219  27.868  31.886  1.00  0.00     0.167 HD
ATOM     59  C   UNL A   1      44.930  25.717  31.186  1.00  0.00     0.074 A 
ATOM     60  C   UNL A   1      45.521  24.621  30.446  1.00  0.00     0.031 C 
ATOM     61  C   UNL A   1      45.439  26.223  32.337  1.00  0.00     0.034 A 
BRANCH  48  62
ATOM     62  C   UNL A   1      42.340  31.099  34.539  1.00  0.00     0.023 A 
ATOM     63  C   UNL A   1      41.738  30.808  35.781  1.00  0.00     0.012 A 
ATOM     64  C   UNL A   1      42.874  32.383  34.315  1.00  0.00     0.148 A 
ATOM     65  C   UNL A   1      41.636  31.786  36.770  1.00  0.00     0.002 A 
ATOM     66  C   UNL A   1      42.807  33.340  35.322  1.00  0.00     0.091 A 
ATOM     67  F   UNL A   1      43.422  32.649  33.121  1.00  0.00    -0.205 F 
ATOM     68  C   UNL A   1      42.179  33.047  36.543  1.00  0.00     0.022 A 
BRANCH  66  69
ATOM     69  S   UNL A   1      43.544  34.970  35.157  1.00  0.00     0.127 S 
ATOM     70  O   UNL A   1      42.678  35.584  34.152  1.00  0.00    -0.237 OA
ATOM     71  O   UNL A   1      43.394  35.515  36.506  1.00  0.00    -0.237 OA
ATOM     72  O   UNL A   1      44.922  34.745  34.744  1.00  0.00    -0.744 OA
ENDBRANCH  66  69
ENDBRANCH  48  62
BRANCH  49  73
ATOM     73  C   UNL A   1      42.791  24.280  27.242  1.00  0.00     0.023 A 
ATOM     74  C   UNL A   1      43.478  24.613  26.058  1.00  0.00     0.012 A 
ATOM     75  C   UNL A   1      42.231  22.995  27.371  1.00  0.00     0.148 A 
ATOM     76  C   UNL A   1      43.579  23.698  25.010  1.00  0.00     0.002 A 
ATOM     77  C   UNL A   1      42.380  22.068  26.345  1.00  0.00     0.091 A 
ATOM     78  F   UNL A   1      41.571  22.699  28.500  1.00  0.00    -0.205 F 
ATOM     79  C   UNL A   1      43.039  22.423  25.157  1.00  0.00     0.022 A 
BRANCH  77  80
ATOM     80  S   UNL A   1      41.832  20.364  26.499  1.00  0.00     0.127 S 
ATOM     81  O   UNL A   1      42.428  19.751  25.317  1.00  0.00    -0.237 OA
ATOM     82  O   UNL A   1      42.433  19.966  27.772  1.00  0.00    -0.237 OA
ATOM     83  O   UNL A   1      40.376  20.425  26.519  1.00  0.00    -0.744 OA
ENDBRANCH  77  80
ENDBRANCH  49  73
BRANCH  61  84
ATOM     84  C   UNL A   1      46.682  25.578  32.892  1.00  0.00     0.023 A 
ATOM     85  C   UNL A   1      47.949  26.074  32.527  1.00  0.00     0.012 A 
ATOM     86  C   UNL A   1      46.592  24.533  33.831  1.00  0.00     0.148 A 
ATOM     87  C   UNL A   1      49.108  25.519  33.066  1.00  0.00     0.002 A 
ATOM     88  C   UNL A   1      47.749  24.016  34.401  1.00  0.00     0.091 A 
ATOM     89  F   UNL A   1      45.377  24.060  34.149  1.00  0.00    -0.205 F 
ATOM     90  C   UNL A   1      49.009  24.500  34.011  1.00  0.00     0.022 A 
BRANCH  88  91
ATOM     91  S   UNL A   1      47.708  22.770  35.694  1.00  0.00     0.127 S 
ATOM     92  O   UNL A   1      47.129  21.627  34.989  1.00  0.00    -0.237 OA
ATOM     93  O   UNL A   1      49.125  22.624  36.031  1.00  0.00    -0.237 OA
ATOM     94  O   UNL A   1      46.889  23.329  36.760  1.00  0.00    -0.744 OA
ENDBRANCH  88  91
ENDBRANCH  61  84
ENDBRANCH  35  36
ENDBRANCH  27  30
ENDBRANCH  25  26
ENDBRANCH   1  25
TORSDOF 17
ENDMDL
MODEL 3
REMARK VINA RESULT:     -11.5      2.381      3.348
REMARK SMILES COc1ccc(Cl)cc1-c1cnc(OC)c(C(=O)NCCCCNC(=O)c2ccc(-c3c4nc(c(-c5cccc(S(=O)(=O)[O-])c5F)c5ccc([nH]5)c(-c5cccc(S(=O)(=O)[O-])c5F)c5nc(c(-c6cccc(S(=O)(=O)[O-])c6F)c6ccc3[nH]6)C=C5)C=C4)cc2)c1
REMARK SMILES IDX 22 1 21 2 20 3 19 4 17 5 18 6 16 8 10 9 11 10 90 11 12 12
REMARK SMILES IDX 13 13 9 14 3 15 4 16 5 17 8 18 6 19 7 20 2 21 1 22 14 23
REMARK SMILES IDX 15 24 23 25 24 26 25 27 26 29 27 30 28 31 89 32 29 33 88 34
REMARK SMILES IDX 30 35 31 36 32 37 82 38 33 39 87 40 81 41 83 42 34 43 86 44
REMARK SMILES IDX 80 45 79 46 35 48 67 49 47 50 66 51 48 52 51 53 65 54 84 55
REMARK SMILES IDX 49 56 50 57 64 59 85 60 52 61 36 62 37 63 45 64 38 65 40 66
REMARK SMILES IDX 46 67 39 68 41 69 42 70 43 71 44 72 68 73 69 74 77 75 70 76
REMARK SMILES IDX 72 77 78 78 71 79 73 80 74 81 75 82 76 83 53 84 54 85 62 86
REMARK SMILES IDX 55 87 57 88 63 89 56 90 58 91 59 92 60 93 61 94
REMARK H PARENT 19 7 24 28 83 47 51 58
REMARK Flexibility Score: inf
ROOT
ATOM      1  C   UNL A   1      32.382  29.023  24.448  1.00  0.00     0.023 C 
ENDROOT
BRANCH   1   2
ATOM      2  C   UNL A   1      33.116  28.892  23.109  1.00  0.00     0.023 C 
BRANCH   2   3
ATOM      3  C   UNL A   1      33.805  27.539  22.903  1.00  0.00     0.116 C 
BRANCH   3   4
ATOM      4  N   UNL A   1      33.406  26.976  21.631  1.00  0.00    -0.352 N 
ATOM      5  C   UNL A   1      32.809  25.793  21.272  1.00  0.00     0.256 C 
ATOM      6  O   UNL A   1      32.861  25.522  20.074  1.00  0.00    -0.269 OA
ATOM      7  H   UNL A   1      33.604  27.562  20.865  1.00  0.00     0.163 HD
BRANCH   5   8
ATOM      8  C   UNL A   1      32.142  24.874  22.236  1.00  0.00     0.102 A 
ATOM      9  C   UNL A   1      32.204  22.813  23.551  1.00  0.00     0.005 A 
ATOM     10  C   UNL A   1      31.080  23.273  24.215  1.00  0.00     0.124 A 
ATOM     11  C   UNL A   1      32.651  23.593  22.480  1.00  0.00     0.030 A 
ATOM     12  N   UNL A   1      30.465  24.449  23.937  1.00  0.00    -0.221 NA
ATOM     13  C   UNL A   1      31.025  25.253  22.988  1.00  0.00     0.226 A 
BRANCH   9  14
ATOM     14  C   UNL A   1      33.008  21.668  24.014  1.00  0.00     0.027 A 
ATOM     15  C   UNL A   1      34.281  21.879  24.609  1.00  0.00     0.126 A 
ATOM     16  C   UNL A   1      35.064  20.793  25.015  1.00  0.00     0.048 A 
ATOM     17  C   UNL A   1      34.604  19.491  24.818  1.00  0.00     0.024 A 
ATOM     18  C   UNL A   1      32.562  20.351  23.831  1.00  0.00     0.033 A 
ATOM     19  C   UNL A   1      33.361  19.276  24.230  1.00  0.00     0.041 A 
ATOM     20  Cl  UNL A   1      32.806  17.664  23.989  1.00  0.00    -0.084 Cl
BRANCH  15  21
ATOM     21  O   UNL A   1      34.661  23.186  24.799  1.00  0.00    -0.496 OA
ATOM     22  C   UNL A   1      34.997  23.574  26.127  1.00  0.00     0.278 C 
ENDBRANCH  15  21
ENDBRANCH   9  14
BRANCH  13  23
ATOM     23  O   UNL A   1      30.544  26.533  23.062  1.00  0.00    -0.480 OA
ATOM     24  C   UNL A   1      29.379  26.698  23.861  1.00  0.00     0.280 C 
ENDBRANCH  13  23
ENDBRANCH   5   8
ENDBRANCH   3   4
ENDBRANCH   2   3
ENDBRANCH   1   2
BRANCH   1  25
ATOM     25  C   UNL A   1      33.226  29.580  25.586  1.00  0.00     0.116 C 
BRANCH  25  26
ATOM     26  N   UNL A   1      32.744  30.865  26.070  1.00  0.00    -0.352 N 
ATOM     27  C   UNL A   1      33.262  31.651  27.073  1.00  0.00     0.251 C 
ATOM     28  H   UNL A   1      31.942  31.217  25.620  1.00  0.00     0.163 HD
ATOM     29  O   UNL A   1      32.674  32.655  27.433  1.00  0.00    -0.269 OA
BRANCH  27  30
ATOM     30  C   UNL A   1      34.521  31.233  27.726  1.00  0.00     0.039 A 
ATOM     31  C   UNL A   1      35.600  32.119  27.727  1.00  0.00     0.014 A 
ATOM     32  C   UNL A   1      34.618  29.992  28.359  1.00  0.00     0.014 A 
ATOM     33  C   UNL A   1      36.766  31.780  28.414  1.00  0.00     0.010 A 
ATOM     34  C   UNL A   1      35.755  29.685  29.099  1.00  0.00     0.010 A 
ATOM     35  C   UNL A   1      36.841  30.573  29.129  1.00  0.00    -0.014 A 
BRANCH  35  36
ATOM     36  C   UNL A   1      38.046  30.223  29.920  1.00  0.00     0.031 A 
ATOM     37  C   UNL A   1      39.066  29.271  29.360  1.00  0.00     0.074 A 
ATOM     38  C   UNL A   1      38.176  30.696  31.175  1.00  0.00     0.049 A 
ATOM     39  N   UNL A   1      40.157  28.811  29.916  1.00  0.00    -0.248 NA
ATOM     40  C   UNL A   1      38.813  28.742  28.009  1.00  0.00     0.031 C 
ATOM     41  C   UNL A   1      37.210  31.560  31.857  1.00  0.00     0.029 A 
ATOM     42  N   UNL A   1      39.161  30.497  32.109  1.00  0.00    -0.354 N 
ATOM     43  C   UNL A   1      40.701  27.918  29.001  1.00  0.00     0.074 A 
ATOM     44  C   UNL A   1      39.802  27.870  27.870  1.00  0.00     0.031 C 
ATOM     45  C   UNL A   1      37.654  31.821  33.098  1.00  0.00     0.029 A 
ATOM     46  C   UNL A   1      38.921  31.128  33.306  1.00  0.00     0.049 A 
ATOM     47  H   UNL A   1      39.964  29.954  31.937  1.00  0.00     0.167 HD
ATOM     48  C   UNL A   1      41.862  27.226  29.080  1.00  0.00     0.034 A 
ATOM     49  C   UNL A   1      39.643  31.146  34.444  1.00  0.00     0.034 A 
ATOM     50  C   UNL A   1      42.776  27.314  30.186  1.00  0.00     0.049 A 
ATOM     51  C   UNL A   1      40.954  30.409  34.487  1.00  0.00     0.074 A 
ATOM     52  C   UNL A   1      44.018  26.723  30.326  1.00  0.00     0.029 A 
ATOM     53  N   UNL A   1      42.545  28.040  31.346  1.00  0.00    -0.354 N 
ATOM     54  N   UNL A   1      41.533  29.701  33.547  1.00  0.00    -0.248 NA
ATOM     55  C   UNL A   1      41.731  30.507  35.731  1.00  0.00     0.031 C 
ATOM     56  C   UNL A   1      44.533  27.081  31.577  1.00  0.00     0.029 A 
ATOM     57  C   UNL A   1      43.619  27.909  32.208  1.00  0.00     0.049 A 
ATOM     58  H   UNL A   1      41.735  28.569  31.528  1.00  0.00     0.167 HD
ATOM     59  C   UNL A   1      42.757  29.300  34.071  1.00  0.00     0.074 A 
ATOM     60  C   UNL A   1      42.844  29.863  35.403  1.00  0.00     0.031 C 
ATOM     61  C   UNL A   1      43.715  28.524  33.507  1.00  0.00     0.034 A 
BRANCH  48  62
ATOM     62  C   UNL A   1      42.239  26.362  27.905  1.00  0.00     0.023 A 
ATOM     63  C   UNL A   1      43.099  26.881  26.914  1.00  0.00     0.012 A 
ATOM     64  C   UNL A   1      41.788  25.033  27.800  1.00  0.00     0.148 A 
ATOM     65  C   UNL A   1      43.473  26.104  25.818  1.00  0.00     0.002 A 
ATOM     66  C   UNL A   1      42.201  24.250  26.727  1.00  0.00     0.091 A 
ATOM     67  F   UNL A   1      40.954  24.564  28.738  1.00  0.00    -0.205 F 
ATOM     68  C   UNL A   1      43.033  24.787  25.731  1.00  0.00     0.022 A 
BRANCH  66  69
ATOM     69  S   UNL A   1      41.750  22.519  26.563  1.00  0.00     0.127 S 
ATOM     70  O   UNL A   1      40.293  22.601  26.469  1.00  0.00    -0.237 OA
ATOM     71  O   UNL A   1      42.421  22.141  25.319  1.00  0.00    -0.237 OA
ATOM     72  O   UNL A   1      42.265  21.858  27.754  1.00  0.00    -0.744 OA
ENDBRANCH  66  69
ENDBRANCH  48  62
BRANCH  49  73
ATOM     73  C   UNL A   1      39.183  31.960  35.605  1.00  0.00     0.023 A 
ATOM     74  C   UNL A   1      39.467  33.339  35.633  1.00  0.00     0.012 A 
ATOM     75  C   UNL A   1      38.444  31.390  36.659  1.00  0.00     0.148 A 
ATOM     76  C   UNL A   1      39.052  34.131  36.704  1.00  0.00     0.002 A 
ATOM     77  C   UNL A   1      37.987  32.194  37.698  1.00  0.00     0.091 A 
ATOM     78  F   UNL A   1      38.193  30.074  36.622  1.00  0.00    -0.205 F 
ATOM     79  C   UNL A   1      38.305  33.561  37.731  1.00  0.00     0.022 A 
BRANCH  77  80
ATOM     80  S   UNL A   1      36.909  31.573  38.994  1.00  0.00     0.127 S 
ATOM     81  O   UNL A   1      36.680  30.199  38.558  1.00  0.00    -0.237 OA
ATOM     82  O   UNL A   1      37.751  31.712  40.183  1.00  0.00    -0.237 OA
ATOM     83  O   UNL A   1      35.743  32.447  38.981  1.00  0.00    -0.744 OA
ENDBRANCH  77  80
ENDBRANCH  49  73
BRANCH  61  84
ATOM     84  C   UNL A   1      44.962  28.261  34.310  1.00  0.00     0.023 A 
ATOM     85  C   UNL A   1      46.053  29.147  34.218  1.00  0.00     0.012 A 
ATOM     86  C   UNL A   1      45.022  27.179  35.211  1.00  0.00     0.148 A 
ATOM     87  C   UNL A   1      47.197  28.943  34.988  1.00  0.00     0.002 A 
ATOM     88  C   UNL A   1      46.146  27.009  36.010  1.00  0.00     0.091 A 
ATOM     89  F   UNL A   1      43.981  26.335  35.268  1.00  0.00    -0.205 F 
ATOM     90  C   UNL A   1      47.239  27.883  35.892  1.00  0.00     0.022 A 
BRANCH  88  91
ATOM     91  S   UNL A   1      46.245  25.730  37.267  1.00  0.00     0.127 S 
ATOM     92  O   UNL A   1      47.420  26.151  38.029  1.00  0.00    -0.237 OA
ATOM     93  O   UNL A   1      44.973  25.886  37.972  1.00  0.00    -0.237 OA
ATOM     94  O   UNL A   1      46.383  24.472  36.544  1.00  0.00    -0.744 OA
ENDBRANCH  88  91
ENDBRANCH  61  84
ENDBRANCH  35  36
ENDBRANCH  27  30
ENDBRANCH  25  26
ENDBRANCH   1  25
TORSDOF 17
ENDMDL
