MODEL 1
REMARK VINA RESULT:     -11.2      0.000      0.000
REMARK SMILES C=C(C)CN(CC)c1ccc(F)cc1C(=O)NCCCCNC(=O)c1ccc(-c2c3nc(c(-c4cccc(S(=O)(=O)[O-])c4F)c4ccc([nH]4)c(-c4cccc(S(=O)(=O)[O-])c4F)c4nc(c(-c5cccc(S(=O)(=O)[O-])c5F)c5ccc2[nH]5)C=C4)C=C3)cc1
REMARK SMILES IDX 19 1 18 2 17 3 15 4 16 5 14 7 8 8 9 9 10 10 13 11 11 12
REMARK SMILES IDX 12 13 5 14 4 15 2 16 1 17 3 18 6 19 7 20 20 21 21 22 22 23
REMARK SMILES IDX 23 24 24 26 25 27 26 28 87 29 27 30 86 31 28 32 29 33 30 34
REMARK SMILES IDX 80 35 31 36 85 37 79 38 81 39 32 40 84 41 78 42 77 43 33 45
REMARK SMILES IDX 65 46 45 47 64 48 46 49 49 50 63 51 82 52 47 53 48 54 62 56
REMARK SMILES IDX 83 57 50 58 34 59 35 60 43 61 36 62 38 63 44 64 37 65 39 66
REMARK SMILES IDX 40 67 41 68 42 69 66 70 67 71 75 72 68 73 70 74 76 75 69 76
REMARK SMILES IDX 71 77 72 78 73 79 74 80 51 81 52 82 60 83 53 84 55 85 61 86
REMARK SMILES IDX 54 87 56 88 57 89 58 90 59 91
REMARK H PARENT 17 6 22 25 81 44 49 55
REMARK Flexibility Score: inf
ROOT
ATOM      1  C   UNL A   1      35.118  23.031  23.341  1.00  0.00     0.023 C 
ENDROOT
BRANCH   1   2
ATOM      2  C   UNL A   1      34.521  24.328  23.867  1.00  0.00     0.116 C 
BRANCH   2   3
ATOM      3  N   UNL A   1      33.891  25.203  22.921  1.00  0.00    -0.352 N 
ATOM      4  C   UNL A   1      33.244  26.392  23.168  1.00  0.00     0.253 C 
ATOM      5  O   UNL A   1      32.846  27.026  22.186  1.00  0.00    -0.269 OA
ATOM      6  H   UNL A   1      33.925  24.917  21.979  1.00  0.00     0.163 HD
BRANCH   4   7
ATOM      7  C   UNL A   1      32.912  26.936  24.533  1.00  0.00     0.066 A 
ATOM      8  C   UNL A   1      31.736  26.747  25.309  1.00  0.00     0.050 A 
ATOM      9  C   UNL A   1      31.740  27.252  26.633  1.00  0.00     0.030 A 
ATOM     10  C   UNL A   1      32.820  27.945  27.174  1.00  0.00     0.041 A 
ATOM     11  C   UNL A   1      34.007  27.623  25.110  1.00  0.00     0.055 A 
ATOM     12  C   UNL A   1      33.949  28.124  26.403  1.00  0.00     0.124 A 
ATOM     13  F   UNL A   1      35.004  28.767  26.919  1.00  0.00    -0.207 F 
BRANCH   8  14
ATOM     14  N   UNL A   1      30.598  26.054  24.900  1.00  0.00    -0.367 N 
BRANCH  14  15
ATOM     15  C   UNL A   1      30.360  24.689  25.412  1.00  0.00     0.146 C 
BRANCH  15  16
ATOM     16  C   UNL A   1      31.062  23.579  24.673  1.00  0.00    -0.061 C 
ATOM     17  C   UNL A   1      30.932  23.376  23.352  1.00  0.00     0.009 C 
ATOM     18  C   UNL A   1      31.839  22.629  25.545  1.00  0.00     0.041 C 
ENDBRANCH  15  16
ENDBRANCH  14  15
BRANCH  14  19
ATOM     19  C   UNL A   1      29.909  26.469  23.671  1.00  0.00     0.113 C 
ATOM     20  C   UNL A   1      28.434  26.795  23.866  1.00  0.00     0.027 C 
ENDBRANCH  14  19
ENDBRANCH   8  14
ENDBRANCH   4   7
ENDBRANCH   2   3
ENDBRANCH   1   2
BRANCH   1  21
ATOM     21  C   UNL A   1      36.479  22.627  23.912  1.00  0.00     0.023 C 
BRANCH  21  22
ATOM     22  C   UNL A   1      36.493  21.840  25.223  1.00  0.00     0.116 C 
BRANCH  22  23
ATOM     23  N   UNL A   1      37.592  20.893  25.359  1.00  0.00    -0.352 N 
ATOM     24  C   UNL A   1      38.857  21.042  25.890  1.00  0.00     0.251 C 
ATOM     25  H   UNL A   1      37.399  19.993  25.009  1.00  0.00     0.163 HD
ATOM     26  O   UNL A   1      39.634  20.097  25.859  1.00  0.00    -0.269 OA
BRANCH  24  27
ATOM     27  C   UNL A   1      39.304  22.343  26.452  1.00  0.00     0.039 A 
ATOM     28  C   UNL A   1      40.387  22.348  27.336  1.00  0.00     0.014 A 
ATOM     29  C   UNL A   1      38.679  23.546  26.123  1.00  0.00     0.014 A 
ATOM     30  C   UNL A   1      40.910  23.563  27.795  1.00  0.00     0.010 A 
ATOM     31  C   UNL A   1      39.254  24.759  26.509  1.00  0.00     0.010 A 
ATOM     32  C   UNL A   1      40.387  24.784  27.336  1.00  0.00    -0.014 A 
BRANCH  32  33
ATOM     33  C   UNL A   1      41.050  26.078  27.660  1.00  0.00     0.031 A 
ATOM     34  C   UNL A   1      42.472  26.351  27.246  1.00  0.00     0.074 A 
ATOM     35  C   UNL A   1      40.393  26.987  28.411  1.00  0.00     0.049 A 
ATOM     36  N   UNL A   1      43.205  27.411  27.474  1.00  0.00    -0.248 NA
ATOM     37  C   UNL A   1      43.170  25.292  26.501  1.00  0.00     0.031 C 
ATOM     38  C   UNL A   1      39.042  26.816  28.951  1.00  0.00     0.029 A 
ATOM     39  N   UNL A   1      40.774  28.228  28.865  1.00  0.00    -0.354 N 
ATOM     40  C   UNL A   1      44.453  27.139  26.927  1.00  0.00     0.074 A 
ATOM     41  C   UNL A   1      44.391  25.798  26.388  1.00  0.00     0.031 C 
ATOM     42  C   UNL A   1      38.701  27.914  29.643  1.00  0.00     0.029 A 
ATOM     43  C   UNL A   1      39.816  28.856  29.629  1.00  0.00     0.049 A 
ATOM     44  H   UNL A   1      41.650  28.630  28.663  1.00  0.00     0.167 HD
ATOM     45  C   UNL A   1      45.541  27.942  26.851  1.00  0.00     0.034 A 
ATOM     46  C   UNL A   1      39.827  30.052  30.251  1.00  0.00     0.034 A 
ATOM     47  C   UNL A   1      45.589  29.291  27.348  1.00  0.00     0.049 A 
ATOM     48  C   UNL A   1      41.035  30.940  30.123  1.00  0.00     0.074 A 
ATOM     49  C   UNL A   1      46.619  30.209  27.235  1.00  0.00     0.029 A 
ATOM     50  N   UNL A   1      44.575  29.915  28.056  1.00  0.00    -0.354 N 
ATOM     51  N   UNL A   1      42.148  30.722  29.468  1.00  0.00    -0.248 NA
ATOM     52  C   UNL A   1      40.979  32.250  30.790  1.00  0.00     0.031 C 
ATOM     53  C   UNL A   1      46.238  31.378  27.897  1.00  0.00     0.029 A 
ATOM     54  C   UNL A   1      44.958  31.202  28.395  1.00  0.00     0.049 A 
ATOM     55  H   UNL A   1      43.709  29.505  28.283  1.00  0.00     0.167 HD
ATOM     56  C   UNL A   1      42.910  31.875  29.614  1.00  0.00     0.074 A 
ATOM     57  C   UNL A   1      42.127  32.797  30.409  1.00  0.00     0.031 C 
ATOM     58  C   UNL A   1      44.153  32.137  29.141  1.00  0.00     0.034 A 
BRANCH  45  59
ATOM     59  C   UNL A   1      46.763  27.414  26.141  1.00  0.00     0.023 A 
ATOM     60  C   UNL A   1      46.947  27.709  24.775  1.00  0.00     0.012 A 
ATOM     61  C   UNL A   1      47.770  26.720  26.840  1.00  0.00     0.148 A 
ATOM     62  C   UNL A   1      48.101  27.301  24.109  1.00  0.00     0.002 A 
ATOM     63  C   UNL A   1      48.938  26.355  26.180  1.00  0.00     0.091 A 
ATOM     64  F   UNL A   1      47.569  26.434  28.134  1.00  0.00    -0.205 F 
ATOM     65  C   UNL A   1      49.101  26.635  24.813  1.00  0.00     0.022 A 
BRANCH  63  66
ATOM     66  S   UNL A   1      50.324  25.575  27.016  1.00  0.00     0.127 S 
ATOM     67  O   UNL A   1      51.272  25.401  25.915  1.00  0.00    -0.237 OA
ATOM     68  O   UNL A   1      50.707  26.593  27.993  1.00  0.00    -0.237 OA
ATOM     69  O   UNL A   1      49.805  24.343  27.592  1.00  0.00    -0.744 OA
ENDBRANCH  63  66
ENDBRANCH  45  59
BRANCH  46  70
ATOM     70  C   UNL A   1      38.608  30.510  30.980  1.00  0.00     0.023 A 
ATOM     71  C   UNL A   1      38.537  30.342  32.376  1.00  0.00     0.012 A 
ATOM     72  C   UNL A   1      37.559  31.175  30.313  1.00  0.00     0.148 A 
ATOM     73  C   UNL A   1      37.439  30.814  33.095  1.00  0.00     0.002 A 
ATOM     74  C   UNL A   1      36.496  31.693  31.043  1.00  0.00     0.091 A 
ATOM     75  F   UNL A   1      37.642  31.315  28.983  1.00  0.00    -0.205 F 
ATOM     76  C   UNL A   1      36.425  31.500  32.431  1.00  0.00     0.022 A 
BRANCH  74  77
ATOM     77  S   UNL A   1      35.219  32.715  30.299  1.00  0.00     0.127 S 
ATOM     78  O   UNL A   1      34.726  31.851  29.231  1.00  0.00    -0.237 OA
ATOM     79  O   UNL A   1      34.295  32.901  31.419  1.00  0.00    -0.237 OA
ATOM     80  O   UNL A   1      35.890  33.934  29.866  1.00  0.00    -0.744 OA
ENDBRANCH  74  77
ENDBRANCH  46  70
BRANCH  58  81
ATOM     81  C   UNL A   1      44.763  33.484  29.432  1.00  0.00     0.023 A 
ATOM     82  C   UNL A   1      45.545  33.660  30.589  1.00  0.00     0.012 A 
ATOM     83  C   UNL A   1      44.675  34.528  28.489  1.00  0.00     0.148 A 
ATOM     84  C   UNL A   1      46.222  34.860  30.810  1.00  0.00     0.002 A 
ATOM     85  C   UNL A   1      45.391  35.702  28.691  1.00  0.00     0.091 A 
ATOM     86  F   UNL A   1      43.912  34.344  27.402  1.00  0.00    -0.205 F 
ATOM     87  C   UNL A   1      46.158  35.873  29.855  1.00  0.00     0.022 A 
BRANCH  85  88
ATOM     88  S   UNL A   1      45.456  37.020  27.472  1.00  0.00     0.127 S 
ATOM     89  O   UNL A   1      45.987  36.320  26.304  1.00  0.00    -0.237 OA
ATOM     90  O   UNL A   1      44.050  37.411  27.363  1.00  0.00    -0.237 OA
ATOM     91  O   UNL A   1      46.329  38.044  28.031  1.00  0.00    -0.744 OA
ENDBRANCH  85  88
ENDBRANCH  58  81
ENDBRANCH  32  33
ENDBRANCH  24  27
ENDBRANCH  22  23
ENDBRANCH  21  22
ENDBRANCH   1  21
TORSDOF 18
ENDMDL
MODEL 2
REMARK VINA RESULT:     -11.2      1.624      7.859
REMARK SMILES C=C(C)CN(CC)c1ccc(F)cc1C(=O)NCCCCNC(=O)c1ccc(-c2c3nc(c(-c4cccc(S(=O)(=O)[O-])c4F)c4ccc([nH]4)c(-c4cccc(S(=O)(=O)[O-])c4F)c4nc(c(-c5cccc(S(=O)(=O)[O-])c5F)c5ccc2[nH]5)C=C4)C=C3)cc1
REMARK SMILES IDX 19 1 18 2 17 3 15 4 16 5 14 7 8 8 9 9 10 10 13 11 11 12
REMARK SMILES IDX 12 13 5 14 4 15 2 16 1 17 3 18 6 19 7 20 20 21 21 22 22 23
REMARK SMILES IDX 23 24 24 26 25 27 26 28 87 29 27 30 86 31 28 32 29 33 30 34
REMARK SMILES IDX 80 35 31 36 85 37 79 38 81 39 32 40 84 41 78 42 77 43 33 45
REMARK SMILES IDX 65 46 45 47 64 48 46 49 49 50 63 51 82 52 47 53 48 54 62 56
REMARK SMILES IDX 83 57 50 58 34 59 35 60 43 61 36 62 38 63 44 64 37 65 39 66
REMARK SMILES IDX 40 67 41 68 42 69 66 70 67 71 75 72 68 73 70 74 76 75 69 76
REMARK SMILES IDX 71 77 72 78 73 79 74 80 51 81 52 82 60 83 53 84 55 85 61 86
REMARK SMILES IDX 54 87 56 88 57 89 58 90 59 91
REMARK H PARENT 17 6 22 25 81 44 49 55
REMARK Flexibility Score: inf
ROOT
ATOM      1  C   UNL A   1      35.682  22.772  23.495  1.00  0.00     0.023 C 
ENDROOT
BRANCH   1   2
ATOM      2  C   UNL A   1      35.388  24.046  24.272  1.00  0.00     0.116 C 
BRANCH   2   3
ATOM      3  N   UNL A   1      34.429  23.970  25.336  1.00  0.00    -0.352 N 
ATOM      4  C   UNL A   1      33.504  24.918  25.712  1.00  0.00     0.253 C 
ATOM      5  O   UNL A   1      32.717  24.605  26.610  1.00  0.00    -0.269 OA
ATOM      6  H   UNL A   1      34.433  23.138  25.863  1.00  0.00     0.163 HD
BRANCH   4   7
ATOM      7  C   UNL A   1      33.431  26.323  25.177  1.00  0.00     0.066 A 
ATOM      8  C   UNL A   1      32.833  26.795  23.976  1.00  0.00     0.050 A 
ATOM      9  C   UNL A   1      32.776  28.197  23.782  1.00  0.00     0.030 A 
ATOM     10  C   UNL A   1      33.308  29.108  24.692  1.00  0.00     0.041 A 
ATOM     11  C   UNL A   1      33.945  27.268  26.099  1.00  0.00     0.055 A 
ATOM     12  C   UNL A   1      33.889  28.631  25.847  1.00  0.00     0.124 A 
ATOM     13  F   UNL A   1      34.382  29.497  26.742  1.00  0.00    -0.207 F 
BRANCH   8  14
ATOM     14  N   UNL A   1      32.244  25.996  22.998  1.00  0.00    -0.367 N 
BRANCH  14  15
ATOM     15  C   UNL A   1      30.944  25.351  23.277  1.00  0.00     0.146 C 
BRANCH  15  16
ATOM     16  C   UNL A   1      29.928  26.205  23.991  1.00  0.00    -0.061 C 
ATOM     17  C   UNL A   1      29.348  27.280  23.436  1.00  0.00     0.009 C 
ATOM     18  C   UNL A   1      29.688  25.834  25.431  1.00  0.00     0.041 C 
ENDBRANCH  15  16
ENDBRANCH  14  15
BRANCH  14  19
ATOM     19  C   UNL A   1      33.079  25.445  21.923  1.00  0.00     0.113 C 
ATOM     20  C   UNL A   1      32.513  25.661  20.525  1.00  0.00     0.027 C 
ENDBRANCH  14  19
ENDBRANCH   8  14
ENDBRANCH   4   7
ENDBRANCH   2   3
ENDBRANCH   1   2
BRANCH   1  21
ATOM     21  C   UNL A   1      36.962  22.022  23.875  1.00  0.00     0.023 C 
BRANCH  21  22
ATOM     22  C   UNL A   1      37.038  21.411  25.274  1.00  0.00     0.116 C 
BRANCH  22  23
ATOM     23  N   UNL A   1      38.157  20.502  25.486  1.00  0.00    -0.352 N 
ATOM     24  C   UNL A   1      39.393  20.705  26.066  1.00  0.00     0.251 C 
ATOM     25  H   UNL A   1      38.006  19.586  25.157  1.00  0.00     0.163 HD
ATOM     26  O   UNL A   1      40.197  19.784  26.098  1.00  0.00    -0.269 OA
BRANCH  24  27
ATOM     27  C   UNL A   1      39.777  22.035  26.605  1.00  0.00     0.039 A 
ATOM     28  C   UNL A   1      40.757  22.091  27.601  1.00  0.00     0.014 A 
ATOM     29  C   UNL A   1      39.193  23.217  26.148  1.00  0.00     0.014 A 
ATOM     30  C   UNL A   1      41.228  23.331  28.051  1.00  0.00     0.010 A 
ATOM     31  C   UNL A   1      39.724  24.451  26.531  1.00  0.00     0.010 A 
ATOM     32  C   UNL A   1      40.760  24.523  27.474  1.00  0.00    -0.014 A 
BRANCH  32  33
ATOM     33  C   UNL A   1      41.385  25.835  27.802  1.00  0.00     0.031 A 
ATOM     34  C   UNL A   1      40.609  26.914  28.509  1.00  0.00     0.074 A 
ATOM     35  C   UNL A   1      42.643  26.090  27.383  1.00  0.00     0.049 A 
ATOM     36  N   UNL A   1      40.994  28.120  28.842  1.00  0.00    -0.248 NA
ATOM     37  C   UNL A   1      39.215  26.613  28.871  1.00  0.00     0.031 C 
ATOM     38  C   UNL A   1      43.479  25.167  26.613  1.00  0.00     0.029 A 
ATOM     39  N   UNL A   1      43.433  27.206  27.527  1.00  0.00    -0.354 N 
ATOM     40  C   UNL A   1      39.889  28.729  29.424  1.00  0.00     0.074 A 
ATOM     41  C   UNL A   1      38.805  27.773  29.367  1.00  0.00     0.031 C 
ATOM     42  C   UNL A   1      44.667  25.741  26.372  1.00  0.00     0.029 A 
ATOM     43  C   UNL A   1      44.672  27.088  26.936  1.00  0.00     0.049 A 
ATOM     44  H   UNL A   1      43.142  28.015  28.008  1.00  0.00     0.167 HD
ATOM     45  C   UNL A   1      39.793  29.958  29.985  1.00  0.00     0.034 A 
ATOM     46  C   UNL A   1      45.698  27.959  26.853  1.00  0.00     0.034 A 
ATOM     47  C   UNL A   1      40.882  30.892  30.081  1.00  0.00     0.049 A 
ATOM     48  C   UNL A   1      45.578  29.305  27.513  1.00  0.00     0.074 A 
ATOM     49  C   UNL A   1      40.900  32.125  30.712  1.00  0.00     0.029 A 
ATOM     50  N   UNL A   1      42.141  30.708  29.531  1.00  0.00    -0.354 N 
ATOM     51  N   UNL A   1      44.574  29.799  28.194  1.00  0.00    -0.248 NA
ATOM     52  C   UNL A   1      46.741  30.202  27.425  1.00  0.00     0.031 C 
ATOM     53  C   UNL A   1      42.160  32.696  30.520  1.00  0.00     0.029 A 
ATOM     54  C   UNL A   1      42.939  31.807  29.798  1.00  0.00     0.049 A 
ATOM     55  H   UNL A   1      42.425  29.912  29.025  1.00  0.00     0.167 HD
ATOM     56  C   UNL A   1      44.993  31.047  28.642  1.00  0.00     0.074 A 
ATOM     57  C   UNL A   1      46.349  31.229  28.168  1.00  0.00     0.031 C 
ATOM     58  C   UNL A   1      44.307  31.962  29.370  1.00  0.00     0.034 A 
BRANCH  45  59
ATOM     59  C   UNL A   1      38.478  30.351  30.609  1.00  0.00     0.023 A 
ATOM     60  C   UNL A   1      38.231  30.029  31.959  1.00  0.00     0.012 A 
ATOM     61  C   UNL A   1      37.535  31.121  29.900  1.00  0.00     0.148 A 
ATOM     62  C   UNL A   1      37.058  30.442  32.586  1.00  0.00     0.002 A 
ATOM     63  C   UNL A   1      36.388  31.569  30.546  1.00  0.00     0.091 A 
ATOM     64  F   UNL A   1      37.779  31.404  28.612  1.00  0.00    -0.205 F 
ATOM     65  C   UNL A   1      36.142  31.222  31.884  1.00  0.00     0.022 A 
BRANCH  63  66
ATOM     66  S   UNL A   1      35.190  32.653  29.759  1.00  0.00     0.127 S 
ATOM     67  O   UNL A   1      34.328  33.007  30.886  1.00  0.00    -0.237 OA
ATOM     68  O   UNL A   1      36.034  33.743  29.272  1.00  0.00    -0.237 OA
ATOM     69  O   UNL A   1      34.556  31.862  28.714  1.00  0.00    -0.744 OA
ENDBRANCH  63  66
ENDBRANCH  45  59
BRANCH  46  70
ATOM     70  C   UNL A   1      46.963  27.538  26.185  1.00  0.00     0.023 A 
ATOM     71  C   UNL A   1      47.881  26.737  26.891  1.00  0.00     0.012 A 
ATOM     72  C   UNL A   1      47.225  27.859  24.838  1.00  0.00     0.148 A 
ATOM     73  C   UNL A   1      49.044  26.276  26.276  1.00  0.00     0.002 A 
ATOM     74  C   UNL A   1      48.357  27.347  24.214  1.00  0.00     0.091 A 
ATOM     75  F   UNL A   1      46.343  28.629  24.186  1.00  0.00    -0.205 F 
ATOM     76  C   UNL A   1      49.276  26.570  24.935  1.00  0.00     0.022 A 
BRANCH  74  77
ATOM     77  S   UNL A   1      48.667  27.548  22.455  1.00  0.00     0.127 S 
ATOM     78  O   UNL A   1      47.487  28.293  22.025  1.00  0.00    -0.237 OA
ATOM     79  O   UNL A   1      49.913  28.316  22.457  1.00  0.00    -0.237 OA
ATOM     80  O   UNL A   1      48.792  26.199  21.919  1.00  0.00    -0.744 OA
ENDBRANCH  74  77
ENDBRANCH  46  70
BRANCH  58  81
ATOM     81  C   UNL A   1      44.998  33.249  29.741  1.00  0.00     0.023 A 
ATOM     82  C   UNL A   1      45.777  33.310  30.912  1.00  0.00     0.012 A 
ATOM     83  C   UNL A   1      44.987  34.347  28.858  1.00  0.00     0.148 A 
ATOM     84  C   UNL A   1      46.527  34.449  31.205  1.00  0.00     0.002 A 
ATOM     85  C   UNL A   1      45.774  35.459  29.131  1.00  0.00     0.091 A 
ATOM     86  F   UNL A   1      44.225  34.273  27.757  1.00  0.00    -0.205 F 
ATOM     87  C   UNL A   1      46.537  35.516  30.308  1.00  0.00     0.022 A 
BRANCH  85  88
ATOM     88  S   UNL A   1      45.936  36.836  27.988  1.00  0.00     0.127 S 
ATOM     89  O   UNL A   1      44.715  37.593  28.256  1.00  0.00    -0.237 OA
ATOM     90  O   UNL A   1      47.167  37.478  28.450  1.00  0.00    -0.237 OA
ATOM     91  O   UNL A   1      46.021  36.248  26.657  1.00  0.00    -0.744 OA
ENDBRANCH  85  88
ENDBRANCH  58  81
ENDBRANCH  32  33
ENDBRANCH  24  27
ENDBRANCH  22  23
ENDBRANCH  21  22
ENDBRANCH   1  21
TORSDOF 18
ENDMDL
MODEL 3
REMARK VINA RESULT:     -10.8      4.851      7.665
REMARK SMILES C=C(C)CN(CC)c1ccc(F)cc1C(=O)NCCCCNC(=O)c1ccc(-c2c3nc(c(-c4cccc(S(=O)(=O)[O-])c4F)c4ccc([nH]4)c(-c4cccc(S(=O)(=O)[O-])c4F)c4nc(c(-c5cccc(S(=O)(=O)[O-])c5F)c5ccc2[nH]5)C=C4)C=C3)cc1
REMARK SMILES IDX 19 1 18 2 17 3 15 4 16 5 14 7 8 8 9 9 10 10 13 11 11 12
REMARK SMILES IDX 12 13 5 14 4 15 2 16 1 17 3 18 6 19 7 20 20 21 21 22 22 23
REMARK SMILES IDX 23 24 24 26 25 27 26 28 87 29 27 30 86 31 28 32 29 33 30 34
REMARK SMILES IDX 80 35 31 36 85 37 79 38 81 39 32 40 84 41 78 42 77 43 33 45
REMARK SMILES IDX 65 46 45 47 64 48 46 49 49 50 63 51 82 52 47 53 48 54 62 56
REMARK SMILES IDX 83 57 50 58 34 59 35 60 43 61 36 62 38 63 44 64 37 65 39 66
REMARK SMILES IDX 40 67 41 68 42 69 66 70 67 71 75 72 68 73 70 74 76 75 69 76
REMARK SMILES IDX 71 77 72 78 73 79 74 80 51 81 52 82 60 83 53 84 55 85 61 86
REMARK SMILES IDX 54 87 56 88 57 89 58 90 59 91
REMARK H PARENT 17 6 22 25 81 44 49 55
REMARK Flexibility Score: inf
ROOT
ATOM      1  C   UNL A   1      31.100  27.453  26.384  1.00  0.00     0.023 C 
ENDROOT
BRANCH   1   2
ATOM      2  C   UNL A   1      31.807  26.119  26.574  1.00  0.00     0.116 C 
BRANCH   2   3
ATOM      3  N   UNL A   1      30.997  24.936  26.613  1.00  0.00    -0.352 N 
ATOM      4  C   UNL A   1      31.103  23.811  25.827  1.00  0.00     0.253 C 
ATOM      5  O   UNL A   1      30.347  22.871  26.092  1.00  0.00    -0.269 OA
ATOM      6  H   UNL A   1      30.277  24.928  27.284  1.00  0.00     0.163 HD
BRANCH   4   7
ATOM      7  C   UNL A   1      32.002  23.668  24.627  1.00  0.00     0.066 A 
ATOM      8  C   UNL A   1      33.027  22.712  24.386  1.00  0.00     0.050 A 
ATOM      9  C   UNL A   1      33.626  22.709  23.102  1.00  0.00     0.030 A 
ATOM     10  C   UNL A   1      33.277  23.615  22.103  1.00  0.00     0.041 A 
ATOM     11  C   UNL A   1      31.647  24.564  23.590  1.00  0.00     0.055 A 
ATOM     12  C   UNL A   1      32.285  24.538  22.359  1.00  0.00     0.124 A 
ATOM     13  F   UNL A   1      31.923  25.399  21.399  1.00  0.00    -0.207 F 
BRANCH   8  14
ATOM     14  N   UNL A   1      33.453  21.738  25.285  1.00  0.00    -0.367 N 
BRANCH  14  15
ATOM     15  C   UNL A   1      32.756  20.436  25.326  1.00  0.00     0.146 C 
BRANCH  15  16
ATOM     16  C   UNL A   1      33.438  19.304  24.603  1.00  0.00    -0.061 C 
ATOM     17  C   UNL A   1      34.766  19.107  24.627  1.00  0.00     0.009 C 
ATOM     18  C   UNL A   1      32.531  18.462  23.744  1.00  0.00     0.041 C 
ENDBRANCH  15  16
ENDBRANCH  14  15
BRANCH  14  19
ATOM     19  C   UNL A   1      34.252  22.139  26.452  1.00  0.00     0.113 C 
ATOM     20  C   UNL A   1      35.622  22.706  26.101  1.00  0.00     0.027 C 
ENDBRANCH  14  19
ENDBRANCH   8  14
ENDBRANCH   4   7
ENDBRANCH   2   3
ENDBRANCH   1   2
BRANCH   1  21
ATOM     21  C   UNL A   1      31.763  28.674  27.027  1.00  0.00     0.023 C 
BRANCH  21  22
ATOM     22  C   UNL A   1      32.376  29.721  26.097  1.00  0.00     0.116 C 
BRANCH  22  23
ATOM     23  N   UNL A   1      32.221  31.100  26.539  1.00  0.00    -0.352 N 
ATOM     24  C   UNL A   1      33.061  31.919  27.265  1.00  0.00     0.251 C 
ATOM     25  H   UNL A   1      31.369  31.519  26.276  1.00  0.00     0.163 HD
ATOM     26  O   UNL A   1      32.692  33.050  27.554  1.00  0.00    -0.269 OA
BRANCH  24  27
ATOM     27  C   UNL A   1      34.381  31.433  27.743  1.00  0.00     0.039 A 
ATOM     28  C   UNL A   1      35.388  32.373  27.985  1.00  0.00     0.014 A 
ATOM     29  C   UNL A   1      34.640  30.079  27.956  1.00  0.00     0.014 A 
ATOM     30  C   UNL A   1      36.605  31.966  28.546  1.00  0.00     0.010 A 
ATOM     31  C   UNL A   1      35.817  29.685  28.595  1.00  0.00     0.010 A 
ATOM     32  C   UNL A   1      36.808  30.625  28.914  1.00  0.00    -0.014 A 
BRANCH  32  33
ATOM     33  C   UNL A   1      38.015  30.212  29.683  1.00  0.00     0.031 A 
ATOM     34  C   UNL A   1      38.989  29.208  29.126  1.00  0.00     0.074 A 
ATOM     35  C   UNL A   1      38.193  30.682  30.936  1.00  0.00     0.049 A 
ATOM     36  N   UNL A   1      40.071  28.719  29.676  1.00  0.00    -0.248 NA
ATOM     37  C   UNL A   1      38.704  28.665  27.789  1.00  0.00     0.031 C 
ATOM     38  C   UNL A   1      37.282  31.594  31.632  1.00  0.00     0.029 A 
ATOM     39  N   UNL A   1      39.189  30.448  31.855  1.00  0.00    -0.354 N 
ATOM     40  C   UNL A   1      40.579  27.796  28.771  1.00  0.00     0.074 A 
ATOM     41  C   UNL A   1      39.667  27.763  27.649  1.00  0.00     0.031 C 
ATOM     42  C   UNL A   1      37.768  31.857  32.854  1.00  0.00     0.029 A 
ATOM     43  C   UNL A   1      39.007  31.109  33.049  1.00  0.00     0.049 A 
ATOM     44  H   UNL A   1      39.960  29.862  31.677  1.00  0.00     0.167 HD
ATOM     45  C   UNL A   1      41.716  27.065  28.850  1.00  0.00     0.034 A 
ATOM     46  C   UNL A   1      39.747  31.117  34.177  1.00  0.00     0.034 A 
ATOM     47  C   UNL A   1      42.646  27.129  29.946  1.00  0.00     0.049 A 
ATOM     48  C   UNL A   1      41.023  30.323  34.227  1.00  0.00     0.074 A 
ATOM     49  C   UNL A   1      43.869  26.492  30.069  1.00  0.00     0.029 A 
ATOM     50  N   UNL A   1      42.460  27.863  31.106  1.00  0.00    -0.354 N 
ATOM     51  N   UNL A   1      41.563  29.576  33.295  1.00  0.00    -0.248 NA
ATOM     52  C   UNL A   1      41.812  30.397  35.466  1.00  0.00     0.031 C 
ATOM     53  C   UNL A   1      44.409  26.819  31.315  1.00  0.00     0.029 A 
ATOM     54  C   UNL A   1      43.540  27.686  31.955  1.00  0.00     0.049 A 
ATOM     55  H   UNL A   1      41.677  28.427  31.298  1.00  0.00     0.167 HD
ATOM     56  C   UNL A   1      42.766  29.118  33.821  1.00  0.00     0.074 A 
ATOM     57  C   UNL A   1      42.885  29.683  35.149  1.00  0.00     0.031 C 
ATOM     58  C   UNL A   1      43.681  28.293  33.255  1.00  0.00     0.034 A 
BRANCH  45  59
ATOM     59  C   UNL A   1      42.069  26.174  27.685  1.00  0.00     0.023 A 
ATOM     60  C   UNL A   1      42.896  26.674  26.660  1.00  0.00     0.012 A 
ATOM     61  C   UNL A   1      41.670  24.822  27.654  1.00  0.00     0.148 A 
ATOM     62  C   UNL A   1      43.300  25.854  25.608  1.00  0.00     0.002 A 
ATOM     63  C   UNL A   1      42.115  23.999  26.626  1.00  0.00     0.091 A 
ATOM     64  F   UNL A   1      40.870  24.369  28.629  1.00  0.00    -0.205 F 
ATOM     65  C   UNL A   1      42.920  24.515  25.598  1.00  0.00     0.022 A 
BRANCH  63  66
ATOM     66  S   UNL A   1      41.757  22.239  26.568  1.00  0.00     0.127 S 
ATOM     67  O   UNL A   1      40.302  22.239  26.415  1.00  0.00    -0.237 OA
ATOM     68  O   UNL A   1      42.493  21.814  25.378  1.00  0.00    -0.237 OA
ATOM     69  O   UNL A   1      42.252  21.685  27.820  1.00  0.00    -0.744 OA
ENDBRANCH  63  66
ENDBRANCH  45  59
BRANCH  46  70
ATOM     70  C   UNL A   1      39.331  31.981  35.319  1.00  0.00     0.023 A 
ATOM     71  C   UNL A   1      38.521  31.438  36.334  1.00  0.00     0.012 A 
ATOM     72  C   UNL A   1      39.793  33.307  35.444  1.00  0.00     0.148 A 
ATOM     73  C   UNL A   1      38.165  32.201  37.446  1.00  0.00     0.002 A 
ATOM     74  C   UNL A   1      39.483  34.042  36.582  1.00  0.00     0.091 A 
ATOM     75  F   UNL A   1      40.555  33.808  34.462  1.00  0.00    -0.205 F 
ATOM     76  C   UNL A   1      38.656  33.498  37.577  1.00  0.00     0.022 A 
BRANCH  74  77
ATOM     77  S   UNL A   1      40.186  35.663  36.908  1.00  0.00     0.127 S 
ATOM     78  O   UNL A   1      41.619  35.390  36.831  1.00  0.00    -0.237 OA
ATOM     79  O   UNL A   1      39.648  36.451  35.798  1.00  0.00    -0.237 OA
ATOM     80  O   UNL A   1      39.688  36.054  38.220  1.00  0.00    -0.744 OA
ENDBRANCH  74  77
ENDBRANCH  46  70
BRANCH  58  81
ATOM     81  C   UNL A   1      44.922  27.953  34.038  1.00  0.00     0.023 A 
ATOM     82  C   UNL A   1      46.026  28.826  34.009  1.00  0.00     0.012 A 
ATOM     83  C   UNL A   1      44.938  26.845  34.908  1.00  0.00     0.148 A 
ATOM     84  C   UNL A   1      47.133  28.595  34.826  1.00  0.00     0.002 A 
ATOM     85  C   UNL A   1      46.022  26.647  35.754  1.00  0.00     0.091 A 
ATOM     86  F   UNL A   1      43.882  26.018  34.908  1.00  0.00    -0.205 F 
ATOM     87  C   UNL A   1      47.124  27.516  35.708  1.00  0.00     0.022 A 
BRANCH  85  88
ATOM     88  S   UNL A   1      46.059  25.351  36.998  1.00  0.00     0.127 S 
ATOM     89  O   UNL A   1      44.749  25.506  37.629  1.00  0.00    -0.237 OA
ATOM     90  O   UNL A   1      46.205  24.144  36.183  1.00  0.00    -0.237 OA
ATOM     91  O   UNL A   1      47.199  25.646  37.856  1.00  0.00    -0.744 OA
ENDBRANCH  85  88
ENDBRANCH  58  81
ENDBRANCH  32  33
ENDBRANCH  24  27
ENDBRANCH  22  23
ENDBRANCH  21  22
ENDBRANCH   1  21
TORSDOF 18
ENDMDL
