MODEL 1
REMARK VINA RESULT:     -12.3      0.000      0.000
REMARK SMILES O=C(NCCCCNC(=O)c1oc2cccc3c2c1CCC3)c1ccc(-c2c3nc(c(-c4cccc(S(=O)(=O)[O-])c4F)c4ccc([nH]4)c(-c4cccc(S(=O)(=O)[O-])c4F)c4nc(c(-c5cccc(S(=O)(=O)[O-])c5F)c5ccc2[nH]5)C=C4)C=C3)cc1
REMARK SMILES IDX 4 1 3 2 1 3 2 4 23 6 24 7 85 8 25 9 84 10 26 11 27 12 28 13
REMARK SMILES IDX 78 14 29 15 83 16 77 17 79 18 30 19 82 20 76 21 75 22 31 24
REMARK SMILES IDX 63 25 43 26 62 27 44 28 47 29 61 30 80 31 45 32 46 33 60 35
REMARK SMILES IDX 81 36 48 37 32 38 33 39 41 40 34 41 36 42 42 43 35 44 37 45
REMARK SMILES IDX 38 46 39 47 40 48 64 49 65 50 73 51 66 52 68 53 74 54 67 55
REMARK SMILES IDX 69 56 70 57 71 58 72 59 49 60 50 61 58 62 51 63 53 64 59 65
REMARK SMILES IDX 52 66 54 67 55 68 56 69 57 70 5 71 6 72 7 73 8 74 9 75 10 77
REMARK SMILES IDX 11 78 12 79 19 80 13 81 18 82 20 83 14 84 17 85 21 86 15 87
REMARK SMILES IDX 16 88 22 89
REMARK H PARENT 3 5 79 23 47 34 8 76
REMARK Flexibility Score: inf
ROOT
ATOM      1  C   UNL A   1      34.371  31.210  27.412  1.00  0.00     0.116 C 
ENDROOT
BRANCH   1   2
ATOM      2  N   UNL A   1      34.177  31.741  28.747  1.00  0.00    -0.352 N 
ATOM      3  O   UNL A   1      34.596  32.673  30.717  1.00  0.00    -0.269 OA
ATOM      4  C   UNL A   1      35.021  31.959  29.806  1.00  0.00     0.251 C 
ATOM      5  H   UNL A   1      33.246  32.000  28.931  1.00  0.00     0.163 HD
BRANCH   4   6
ATOM      6  C   UNL A   1      36.337  31.292  29.959  1.00  0.00     0.039 A 
ATOM      7  C   UNL A   1      37.568  31.938  29.861  1.00  0.00     0.014 A 
ATOM      8  C   UNL A   1      36.311  29.895  30.134  1.00  0.00     0.014 A 
ATOM      9  C   UNL A   1      38.733  31.198  29.744  1.00  0.00     0.010 A 
ATOM     10  C   UNL A   1      37.480  29.150  30.063  1.00  0.00     0.010 A 
ATOM     11  C   UNL A   1      38.680  29.804  29.805  1.00  0.00    -0.014 A 
BRANCH  11  12
ATOM     12  C   UNL A   1      39.945  29.092  29.730  1.00  0.00     0.031 A 
ATOM     13  C   UNL A   1      40.609  28.898  31.047  1.00  0.00     0.074 A 
ATOM     14  C   UNL A   1      40.456  28.592  28.590  1.00  0.00     0.049 A 
ATOM     15  N   UNL A   1      41.703  29.442  31.472  1.00  0.00    -0.248 NA
ATOM     16  C   UNL A   1      39.888  28.118  32.063  1.00  0.00     0.031 C 
ATOM     17  C   UNL A   1      39.805  28.462  27.285  1.00  0.00     0.029 A 
ATOM     18  N   UNL A   1      41.654  27.973  28.401  1.00  0.00    -0.354 N 
ATOM     19  C   UNL A   1      41.922  28.897  32.736  1.00  0.00     0.074 A 
ATOM     20  C   UNL A   1      40.704  28.229  33.111  1.00  0.00     0.031 C 
ATOM     21  C   UNL A   1      40.512  27.593  26.524  1.00  0.00     0.029 A 
ATOM     22  C   UNL A   1      41.723  27.219  27.234  1.00  0.00     0.049 A 
ATOM     23  H   UNL A   1      42.404  28.052  29.034  1.00  0.00     0.167 HD
ATOM     24  C   UNL A   1      43.164  28.838  33.289  1.00  0.00     0.034 A 
ATOM     25  C   UNL A   1      42.670  26.293  26.941  1.00  0.00     0.034 A 
ATOM     26  C   UNL A   1      44.099  29.696  32.619  1.00  0.00     0.049 A 
ATOM     27  C   UNL A   1      43.852  26.611  27.779  1.00  0.00     0.074 A 
ATOM     28  C   UNL A   1      44.207  31.053  32.394  1.00  0.00     0.029 A 
ATOM     29  N   UNL A   1      44.970  29.096  31.744  1.00  0.00    -0.354 N 
ATOM     30  N   UNL A   1      44.571  27.689  27.641  1.00  0.00    -0.248 NA
ATOM     31  C   UNL A   1      44.009  25.906  29.040  1.00  0.00     0.031 C 
ATOM     32  C   UNL A   1      44.771  31.163  31.089  1.00  0.00     0.029 A 
ATOM     33  C   UNL A   1      45.006  29.869  30.618  1.00  0.00     0.049 A 
ATOM     34  H   UNL A   1      45.472  28.263  31.899  1.00  0.00     0.167 HD
ATOM     35  C   UNL A   1      44.925  28.034  28.937  1.00  0.00     0.074 A 
ATOM     36  C   UNL A   1      44.649  26.846  29.739  1.00  0.00     0.031 C 
ATOM     37  C   UNL A   1      45.139  29.336  29.283  1.00  0.00     0.034 A 
BRANCH  24  38
ATOM     38  C   UNL A   1      43.641  27.732  34.198  1.00  0.00     0.023 A 
ATOM     39  C   UNL A   1      44.322  28.103  35.380  1.00  0.00     0.012 A 
ATOM     40  C   UNL A   1      43.720  26.377  33.806  1.00  0.00     0.148 A 
ATOM     41  C   UNL A   1      45.078  27.179  36.108  1.00  0.00     0.002 A 
ATOM     42  C   UNL A   1      44.413  25.449  34.573  1.00  0.00     0.091 A 
ATOM     43  F   UNL A   1      43.246  26.000  32.615  1.00  0.00    -0.205 F 
ATOM     44  C   UNL A   1      45.117  25.849  35.710  1.00  0.00     0.022 A 
BRANCH  42  45
ATOM     45  S   UNL A   1      44.472  23.715  34.111  1.00  0.00     0.127 S 
ATOM     46  O   UNL A   1      43.080  23.316  34.301  1.00  0.00    -0.237 OA
ATOM     47  O   UNL A   1      44.913  23.789  32.718  1.00  0.00    -0.237 OA
ATOM     48  O   UNL A   1      45.446  23.109  35.011  1.00  0.00    -0.744 OA
ENDBRANCH  42  45
ENDBRANCH  24  38
BRANCH  25  49
ATOM     49  C   UNL A   1      42.555  24.992  26.232  1.00  0.00     0.023 A 
ATOM     50  C   UNL A   1      43.589  24.602  25.353  1.00  0.00     0.012 A 
ATOM     51  C   UNL A   1      41.627  24.007  26.634  1.00  0.00     0.148 A 
ATOM     52  C   UNL A   1      43.733  23.270  24.945  1.00  0.00     0.002 A 
ATOM     53  C   UNL A   1      41.766  22.686  26.214  1.00  0.00     0.091 A 
ATOM     54  F   UNL A   1      40.665  24.336  27.506  1.00  0.00    -0.205 F 
ATOM     55  C   UNL A   1      42.830  22.309  25.386  1.00  0.00     0.022 A 
BRANCH  53  56
ATOM     56  S   UNL A   1      40.637  21.394  26.753  1.00  0.00     0.127 S 
ATOM     57  O   UNL A   1      41.212  20.203  26.124  1.00  0.00    -0.237 OA
ATOM     58  O   UNL A   1      40.780  21.449  28.204  1.00  0.00    -0.237 OA
ATOM     59  O   UNL A   1      39.330  21.770  26.228  1.00  0.00    -0.744 OA
ENDBRANCH  53  56
ENDBRANCH  25  49
BRANCH  37  60
ATOM     60  C   UNL A   1      45.249  30.355  28.181  1.00  0.00     0.023 A 
ATOM     61  C   UNL A   1      44.110  30.917  27.567  1.00  0.00     0.012 A 
ATOM     62  C   UNL A   1      46.513  30.906  27.923  1.00  0.00     0.148 A 
ATOM     63  C   UNL A   1      44.235  32.012  26.709  1.00  0.00     0.002 A 
ATOM     64  C   UNL A   1      46.628  32.019  27.101  1.00  0.00     0.091 A 
ATOM     65  F   UNL A   1      47.577  30.361  28.533  1.00  0.00    -0.205 F 
ATOM     66  C   UNL A   1      45.492  32.573  26.488  1.00  0.00     0.022 A 
BRANCH  64  67
ATOM     67  S   UNL A   1      48.194  32.863  26.867  1.00  0.00     0.127 S 
ATOM     68  O   UNL A   1      47.870  33.820  25.811  1.00  0.00    -0.237 OA
ATOM     69  O   UNL A   1      48.422  33.459  28.184  1.00  0.00    -0.237 OA
ATOM     70  O   UNL A   1      49.159  31.835  26.499  1.00  0.00    -0.744 OA
ENDBRANCH  64  67
ENDBRANCH  37  60
ENDBRANCH  11  12
ENDBRANCH   4   6
ENDBRANCH   1   2
BRANCH   1  71
ATOM     71  C   UNL A   1      33.906  29.770  27.185  1.00  0.00     0.023 C 
BRANCH  71  72
ATOM     72  C   UNL A   1      33.369  29.458  25.789  1.00  0.00     0.023 C 
BRANCH  72  73
ATOM     73  C   UNL A   1      33.619  28.042  25.290  1.00  0.00     0.116 C 
BRANCH  73  74
ATOM     74  N   UNL A   1      34.120  27.984  23.931  1.00  0.00    -0.349 N 
ATOM     75  C   UNL A   1      33.408  28.040  22.748  1.00  0.00     0.287 C 
ATOM     76  H   UNL A   1      35.095  27.891  23.838  1.00  0.00     0.163 HD
ATOM     77  O   UNL A   1      34.022  27.866  21.705  1.00  0.00    -0.266 OA
BRANCH  75  78
ATOM     78  C   UNL A   1      31.982  28.292  22.808  1.00  0.00     0.195 A 
ATOM     79  O   UNL A   1      31.527  29.492  22.285  1.00  0.00    -0.451 OA
ATOM     80  C   UNL A   1      30.905  27.571  23.296  1.00  0.00     0.012 A 
ATOM     81  C   UNL A   1      30.165  29.491  22.375  1.00  0.00     0.135 A 
ATOM     82  C   UNL A   1      29.764  28.332  22.988  1.00  0.00     0.028 A 
ATOM     83  C   UNL A   1      30.722  26.263  23.988  1.00  0.00     0.041 C 
ATOM     84  C   UNL A   1      29.265  30.452  21.939  1.00  0.00     0.048 A 
ATOM     85  C   UNL A   1      28.425  28.028  23.229  1.00  0.00    -0.037 A 
ATOM     86  C   UNL A   1      29.353  26.222  24.732  1.00  0.00     0.010 C 
ATOM     87  C   UNL A   1      27.905  30.150  22.150  1.00  0.00     0.004 A 
ATOM     88  C   UNL A   1      27.487  28.959  22.776  1.00  0.00     0.004 A 
ATOM     89  C   UNL A   1      28.137  26.700  23.876  1.00  0.00     0.036 C 
ENDBRANCH  75  78
ENDBRANCH  73  74
ENDBRANCH  72  73
ENDBRANCH  71  72
ENDBRANCH   1  71
TORSDOF 14
ENDMDL
MODEL 2
REMARK VINA RESULT:     -12.3      2.720      3.817
REMARK SMILES O=C(NCCCCNC(=O)c1oc2cccc3c2c1CCC3)c1ccc(-c2c3nc(c(-c4cccc(S(=O)(=O)[O-])c4F)c4ccc([nH]4)c(-c4cccc(S(=O)(=O)[O-])c4F)c4nc(c(-c5cccc(S(=O)(=O)[O-])c5F)c5ccc2[nH]5)C=C4)C=C3)cc1
REMARK SMILES IDX 4 1 3 2 1 3 2 4 23 6 24 7 85 8 25 9 84 10 26 11 27 12 28 13
REMARK SMILES IDX 78 14 29 15 83 16 77 17 79 18 30 19 82 20 76 21 75 22 31 24
REMARK SMILES IDX 63 25 43 26 62 27 44 28 47 29 61 30 80 31 45 32 46 33 60 35
REMARK SMILES IDX 81 36 48 37 32 38 33 39 41 40 34 41 36 42 42 43 35 44 37 45
REMARK SMILES IDX 38 46 39 47 40 48 64 49 65 50 73 51 66 52 68 53 74 54 67 55
REMARK SMILES IDX 69 56 70 57 71 58 72 59 49 60 50 61 58 62 51 63 53 64 59 65
REMARK SMILES IDX 52 66 54 67 55 68 56 69 57 70 5 71 6 72 7 73 8 74 9 75 10 77
REMARK SMILES IDX 11 78 12 79 19 80 13 81 18 82 20 83 14 84 17 85 21 86 15 87
REMARK SMILES IDX 16 88 22 89
REMARK H PARENT 3 5 79 23 47 34 8 76
REMARK Flexibility Score: inf
ROOT
ATOM      1  C   UNL A   1      33.273  29.860  26.160  1.00  0.00     0.116 C 
ENDROOT
BRANCH   1   2
ATOM      2  N   UNL A   1      33.322  30.894  27.175  1.00  0.00    -0.352 N 
ATOM      3  O   UNL A   1      34.082  32.520  28.481  1.00  0.00    -0.269 OA
ATOM      4  C   UNL A   1      34.346  31.478  27.876  1.00  0.00     0.251 C 
ATOM      5  H   UNL A   1      32.436  31.253  27.409  1.00  0.00     0.163 HD
BRANCH   4   6
ATOM      6  C   UNL A   1      35.687  30.863  28.039  1.00  0.00     0.039 A 
ATOM      7  C   UNL A   1      35.944  29.496  27.967  1.00  0.00     0.014 A 
ATOM      8  C   UNL A   1      36.738  31.740  28.368  1.00  0.00     0.014 A 
ATOM      9  C   UNL A   1      37.161  28.995  28.399  1.00  0.00     0.010 A 
ATOM     10  C   UNL A   1      37.975  31.247  28.761  1.00  0.00     0.010 A 
ATOM     11  C   UNL A   1      38.158  29.872  28.834  1.00  0.00    -0.014 A 
BRANCH  11  12
ATOM     12  C   UNL A   1      39.429  29.283  29.222  1.00  0.00     0.031 A 
ATOM     13  C   UNL A   1      39.782  29.493  30.653  1.00  0.00     0.074 A 
ATOM     14  C   UNL A   1      40.202  28.556  28.394  1.00  0.00     0.049 A 
ATOM     15  N   UNL A   1      40.732  30.226  31.136  1.00  0.00    -0.248 NA
ATOM     16  C   UNL A   1      38.873  28.937  31.665  1.00  0.00     0.031 C 
ATOM     17  C   UNL A   1      39.870  28.039  27.066  1.00  0.00     0.029 A 
ATOM     18  N   UNL A   1      41.431  28.021  28.636  1.00  0.00    -0.354 N 
ATOM     19  C   UNL A   1      40.675  30.045  32.517  1.00  0.00     0.074 A 
ATOM     20  C   UNL A   1      39.425  29.386  32.792  1.00  0.00     0.031 C 
ATOM     21  C   UNL A   1      40.759  27.072  26.735  1.00  0.00     0.029 A 
ATOM     22  C   UNL A   1      41.787  27.004  27.758  1.00  0.00     0.049 A 
ATOM     23  H   UNL A   1      42.014  28.328  29.368  1.00  0.00     0.167 HD
ATOM     24  C   UNL A   1      41.760  30.242  33.315  1.00  0.00     0.034 A 
ATOM     25  C   UNL A   1      42.805  26.124  27.933  1.00  0.00     0.034 A 
ATOM     26  C   UNL A   1      42.795  30.983  32.651  1.00  0.00     0.049 A 
ATOM     27  C   UNL A   1      43.755  26.753  28.883  1.00  0.00     0.074 A 
ATOM     28  C   UNL A   1      42.908  32.240  32.096  1.00  0.00     0.029 A 
ATOM     29  N   UNL A   1      43.860  30.260  32.175  1.00  0.00    -0.354 N 
ATOM     30  N   UNL A   1      44.452  27.821  28.615  1.00  0.00    -0.248 NA
ATOM     31  C   UNL A   1      43.643  26.410  30.291  1.00  0.00     0.031 C 
ATOM     32  C   UNL A   1      43.751  32.063  30.959  1.00  0.00     0.029 A 
ATOM     33  C   UNL A   1      44.128  30.720  30.916  1.00  0.00     0.049 A 
ATOM     34  H   UNL A   1      44.340  29.544  32.651  1.00  0.00     0.167 HD
ATOM     35  C   UNL A   1      44.490  28.517  29.814  1.00  0.00     0.074 A 
ATOM     36  C   UNL A   1      44.076  27.553  30.830  1.00  0.00     0.031 C 
ATOM     37  C   UNL A   1      44.578  29.878  29.833  1.00  0.00     0.034 A 
BRANCH  24  38
ATOM     38  C   UNL A   1      42.051  29.454  34.568  1.00  0.00     0.023 A 
ATOM     39  C   UNL A   1      42.711  30.123  35.624  1.00  0.00     0.012 A 
ATOM     40  C   UNL A   1      41.986  28.044  34.637  1.00  0.00     0.148 A 
ATOM     41  C   UNL A   1      43.311  29.419  36.673  1.00  0.00     0.002 A 
ATOM     42  C   UNL A   1      42.521  27.356  35.719  1.00  0.00     0.091 A 
ATOM     43  F   UNL A   1      41.532  27.346  33.593  1.00  0.00    -0.205 F 
ATOM     44  C   UNL A   1      43.208  28.035  36.726  1.00  0.00     0.022 A 
BRANCH  42  45
ATOM     45  S   UNL A   1      42.393  25.569  35.842  1.00  0.00     0.127 S 
ATOM     46  O   UNL A   1      42.995  25.325  37.150  1.00  0.00    -0.237 OA
ATOM     47  O   UNL A   1      40.946  25.364  35.776  1.00  0.00    -0.237 OA
ATOM     48  O   UNL A   1      43.120  25.050  34.691  1.00  0.00    -0.744 OA
ENDBRANCH  42  45
ENDBRANCH  24  38
BRANCH  25  49
ATOM     49  C   UNL A   1      42.896  24.680  27.593  1.00  0.00     0.023 A 
ATOM     50  C   UNL A   1      41.811  23.835  27.914  1.00  0.00     0.012 A 
ATOM     51  C   UNL A   1      43.870  24.188  26.698  1.00  0.00     0.148 A 
ATOM     52  C   UNL A   1      41.665  22.579  27.313  1.00  0.00     0.002 A 
ATOM     53  C   UNL A   1      43.728  22.932  26.113  1.00  0.00     0.091 A 
ATOM     54  F   UNL A   1      44.884  24.985  26.336  1.00  0.00    -0.205 F 
ATOM     55  C   UNL A   1      42.616  22.132  26.403  1.00  0.00     0.022 A 
BRANCH  53  56
ATOM     56  S   UNL A   1      44.919  22.296  24.924  1.00  0.00     0.127 S 
ATOM     57  O   UNL A   1      44.278  21.057  24.481  1.00  0.00    -0.237 OA
ATOM     58  O   UNL A   1      44.949  23.360  23.925  1.00  0.00    -0.237 OA
ATOM     59  O   UNL A   1      46.153  22.092  25.673  1.00  0.00    -0.744 OA
ENDBRANCH  53  56
ENDBRANCH  25  49
BRANCH  37  60
ATOM     60  C   UNL A   1      44.904  30.586  28.547  1.00  0.00     0.023 A 
ATOM     61  C   UNL A   1      43.898  31.098  27.700  1.00  0.00     0.012 A 
ATOM     62  C   UNL A   1      46.244  30.927  28.308  1.00  0.00     0.148 A 
ATOM     63  C   UNL A   1      44.228  31.937  26.634  1.00  0.00     0.002 A 
ATOM     64  C   UNL A   1      46.563  31.793  27.271  1.00  0.00     0.091 A 
ATOM     65  F   UNL A   1      47.178  30.438  29.138  1.00  0.00    -0.205 F 
ATOM     66  C   UNL A   1      45.559  32.298  26.428  1.00  0.00     0.022 A 
BRANCH  64  67
ATOM     67  S   UNL A   1      48.236  32.392  27.022  1.00  0.00     0.127 S 
ATOM     68  O   UNL A   1      48.074  33.283  25.874  1.00  0.00    -0.237 OA
ATOM     69  O   UNL A   1      48.512  33.070  28.289  1.00  0.00    -0.237 OA
ATOM     70  O   UNL A   1      49.059  31.213  26.782  1.00  0.00    -0.744 OA
ENDBRANCH  64  67
ENDBRANCH  37  60
ENDBRANCH  11  12
ENDBRANCH   4   6
ENDBRANCH   1   2
BRANCH   1  71
ATOM     71  C   UNL A   1      32.901  28.456  26.645  1.00  0.00     0.023 C 
BRANCH  71  72
ATOM     72  C   UNL A   1      33.509  27.299  25.856  1.00  0.00     0.023 C 
BRANCH  72  73
ATOM     73  C   UNL A   1      32.549  26.553  24.939  1.00  0.00     0.116 C 
BRANCH  73  74
ATOM     74  N   UNL A   1      32.918  26.611  23.539  1.00  0.00    -0.349 N 
ATOM     75  C   UNL A   1      33.434  25.605  22.743  1.00  0.00     0.287 C 
ATOM     76  H   UNL A   1      32.784  27.479  23.096  1.00  0.00     0.163 HD
ATOM     77  O   UNL A   1      33.777  25.898  21.607  1.00  0.00    -0.266 OA
BRANCH  75  78
ATOM     78  C   UNL A   1      33.549  24.271  23.298  1.00  0.00     0.195 A 
ATOM     79  O   UNL A   1      32.599  23.339  22.911  1.00  0.00    -0.451 OA
ATOM     80  C   UNL A   1      34.439  23.676  24.177  1.00  0.00     0.012 A 
ATOM     81  C   UNL A   1      32.934  22.147  23.484  1.00  0.00     0.135 A 
ATOM     82  C   UNL A   1      34.051  22.328  24.259  1.00  0.00     0.028 A 
ATOM     83  C   UNL A   1      35.629  24.123  24.955  1.00  0.00     0.041 C 
ATOM     84  C   UNL A   1      32.312  20.914  23.350  1.00  0.00     0.048 A 
ATOM     85  C   UNL A   1      34.646  21.294  24.981  1.00  0.00    -0.037 A 
ATOM     86  C   UNL A   1      35.906  23.151  26.142  1.00  0.00     0.010 C 
ATOM     87  C   UNL A   1      32.916  19.851  24.051  1.00  0.00     0.004 A 
ATOM     88  C   UNL A   1      34.066  20.030  24.847  1.00  0.00     0.004 A 
ATOM     89  C   UNL A   1      35.889  21.637  25.756  1.00  0.00     0.036 C 
ENDBRANCH  75  78
ENDBRANCH  73  74
ENDBRANCH  72  73
ENDBRANCH  71  72
ENDBRANCH   1  71
TORSDOF 14
ENDMDL
MODEL 3
REMARK VINA RESULT:     -12.2      3.287      8.403
REMARK SMILES O=C(NCCCCNC(=O)c1oc2cccc3c2c1CCC3)c1ccc(-c2c3nc(c(-c4cccc(S(=O)(=O)[O-])c4F)c4ccc([nH]4)c(-c4cccc(S(=O)(=O)[O-])c4F)c4nc(c(-c5cccc(S(=O)(=O)[O-])c5F)c5ccc2[nH]5)C=C4)C=C3)cc1
REMARK SMILES IDX 4 1 3 2 1 3 2 4 23 6 24 7 85 8 25 9 84 10 26 11 27 12 28 13
REMARK SMILES IDX 78 14 29 15 83 16 77 17 79 18 30 19 82 20 76 21 75 22 31 24
REMARK SMILES IDX 63 25 43 26 62 27 44 28 47 29 61 30 80 31 45 32 46 33 60 35
REMARK SMILES IDX 81 36 48 37 32 38 33 39 41 40 34 41 36 42 42 43 35 44 37 45
REMARK SMILES IDX 38 46 39 47 40 48 64 49 65 50 73 51 66 52 68 53 74 54 67 55
REMARK SMILES IDX 69 56 70 57 71 58 72 59 49 60 50 61 58 62 51 63 53 64 59 65
REMARK SMILES IDX 52 66 54 67 55 68 56 69 57 70 5 71 6 72 7 73 8 74 9 75 10 77
REMARK SMILES IDX 11 78 12 79 19 80 13 81 18 82 20 83 14 84 17 85 21 86 15 87
REMARK SMILES IDX 16 88 22 89
REMARK H PARENT 3 5 79 23 47 34 8 76
REMARK Flexibility Score: inf
ROOT
ATOM      1  C   UNL A   1      36.750  22.178  25.723  1.00  0.00     0.116 C 
ENDROOT
BRANCH   1   2
ATOM      2  N   UNL A   1      38.101  21.674  25.564  1.00  0.00    -0.352 N 
ATOM      3  O   UNL A   1      40.220  21.176  25.997  1.00  0.00    -0.269 OA
ATOM      4  C   UNL A   1      39.294  21.972  26.172  1.00  0.00     0.251 C 
ATOM      5  H   UNL A   1      38.177  20.973  24.878  1.00  0.00     0.163 HD
BRANCH   4   6
ATOM      6  C   UNL A   1      39.551  23.235  26.906  1.00  0.00     0.039 A 
ATOM      7  C   UNL A   1      38.792  24.396  26.773  1.00  0.00     0.014 A 
ATOM      8  C   UNL A   1      40.696  23.258  27.726  1.00  0.00     0.014 A 
ATOM      9  C   UNL A   1      39.263  25.595  27.281  1.00  0.00     0.010 A 
ATOM     10  C   UNL A   1      41.150  24.449  28.276  1.00  0.00     0.010 A 
ATOM     11  C   UNL A   1      40.462  25.624  27.996  1.00  0.00    -0.014 A 
BRANCH  11  12
ATOM     12  C   UNL A   1      40.871  26.906  28.548  1.00  0.00     0.031 A 
ATOM     13  C   UNL A   1      42.185  27.389  28.046  1.00  0.00     0.074 A 
ATOM     14  C   UNL A   1      40.113  27.633  29.389  1.00  0.00     0.049 A 
ATOM     15  N   UNL A   1      43.292  27.506  28.705  1.00  0.00    -0.248 NA
ATOM     16  C   UNL A   1      42.314  27.631  26.602  1.00  0.00     0.031 C 
ATOM     17  C   UNL A   1      38.711  27.429  29.753  1.00  0.00     0.029 A 
ATOM     18  N   UNL A   1      40.427  28.804  30.011  1.00  0.00    -0.354 N 
ATOM     19  C   UNL A   1      44.206  28.048  27.804  1.00  0.00     0.074 A 
ATOM     20  C   UNL A   1      43.605  27.947  26.500  1.00  0.00     0.031 C 
ATOM     21  C   UNL A   1      38.233  28.563  30.319  1.00  0.00     0.029 A 
ATOM     22  C   UNL A   1      39.324  29.509  30.478  1.00  0.00     0.049 A 
ATOM     23  H   UNL A   1      41.353  29.122  30.118  1.00  0.00     0.167 HD
ATOM     24  C   UNL A   1      45.296  28.750  28.217  1.00  0.00     0.034 A 
ATOM     25  C   UNL A   1      39.319  30.807  30.875  1.00  0.00     0.034 A 
ATOM     26  C   UNL A   1      45.577  28.546  29.610  1.00  0.00     0.049 A 
ATOM     27  C   UNL A   1      40.718  31.149  31.230  1.00  0.00     0.074 A 
ATOM     28  C   UNL A   1      45.905  27.467  30.403  1.00  0.00     0.029 A 
ATOM     29  N   UNL A   1      45.189  29.545  30.469  1.00  0.00    -0.354 N 
ATOM     30  N   UNL A   1      41.360  30.630  32.238  1.00  0.00    -0.248 NA
ATOM     31  C   UNL A   1      41.543  31.794  30.222  1.00  0.00     0.031 C 
ATOM     32  C   UNL A   1      45.249  27.713  31.645  1.00  0.00     0.029 A 
ATOM     33  C   UNL A   1      44.597  28.943  31.544  1.00  0.00     0.049 A 
ATOM     34  H   UNL A   1      45.314  30.512  30.335  1.00  0.00     0.167 HD
ATOM     35  C   UNL A   1      42.663  30.493  31.783  1.00  0.00     0.074 A 
ATOM     36  C   UNL A   1      42.740  31.324  30.585  1.00  0.00     0.031 C 
ATOM     37  C   UNL A   1      43.470  29.501  32.255  1.00  0.00     0.034 A 
BRANCH  24  38
ATOM     38  C   UNL A   1      45.897  29.913  27.467  1.00  0.00     0.023 A 
ATOM     39  C   UNL A   1      47.302  30.064  27.509  1.00  0.00     0.012 A 
ATOM     40  C   UNL A   1      45.144  31.009  26.991  1.00  0.00     0.148 A 
ATOM     41  C   UNL A   1      47.919  31.263  27.136  1.00  0.00     0.002 A 
ATOM     42  C   UNL A   1      45.768  32.170  26.554  1.00  0.00     0.091 A 
ATOM     43  F   UNL A   1      43.811  30.994  27.089  1.00  0.00    -0.205 F 
ATOM     44  C   UNL A   1      47.153  32.314  26.649  1.00  0.00     0.022 A 
BRANCH  42  45
ATOM     45  S   UNL A   1      44.821  33.548  25.896  1.00  0.00     0.127 S 
ATOM     46  O   UNL A   1      44.203  32.939  24.722  1.00  0.00    -0.237 OA
ATOM     47  O   UNL A   1      43.905  33.838  27.000  1.00  0.00    -0.237 OA
ATOM     48  O   UNL A   1      45.797  34.599  25.641  1.00  0.00    -0.744 OA
ENDBRANCH  42  45
ENDBRANCH  24  38
BRANCH  25  49
ATOM     49  C   UNL A   1      38.288  31.861  30.699  1.00  0.00     0.023 A 
ATOM     50  C   UNL A   1      37.947  32.269  29.390  1.00  0.00     0.012 A 
ATOM     51  C   UNL A   1      37.426  32.239  31.751  1.00  0.00     0.148 A 
ATOM     52  C   UNL A   1      36.760  32.965  29.131  1.00  0.00     0.002 A 
ATOM     53  C   UNL A   1      36.253  32.945  31.490  1.00  0.00     0.091 A 
ATOM     54  F   UNL A   1      37.696  31.825  32.995  1.00  0.00    -0.205 F 
ATOM     55  C   UNL A   1      35.906  33.292  30.179  1.00  0.00     0.022 A 
BRANCH  53  56
ATOM     56  S   UNL A   1      35.103  33.393  32.798  1.00  0.00     0.127 S 
ATOM     57  O   UNL A   1      35.077  34.853  32.697  1.00  0.00    -0.237 OA
ATOM     58  O   UNL A   1      33.877  32.729  32.367  1.00  0.00    -0.237 OA
ATOM     59  O   UNL A   1      35.696  32.893  34.033  1.00  0.00    -0.744 OA
ENDBRANCH  53  56
ENDBRANCH  25  49
BRANCH  37  60
ATOM     60  C   UNL A   1      43.017  28.732  33.465  1.00  0.00     0.023 A 
ATOM     61  C   UNL A   1      42.092  27.671  33.373  1.00  0.00     0.012 A 
ATOM     62  C   UNL A   1      43.703  28.944  34.672  1.00  0.00     0.148 A 
ATOM     63  C   UNL A   1      41.858  26.836  34.469  1.00  0.00     0.002 A 
ATOM     64  C   UNL A   1      43.496  28.089  35.745  1.00  0.00     0.091 A 
ATOM     65  F   UNL A   1      44.587  29.951  34.725  1.00  0.00    -0.205 F 
ATOM     66  C   UNL A   1      42.571  27.036  35.650  1.00  0.00     0.022 A 
BRANCH  64  67
ATOM     67  S   UNL A   1      44.463  28.213  37.251  1.00  0.00     0.127 S 
ATOM     68  O   UNL A   1      43.910  27.127  38.059  1.00  0.00    -0.237 OA
ATOM     69  O   UNL A   1      45.823  27.982  36.763  1.00  0.00    -0.237 OA
ATOM     70  O   UNL A   1      44.233  29.554  37.773  1.00  0.00    -0.744 OA
ENDBRANCH  64  67
ENDBRANCH  37  60
ENDBRANCH  11  12
ENDBRANCH   4   6
ENDBRANCH   1   2
BRANCH   1  71
ATOM     71  C   UNL A   1      36.154  22.901  24.513  1.00  0.00     0.023 C 
BRANCH  71  72
ATOM     72  C   UNL A   1      35.201  24.052  24.831  1.00  0.00     0.023 C 
BRANCH  72  73
ATOM     73  C   UNL A   1      33.731  23.787  24.538  1.00  0.00     0.116 C 
BRANCH  73  74
ATOM     74  N   UNL A   1      32.940  23.521  25.722  1.00  0.00    -0.349 N 
ATOM     75  C   UNL A   1      31.982  24.321  26.315  1.00  0.00     0.287 C 
ATOM     76  H   UNL A   1      33.106  22.657  26.163  1.00  0.00     0.163 HD
ATOM     77  O   UNL A   1      31.506  23.948  27.377  1.00  0.00    -0.266 OA
BRANCH  75  78
ATOM     78  C   UNL A   1      31.604  25.555  25.655  1.00  0.00     0.195 A 
ATOM     79  O   UNL A   1      30.552  25.497  24.754  1.00  0.00    -0.451 OA
ATOM     80  C   UNL A   1      32.076  26.856  25.718  1.00  0.00     0.012 A 
ATOM     81  C   UNL A   1      30.318  26.766  24.312  1.00  0.00     0.135 A 
ATOM     82  C   UNL A   1      31.234  27.610  24.885  1.00  0.00     0.028 A 
ATOM     83  C   UNL A   1      33.174  27.558  26.445  1.00  0.00     0.041 C 
ATOM     84  C   UNL A   1      29.336  27.214  23.440  1.00  0.00     0.048 A 
ATOM     85  C   UNL A   1      31.260  28.981  24.634  1.00  0.00    -0.037 A 
ATOM     86  C   UNL A   1      33.532  28.898  25.734  1.00  0.00     0.010 C 
ATOM     87  C   UNL A   1      29.329  28.602  23.195  1.00  0.00     0.004 A 
ATOM     88  C   UNL A   1      30.267  29.475  23.783  1.00  0.00     0.004 A 
ATOM     89  C   UNL A   1      32.301  29.784  25.366  1.00  0.00     0.036 C 
ENDBRANCH  75  78
ENDBRANCH  73  74
ENDBRANCH  72  73
ENDBRANCH  71  72
ENDBRANCH   1  71
TORSDOF 14
ENDMDL
