MODEL 1
REMARK VINA RESULT:     -13.4      0.000      0.000
REMARK SMILES O=C(NCCCCNC(=O)c1nnn(-c2cccc(Br)c2)c1[C@@H]1COc2ccccc2O1)c1ccc(-c2c3nc(c(-c4cccc(S(=O)(=O)[O-])c4F)c4ccc([nH]4)c(-c4cccc(S(=O)(=O)[O-])c4F)c4nc(c(-c5cccc(S(=O)(=O)[O-])c5F)c5ccc2[nH]5)C=C4)C=C3)cc1
REMARK SMILES IDX 4 1 3 2 1 3 2 4 33 6 34 7 95 8 35 9 94 10 36 11 37 12 38 13
REMARK SMILES IDX 88 14 39 15 93 16 87 17 89 18 40 19 92 20 86 21 85 22 41 24
REMARK SMILES IDX 73 25 53 26 72 27 54 28 57 29 71 30 90 31 55 32 56 33 70 35
REMARK SMILES IDX 91 36 58 37 42 38 43 39 51 40 44 41 46 42 52 43 45 44 47 45
REMARK SMILES IDX 48 46 49 47 50 48 74 49 75 50 83 51 76 52 78 53 84 54 77 55
REMARK SMILES IDX 79 56 80 57 81 58 82 59 59 60 60 61 68 62 61 63 63 64 69 65
REMARK SMILES IDX 62 66 64 67 65 68 66 69 67 70 5 71 6 72 7 73 8 74 9 75 10 77
REMARK SMILES IDX 11 78 12 79 22 80 13 81 14 82 23 83 24 84 32 85 25 86 31 87
REMARK SMILES IDX 26 88 30 89 27 90 29 91 28 92 15 93 16 94 21 95 17 96 19 97
REMARK SMILES IDX 18 98 20 99
REMARK H PARENT 3 5 89 23 57 34 8 76
REMARK Flexibility Score: inf
ROOT
ATOM      1  C   UNL A   1      34.014  30.793  27.198  1.00  0.00     0.116 C 
ENDROOT
BRANCH   1   2
ATOM      2  N   UNL A   1      34.200  31.545  28.423  1.00  0.00    -0.352 N 
ATOM      3  O   UNL A   1      35.263  32.948  29.806  1.00  0.00    -0.269 OA
ATOM      4  C   UNL A   1      35.337  31.961  29.074  1.00  0.00     0.251 C 
ATOM      5  H   UNL A   1      33.361  31.802  28.870  1.00  0.00     0.163 HD
BRANCH   4   6
ATOM      6  C   UNL A   1      36.575  31.155  29.058  1.00  0.00     0.039 A 
ATOM      7  C   UNL A   1      36.597  29.764  29.022  1.00  0.00     0.014 A 
ATOM      8  C   UNL A   1      37.781  31.871  29.151  1.00  0.00     0.014 A 
ATOM      9  C   UNL A   1      37.783  29.096  29.268  1.00  0.00     0.010 A 
ATOM     10  C   UNL A   1      38.983  31.202  29.343  1.00  0.00     0.010 A 
ATOM     11  C   UNL A   1      38.968  29.817  29.459  1.00  0.00    -0.014 A 
BRANCH  11  12
ATOM     12  C   UNL A   1      40.189  29.033  29.588  1.00  0.00     0.031 A 
ATOM     13  C   UNL A   1      40.521  28.675  30.993  1.00  0.00     0.074 A 
ATOM     14  C   UNL A   1      40.938  28.592  28.561  1.00  0.00     0.049 A 
ATOM     15  N   UNL A   1      41.507  29.110  31.705  1.00  0.00    -0.248 NA
ATOM     16  C   UNL A   1      39.544  27.869  31.738  1.00  0.00     0.031 C 
ATOM     17  C   UNL A   1      40.607  28.600  27.136  1.00  0.00     0.029 A 
ATOM     18  N   UNL A   1      42.122  27.914  28.605  1.00  0.00    -0.354 N 
ATOM     19  C   UNL A   1      41.398  28.455  32.930  1.00  0.00     0.074 A 
ATOM     20  C   UNL A   1      40.089  27.859  32.954  1.00  0.00     0.031 C 
ATOM     21  C   UNL A   1      41.432  27.744  26.490  1.00  0.00     0.029 A 
ATOM     22  C   UNL A   1      42.422  27.241  27.428  1.00  0.00     0.049 A 
ATOM     23  H   UNL A   1      42.708  27.903  29.396  1.00  0.00     0.167 HD
ATOM     24  C   UNL A   1      42.480  28.259  33.730  1.00  0.00     0.034 A 
ATOM     25  C   UNL A   1      43.360  26.275  27.271  1.00  0.00     0.034 A 
ATOM     26  C   UNL A   1      43.585  29.098  33.350  1.00  0.00     0.049 A 
ATOM     27  C   UNL A   1      44.328  26.400  28.384  1.00  0.00     0.074 A 
ATOM     28  C   UNL A   1      43.803  30.457  33.247  1.00  0.00     0.029 A 
ATOM     29  N   UNL A   1      44.612  28.494  32.668  1.00  0.00    -0.354 N 
ATOM     30  N   UNL A   1      45.168  27.387  28.508  1.00  0.00    -0.248 NA
ATOM     31  C   UNL A   1      44.119  25.602  29.581  1.00  0.00     0.031 C 
ATOM     32  C   UNL A   1      44.685  30.606  32.137  1.00  0.00     0.029 A 
ATOM     33  C   UNL A   1      44.984  29.331  31.654  1.00  0.00     0.049 A 
ATOM     34  H   UNL A   1      45.008  27.616  32.873  1.00  0.00     0.167 HD
ATOM     35  C   UNL A   1      45.234  27.614  29.875  1.00  0.00     0.074 A 
ATOM     36  C   UNL A   1      44.680  26.409  30.485  1.00  0.00     0.031 C 
ATOM     37  C   UNL A   1      45.455  28.868  30.368  1.00  0.00     0.034 A 
BRANCH  24  38
ATOM     38  C   UNL A   1      42.693  27.049  34.614  1.00  0.00     0.023 A 
ATOM     39  C   UNL A   1      42.527  27.231  36.007  1.00  0.00     0.012 A 
ATOM     40  C   UNL A   1      43.325  25.856  34.196  1.00  0.00     0.148 A 
ATOM     41  C   UNL A   1      43.028  26.311  36.933  1.00  0.00     0.002 A 
ATOM     42  C   UNL A   1      43.746  24.905  35.118  1.00  0.00     0.091 A 
ATOM     43  F   UNL A   1      43.653  25.683  32.914  1.00  0.00    -0.205 F 
ATOM     44  C   UNL A   1      43.634  25.144  36.489  1.00  0.00     0.022 A 
BRANCH  42  45
ATOM     45  S   UNL A   1      44.487  23.353  34.597  1.00  0.00     0.127 S 
ATOM     46  O   UNL A   1      43.463  22.827  33.699  1.00  0.00    -0.237 OA
ATOM     47  O   UNL A   1      45.711  23.815  33.940  1.00  0.00    -0.237 OA
ATOM     48  O   UNL A   1      44.718  22.598  35.822  1.00  0.00    -0.744 OA
ENDBRANCH  42  45
ENDBRANCH  24  38
BRANCH  25  49
ATOM     49  C   UNL A   1      43.373  25.104  26.366  1.00  0.00     0.023 A 
ATOM     50  C   UNL A   1      44.369  25.008  25.372  1.00  0.00     0.012 A 
ATOM     51  C   UNL A   1      42.601  23.957  26.649  1.00  0.00     0.148 A 
ATOM     52  C   UNL A   1      44.614  23.798  24.712  1.00  0.00     0.002 A 
ATOM     53  C   UNL A   1      42.841  22.759  25.984  1.00  0.00     0.091 A 
ATOM     54  F   UNL A   1      41.700  24.012  27.639  1.00  0.00    -0.205 F 
ATOM     55  C   UNL A   1      43.856  22.672  25.023  1.00  0.00     0.022 A 
BRANCH  53  56
ATOM     56  S   UNL A   1      41.919  21.261  26.352  1.00  0.00     0.127 S 
ATOM     57  O   UNL A   1      40.555  21.647  25.990  1.00  0.00    -0.237 OA
ATOM     58  O   UNL A   1      42.541  20.294  25.452  1.00  0.00    -0.237 OA
ATOM     59  O   UNL A   1      42.111  21.017  27.776  1.00  0.00    -0.744 OA
ENDBRANCH  53  56
ENDBRANCH  25  49
BRANCH  37  60
ATOM     60  C   UNL A   1      45.963  29.927  29.425  1.00  0.00     0.023 A 
ATOM     61  C   UNL A   1      47.337  30.159  29.216  1.00  0.00     0.012 A 
ATOM     62  C   UNL A   1      45.029  30.589  28.610  1.00  0.00     0.148 A 
ATOM     63  C   UNL A   1      47.769  31.055  28.235  1.00  0.00     0.002 A 
ATOM     64  C   UNL A   1      45.463  31.437  27.600  1.00  0.00     0.091 A 
ATOM     65  F   UNL A   1      43.724  30.358  28.821  1.00  0.00    -0.205 F 
ATOM     66  C   UNL A   1      46.832  31.682  27.416  1.00  0.00     0.022 A 
BRANCH  64  67
ATOM     67  S   UNL A   1      44.309  32.157  26.429  1.00  0.00     0.127 S 
ATOM     68  O   UNL A   1      43.430  31.029  26.132  1.00  0.00    -0.237 OA
ATOM     69  O   UNL A   1      43.689  33.227  27.213  1.00  0.00    -0.237 OA
ATOM     70  O   UNL A   1      45.122  32.636  25.317  1.00  0.00    -0.744 OA
ENDBRANCH  64  67
ENDBRANCH  37  60
ENDBRANCH  11  12
ENDBRANCH   4   6
ENDBRANCH   1   2
BRANCH   1  71
ATOM     71  C   UNL A   1      33.765  29.298  27.302  1.00  0.00     0.023 C 
BRANCH  71  72
ATOM     72  C   UNL A   1      32.321  28.832  27.092  1.00  0.00     0.023 C 
BRANCH  72  73
ATOM     73  C   UNL A   1      32.092  27.357  26.749  1.00  0.00     0.116 C 
BRANCH  73  74
ATOM     74  N   UNL A   1      30.772  27.043  26.229  1.00  0.00    -0.351 N 
ATOM     75  C   UNL A   1      30.275  25.794  25.912  1.00  0.00     0.273 C 
ATOM     76  H   UNL A   1      30.165  27.805  26.086  1.00  0.00     0.163 HD
ATOM     77  O   UNL A   1      29.123  25.675  25.494  1.00  0.00    -0.267 OA
BRANCH  75  78
ATOM     78  C   UNL A   1      31.187  24.665  26.002  1.00  0.00     0.178 A 
ATOM     79  N   UNL A   1      31.355  24.058  27.216  1.00  0.00    -0.124 NA
ATOM     80  C   UNL A   1      31.924  23.989  25.026  1.00  0.00     0.122 A 
ATOM     81  N   UNL A   1      32.071  22.970  27.035  1.00  0.00    -0.061 NA
ATOM     82  N   UNL A   1      32.402  22.881  25.728  1.00  0.00    -0.213 N 
BRANCH  80  83
ATOM     83  C   UNL A   1      32.139  24.208  23.551  1.00  0.00     0.262 C 
ATOM     84  C   UNL A   1      33.606  24.355  23.140  1.00  0.00     0.281 C 
ATOM     85  O   UNL A   1      31.345  25.300  23.069  1.00  0.00    -0.477 OA
ATOM     86  O   UNL A   1      34.179  25.569  23.633  1.00  0.00    -0.485 OA
ATOM     87  C   UNL A   1      32.028  26.485  22.990  1.00  0.00     0.162 A 
ATOM     88  C   UNL A   1      33.362  26.635  23.363  1.00  0.00     0.161 A 
ATOM     89  C   UNL A   1      31.279  27.598  22.632  1.00  0.00     0.050 A 
ATOM     90  C   UNL A   1      33.885  27.911  23.556  1.00  0.00     0.050 A 
ATOM     91  C   UNL A   1      31.794  28.878  22.834  1.00  0.00     0.004 A 
ATOM     92  C   UNL A   1      33.086  29.034  23.331  1.00  0.00     0.004 A 
ENDBRANCH  80  83
BRANCH  82  93
ATOM     93  C   UNL A   1      33.000  21.681  25.270  1.00  0.00     0.068 A 
ATOM     94  C   UNL A   1      32.254  20.557  24.908  1.00  0.00     0.028 A 
ATOM     95  C   UNL A   1      34.404  21.635  25.226  1.00  0.00     0.044 A 
ATOM     96  C   UNL A   1      32.911  19.371  24.569  1.00  0.00     0.003 A 
ATOM     97  C   UNL A   1      35.046  20.442  24.909  1.00  0.00     0.020 A 
ATOM     98  C   UNL A   1      34.305  19.307  24.590  1.00  0.00     0.016 A 
ATOM     99  Br  UNL A   1      36.934  20.355  24.954  1.00  0.00    -0.051 Br
ENDBRANCH  82  93
ENDBRANCH  75  78
ENDBRANCH  73  74
ENDBRANCH  72  73
ENDBRANCH  71  72
ENDBRANCH   1  71
TORSDOF 16
ENDMDL
MODEL 2
REMARK VINA RESULT:     -13.4      1.310      1.652
REMARK SMILES O=C(NCCCCNC(=O)c1nnn(-c2cccc(Br)c2)c1[C@@H]1COc2ccccc2O1)c1ccc(-c2c3nc(c(-c4cccc(S(=O)(=O)[O-])c4F)c4ccc([nH]4)c(-c4cccc(S(=O)(=O)[O-])c4F)c4nc(c(-c5cccc(S(=O)(=O)[O-])c5F)c5ccc2[nH]5)C=C4)C=C3)cc1
REMARK SMILES IDX 4 1 3 2 1 3 2 4 33 6 34 7 95 8 35 9 94 10 36 11 37 12 38 13
REMARK SMILES IDX 88 14 39 15 93 16 87 17 89 18 40 19 92 20 86 21 85 22 41 24
REMARK SMILES IDX 73 25 53 26 72 27 54 28 57 29 71 30 90 31 55 32 56 33 70 35
REMARK SMILES IDX 91 36 58 37 42 38 43 39 51 40 44 41 46 42 52 43 45 44 47 45
REMARK SMILES IDX 48 46 49 47 50 48 74 49 75 50 83 51 76 52 78 53 84 54 77 55
REMARK SMILES IDX 79 56 80 57 81 58 82 59 59 60 60 61 68 62 61 63 63 64 69 65
REMARK SMILES IDX 62 66 64 67 65 68 66 69 67 70 5 71 6 72 7 73 8 74 9 75 10 77
REMARK SMILES IDX 11 78 12 79 22 80 13 81 14 82 23 83 24 84 32 85 25 86 31 87
REMARK SMILES IDX 26 88 30 89 27 90 29 91 28 92 15 93 16 94 21 95 17 96 19 97
REMARK SMILES IDX 18 98 20 99
REMARK H PARENT 3 5 89 23 57 34 8 76
REMARK Flexibility Score: inf
ROOT
ATOM      1  C   UNL A   1      34.180  30.834  27.257  1.00  0.00     0.116 C 
ENDROOT
BRANCH   1   2
ATOM      2  N   UNL A   1      34.021  31.413  28.576  1.00  0.00    -0.352 N 
ATOM      3  O   UNL A   1      34.580  32.728  30.299  1.00  0.00    -0.269 OA
ATOM      4  C   UNL A   1      34.943  31.881  29.483  1.00  0.00     0.251 C 
ATOM      5  H   UNL A   1      33.086  31.482  28.877  1.00  0.00     0.163 HD
BRANCH   4   6
ATOM      6  C   UNL A   1      36.279  31.266  29.613  1.00  0.00     0.039 A 
ATOM      7  C   UNL A   1      37.474  31.963  29.462  1.00  0.00     0.014 A 
ATOM      8  C   UNL A   1      36.303  29.880  29.841  1.00  0.00     0.014 A 
ATOM      9  C   UNL A   1      38.661  31.262  29.347  1.00  0.00     0.010 A 
ATOM     10  C   UNL A   1      37.500  29.178  29.783  1.00  0.00     0.010 A 
ATOM     11  C   UNL A   1      38.668  29.868  29.476  1.00  0.00    -0.014 A 
BRANCH  11  12
ATOM     12  C   UNL A   1      39.974  29.224  29.467  1.00  0.00     0.031 A 
ATOM     13  C   UNL A   1      40.561  29.050  30.822  1.00  0.00     0.074 A 
ATOM     14  C   UNL A   1      40.597  28.751  28.371  1.00  0.00     0.049 A 
ATOM     15  N   UNL A   1      41.593  29.650  31.317  1.00  0.00    -0.248 NA
ATOM     16  C   UNL A   1      39.812  28.236  31.789  1.00  0.00     0.031 C 
ATOM     17  C   UNL A   1      40.046  28.577  27.028  1.00  0.00     0.029 A 
ATOM     18  N   UNL A   1      41.840  28.198  28.276  1.00  0.00    -0.354 N 
ATOM     19  C   UNL A   1      41.753  29.120  32.595  1.00  0.00     0.074 A 
ATOM     20  C   UNL A   1      40.539  28.406  32.892  1.00  0.00     0.031 C 
ATOM     21  C   UNL A   1      40.849  27.741  26.330  1.00  0.00     0.029 A 
ATOM     22  C   UNL A   1      42.025  27.437  27.129  1.00  0.00     0.049 A 
ATOM     23  H   UNL A   1      42.542  28.328  28.955  1.00  0.00     0.167 HD
ATOM     24  C   UNL A   1      42.963  29.114  33.217  1.00  0.00     0.034 A 
ATOM     25  C   UNL A   1      43.029  26.555  26.902  1.00  0.00     0.034 A 
ATOM     26  C   UNL A   1      43.893  30.011  32.584  1.00  0.00     0.049 A 
ATOM     27  C   UNL A   1      44.140  26.889  27.821  1.00  0.00     0.074 A 
ATOM     28  C   UNL A   1      43.938  31.366  32.326  1.00  0.00     0.029 A 
ATOM     29  N   UNL A   1      44.860  29.440  31.795  1.00  0.00    -0.354 N 
ATOM     30  N   UNL A   1      44.873  27.960  27.714  1.00  0.00    -0.248 NA
ATOM     31  C   UNL A   1      44.214  26.206  29.102  1.00  0.00     0.031 C 
ATOM     32  C   UNL A   1      44.611  31.482  31.075  1.00  0.00     0.029 A 
ATOM     33  C   UNL A   1      44.971  30.197  30.663  1.00  0.00     0.049 A 
ATOM     34  H   UNL A   1      45.380  28.631  32.007  1.00  0.00     0.167 HD
ATOM     35  C   UNL A   1      45.128  28.335  29.025  1.00  0.00     0.074 A 
ATOM     36  C   UNL A   1      44.816  27.154  29.824  1.00  0.00     0.031 C 
ATOM     37  C   UNL A   1      45.282  29.649  29.361  1.00  0.00     0.034 A 
BRANCH  24  38
ATOM     38  C   UNL A   1      43.447  28.030  34.155  1.00  0.00     0.023 A 
ATOM     39  C   UNL A   1      43.981  28.445  35.397  1.00  0.00     0.012 A 
ATOM     40  C   UNL A   1      43.681  26.690  33.774  1.00  0.00     0.148 A 
ATOM     41  C   UNL A   1      44.767  27.593  36.181  1.00  0.00     0.002 A 
ATOM     42  C   UNL A   1      44.392  25.823  34.596  1.00  0.00     0.091 A 
ATOM     43  F   UNL A   1      43.341  26.269  32.554  1.00  0.00    -0.205 F 
ATOM     44  C   UNL A   1      44.969  26.279  35.782  1.00  0.00     0.022 A 
BRANCH  42  45
ATOM     45  S   UNL A   1      44.636  24.098  34.155  1.00  0.00     0.127 S 
ATOM     46  O   UNL A   1      45.661  23.694  35.112  1.00  0.00    -0.237 OA
ATOM     47  O   UNL A   1      43.306  23.539  34.397  1.00  0.00    -0.237 OA
ATOM     48  O   UNL A   1      45.033  24.104  32.752  1.00  0.00    -0.744 OA
ENDBRANCH  42  45
ENDBRANCH  24  38
BRANCH  25  49
ATOM     49  C   UNL A   1      43.030  25.302  26.114  1.00  0.00     0.023 A 
ATOM     50  C   UNL A   1      44.033  25.094  25.146  1.00  0.00     0.012 A 
ATOM     51  C   UNL A   1      42.235  24.201  26.498  1.00  0.00     0.148 A 
ATOM     52  C   UNL A   1      44.263  23.822  24.608  1.00  0.00     0.002 A 
ATOM     53  C   UNL A   1      42.460  22.941  25.954  1.00  0.00     0.091 A 
ATOM     54  F   UNL A   1      41.325  24.366  27.467  1.00  0.00    -0.205 F 
ATOM     55  C   UNL A   1      43.483  22.744  25.017  1.00  0.00     0.022 A 
BRANCH  53  56
ATOM     56  S   UNL A   1      41.508  21.500  26.455  1.00  0.00     0.127 S 
ATOM     57  O   UNL A   1      40.156  21.869  26.035  1.00  0.00    -0.237 OA
ATOM     58  O   UNL A   1      42.126  20.440  25.665  1.00  0.00    -0.237 OA
ATOM     59  O   UNL A   1      41.676  21.396  27.899  1.00  0.00    -0.744 OA
ENDBRANCH  53  56
ENDBRANCH  25  49
BRANCH  37  60
ATOM     60  C   UNL A   1      45.513  30.648  28.258  1.00  0.00     0.023 A 
ATOM     61  C   UNL A   1      44.454  31.284  27.579  1.00  0.00     0.012 A 
ATOM     62  C   UNL A   1      46.830  31.074  28.017  1.00  0.00     0.148 A 
ATOM     63  C   UNL A   1      44.707  32.304  26.658  1.00  0.00     0.002 A 
ATOM     64  C   UNL A   1      47.074  32.123  27.141  1.00  0.00     0.091 A 
ATOM     65  F   UNL A   1      47.827  30.458  28.670  1.00  0.00    -0.205 F 
ATOM     66  C   UNL A   1      46.016  32.734  26.450  1.00  0.00     0.022 A 
BRANCH  64  67
ATOM     67  S   UNL A   1      48.721  32.809  26.946  1.00  0.00     0.127 S 
ATOM     68  O   UNL A   1      49.042  33.227  28.307  1.00  0.00    -0.237 OA
ATOM     69  O   UNL A   1      49.487  31.660  26.461  1.00  0.00    -0.237 OA
ATOM     70  O   UNL A   1      48.588  33.883  25.969  1.00  0.00    -0.744 OA
ENDBRANCH  64  67
ENDBRANCH  37  60
ENDBRANCH  11  12
ENDBRANCH   4   6
ENDBRANCH   1   2
BRANCH   1  71
ATOM     71  C   UNL A   1      33.998  29.332  27.103  1.00  0.00     0.023 C 
BRANCH  71  72
ATOM     72  C   UNL A   1      32.567  28.802  27.232  1.00  0.00     0.023 C 
BRANCH  72  73
ATOM     73  C   UNL A   1      32.308  27.349  26.823  1.00  0.00     0.116 C 
BRANCH  73  74
ATOM     74  N   UNL A   1      30.993  27.094  26.258  1.00  0.00    -0.351 N 
ATOM     75  C   UNL A   1      30.461  25.870  25.905  1.00  0.00     0.273 C 
ATOM     76  H   UNL A   1      30.419  27.880  26.111  1.00  0.00     0.163 HD
ATOM     77  O   UNL A   1      29.319  25.800  25.451  1.00  0.00    -0.267 OA
BRANCH  75  78
ATOM     78  C   UNL A   1      31.327  24.706  26.002  1.00  0.00     0.178 A 
ATOM     79  N   UNL A   1      31.461  24.092  27.217  1.00  0.00    -0.124 NA
ATOM     80  C   UNL A   1      32.047  24.002  25.032  1.00  0.00     0.122 A 
ATOM     81  N   UNL A   1      32.135  22.977  27.041  1.00  0.00    -0.061 NA
ATOM     82  N   UNL A   1      32.475  22.877  25.737  1.00  0.00    -0.213 N 
BRANCH  80  83
ATOM     83  C   UNL A   1      32.284  24.214  23.559  1.00  0.00     0.262 C 
ATOM     84  C   UNL A   1      33.745  24.482  23.186  1.00  0.00     0.281 C 
ATOM     85  O   UNL A   1      31.413  25.225  23.035  1.00  0.00    -0.477 OA
ATOM     86  O   UNL A   1      34.196  25.750  23.671  1.00  0.00    -0.485 OA
ATOM     87  C   UNL A   1      31.993  26.464  22.952  1.00  0.00     0.162 A 
ATOM     88  C   UNL A   1      33.298  26.735  23.358  1.00  0.00     0.161 A 
ATOM     89  C   UNL A   1      31.161  27.500  22.552  1.00  0.00     0.050 A 
ATOM     90  C   UNL A   1      33.702  28.055  23.540  1.00  0.00     0.050 A 
ATOM     91  C   UNL A   1      31.557  28.824  22.744  1.00  0.00     0.004 A 
ATOM     92  C   UNL A   1      32.816  29.100  23.273  1.00  0.00     0.004 A 
ENDBRANCH  80  83
BRANCH  82  93
ATOM     93  C   UNL A   1      33.030  21.654  25.283  1.00  0.00     0.068 A 
ATOM     94  C   UNL A   1      32.245  20.553  24.936  1.00  0.00     0.028 A 
ATOM     95  C   UNL A   1      34.432  21.563  25.228  1.00  0.00     0.044 A 
ATOM     96  C   UNL A   1      32.862  19.343  24.600  1.00  0.00     0.003 A 
ATOM     97  C   UNL A   1      35.032  20.347  24.915  1.00  0.00     0.020 A 
ATOM     98  C   UNL A   1      34.253  19.235  24.611  1.00  0.00     0.016 A 
ATOM     99  Br  UNL A   1      36.917  20.200  24.945  1.00  0.00    -0.051 Br
ENDBRANCH  82  93
ENDBRANCH  75  78
ENDBRANCH  73  74
ENDBRANCH  72  73
ENDBRANCH  71  72
ENDBRANCH   1  71
TORSDOF 16
ENDMDL
MODEL 3
REMARK VINA RESULT:     -13.3      3.197      8.911
REMARK SMILES O=C(NCCCCNC(=O)c1nnn(-c2cccc(Br)c2)c1[C@@H]1COc2ccccc2O1)c1ccc(-c2c3nc(c(-c4cccc(S(=O)(=O)[O-])c4F)c4ccc([nH]4)c(-c4cccc(S(=O)(=O)[O-])c4F)c4nc(c(-c5cccc(S(=O)(=O)[O-])c5F)c5ccc2[nH]5)C=C4)C=C3)cc1
REMARK SMILES IDX 4 1 3 2 1 3 2 4 33 6 34 7 95 8 35 9 94 10 36 11 37 12 38 13
REMARK SMILES IDX 88 14 39 15 93 16 87 17 89 18 40 19 92 20 86 21 85 22 41 24
REMARK SMILES IDX 73 25 53 26 72 27 54 28 57 29 71 30 90 31 55 32 56 33 70 35
REMARK SMILES IDX 91 36 58 37 42 38 43 39 51 40 44 41 46 42 52 43 45 44 47 45
REMARK SMILES IDX 48 46 49 47 50 48 74 49 75 50 83 51 76 52 78 53 84 54 77 55
REMARK SMILES IDX 79 56 80 57 81 58 82 59 59 60 60 61 68 62 61 63 63 64 69 65
REMARK SMILES IDX 62 66 64 67 65 68 66 69 67 70 5 71 6 72 7 73 8 74 9 75 10 77
REMARK SMILES IDX 11 78 12 79 22 80 13 81 14 82 23 83 24 84 32 85 25 86 31 87
REMARK SMILES IDX 26 88 30 89 27 90 29 91 28 92 15 93 16 94 21 95 17 96 19 97
REMARK SMILES IDX 18 98 20 99
REMARK H PARENT 3 5 89 23 57 34 8 76
REMARK Flexibility Score: inf
ROOT
ATOM      1  C   UNL A   1      38.389  22.319  26.172  1.00  0.00     0.116 C 
ENDROOT
BRANCH   1   2
ATOM      2  N   UNL A   1      39.818  22.250  25.942  1.00  0.00    -0.352 N 
ATOM      3  O   UNL A   1      41.974  22.221  26.543  1.00  0.00    -0.269 OA
ATOM      4  C   UNL A   1      40.880  22.776  26.640  1.00  0.00     0.251 C 
ATOM      5  H   UNL A   1      40.075  21.737  25.142  1.00  0.00     0.163 HD
BRANCH   4   6
ATOM      6  C   UNL A   1      40.779  24.072  27.341  1.00  0.00     0.039 A 
ATOM      7  C   UNL A   1      39.795  25.021  27.082  1.00  0.00     0.014 A 
ATOM      8  C   UNL A   1      41.793  24.352  28.273  1.00  0.00     0.014 A 
ATOM      9  C   UNL A   1      39.929  26.298  27.598  1.00  0.00     0.010 A 
ATOM     10  C   UNL A   1      41.899  25.617  28.837  1.00  0.00     0.010 A 
ATOM     11  C   UNL A   1      40.998  26.602  28.449  1.00  0.00    -0.014 A 
BRANCH  11  12
ATOM     12  C   UNL A   1      40.993  27.932  29.045  1.00  0.00     0.031 A 
ATOM     13  C   UNL A   1      41.968  28.866  28.421  1.00  0.00     0.074 A 
ATOM     14  C   UNL A   1      40.158  28.342  30.017  1.00  0.00     0.049 A 
ATOM     15  N   UNL A   1      43.042  29.351  28.949  1.00  0.00    -0.248 NA
ATOM     16  C   UNL A   1      41.811  29.157  26.990  1.00  0.00     0.031 C 
ATOM     17  C   UNL A   1      38.969  27.662  30.529  1.00  0.00     0.029 A 
ATOM     18  N   UNL A   1      40.138  29.542  30.666  1.00  0.00    -0.354 N 
ATOM     19  C   UNL A   1      43.585  30.193  27.980  1.00  0.00     0.074 A 
ATOM     20  C   UNL A   1      42.897  29.892  26.752  1.00  0.00     0.031 C 
ATOM     21  C   UNL A   1      38.214  28.553  31.211  1.00  0.00     0.029 A 
ATOM     22  C   UNL A   1      38.930  29.816  31.293  1.00  0.00     0.049 A 
ATOM     23  H   UNL A   1      40.908  30.156  30.689  1.00  0.00     0.167 HD
ATOM     24  C   UNL A   1      44.395  31.233  28.314  1.00  0.00     0.034 A 
ATOM     25  C   UNL A   1      38.521  31.021  31.761  1.00  0.00     0.034 A 
ATOM     26  C   UNL A   1      44.889  31.115  29.660  1.00  0.00     0.049 A 
ATOM     27  C   UNL A   1      39.724  31.863  31.951  1.00  0.00     0.074 A 
ATOM     28  C   UNL A   1      45.645  30.195  30.357  1.00  0.00     0.029 A 
ATOM     29  N   UNL A   1      44.306  31.923  30.603  1.00  0.00    -0.354 N 
ATOM     30  N   UNL A   1      40.617  31.653  32.875  1.00  0.00    -0.248 NA
ATOM     31  C   UNL A   1      40.136  32.743  30.870  1.00  0.00     0.031 C 
ATOM     32  C   UNL A   1      45.119  30.214  31.682  1.00  0.00     0.029 A 
ATOM     33  C   UNL A   1      44.103  31.170  31.725  1.00  0.00     0.049 A 
ATOM     34  H   UNL A   1      44.075  32.874  30.491  1.00  0.00     0.167 HD
ATOM     35  C   UNL A   1      41.821  31.987  32.272  1.00  0.00     0.074 A 
ATOM     36  C   UNL A   1      41.451  32.772  31.098  1.00  0.00     0.031 C 
ATOM     37  C   UNL A   1      42.978  31.349  32.616  1.00  0.00     0.034 A 
BRANCH  24  38
ATOM     38  C   UNL A   1      44.449  32.556  27.581  1.00  0.00     0.023 A 
ATOM     39  C   UNL A   1      45.569  32.788  26.750  1.00  0.00     0.012 A 
ATOM     40  C   UNL A   1      43.638  33.672  27.889  1.00  0.00     0.148 A 
ATOM     41  C   UNL A   1      45.907  34.073  26.312  1.00  0.00     0.002 A 
ATOM     42  C   UNL A   1      43.931  34.934  27.381  1.00  0.00     0.091 A 
ATOM     43  F   UNL A   1      42.655  33.563  28.785  1.00  0.00    -0.205 F 
ATOM     44  C   UNL A   1      45.084  35.146  26.624  1.00  0.00     0.022 A 
BRANCH  42  45
ATOM     45  S   UNL A   1      42.870  36.347  27.708  1.00  0.00     0.127 S 
ATOM     46  O   UNL A   1      41.571  35.843  27.276  1.00  0.00    -0.237 OA
ATOM     47  O   UNL A   1      43.025  36.506  29.155  1.00  0.00    -0.237 OA
ATOM     48  O   UNL A   1      43.428  37.444  26.926  1.00  0.00    -0.744 OA
ENDBRANCH  42  45
ENDBRANCH  24  38
BRANCH  25  49
ATOM     49  C   UNL A   1      37.158  31.591  31.847  1.00  0.00     0.023 A 
ATOM     50  C   UNL A   1      36.623  31.917  33.110  1.00  0.00     0.012 A 
ATOM     51  C   UNL A   1      36.500  32.079  30.698  1.00  0.00     0.148 A 
ATOM     52  C   UNL A   1      35.492  32.734  33.225  1.00  0.00     0.002 A 
ATOM     53  C   UNL A   1      35.371  32.883  30.816  1.00  0.00     0.091 A 
ATOM     54  F   UNL A   1      37.035  31.838  29.494  1.00  0.00    -0.205 F 
ATOM     55  C   UNL A   1      34.871  33.224  32.079  1.00  0.00     0.022 A 
BRANCH  53  56
ATOM     56  S   UNL A   1      34.533  33.570  29.381  1.00  0.00     0.127 S 
ATOM     57  O   UNL A   1      33.431  34.309  29.998  1.00  0.00    -0.237 OA
ATOM     58  O   UNL A   1      35.577  34.405  28.794  1.00  0.00    -0.237 OA
ATOM     59  O   UNL A   1      34.112  32.426  28.583  1.00  0.00    -0.744 OA
ENDBRANCH  53  56
ENDBRANCH  25  49
BRANCH  37  60
ATOM     60  C   UNL A   1      42.996  30.532  33.881  1.00  0.00     0.023 A 
ATOM     61  C   UNL A   1      43.304  31.091  35.138  1.00  0.00     0.012 A 
ATOM     62  C   UNL A   1      42.528  29.209  33.820  1.00  0.00     0.148 A 
ATOM     63  C   UNL A   1      43.177  30.334  36.306  1.00  0.00     0.002 A 
ATOM     64  C   UNL A   1      42.351  28.477  34.987  1.00  0.00     0.091 A 
ATOM     65  F   UNL A   1      42.239  28.691  32.616  1.00  0.00    -0.205 F 
ATOM     66  C   UNL A   1      42.685  29.032  36.232  1.00  0.00     0.022 A 
BRANCH  64  67
ATOM     67  S   UNL A   1      41.590  26.852  34.961  1.00  0.00     0.127 S 
ATOM     68  O   UNL A   1      40.461  27.058  34.059  1.00  0.00    -0.237 OA
ATOM     69  O   UNL A   1      42.660  26.010  34.422  1.00  0.00    -0.237 OA
ATOM     70  O   UNL A   1      41.248  26.554  36.346  1.00  0.00    -0.744 OA
ENDBRANCH  64  67
ENDBRANCH  37  60
ENDBRANCH  11  12
ENDBRANCH   4   6
ENDBRANCH   1   2
BRANCH   1  71
ATOM     71  C   UNL A   1      37.567  23.269  25.317  1.00  0.00     0.023 C 
BRANCH  71  72
ATOM     72  C   UNL A   1      36.765  22.637  24.175  1.00  0.00     0.023 C 
BRANCH  72  73
ATOM     73  C   UNL A   1      35.654  23.476  23.537  1.00  0.00     0.116 C 
BRANCH  73  74
ATOM     74  N   UNL A   1      34.606  22.712  22.880  1.00  0.00    -0.351 N 
ATOM     75  C   UNL A   1      33.426  23.197  22.354  1.00  0.00     0.273 C 
ATOM     76  H   UNL A   1      34.755  21.742  22.802  1.00  0.00     0.163 HD
ATOM     77  O   UNL A   1      32.632  22.432  21.806  1.00  0.00    -0.267 OA
BRANCH  75  78
ATOM     78  C   UNL A   1      33.127  24.606  22.558  1.00  0.00     0.178 A 
ATOM     79  N   UNL A   1      33.680  25.520  21.704  1.00  0.00    -0.124 NA
ATOM     80  C   UNL A   1      32.285  25.253  23.467  1.00  0.00     0.122 A 
ATOM     81  N   UNL A   1      33.143  26.694  21.957  1.00  0.00    -0.061 NA
ATOM     82  N   UNL A   1      32.279  26.563  22.987  1.00  0.00    -0.213 N 
BRANCH  80  83
ATOM     83  C   UNL A   1      31.447  24.776  24.625  1.00  0.00     0.262 C 
ATOM     84  C   UNL A   1      31.830  25.386  25.976  1.00  0.00     0.281 C 
ATOM     85  O   UNL A   1      31.413  23.344  24.685  1.00  0.00    -0.477 OA
ATOM     86  O   UNL A   1      33.110  24.932  26.423  1.00  0.00    -0.485 OA
ATOM     87  C   UNL A   1      32.314  22.808  25.567  1.00  0.00     0.162 A 
ATOM     88  C   UNL A   1      33.202  23.569  26.323  1.00  0.00     0.161 A 
ATOM     89  C   UNL A   1      32.398  21.422  25.585  1.00  0.00     0.050 A 
ATOM     90  C   UNL A   1      34.284  22.951  26.944  1.00  0.00     0.050 A 
ATOM     91  C   UNL A   1      33.486  20.799  26.196  1.00  0.00     0.004 A 
ATOM     92  C   UNL A   1      34.449  21.568  26.845  1.00  0.00     0.004 A 
ENDBRANCH  80  83
BRANCH  82  93
ATOM     93  C   UNL A   1      31.437  27.660  23.296  1.00  0.00     0.068 A 
ATOM     94  C   UNL A   1      30.313  27.986  22.533  1.00  0.00     0.028 A 
ATOM     95  C   UNL A   1      31.792  28.457  24.398  1.00  0.00     0.044 A 
ATOM     96  C   UNL A   1      29.589  29.145  22.829  1.00  0.00     0.003 A 
ATOM     97  C   UNL A   1      31.077  29.620  24.668  1.00  0.00     0.020 A 
ATOM     98  C   UNL A   1      29.983  29.972  23.882  1.00  0.00     0.016 A 
ATOM     99  Br  UNL A   1      31.622  30.746  26.085  1.00  0.00    -0.051 Br
ENDBRANCH  82  93
ENDBRANCH  75  78
ENDBRANCH  73  74
ENDBRANCH  72  73
ENDBRANCH  71  72
ENDBRANCH   1  71
TORSDOF 16
ENDMDL
