MODEL 1
REMARK VINA RESULT:     -11.8      0.000      0.000
REMARK SMILES CC(C)(CC(=O)NCCCCNC(=O)c1ccc(-c2c3nc(c(-c4cccc(S(=O)(=O)[O-])c4F)c4ccc([nH]4)c(-c4cccc(S(=O)(=O)[O-])c4F)c4nc(c(-c5cccc(S(=O)(=O)[O-])c5F)c5ccc2[nH]5)C=C4)C=C3)cc1)CC(=O)Nc1cccc(C(=O)NC2CC2)c1
REMARK SMILES IDX 8 1 7 2 5 3 6 4 4 6 2 7 1 8 3 9 78 10 79 11 80 12 81 13
REMARK SMILES IDX 82 15 83 16 93 17 84 18 86 19 85 20 87 21 88 22 89 23 90 25
REMARK SMILES IDX 91 26 92 27 9 28 10 29 11 30 12 31 13 32 14 34 15 35 16 36
REMARK SMILES IDX 77 37 17 38 76 39 18 40 19 41 20 42 70 43 21 44 75 45 69 46
REMARK SMILES IDX 71 47 22 48 74 49 68 50 67 51 23 53 55 54 35 55 54 56 36 57
REMARK SMILES IDX 39 58 53 59 72 60 37 61 38 62 52 64 73 65 40 66 24 67 25 68
REMARK SMILES IDX 33 69 26 70 28 71 34 72 27 73 29 74 30 75 31 76 32 77 56 78
REMARK SMILES IDX 57 79 65 80 58 81 60 82 66 83 59 84 61 85 62 86 63 87 64 88
REMARK SMILES IDX 41 89 42 90 50 91 43 92 45 93 51 94 44 95 46 96 47 97 48 98
REMARK SMILES IDX 49 99
REMARK H PARENT 7 5 81 14 89 24 12 33 71 52 39 63
REMARK Flexibility Score: inf
ROOT
ATOM      1  C   UNL A   1      32.341  29.768  27.036  1.00  0.00     0.116 C 
ENDROOT
BRANCH   1   2
ATOM      2  N   UNL A   1      31.735  28.489  27.310  1.00  0.00    -0.356 N 
ATOM      3  C   UNL A   1      31.893  27.338  26.593  1.00  0.00     0.220 C 
ATOM      4  O   UNL A   1      31.060  26.461  26.780  1.00  0.00    -0.275 OA
ATOM      5  H   UNL A   1      31.148  28.440  28.097  1.00  0.00     0.163 HD
BRANCH   3   6
ATOM      6  C   UNL A   1      33.148  27.169  25.736  1.00  0.00     0.107 C 
BRANCH   6   7
ATOM      7  C   UNL A   1      33.115  27.235  24.187  1.00  0.00    -0.018 C 
ATOM      8  C   UNL A   1      31.661  27.384  23.703  1.00  0.00     0.012 C 
ATOM      9  C   UNL A   1      33.838  28.563  23.808  1.00  0.00     0.012 C 
BRANCH   7  10
ATOM     10  C   UNL A   1      33.857  26.138  23.379  1.00  0.00     0.107 C 
BRANCH  10  11
ATOM     11  C   UNL A   1      33.201  25.494  22.185  1.00  0.00     0.224 C 
ATOM     12  O   UNL A   1      33.232  26.082  21.098  1.00  0.00    -0.275 OA
ATOM     13  N   UNL A   1      32.638  24.250  22.223  1.00  0.00    -0.326 N 
ATOM     14  H   UNL A   1      32.515  23.866  21.326  1.00  0.00     0.169 HD
BRANCH  13  15
ATOM     15  C   UNL A   1      32.192  23.387  23.247  1.00  0.00     0.041 A 
ATOM     16  C   UNL A   1      31.138  23.867  24.044  1.00  0.00     0.026 A 
ATOM     17  C   UNL A   1      32.776  22.181  23.613  1.00  0.00     0.040 A 
ATOM     18  C   UNL A   1      30.732  23.193  25.205  1.00  0.00     0.003 A 
ATOM     19  C   UNL A   1      32.409  21.538  24.806  1.00  0.00     0.041 A 
ATOM     20  C   UNL A   1      31.383  22.030  25.603  1.00  0.00     0.014 A 
BRANCH  19  21
ATOM     21  C   UNL A   1      33.177  20.344  25.215  1.00  0.00     0.251 C 
ATOM     22  O   UNL A   1      33.331  20.088  26.402  1.00  0.00    -0.269 OA
ATOM     23  N   UNL A   1      33.606  19.561  24.159  1.00  0.00    -0.349 N 
ATOM     24  H   UNL A   1      33.614  19.947  23.253  1.00  0.00     0.164 HD
BRANCH  23  25
ATOM     25  C   UNL A   1      34.038  18.210  24.337  1.00  0.00     0.082 C 
ATOM     26  C   UNL A   1      33.004  17.130  24.513  1.00  0.00     0.027 C 
ATOM     27  C   UNL A   1      33.830  17.171  23.265  1.00  0.00     0.027 C 
ENDBRANCH  23  25
ENDBRANCH  19  21
ENDBRANCH  13  15
ENDBRANCH  10  11
ENDBRANCH   7  10
ENDBRANCH   6   7
ENDBRANCH   3   6
ENDBRANCH   1   2
BRANCH   1  28
ATOM     28  C   UNL A   1      31.430  30.596  26.131  1.00  0.00     0.023 C 
BRANCH  28  29
ATOM     29  C   UNL A   1      31.436  32.090  26.439  1.00  0.00     0.023 C 
BRANCH  29  30
ATOM     30  C   UNL A   1      32.655  32.537  27.223  1.00  0.00     0.116 C 
BRANCH  30  31
ATOM     31  N   UNL A   1      32.565  33.926  27.661  1.00  0.00    -0.352 N 
ATOM     32  C   UNL A   1      33.384  34.585  28.548  1.00  0.00     0.251 C 
ATOM     33  H   UNL A   1      31.830  34.455  27.276  1.00  0.00     0.163 HD
ATOM     34  O   UNL A   1      33.156  35.722  28.899  1.00  0.00    -0.269 OA
BRANCH  32  35
ATOM     35  C   UNL A   1      34.525  33.822  29.076  1.00  0.00     0.039 A 
ATOM     36  C   UNL A   1      35.812  34.312  28.864  1.00  0.00     0.014 A 
ATOM     37  C   UNL A   1      34.282  32.729  29.911  1.00  0.00     0.014 A 
ATOM     38  C   UNL A   1      36.873  33.720  29.541  1.00  0.00     0.010 A 
ATOM     39  C   UNL A   1      35.325  32.209  30.655  1.00  0.00     0.010 A 
ATOM     40  C   UNL A   1      36.630  32.685  30.460  1.00  0.00    -0.014 A 
BRANCH  40  41
ATOM     41  C   UNL A   1      37.738  32.055  31.209  1.00  0.00     0.031 A 
ATOM     42  C   UNL A   1      38.504  30.931  30.573  1.00  0.00     0.074 A 
ATOM     43  C   UNL A   1      37.990  32.436  32.475  1.00  0.00     0.049 A 
ATOM     44  N   UNL A   1      39.477  30.216  31.068  1.00  0.00    -0.248 NA
ATOM     45  C   UNL A   1      38.093  30.526  29.216  1.00  0.00     0.031 C 
ATOM     46  C   UNL A   1      37.235  33.445  33.225  1.00  0.00     0.029 A 
ATOM     47  N   UNL A   1      38.936  32.001  33.366  1.00  0.00    -0.354 N 
ATOM     48  C   UNL A   1      39.761  29.254  30.108  1.00  0.00     0.074 A 
ATOM     49  C   UNL A   1      38.825  29.441  29.024  1.00  0.00     0.031 C 
ATOM     50  C   UNL A   1      37.759  33.561  34.456  1.00  0.00     0.029 A 
ATOM     51  C   UNL A   1      38.872  32.625  34.589  1.00  0.00     0.049 A 
ATOM     52  H   UNL A   1      39.601  31.308  33.148  1.00  0.00     0.167 HD
ATOM     53  C   UNL A   1      40.743  28.325  30.109  1.00  0.00     0.034 A 
ATOM     54  C   UNL A   1      39.634  32.462  35.687  1.00  0.00     0.034 A 
ATOM     55  C   UNL A   1      41.713  28.200  31.160  1.00  0.00     0.049 A 
ATOM     56  C   UNL A   1      40.780  31.487  35.628  1.00  0.00     0.074 A 
ATOM     57  C   UNL A   1      42.820  27.376  31.217  1.00  0.00     0.029 A 
ATOM     58  N   UNL A   1      41.690  28.930  32.339  1.00  0.00    -0.354 N 
ATOM     59  N   UNL A   1      41.148  30.707  34.640  1.00  0.00    -0.248 NA
ATOM     60  C   UNL A   1      41.639  31.399  36.816  1.00  0.00     0.031 C 
ATOM     61  C   UNL A   1      43.463  27.600  32.440  1.00  0.00     0.029 A 
ATOM     62  C   UNL A   1      42.763  28.574  33.135  1.00  0.00     0.049 A 
ATOM     63  H   UNL A   1      41.010  29.601  32.575  1.00  0.00     0.167 HD
ATOM     64  C   UNL A   1      42.300  30.060  35.072  1.00  0.00     0.074 A 
ATOM     65  C   UNL A   1      42.579  30.558  36.405  1.00  0.00     0.031 C 
ATOM     66  C   UNL A   1      43.048  29.127  34.434  1.00  0.00     0.034 A 
BRANCH  53  67
ATOM     67  C   UNL A   1      40.852  27.428  28.905  1.00  0.00     0.023 A 
ATOM     68  C   UNL A   1      39.996  26.313  28.789  1.00  0.00     0.012 A 
ATOM     69  C   UNL A   1      41.782  27.694  27.882  1.00  0.00     0.148 A 
ATOM     70  C   UNL A   1      40.089  25.454  27.696  1.00  0.00     0.002 A 
ATOM     71  C   UNL A   1      41.837  26.859  26.772  1.00  0.00     0.091 A 
ATOM     72  F   UNL A   1      42.608  28.740  28.024  1.00  0.00    -0.205 F 
ATOM     73  C   UNL A   1      41.003  25.733  26.683  1.00  0.00     0.022 A 
BRANCH  71  74
ATOM     74  S   UNL A   1      42.927  27.177  25.381  1.00  0.00     0.127 S 
ATOM     75  O   UNL A   1      42.845  25.915  24.647  1.00  0.00    -0.237 OA
ATOM     76  O   UNL A   1      42.269  28.308  24.725  1.00  0.00    -0.237 OA
ATOM     77  O   UNL A   1      44.229  27.486  25.956  1.00  0.00    -0.744 OA
ENDBRANCH  71  74
ENDBRANCH  53  67
BRANCH  54  78
ATOM     78  C   UNL A   1      39.397  33.310  36.889  1.00  0.00     0.023 A 
ATOM     79  C   UNL A   1      39.886  34.630  36.906  1.00  0.00     0.012 A 
ATOM     80  C   UNL A   1      38.656  32.837  37.989  1.00  0.00     0.148 A 
ATOM     81  C   UNL A   1      39.667  35.458  38.009  1.00  0.00     0.002 A 
ATOM     82  C   UNL A   1      38.398  33.683  39.063  1.00  0.00     0.091 A 
ATOM     83  F   UNL A   1      38.206  31.576  37.956  1.00  0.00    -0.205 F 
ATOM     84  C   UNL A   1      38.915  34.988  39.082  1.00  0.00     0.022 A 
BRANCH  82  85
ATOM     85  S   UNL A   1      37.331  33.207  40.428  1.00  0.00     0.127 S 
ATOM     86  O   UNL A   1      38.068  32.087  41.006  1.00  0.00    -0.237 OA
ATOM     87  O   UNL A   1      37.320  34.424  41.242  1.00  0.00    -0.237 OA
ATOM     88  O   UNL A   1      36.047  32.879  39.823  1.00  0.00    -0.744 OA
ENDBRANCH  82  85
ENDBRANCH  54  78
BRANCH  66  89
ATOM     89  C   UNL A   1      44.260  28.598  35.153  1.00  0.00     0.023 A 
ATOM     90  C   UNL A   1      45.519  29.184  34.919  1.00  0.00     0.012 A 
ATOM     91  C   UNL A   1      44.132  27.586  36.124  1.00  0.00     0.148 A 
ATOM     92  C   UNL A   1      46.640  28.752  35.626  1.00  0.00     0.002 A 
ATOM     93  C   UNL A   1      45.245  27.195  36.857  1.00  0.00     0.091 A 
ATOM     94  F   UNL A   1      42.927  27.029  36.315  1.00  0.00    -0.205 F 
ATOM     95  C   UNL A   1      46.501  27.769  36.602  1.00  0.00     0.022 A 
BRANCH  93  96
ATOM     96  S   UNL A   1      45.136  26.009  38.202  1.00  0.00     0.127 S 
ATOM     97  O   UNL A   1      46.543  25.840  38.565  1.00  0.00    -0.237 OA
ATOM     98  O   UNL A   1      44.333  26.730  39.190  1.00  0.00    -0.237 OA
ATOM     99  O   UNL A   1      44.486  24.831  37.644  1.00  0.00    -0.744 OA
ENDBRANCH  93  96
ENDBRANCH  66  89
ENDBRANCH  40  41
ENDBRANCH  32  35
ENDBRANCH  30  31
ENDBRANCH  29  30
ENDBRANCH  28  29
ENDBRANCH   1  28
TORSDOF 20
ENDMDL
MODEL 2
REMARK VINA RESULT:     -11.7      1.999      7.868
REMARK SMILES CC(C)(CC(=O)NCCCCNC(=O)c1ccc(-c2c3nc(c(-c4cccc(S(=O)(=O)[O-])c4F)c4ccc([nH]4)c(-c4cccc(S(=O)(=O)[O-])c4F)c4nc(c(-c5cccc(S(=O)(=O)[O-])c5F)c5ccc2[nH]5)C=C4)C=C3)cc1)CC(=O)Nc1cccc(C(=O)NC2CC2)c1
REMARK SMILES IDX 8 1 7 2 5 3 6 4 4 6 2 7 1 8 3 9 78 10 79 11 80 12 81 13
REMARK SMILES IDX 82 15 83 16 93 17 84 18 86 19 85 20 87 21 88 22 89 23 90 25
REMARK SMILES IDX 91 26 92 27 9 28 10 29 11 30 12 31 13 32 14 34 15 35 16 36
REMARK SMILES IDX 77 37 17 38 76 39 18 40 19 41 20 42 70 43 21 44 75 45 69 46
REMARK SMILES IDX 71 47 22 48 74 49 68 50 67 51 23 53 55 54 35 55 54 56 36 57
REMARK SMILES IDX 39 58 53 59 72 60 37 61 38 62 52 64 73 65 40 66 24 67 25 68
REMARK SMILES IDX 33 69 26 70 28 71 34 72 27 73 29 74 30 75 31 76 32 77 56 78
REMARK SMILES IDX 57 79 65 80 58 81 60 82 66 83 59 84 61 85 62 86 63 87 64 88
REMARK SMILES IDX 41 89 42 90 50 91 43 92 45 93 51 94 44 95 46 96 47 97 48 98
REMARK SMILES IDX 49 99
REMARK H PARENT 7 5 81 14 89 24 12 33 71 52 39 63
REMARK Flexibility Score: inf
ROOT
ATOM      1  C   UNL A   1      31.051  27.148  26.901  1.00  0.00     0.116 C 
ENDROOT
BRANCH   1   2
ATOM      2  N   UNL A   1      32.138  26.204  26.837  1.00  0.00    -0.356 N 
ATOM      3  C   UNL A   1      32.080  24.917  26.383  1.00  0.00     0.220 C 
ATOM      4  O   UNL A   1      33.004  24.182  26.705  1.00  0.00    -0.275 OA
ATOM      5  H   UNL A   1      33.015  26.519  27.152  1.00  0.00     0.163 HD
BRANCH   3   6
ATOM      6  C   UNL A   1      30.969  24.530  25.406  1.00  0.00     0.107 C 
BRANCH   6   7
ATOM      7  C   UNL A   1      31.000  24.929  23.908  1.00  0.00    -0.018 C 
ATOM      8  C   UNL A   1      30.590  23.727  23.040  1.00  0.00     0.012 C 
ATOM      9  C   UNL A   1      29.875  25.996  23.735  1.00  0.00     0.012 C 
BRANCH   7  10
ATOM     10  C   UNL A   1      32.276  25.609  23.345  1.00  0.00     0.107 C 
BRANCH  10  11
ATOM     11  C   UNL A   1      33.099  24.925  22.282  1.00  0.00     0.224 C 
ATOM     12  O   UNL A   1      32.996  25.309  21.111  1.00  0.00    -0.275 OA
ATOM     13  N   UNL A   1      34.015  23.952  22.558  1.00  0.00    -0.326 N 
ATOM     14  H   UNL A   1      34.653  23.816  21.822  1.00  0.00     0.169 HD
BRANCH  13  15
ATOM     15  C   UNL A   1      34.261  23.094  23.653  1.00  0.00     0.041 A 
ATOM     16  C   UNL A   1      35.407  23.377  24.415  1.00  0.00     0.026 A 
ATOM     17  C   UNL A   1      33.555  21.938  23.960  1.00  0.00     0.040 A 
ATOM     18  C   UNL A   1      35.866  22.497  25.405  1.00  0.00     0.003 A 
ATOM     19  C   UNL A   1      34.046  21.028  24.911  1.00  0.00     0.041 A 
ATOM     20  C   UNL A   1      35.193  21.302  25.645  1.00  0.00     0.014 A 
BRANCH  19  21
ATOM     21  C   UNL A   1      33.330  19.746  25.079  1.00  0.00     0.251 C 
ATOM     22  O   UNL A   1      32.125  19.738  25.288  1.00  0.00    -0.269 OA
ATOM     23  N   UNL A   1      34.127  18.630  24.903  1.00  0.00    -0.349 N 
ATOM     24  H   UNL A   1      35.105  18.732  24.942  1.00  0.00     0.164 HD
BRANCH  23  25
ATOM     25  C   UNL A   1      33.578  17.331  24.667  1.00  0.00     0.082 C 
ATOM     26  C   UNL A   1      34.117  16.506  23.529  1.00  0.00     0.027 C 
ATOM     27  C   UNL A   1      34.374  16.081  24.941  1.00  0.00     0.027 C 
ENDBRANCH  23  25
ENDBRANCH  19  21
ENDBRANCH  13  15
ENDBRANCH  10  11
ENDBRANCH   7  10
ENDBRANCH   6   7
ENDBRANCH   3   6
ENDBRANCH   1   2
BRANCH   1  28
ATOM     28  C   UNL A   1      31.481  28.485  26.298  1.00  0.00     0.023 C 
BRANCH  28  29
ATOM     29  C   UNL A   1      32.656  28.383  25.331  1.00  0.00     0.023 C 
BRANCH  29  30
ATOM     30  C   UNL A   1      33.456  29.666  25.221  1.00  0.00     0.116 C 
BRANCH  30  31
ATOM     31  N   UNL A   1      32.834  30.781  25.927  1.00  0.00    -0.352 N 
ATOM     32  C   UNL A   1      33.306  31.447  27.034  1.00  0.00     0.251 C 
ATOM     33  H   UNL A   1      31.973  31.095  25.568  1.00  0.00     0.163 HD
ATOM     34  O   UNL A   1      32.653  32.308  27.584  1.00  0.00    -0.269 OA
BRANCH  32  35
ATOM     35  C   UNL A   1      34.623  31.030  27.536  1.00  0.00     0.039 A 
ATOM     36  C   UNL A   1      35.593  32.006  27.761  1.00  0.00     0.014 A 
ATOM     37  C   UNL A   1      34.810  29.703  27.931  1.00  0.00     0.014 A 
ATOM     38  C   UNL A   1      36.755  31.651  28.436  1.00  0.00     0.010 A 
ATOM     39  C   UNL A   1      35.922  29.379  28.687  1.00  0.00     0.010 A 
ATOM     40  C   UNL A   1      36.912  30.343  28.927  1.00  0.00    -0.014 A 
BRANCH  40  41
ATOM     41  C   UNL A   1      38.128  29.947  29.667  1.00  0.00     0.031 A 
ATOM     42  C   UNL A   1      38.330  30.455  31.067  1.00  0.00     0.074 A 
ATOM     43  C   UNL A   1      39.075  29.214  29.052  1.00  0.00     0.049 A 
ATOM     44  N   UNL A   1      39.339  30.265  31.872  1.00  0.00    -0.248 NA
ATOM     45  C   UNL A   1      37.278  31.327  31.619  1.00  0.00     0.031 C 
ATOM     46  C   UNL A   1      39.027  28.760  27.659  1.00  0.00     0.029 A 
ATOM     47  N   UNL A   1      40.275  28.741  29.514  1.00  0.00    -0.354 N 
ATOM     48  C   UNL A   1      39.066  31.026  33.000  1.00  0.00     0.074 A 
ATOM     49  C   UNL A   1      37.824  31.723  32.757  1.00  0.00     0.031 C 
ATOM     50  C   UNL A   1      40.141  28.062  27.386  1.00  0.00     0.029 A 
ATOM     51  C   UNL A   1      40.988  28.034  28.575  1.00  0.00     0.049 A 
ATOM     52  H   UNL A   1      40.596  28.893  30.432  1.00  0.00     0.167 HD
ATOM     53  C   UNL A   1      39.766  31.106  34.154  1.00  0.00     0.034 A 
ATOM     54  C   UNL A   1      42.186  27.425  28.672  1.00  0.00     0.034 A 
ATOM     55  C   UNL A   1      40.959  30.350  34.409  1.00  0.00     0.049 A 
ATOM     56  C   UNL A   1      42.898  27.449  29.997  1.00  0.00     0.074 A 
ATOM     57  C   UNL A   1      41.687  30.259  35.580  1.00  0.00     0.029 A 
ATOM     58  N   UNL A   1      41.595  29.547  33.473  1.00  0.00    -0.354 N 
ATOM     59  N   UNL A   1      42.537  28.029  31.118  1.00  0.00    -0.248 NA
ATOM     60  C   UNL A   1      44.161  26.703  30.087  1.00  0.00     0.031 C 
ATOM     61  C   UNL A   1      42.774  29.408  35.347  1.00  0.00     0.029 A 
ATOM     62  C   UNL A   1      42.711  28.958  34.037  1.00  0.00     0.049 A 
ATOM     63  H   UNL A   1      41.295  29.417  32.545  1.00  0.00     0.167 HD
ATOM     64  C   UNL A   1      43.507  27.692  32.053  1.00  0.00     0.074 A 
ATOM     65  C   UNL A   1      44.461  26.838  31.372  1.00  0.00     0.031 C 
ATOM     66  C   UNL A   1      43.611  28.067  33.351  1.00  0.00     0.034 A 
BRANCH  53  67
ATOM     67  C   UNL A   1      39.212  31.984  35.244  1.00  0.00     0.023 A 
ATOM     68  C   UNL A   1      39.342  33.385  35.140  1.00  0.00     0.012 A 
ATOM     69  C   UNL A   1      38.547  31.433  36.355  1.00  0.00     0.148 A 
ATOM     70  C   UNL A   1      38.857  34.222  36.144  1.00  0.00     0.002 A 
ATOM     71  C   UNL A   1      38.025  32.276  37.329  1.00  0.00     0.091 A 
ATOM     72  F   UNL A   1      38.460  30.098  36.451  1.00  0.00    -0.205 F 
ATOM     73  C   UNL A   1      38.190  33.667  37.233  1.00  0.00     0.022 A 
BRANCH  71  74
ATOM     74  S   UNL A   1      37.085  31.663  38.731  1.00  0.00     0.127 S 
ATOM     75  O   UNL A   1      36.862  30.269  38.351  1.00  0.00    -0.237 OA
ATOM     76  O   UNL A   1      38.024  31.850  39.838  1.00  0.00    -0.237 OA
ATOM     77  O   UNL A   1      35.891  32.493  38.805  1.00  0.00    -0.744 OA
ENDBRANCH  71  74
ENDBRANCH  53  67
BRANCH  54  78
ATOM     78  C   UNL A   1      42.728  26.663  27.513  1.00  0.00     0.023 A 
ATOM     79  C   UNL A   1      43.643  27.291  26.645  1.00  0.00     0.012 A 
ATOM     80  C   UNL A   1      42.385  25.316  27.291  1.00  0.00     0.148 A 
ATOM     81  C   UNL A   1      44.185  26.600  25.560  1.00  0.00     0.002 A 
ATOM     82  C   UNL A   1      42.966  24.618  26.237  1.00  0.00     0.091 A 
ATOM     83  F   UNL A   1      41.507  24.739  28.123  1.00  0.00    -0.205 F 
ATOM     84  C   UNL A   1      43.854  25.262  25.361  1.00  0.00     0.022 A 
BRANCH  82  85
ATOM     85  S   UNL A   1      42.700  22.860  25.983  1.00  0.00     0.127 S 
ATOM     86  O   UNL A   1      43.117  22.693  24.593  1.00  0.00    -0.237 OA
ATOM     87  O   UNL A   1      43.603  22.270  26.973  1.00  0.00    -0.237 OA
ATOM     88  O   UNL A   1      41.287  22.636  26.254  1.00  0.00    -0.744 OA
ENDBRANCH  82  85
ENDBRANCH  54  78
BRANCH  66  89
ATOM     89  C   UNL A   1      44.781  27.539  34.137  1.00  0.00     0.023 A 
ATOM     90  C   UNL A   1      45.985  28.269  34.166  1.00  0.00     0.012 A 
ATOM     91  C   UNL A   1      44.655  26.373  34.916  1.00  0.00     0.148 A 
ATOM     92  C   UNL A   1      47.057  27.832  34.943  1.00  0.00     0.002 A 
ATOM     93  C   UNL A   1      45.710  25.970  35.724  1.00  0.00     0.091 A 
ATOM     94  F   UNL A   1      43.506  25.683  34.856  1.00  0.00    -0.205 F 
ATOM     95  C   UNL A   1      46.915  26.691  35.731  1.00  0.00     0.022 A 
BRANCH  93  96
ATOM     96  S   UNL A   1      45.578  24.572  36.844  1.00  0.00     0.127 S 
ATOM     97  O   UNL A   1      46.920  24.526  37.424  1.00  0.00    -0.237 OA
ATOM     98  O   UNL A   1      44.530  25.011  37.767  1.00  0.00    -0.237 OA
ATOM     99  O   UNL A   1      45.211  23.430  36.017  1.00  0.00    -0.744 OA
ENDBRANCH  93  96
ENDBRANCH  66  89
ENDBRANCH  40  41
ENDBRANCH  32  35
ENDBRANCH  30  31
ENDBRANCH  29  30
ENDBRANCH  28  29
ENDBRANCH   1  28
TORSDOF 20
ENDMDL
MODEL 3
REMARK VINA RESULT:     -11.5      1.776      7.642
REMARK SMILES CC(C)(CC(=O)NCCCCNC(=O)c1ccc(-c2c3nc(c(-c4cccc(S(=O)(=O)[O-])c4F)c4ccc([nH]4)c(-c4cccc(S(=O)(=O)[O-])c4F)c4nc(c(-c5cccc(S(=O)(=O)[O-])c5F)c5ccc2[nH]5)C=C4)C=C3)cc1)CC(=O)Nc1cccc(C(=O)NC2CC2)c1
REMARK SMILES IDX 8 1 7 2 5 3 6 4 4 6 2 7 1 8 3 9 78 10 79 11 80 12 81 13
REMARK SMILES IDX 82 15 83 16 93 17 84 18 86 19 85 20 87 21 88 22 89 23 90 25
REMARK SMILES IDX 91 26 92 27 9 28 10 29 11 30 12 31 13 32 14 34 15 35 16 36
REMARK SMILES IDX 77 37 17 38 76 39 18 40 19 41 20 42 70 43 21 44 75 45 69 46
REMARK SMILES IDX 71 47 22 48 74 49 68 50 67 51 23 53 55 54 35 55 54 56 36 57
REMARK SMILES IDX 39 58 53 59 72 60 37 61 38 62 52 64 73 65 40 66 24 67 25 68
REMARK SMILES IDX 33 69 26 70 28 71 34 72 27 73 29 74 30 75 31 76 32 77 56 78
REMARK SMILES IDX 57 79 65 80 58 81 60 82 66 83 59 84 61 85 62 86 63 87 64 88
REMARK SMILES IDX 41 89 42 90 50 91 43 92 45 93 51 94 44 95 46 96 47 97 48 98
REMARK SMILES IDX 49 99
REMARK H PARENT 7 5 81 14 89 24 12 33 71 52 39 63
REMARK Flexibility Score: inf
ROOT
ATOM      1  C   UNL A   1      32.486  28.972  27.205  1.00  0.00     0.116 C 
ENDROOT
BRANCH   1   2
ATOM      2  N   UNL A   1      31.848  27.694  27.398  1.00  0.00    -0.356 N 
ATOM      3  C   UNL A   1      31.884  26.625  26.550  1.00  0.00     0.220 C 
ATOM      4  O   UNL A   1      31.032  25.763  26.722  1.00  0.00    -0.275 OA
ATOM      5  H   UNL A   1      31.334  27.580  28.229  1.00  0.00     0.163 HD
BRANCH   3   6
ATOM      6  C   UNL A   1      33.045  26.505  25.563  1.00  0.00     0.107 C 
BRANCH   6   7
ATOM      7  C   UNL A   1      32.910  26.890  24.067  1.00  0.00    -0.018 C 
ATOM      8  C   UNL A   1      31.442  27.219  23.745  1.00  0.00     0.012 C 
ATOM      9  C   UNL A   1      33.702  28.223  23.903  1.00  0.00     0.012 C 
BRANCH   7  10
ATOM     10  C   UNL A   1      33.512  25.940  22.997  1.00  0.00     0.107 C 
BRANCH  10  11
ATOM     11  C   UNL A   1      32.626  25.300  21.960  1.00  0.00     0.224 C 
ATOM     12  O   UNL A   1      32.346  25.938  20.938  1.00  0.00    -0.275 OA
ATOM     13  N   UNL A   1      32.177  24.014  22.053  1.00  0.00    -0.326 N 
ATOM     14  H   UNL A   1      31.861  23.662  21.190  1.00  0.00     0.169 HD
BRANCH  13  15
ATOM     15  C   UNL A   1      32.058  23.071  23.098  1.00  0.00     0.041 A 
ATOM     16  C   UNL A   1      31.121  23.373  24.100  1.00  0.00     0.026 A 
ATOM     17  C   UNL A   1      32.863  21.954  23.286  1.00  0.00     0.040 A 
ATOM     18  C   UNL A   1      31.042  22.620  25.280  1.00  0.00     0.003 A 
ATOM     19  C   UNL A   1      32.824  21.236  24.492  1.00  0.00     0.041 A 
ATOM     20  C   UNL A   1      31.912  21.554  25.491  1.00  0.00     0.014 A 
BRANCH  19  21
ATOM     21  C   UNL A   1      33.814  20.157  24.690  1.00  0.00     0.251 C 
ATOM     22  O   UNL A   1      34.831  20.366  25.336  1.00  0.00    -0.269 OA
ATOM     23  N   UNL A   1      33.434  18.940  24.153  1.00  0.00    -0.349 N 
ATOM     24  H   UNL A   1      32.711  18.919  23.486  1.00  0.00     0.164 HD
BRANCH  23  25
ATOM     25  C   UNL A   1      34.057  17.712  24.535  1.00  0.00     0.082 C 
ATOM     26  C   UNL A   1      33.278  16.722  25.360  1.00  0.00     0.027 C 
ATOM     27  C   UNL A   1      33.625  16.395  23.941  1.00  0.00     0.027 C 
ENDBRANCH  23  25
ENDBRANCH  19  21
ENDBRANCH  13  15
ENDBRANCH  10  11
ENDBRANCH   7  10
ENDBRANCH   6   7
ENDBRANCH   3   6
ENDBRANCH   1   2
BRANCH   1  28
ATOM     28  C   UNL A   1      31.616  29.863  26.318  1.00  0.00     0.023 C 
BRANCH  28  29
ATOM     29  C   UNL A   1      31.714  31.351  26.641  1.00  0.00     0.023 C 
BRANCH  29  30
ATOM     30  C   UNL A   1      33.072  31.761  27.177  1.00  0.00     0.116 C 
BRANCH  30  31
ATOM     31  N   UNL A   1      33.106  33.149  27.623  1.00  0.00    -0.352 N 
ATOM     32  C   UNL A   1      34.079  33.771  28.369  1.00  0.00     0.251 C 
ATOM     33  H   UNL A   1      32.341  33.708  27.359  1.00  0.00     0.163 HD
ATOM     34  O   UNL A   1      33.954  34.915  28.752  1.00  0.00    -0.269 OA
BRANCH  32  35
ATOM     35  C   UNL A   1      35.258  32.962  28.712  1.00  0.00     0.039 A 
ATOM     36  C   UNL A   1      36.524  33.472  28.426  1.00  0.00     0.014 A 
ATOM     37  C   UNL A   1      35.087  31.795  29.458  1.00  0.00     0.014 A 
ATOM     38  C   UNL A   1      37.639  32.818  28.939  1.00  0.00     0.010 A 
ATOM     39  C   UNL A   1      36.191  31.207  30.048  1.00  0.00     0.010 A 
ATOM     40  C   UNL A   1      37.476  31.700  29.775  1.00  0.00    -0.014 A 
BRANCH  40  41
ATOM     41  C   UNL A   1      38.645  31.003  30.352  1.00  0.00     0.031 A 
ATOM     42  C   UNL A   1      39.169  31.437  31.691  1.00  0.00     0.074 A 
ATOM     43  C   UNL A   1      39.274  30.051  29.637  1.00  0.00     0.049 A 
ATOM     44  N   UNL A   1      40.201  30.992  32.353  1.00  0.00    -0.248 NA
ATOM     45  C   UNL A   1      38.466  32.550  32.354  1.00  0.00     0.031 C 
ATOM     46  C   UNL A   1      38.911  29.628  28.281  1.00  0.00     0.029 A 
ATOM     47  N   UNL A   1      40.367  29.284  29.942  1.00  0.00    -0.354 N 
ATOM     48  C   UNL A   1      40.297  31.796  33.481  1.00  0.00     0.074 A 
ATOM     49  C   UNL A   1      39.253  32.789  33.390  1.00  0.00     0.031 C 
ATOM     50  C   UNL A   1      39.758  28.667  27.879  1.00  0.00     0.029 A 
ATOM     51  C   UNL A   1      40.732  28.419  28.938  1.00  0.00     0.049 A 
ATOM     52  H   UNL A   1      40.845  29.346  30.801  1.00  0.00     0.167 HD
ATOM     53  C   UNL A   1      41.153  31.689  34.523  1.00  0.00     0.034 A 
ATOM     54  C   UNL A   1      41.736  27.522  28.888  1.00  0.00     0.034 A 
ATOM     55  C   UNL A   1      42.137  30.651  34.635  1.00  0.00     0.049 A 
ATOM     56  C   UNL A   1      42.615  27.358  30.099  1.00  0.00     0.074 A 
ATOM     57  C   UNL A   1      42.979  30.372  35.694  1.00  0.00     0.029 A 
ATOM     58  N   UNL A   1      42.405  29.713  33.647  1.00  0.00    -0.354 N 
ATOM     59  N   UNL A   1      42.579  28.010  31.238  1.00  0.00    -0.248 NA
ATOM     60  C   UNL A   1      43.644  26.312  30.037  1.00  0.00     0.031 C 
ATOM     61  C   UNL A   1      43.767  29.270  35.342  1.00  0.00     0.029 A 
ATOM     62  C   UNL A   1      43.403  28.855  34.070  1.00  0.00     0.049 A 
ATOM     63  H   UNL A   1      41.952  29.667  32.775  1.00  0.00     0.167 HD
ATOM     64  C   UNL A   1      43.555  27.432  32.040  1.00  0.00     0.074 A 
ATOM     65  C   UNL A   1      44.151  26.362  31.262  1.00  0.00     0.031 C 
ATOM     66  C   UNL A   1      43.937  27.764  33.297  1.00  0.00     0.034 A 
BRANCH  53  67
ATOM     67  C   UNL A   1      41.004  32.679  35.647  1.00  0.00     0.023 A 
ATOM     68  C   UNL A   1      41.828  33.824  35.679  1.00  0.00     0.012 A 
ATOM     69  C   UNL A   1      40.044  32.491  36.659  1.00  0.00     0.148 A 
ATOM     70  C   UNL A   1      41.727  34.745  36.719  1.00  0.00     0.002 A 
ATOM     71  C   UNL A   1      39.916  33.438  37.668  1.00  0.00     0.091 A 
ATOM     72  F   UNL A   1      39.291  31.382  36.629  1.00  0.00    -0.205 F 
ATOM     73  C   UNL A   1      40.764  34.557  37.707  1.00  0.00     0.022 A 
BRANCH  71  74
ATOM     74  S   UNL A   1      38.658  33.325  38.944  1.00  0.00     0.127 S 
ATOM     75  O   UNL A   1      38.692  34.670  39.514  1.00  0.00    -0.237 OA
ATOM     76  O   UNL A   1      37.456  33.023  38.165  1.00  0.00    -0.237 OA
ATOM     77  O   UNL A   1      39.086  32.254  39.833  1.00  0.00    -0.744 OA
ENDBRANCH  71  74
ENDBRANCH  53  67
BRANCH  54  78
ATOM     78  C   UNL A   1      41.893  26.648  27.691  1.00  0.00     0.023 A 
ATOM     79  C   UNL A   1      42.533  27.160  26.546  1.00  0.00     0.012 A 
ATOM     80  C   UNL A   1      41.460  25.309  27.695  1.00  0.00     0.148 A 
ATOM     81  C   UNL A   1      42.713  26.363  25.414  1.00  0.00     0.002 A 
ATOM     82  C   UNL A   1      41.686  24.505  26.583  1.00  0.00     0.091 A 
ATOM     83  F   UNL A   1      40.846  24.843  28.792  1.00  0.00    -0.205 F 
ATOM     84  C   UNL A   1      42.299  25.034  25.436  1.00  0.00     0.022 A 
BRANCH  82  85
ATOM     85  S   UNL A   1      41.305  22.750  26.569  1.00  0.00     0.127 S 
ATOM     86  O   UNL A   1      39.854  22.761  26.397  1.00  0.00    -0.237 OA
ATOM     87  O   UNL A   1      42.060  22.285  25.404  1.00  0.00    -0.237 OA
ATOM     88  O   UNL A   1      41.791  22.235  27.842  1.00  0.00    -0.744 OA
ENDBRANCH  82  85
ENDBRANCH  54  78
BRANCH  66  89
ATOM     89  C   UNL A   1      45.034  26.951  33.928  1.00  0.00     0.023 A 
ATOM     90  C   UNL A   1      46.377  27.340  33.756  1.00  0.00     0.012 A 
ATOM     91  C   UNL A   1      44.728  25.861  34.766  1.00  0.00     0.148 A 
ATOM     92  C   UNL A   1      47.401  26.639  34.390  1.00  0.00     0.002 A 
ATOM     93  C   UNL A   1      45.751  25.197  35.431  1.00  0.00     0.091 A 
ATOM     94  F   UNL A   1      43.444  25.496  34.899  1.00  0.00    -0.205 F 
ATOM     95  C   UNL A   1      47.089  25.578  35.236  1.00  0.00     0.022 A 
BRANCH  93  96
ATOM     96  S   UNL A   1      45.429  23.887  36.616  1.00  0.00     0.127 S 
ATOM     97  O   UNL A   1      46.775  23.593  37.109  1.00  0.00    -0.237 OA
ATOM     98  O   UNL A   1      44.557  24.550  37.586  1.00  0.00    -0.237 OA
ATOM     99  O   UNL A   1      44.788  22.817  35.865  1.00  0.00    -0.744 OA
ENDBRANCH  93  96
ENDBRANCH  66  89
ENDBRANCH  40  41
ENDBRANCH  32  35
ENDBRANCH  30  31
ENDBRANCH  29  30
ENDBRANCH  28  29
ENDBRANCH   1  28
TORSDOF 20
ENDMDL
