MODEL 1
REMARK VINA RESULT:     -10.7      0.000      0.000
REMARK SMILES O=C(NCCCCNC(=O)C1(Cc2nccs2)CC1)c1ccc(-c2c3nc(c(-c4cccc(S(=O)(=O)[O-])c4F)c4ccc([nH]4)c(-c4cccc(S(=O)(=O)[O-])c4F)c4nc(c(-c5cccc(S(=O)(=O)[O-])c5F)c5ccc2[nH]5)C=C4)C=C3)cc1
REMARK SMILES IDX 5 1 4 2 3 3 1 4 2 5 20 7 21 8 82 9 22 10 81 11 23 12 24 13
REMARK SMILES IDX 25 14 75 15 26 16 80 17 74 18 76 19 27 20 79 21 73 22 72 23
REMARK SMILES IDX 28 25 60 26 40 27 59 28 41 29 44 30 58 31 77 32 42 33 43 34
REMARK SMILES IDX 57 36 78 37 45 38 29 39 30 40 38 41 31 42 33 43 39 44 32 45
REMARK SMILES IDX 34 46 35 47 36 48 37 49 61 50 62 51 70 52 63 53 65 54 71 55
REMARK SMILES IDX 64 56 66 57 67 58 68 59 69 60 46 61 47 62 55 63 48 64 50 65
REMARK SMILES IDX 56 66 49 67 51 68 52 69 53 70 54 71 6 72 7 73 8 74 9 75
REMARK SMILES IDX 10 77 11 78 18 79 19 80 12 81 13 82 14 83 17 84 15 85 16 86
REMARK H PARENT 3 6 76 24 44 35 8 76
REMARK Flexibility Score: inf
ROOT
ATOM      1  C   UNL A   1      33.039  27.750  26.068  1.00  0.00     0.023 C 
ENDROOT
BRANCH   1   2
ATOM      2  C   UNL A   1      33.633  29.013  25.471  1.00  0.00     0.116 C 
BRANCH   2   3
ATOM      3  N   UNL A   1      33.049  30.233  26.013  1.00  0.00    -0.352 N 
ATOM      4  O   UNL A   1      32.847  31.966  27.447  1.00  0.00    -0.269 OA
ATOM      5  C   UNL A   1      33.525  31.033  27.027  1.00  0.00     0.251 C 
ATOM      6  H   UNL A   1      32.203  30.524  25.601  1.00  0.00     0.163 HD
BRANCH   5   7
ATOM      7  C   UNL A   1      34.844  30.726  27.622  1.00  0.00     0.039 A 
ATOM      8  C   UNL A   1      35.065  29.481  28.210  1.00  0.00     0.014 A 
ATOM      9  C   UNL A   1      35.842  31.703  27.641  1.00  0.00     0.014 A 
ATOM     10  C   UNL A   1      36.204  29.278  28.972  1.00  0.00     0.010 A 
ATOM     11  C   UNL A   1      37.043  31.451  28.314  1.00  0.00     0.010 A 
ATOM     12  C   UNL A   1      37.219  30.249  29.015  1.00  0.00    -0.014 A 
BRANCH  12  13
ATOM     13  C   UNL A   1      38.477  29.915  29.731  1.00  0.00     0.031 A 
ATOM     14  C   UNL A   1      38.770  30.432  31.112  1.00  0.00     0.074 A 
ATOM     15  C   UNL A   1      39.336  29.072  29.123  1.00  0.00     0.049 A 
ATOM     16  N   UNL A   1      39.783  30.150  31.890  1.00  0.00    -0.248 NA
ATOM     17  C   UNL A   1      37.820  31.395  31.693  1.00  0.00     0.031 C 
ATOM     18  C   UNL A   1      39.178  28.557  27.759  1.00  0.00     0.029 A 
ATOM     19  N   UNL A   1      40.490  28.482  29.567  1.00  0.00    -0.354 N 
ATOM     20  C   UNL A   1      39.615  30.918  33.036  1.00  0.00     0.074 A 
ATOM     21  C   UNL A   1      38.405  31.690  32.847  1.00  0.00     0.031 C 
ATOM     22  C   UNL A   1      40.160  27.686  27.499  1.00  0.00     0.029 A 
ATOM     23  C   UNL A   1      41.055  27.629  28.647  1.00  0.00     0.049 A 
ATOM     24  H   UNL A   1      40.875  28.651  30.456  1.00  0.00     0.167 HD
ATOM     25  C   UNL A   1      40.390  30.960  34.147  1.00  0.00     0.034 A 
ATOM     26  C   UNL A   1      42.176  26.889  28.713  1.00  0.00     0.034 A 
ATOM     27  C   UNL A   1      41.575  30.163  34.336  1.00  0.00     0.049 A 
ATOM     28  C   UNL A   1      42.979  26.913  29.979  1.00  0.00     0.074 A 
ATOM     29  C   UNL A   1      42.412  30.111  35.436  1.00  0.00     0.029 A 
ATOM     30  N   UNL A   1      42.090  29.273  33.403  1.00  0.00    -0.354 N 
ATOM     31  N   UNL A   1      42.743  27.569  31.089  1.00  0.00    -0.248 NA
ATOM     32  C   UNL A   1      44.186  26.079  30.013  1.00  0.00     0.031 C 
ATOM     33  C   UNL A   1      43.438  29.197  35.166  1.00  0.00     0.029 A 
ATOM     34  C   UNL A   1      43.231  28.667  33.904  1.00  0.00     0.049 A 
ATOM     35  H   UNL A   1      41.701  29.099  32.515  1.00  0.00     0.167 HD
ATOM     36  C   UNL A   1      43.768  27.224  31.957  1.00  0.00     0.074 A 
ATOM     37  C   UNL A   1      44.599  26.262  31.260  1.00  0.00     0.031 C 
ATOM     38  C   UNL A   1      44.022  27.686  33.207  1.00  0.00     0.034 A 
BRANCH  25  39
ATOM     39  C   UNL A   1      39.960  31.863  35.276  1.00  0.00     0.023 A 
ATOM     40  C   UNL A   1      40.390  33.206  35.288  1.00  0.00     0.012 A 
ATOM     41  C   UNL A   1      39.069  31.417  36.272  1.00  0.00     0.148 A 
ATOM     42  C   UNL A   1      39.957  34.083  36.283  1.00  0.00     0.002 A 
ATOM     43  C   UNL A   1      38.612  32.306  37.239  1.00  0.00     0.091 A 
ATOM     44  F   UNL A   1      38.685  30.132  36.256  1.00  0.00    -0.205 F 
ATOM     45  C   UNL A   1      39.062  33.637  37.250  1.00  0.00     0.022 A 
BRANCH  43  46
ATOM     46  S   UNL A   1      37.402  31.851  38.488  1.00  0.00     0.127 S 
ATOM     47  O   UNL A   1      38.162  32.052  39.721  1.00  0.00    -0.237 OA
ATOM     48  O   UNL A   1      36.341  32.833  38.259  1.00  0.00    -0.237 OA
ATOM     49  O   UNL A   1      37.027  30.474  38.201  1.00  0.00    -0.744 OA
ENDBRANCH  43  46
ENDBRANCH  25  39
BRANCH  26  50
ATOM     50  C   UNL A   1      42.570  26.046  27.550  1.00  0.00     0.023 A 
ATOM     51  C   UNL A   1      43.463  26.552  26.587  1.00  0.00     0.012 A 
ATOM     52  C   UNL A   1      42.113  24.719  27.431  1.00  0.00     0.148 A 
ATOM     53  C   UNL A   1      43.875  25.758  25.515  1.00  0.00     0.002 A 
ATOM     54  C   UNL A   1      42.581  23.913  26.401  1.00  0.00     0.091 A 
ATOM     55  F   UNL A   1      41.244  24.258  28.344  1.00  0.00    -0.205 F 
ATOM     56  C   UNL A   1      43.447  24.435  25.430  1.00  0.00     0.022 A 
BRANCH  54  57
ATOM     57  S   UNL A   1      42.204  22.158  26.337  1.00  0.00     0.127 S 
ATOM     58  O   UNL A   1      40.760  22.166  26.123  1.00  0.00    -0.237 OA
ATOM     59  O   UNL A   1      42.996  21.710  25.191  1.00  0.00    -0.237 OA
ATOM     60  O   UNL A   1      42.662  21.625  27.615  1.00  0.00    -0.744 OA
ENDBRANCH  54  57
ENDBRANCH  26  50
BRANCH  38  61
ATOM     61  C   UNL A   1      45.251  27.150  33.891  1.00  0.00     0.023 A 
ATOM     62  C   UNL A   1      46.476  27.832  33.745  1.00  0.00     0.012 A 
ATOM     63  C   UNL A   1      45.190  25.999  34.698  1.00  0.00     0.148 A 
ATOM     64  C   UNL A   1      47.632  27.350  34.357  1.00  0.00     0.002 A 
ATOM     65  C   UNL A   1      46.337  25.550  35.341  1.00  0.00     0.091 A 
ATOM     66  F   UNL A   1      44.020  25.352  34.805  1.00  0.00    -0.205 F 
ATOM     67  C   UNL A   1      47.560  26.216  35.162  1.00  0.00     0.022 A 
BRANCH  65  68
ATOM     68  S   UNL A   1      46.315  24.148  36.462  1.00  0.00     0.127 S 
ATOM     69  O   UNL A   1      47.711  24.083  36.889  1.00  0.00    -0.237 OA
ATOM     70  O   UNL A   1      45.380  24.589  37.498  1.00  0.00    -0.237 OA
ATOM     71  O   UNL A   1      45.843  23.018  35.673  1.00  0.00    -0.744 OA
ENDBRANCH  65  68
ENDBRANCH  38  61
ENDBRANCH  12  13
ENDBRANCH   5   7
ENDBRANCH   2   3
ENDBRANCH   1   2
BRANCH   1  72
ATOM     72  C   UNL A   1      31.519  27.779  26.211  1.00  0.00     0.023 C 
BRANCH  72  73
ATOM     73  C   UNL A   1      30.798  26.474  25.864  1.00  0.00     0.116 C 
BRANCH  73  74
ATOM     74  N   UNL A   1      31.269  25.330  26.614  1.00  0.00    -0.356 N 
ATOM     75  C   UNL A   1      31.889  24.183  26.195  1.00  0.00     0.226 C 
ATOM     76  H   UNL A   1      31.117  25.383  27.585  1.00  0.00     0.163 HD
ATOM     77  O   UNL A   1      32.302  23.384  27.034  1.00  0.00    -0.274 OA
BRANCH  75  78
ATOM     78  C   UNL A   1      32.155  23.948  24.728  1.00  0.00     0.056 C 
ATOM     79  C   UNL A   1      31.794  22.559  24.199  1.00  0.00     0.018 C 
ATOM     80  C   UNL A   1      30.930  23.723  23.837  1.00  0.00     0.018 C 
BRANCH  78  81
ATOM     81  C   UNL A   1      33.315  24.675  24.050  1.00  0.00     0.084 C 
BRANCH  81  82
ATOM     82  C   UNL A   1      34.643  23.967  24.001  1.00  0.00     0.094 A 
ATOM     83  N   UNL A   1      35.147  23.367  22.946  1.00  0.00    -0.250 NA
ATOM     84  S   UNL A   1      35.684  24.013  25.377  1.00  0.00    -0.127 S 
ATOM     85  C   UNL A   1      36.437  22.953  23.201  1.00  0.00     0.123 A 
ATOM     86  C   UNL A   1      36.905  23.227  24.466  1.00  0.00     0.087 A 
ENDBRANCH  81  82
ENDBRANCH  78  81
ENDBRANCH  75  78
ENDBRANCH  73  74
ENDBRANCH  72  73
ENDBRANCH   1  72
TORSDOF 16
ENDMDL
MODEL 2
REMARK VINA RESULT:     -10.6      3.483      6.049
REMARK SMILES O=C(NCCCCNC(=O)C1(Cc2nccs2)CC1)c1ccc(-c2c3nc(c(-c4cccc(S(=O)(=O)[O-])c4F)c4ccc([nH]4)c(-c4cccc(S(=O)(=O)[O-])c4F)c4nc(c(-c5cccc(S(=O)(=O)[O-])c5F)c5ccc2[nH]5)C=C4)C=C3)cc1
REMARK SMILES IDX 5 1 4 2 3 3 1 4 2 5 20 7 21 8 82 9 22 10 81 11 23 12 24 13
REMARK SMILES IDX 25 14 75 15 26 16 80 17 74 18 76 19 27 20 79 21 73 22 72 23
REMARK SMILES IDX 28 25 60 26 40 27 59 28 41 29 44 30 58 31 77 32 42 33 43 34
REMARK SMILES IDX 57 36 78 37 45 38 29 39 30 40 38 41 31 42 33 43 39 44 32 45
REMARK SMILES IDX 34 46 35 47 36 48 37 49 61 50 62 51 70 52 63 53 65 54 71 55
REMARK SMILES IDX 64 56 66 57 67 58 68 59 69 60 46 61 47 62 55 63 48 64 50 65
REMARK SMILES IDX 56 66 49 67 51 68 52 69 53 70 54 71 6 72 7 73 8 74 9 75
REMARK SMILES IDX 10 77 11 78 18 79 19 80 12 81 13 82 14 83 17 84 15 85 16 86
REMARK H PARENT 3 6 76 24 44 35 8 76
REMARK Flexibility Score: inf
ROOT
ATOM      1  C   UNL A   1      35.258  33.695  28.365  1.00  0.00     0.023 C 
ENDROOT
BRANCH   1   2
ATOM      2  C   UNL A   1      34.590  32.600  29.176  1.00  0.00     0.116 C 
BRANCH   2   3
ATOM      3  N   UNL A   1      33.870  31.635  28.355  1.00  0.00    -0.352 N 
ATOM      4  O   UNL A   1      33.629  29.815  27.041  1.00  0.00    -0.269 OA
ATOM      5  C   UNL A   1      34.333  30.457  27.814  1.00  0.00     0.251 C 
ATOM      6  H   UNL A   1      32.930  31.854  28.161  1.00  0.00     0.163 HD
BRANCH   5   7
ATOM      7  C   UNL A   1      35.700  30.004  28.151  1.00  0.00     0.039 A 
ATOM      8  C   UNL A   1      35.936  29.361  29.366  1.00  0.00     0.014 A 
ATOM      9  C   UNL A   1      36.756  30.273  27.277  1.00  0.00     0.014 A 
ATOM     10  C   UNL A   1      37.240  29.154  29.786  1.00  0.00     0.010 A 
ATOM     11  C   UNL A   1      38.065  29.953  27.656  1.00  0.00     0.010 A 
ATOM     12  C   UNL A   1      38.321  29.423  28.930  1.00  0.00    -0.014 A 
BRANCH  12  13
ATOM     13  C   UNL A   1      39.684  29.046  29.383  1.00  0.00     0.031 A 
ATOM     14  C   UNL A   1      40.365  29.742  30.528  1.00  0.00     0.074 A 
ATOM     15  C   UNL A   1      40.280  28.005  28.766  1.00  0.00     0.049 A 
ATOM     16  N   UNL A   1      41.513  29.459  31.087  1.00  0.00    -0.248 NA
ATOM     17  C   UNL A   1      39.685  30.908  31.116  1.00  0.00     0.031 C 
ATOM     18  C   UNL A   1      39.734  27.296  27.605  1.00  0.00     0.029 A 
ATOM     19  N   UNL A   1      41.451  27.347  29.034  1.00  0.00    -0.354 N 
ATOM     20  C   UNL A   1      41.712  30.423  32.069  1.00  0.00     0.074 A 
ATOM     21  C   UNL A   1      40.569  31.310  32.021  1.00  0.00     0.031 C 
ATOM     22  C   UNL A   1      40.536  26.269  27.297  1.00  0.00     0.029 A 
ATOM     23  C   UNL A   1      41.685  26.284  28.193  1.00  0.00     0.049 A 
ATOM     24  H   UNL A   1      42.064  27.608  29.758  1.00  0.00     0.167 HD
ATOM     25  C   UNL A   1      42.745  30.544  32.937  1.00  0.00     0.034 A 
ATOM     26  C   UNL A   1      42.714  25.420  28.138  1.00  0.00     0.034 A 
ATOM     27  C   UNL A   1      43.862  29.637  32.995  1.00  0.00     0.049 A 
ATOM     28  C   UNL A   1      43.812  25.546  29.151  1.00  0.00     0.074 A 
ATOM     29  C   UNL A   1      44.944  29.657  33.858  1.00  0.00     0.029 A 
ATOM     30  N   UNL A   1      44.041  28.543  32.160  1.00  0.00    -0.354 N 
ATOM     31  N   UNL A   1      43.926  26.404  30.136  1.00  0.00    -0.248 NA
ATOM     32  C   UNL A   1      44.907  24.574  29.064  1.00  0.00     0.031 C 
ATOM     33  C   UNL A   1      45.781  28.580  33.539  1.00  0.00     0.029 A 
ATOM     34  C   UNL A   1      45.212  27.880  32.489  1.00  0.00     0.049 A 
ATOM     35  H   UNL A   1      43.425  28.277  31.439  1.00  0.00     0.167 HD
ATOM     36  C   UNL A   1      45.104  26.073  30.790  1.00  0.00     0.074 A 
ATOM     37  C   UNL A   1      45.639  24.905  30.120  1.00  0.00     0.031 C 
ATOM     38  C   UNL A   1      45.708  26.698  31.831  1.00  0.00     0.034 A 
BRANCH  25  39
ATOM     39  C   UNL A   1      42.700  31.673  33.937  1.00  0.00     0.023 A 
ATOM     40  C   UNL A   1      43.200  32.940  33.571  1.00  0.00     0.012 A 
ATOM     41  C   UNL A   1      42.091  31.511  35.198  1.00  0.00     0.148 A 
ATOM     42  C   UNL A   1      43.114  34.020  34.450  1.00  0.00     0.002 A 
ATOM     43  C   UNL A   1      41.975  32.601  36.054  1.00  0.00     0.091 A 
ATOM     44  F   UNL A   1      41.638  30.295  35.536  1.00  0.00    -0.205 F 
ATOM     45  C   UNL A   1      42.493  33.854  35.684  1.00  0.00     0.022 A 
BRANCH  43  46
ATOM     46  S   UNL A   1      41.129  32.511  37.637  1.00  0.00     0.127 S 
ATOM     47  O   UNL A   1      41.992  31.592  38.379  1.00  0.00    -0.237 OA
ATOM     48  O   UNL A   1      41.183  33.900  38.094  1.00  0.00    -0.237 OA
ATOM     49  O   UNL A   1      39.790  32.017  37.349  1.00  0.00    -0.744 OA
ENDBRANCH  43  46
ENDBRANCH  25  39
BRANCH  26  50
ATOM     50  C   UNL A   1      42.721  24.349  27.102  1.00  0.00     0.023 A 
ATOM     51  C   UNL A   1      43.462  24.523  25.918  1.00  0.00     0.012 A 
ATOM     52  C   UNL A   1      42.049  23.131  27.318  1.00  0.00     0.148 A 
ATOM     53  C   UNL A   1      43.513  23.511  24.958  1.00  0.00     0.002 A 
ATOM     54  C   UNL A   1      42.160  22.102  26.391  1.00  0.00     0.091 A 
ATOM     55  F   UNL A   1      41.329  22.989  28.441  1.00  0.00    -0.205 F 
ATOM     56  C   UNL A   1      42.876  22.296  25.201  1.00  0.00     0.022 A 
BRANCH  54  57
ATOM     57  S   UNL A   1      41.511  20.461  26.726  1.00  0.00     0.127 S 
ATOM     58  O   UNL A   1      41.776  19.770  25.469  1.00  0.00    -0.237 OA
ATOM     59  O   UNL A   1      42.334  20.026  27.856  1.00  0.00    -0.237 OA
ATOM     60  O   UNL A   1      40.108  20.671  27.064  1.00  0.00    -0.744 OA
ENDBRANCH  54  57
ENDBRANCH  26  50
BRANCH  38  61
ATOM     61  C   UNL A   1      47.017  26.123  32.300  1.00  0.00     0.023 A 
ATOM     62  C   UNL A   1      48.220  26.589  31.732  1.00  0.00     0.012 A 
ATOM     63  C   UNL A   1      47.061  25.150  33.316  1.00  0.00     0.148 A 
ATOM     64  C   UNL A   1      49.446  26.064  32.139  1.00  0.00     0.002 A 
ATOM     65  C   UNL A   1      48.290  24.664  33.748  1.00  0.00     0.091 A 
ATOM     66  F   UNL A   1      45.905  24.703  33.827  1.00  0.00    -0.205 F 
ATOM     67  C   UNL A   1      49.481  25.109  33.152  1.00  0.00     0.022 A 
BRANCH  65  68
ATOM     68  S   UNL A   1      48.429  23.496  35.104  1.00  0.00     0.127 S 
ATOM     69  O   UNL A   1      47.932  24.284  36.230  1.00  0.00    -0.237 OA
ATOM     70  O   UNL A   1      47.541  22.413  34.679  1.00  0.00    -0.237 OA
ATOM     71  O   UNL A   1      49.836  23.126  35.165  1.00  0.00    -0.744 OA
ENDBRANCH  65  68
ENDBRANCH  38  61
ENDBRANCH  12  13
ENDBRANCH   5   7
ENDBRANCH   2   3
ENDBRANCH   1   2
BRANCH   1  72
ATOM     72  C   UNL A   1      36.740  33.890  28.675  1.00  0.00     0.023 C 
BRANCH  72  73
ATOM     73  C   UNL A   1      37.233  33.256  29.977  1.00  0.00     0.116 C 
BRANCH  73  74
ATOM     74  N   UNL A   1      37.486  34.212  31.033  1.00  0.00    -0.356 N 
ATOM     75  C   UNL A   1      37.036  34.253  32.326  1.00  0.00     0.226 C 
ATOM     76  H   UNL A   1      38.079  34.957  30.780  1.00  0.00     0.163 HD
ATOM     77  O   UNL A   1      37.475  35.114  33.086  1.00  0.00    -0.274 OA
BRANCH  75  78
ATOM     78  C   UNL A   1      36.092  33.195  32.843  1.00  0.00     0.056 C 
ATOM     79  C   UNL A   1      36.319  31.780  32.309  1.00  0.00     0.018 C 
ATOM     80  C   UNL A   1      36.705  32.098  33.718  1.00  0.00     0.018 C 
BRANCH  78  81
ATOM     81  C   UNL A   1      34.661  33.583  33.211  1.00  0.00     0.084 C 
BRANCH  81  82
ATOM     82  C   UNL A   1      34.061  34.769  32.504  1.00  0.00     0.094 A 
ATOM     83  N   UNL A   1      33.422  34.729  31.356  1.00  0.00    -0.250 NA
ATOM     84  S   UNL A   1      34.082  36.317  33.270  1.00  0.00    -0.127 S 
ATOM     85  C   UNL A   1      32.875  35.960  31.069  1.00  0.00     0.123 A 
ATOM     86  C   UNL A   1      33.118  36.945  31.999  1.00  0.00     0.087 A 
ENDBRANCH  81  82
ENDBRANCH  78  81
ENDBRANCH  75  78
ENDBRANCH  73  74
ENDBRANCH  72  73
ENDBRANCH   1  72
TORSDOF 16
ENDMDL
MODEL 3
REMARK VINA RESULT:     -10.4      5.412     10.287
REMARK SMILES O=C(NCCCCNC(=O)C1(Cc2nccs2)CC1)c1ccc(-c2c3nc(c(-c4cccc(S(=O)(=O)[O-])c4F)c4ccc([nH]4)c(-c4cccc(S(=O)(=O)[O-])c4F)c4nc(c(-c5cccc(S(=O)(=O)[O-])c5F)c5ccc2[nH]5)C=C4)C=C3)cc1
REMARK SMILES IDX 5 1 4 2 3 3 1 4 2 5 20 7 21 8 82 9 22 10 81 11 23 12 24 13
REMARK SMILES IDX 25 14 75 15 26 16 80 17 74 18 76 19 27 20 79 21 73 22 72 23
REMARK SMILES IDX 28 25 60 26 40 27 59 28 41 29 44 30 58 31 77 32 42 33 43 34
REMARK SMILES IDX 57 36 78 37 45 38 29 39 30 40 38 41 31 42 33 43 39 44 32 45
REMARK SMILES IDX 34 46 35 47 36 48 37 49 61 50 62 51 70 52 63 53 65 54 71 55
REMARK SMILES IDX 64 56 66 57 67 58 68 59 69 60 46 61 47 62 55 63 48 64 50 65
REMARK SMILES IDX 56 66 49 67 51 68 52 69 53 70 54 71 6 72 7 73 8 74 9 75
REMARK SMILES IDX 10 77 11 78 18 79 19 80 12 81 13 82 14 83 17 84 15 85 16 86
REMARK H PARENT 3 6 76 24 44 35 8 76
REMARK Flexibility Score: inf
ROOT
ATOM      1  C   UNL A   1      34.850  22.807  25.270  1.00  0.00     0.023 C 
ENDROOT
BRANCH   1   2
ATOM      2  C   UNL A   1      35.899  22.426  26.299  1.00  0.00     0.116 C 
BRANCH   2   3
ATOM      3  N   UNL A   1      36.812  21.392  25.831  1.00  0.00    -0.352 N 
ATOM      4  O   UNL A   1      38.807  20.509  25.246  1.00  0.00    -0.269 OA
ATOM      5  C   UNL A   1      38.188  21.422  25.785  1.00  0.00     0.251 C 
ATOM      6  H   UNL A   1      36.391  20.564  25.504  1.00  0.00     0.163 HD
BRANCH   5   7
ATOM      7  C   UNL A   1      38.898  22.585  26.359  1.00  0.00     0.039 A 
ATOM      8  C   UNL A   1      38.523  23.877  25.990  1.00  0.00     0.014 A 
ATOM      9  C   UNL A   1      39.976  22.383  27.224  1.00  0.00     0.014 A 
ATOM     10  C   UNL A   1      39.332  24.947  26.335  1.00  0.00     0.010 A 
ATOM     11  C   UNL A   1      40.723  23.481  27.666  1.00  0.00     0.010 A 
ATOM     12  C   UNL A   1      40.428  24.769  27.196  1.00  0.00    -0.014 A 
BRANCH  12  13
ATOM     13  C   UNL A   1      41.170  25.976  27.643  1.00  0.00     0.031 A 
ATOM     14  C   UNL A   1      42.582  26.251  27.206  1.00  0.00     0.074 A 
ATOM     15  C   UNL A   1      40.511  26.863  28.416  1.00  0.00     0.049 A 
ATOM     16  N   UNL A   1      43.318  27.305  27.445  1.00  0.00    -0.248 NA
ATOM     17  C   UNL A   1      43.263  25.214  26.414  1.00  0.00     0.031 C 
ATOM     18  C   UNL A   1      39.158  26.667  28.945  1.00  0.00     0.029 A 
ATOM     19  N   UNL A   1      40.866  28.105  28.870  1.00  0.00    -0.354 N 
ATOM     20  C   UNL A   1      44.555  27.051  26.864  1.00  0.00     0.074 A 
ATOM     21  C   UNL A   1      44.475  25.734  26.270  1.00  0.00     0.031 C 
ATOM     22  C   UNL A   1      38.776  27.770  29.601  1.00  0.00     0.029 A 
ATOM     23  C   UNL A   1      39.877  28.724  29.597  1.00  0.00     0.049 A 
ATOM     24  H   UNL A   1      41.744  28.514  28.692  1.00  0.00     0.167 HD
ATOM     25  C   UNL A   1      45.648  27.852  26.819  1.00  0.00     0.034 A 
ATOM     26  C   UNL A   1      39.856  29.924  30.205  1.00  0.00     0.034 A 
ATOM     27  C   UNL A   1      45.704  29.174  27.387  1.00  0.00     0.049 A 
ATOM     28  C   UNL A   1      41.060  30.809  30.085  1.00  0.00     0.074 A 
ATOM     29  C   UNL A   1      46.754  30.076  27.369  1.00  0.00     0.029 A 
ATOM     30  N   UNL A   1      44.666  29.789  28.074  1.00  0.00    -0.354 N 
ATOM     31  N   UNL A   1      42.182  30.589  29.442  1.00  0.00    -0.248 NA
ATOM     32  C   UNL A   1      40.990  32.116  30.750  1.00  0.00     0.031 C 
ATOM     33  C   UNL A   1      46.355  31.231  28.051  1.00  0.00     0.029 A 
ATOM     34  C   UNL A   1      45.050  31.057  28.480  1.00  0.00     0.049 A 
ATOM     35  H   UNL A   1      43.786  29.382  28.247  1.00  0.00     0.167 HD
ATOM     36  C   UNL A   1      42.950  31.731  29.620  1.00  0.00     0.074 A 
ATOM     37  C   UNL A   1      42.145  32.659  30.389  1.00  0.00     0.031 C 
ATOM     38  C   UNL A   1      44.220  31.977  29.214  1.00  0.00     0.034 A 
BRANCH  25  39
ATOM     39  C   UNL A   1      46.865  27.346  26.087  1.00  0.00     0.023 A 
ATOM     40  C   UNL A   1      47.699  26.395  26.709  1.00  0.00     0.012 A 
ATOM     41  C   UNL A   1      47.139  27.739  24.761  1.00  0.00     0.148 A 
ATOM     42  C   UNL A   1      48.796  25.859  26.034  1.00  0.00     0.002 A 
ATOM     43  C   UNL A   1      48.212  27.173  24.081  1.00  0.00     0.091 A 
ATOM     44  F   UNL A   1      46.346  28.658  24.191  1.00  0.00    -0.205 F 
ATOM     45  C   UNL A   1      49.046  26.239  24.719  1.00  0.00     0.022 A 
BRANCH  43  46
ATOM     46  S   UNL A   1      48.578  27.541  22.360  1.00  0.00     0.127 S 
ATOM     47  O   UNL A   1      49.805  28.325  22.481  1.00  0.00    -0.237 OA
ATOM     48  O   UNL A   1      48.762  26.204  21.793  1.00  0.00    -0.237 OA
ATOM     49  O   UNL A   1      47.421  28.263  21.849  1.00  0.00    -0.744 OA
ENDBRANCH  43  46
ENDBRANCH  25  39
BRANCH  26  50
ATOM     50  C   UNL A   1      38.638  30.353  30.946  1.00  0.00     0.023 A 
ATOM     51  C   UNL A   1      38.556  30.152  32.337  1.00  0.00     0.012 A 
ATOM     52  C   UNL A   1      37.588  31.020  30.287  1.00  0.00     0.148 A 
ATOM     53  C   UNL A   1      37.439  30.587  33.052  1.00  0.00     0.002 A 
ATOM     54  C   UNL A   1      36.512  31.512  31.015  1.00  0.00     0.091 A 
ATOM     55  F   UNL A   1      37.670  31.184  28.958  1.00  0.00    -0.205 F 
ATOM     56  C   UNL A   1      36.425  31.281  32.395  1.00  0.00     0.022 A 
BRANCH  54  57
ATOM     57  S   UNL A   1      35.266  32.560  30.256  1.00  0.00     0.127 S 
ATOM     58  O   UNL A   1      34.302  32.717  31.341  1.00  0.00    -0.237 OA
ATOM     59  O   UNL A   1      36.030  33.765  29.929  1.00  0.00    -0.237 OA
ATOM     60  O   UNL A   1      34.806  31.818  29.088  1.00  0.00    -0.744 OA
ENDBRANCH  54  57
ENDBRANCH  26  50
BRANCH  38  61
ATOM     61  C   UNL A   1      44.809  33.308  29.601  1.00  0.00     0.023 A 
ATOM     62  C   UNL A   1      45.547  33.416  30.797  1.00  0.00     0.012 A 
ATOM     63  C   UNL A   1      44.660  34.436  28.774  1.00  0.00     0.148 A 
ATOM     64  C   UNL A   1      46.092  34.638  31.185  1.00  0.00     0.002 A 
ATOM     65  C   UNL A   1      45.244  35.641  29.146  1.00  0.00     0.091 A 
ATOM     66  F   UNL A   1      43.934  34.319  27.652  1.00  0.00    -0.205 F 
ATOM     67  C   UNL A   1      45.948  35.748  30.356  1.00  0.00     0.022 A 
BRANCH  65  68
ATOM     68  S   UNL A   1      45.178  37.096  28.095  1.00  0.00     0.127 S 
ATOM     69  O   UNL A   1      43.995  36.825  27.281  1.00  0.00    -0.237 OA
ATOM     70  O   UNL A   1      45.014  38.178  29.067  1.00  0.00    -0.237 OA
ATOM     71  O   UNL A   1      46.446  37.124  27.378  1.00  0.00    -0.744 OA
ENDBRANCH  65  68
ENDBRANCH  38  61
ENDBRANCH  12  13
ENDBRANCH   5   7
ENDBRANCH   2   3
ENDBRANCH   1   2
BRANCH   1  72
ATOM     72  C   UNL A   1      35.091  24.157  24.598  1.00  0.00     0.023 C 
BRANCH  72  73
ATOM     73  C   UNL A   1      34.390  25.353  25.245  1.00  0.00     0.116 C 
BRANCH  73  74
ATOM     74  N   UNL A   1      33.202  24.999  25.992  1.00  0.00    -0.356 N 
ATOM     75  C   UNL A   1      32.149  25.770  26.409  1.00  0.00     0.226 C 
ATOM     76  H   UNL A   1      33.140  24.049  26.241  1.00  0.00     0.163 HD
ATOM     77  O   UNL A   1      31.184  25.227  26.943  1.00  0.00    -0.274 OA
BRANCH  75  78
ATOM     78  C   UNL A   1      32.126  27.253  26.128  1.00  0.00     0.056 C 
ATOM     79  C   UNL A   1      31.460  28.123  27.195  1.00  0.00     0.018 C 
ATOM     80  C   UNL A   1      32.949  28.141  27.068  1.00  0.00     0.018 C 
BRANCH  78  81
ATOM     81  C   UNL A   1      32.057  27.741  24.683  1.00  0.00     0.084 C 
BRANCH  81  82
ATOM     82  C   UNL A   1      30.694  27.837  24.049  1.00  0.00     0.094 A 
ATOM     83  N   UNL A   1      29.823  26.856  23.963  1.00  0.00    -0.250 NA
ATOM     84  S   UNL A   1      30.127  29.364  23.476  1.00  0.00    -0.127 S 
ATOM     85  C   UNL A   1      28.627  27.320  23.462  1.00  0.00     0.123 A 
ATOM     86  C   UNL A   1      28.598  28.660  23.151  1.00  0.00     0.087 A 
ENDBRANCH  81  82
ENDBRANCH  78  81
ENDBRANCH  75  78
ENDBRANCH  73  74
ENDBRANCH  72  73
ENDBRANCH   1  72
TORSDOF 16
ENDMDL
