MODEL 1
REMARK VINA RESULT:     -12.1      0.000      0.000
REMARK SMILES CC1(C)CC2=NC(=O)[C@H](C(=O)NCCCCNC(=O)c3ccc(-c4c5nc(c(-c6cccc(S(=O)(=O)[O-])c6F)c6ccc([nH]6)c(-c6cccc(S(=O)(=O)[O-])c6F)c6nc(c(-c7cccc(S(=O)(=O)[O-])c7F)c7ccc4[nH]7)C=C6)C=C5)cc3)C=C2CS1
REMARK SMILES IDX 16 1 15 2 14 3 13 4 12 5 10 6 11 7 9 9 1 10 2 11 3 12 4 13
REMARK SMILES IDX 86 14 5 15 85 16 6 17 84 18 7 19 83 20 8 21 17 22 18 23
REMARK SMILES IDX 19 25 20 26 21 27 82 28 22 29 81 30 23 31 24 32 25 33 75 34
REMARK SMILES IDX 26 35 80 36 74 37 76 38 27 39 79 40 73 41 72 42 28 44 60 45
REMARK SMILES IDX 40 46 59 47 41 48 44 49 58 50 77 51 42 52 43 53 57 55 78 56
REMARK SMILES IDX 45 57 29 58 30 59 38 60 31 61 33 62 39 63 32 64 34 65 35 66
REMARK SMILES IDX 36 67 37 68 61 69 62 70 70 71 63 72 65 73 71 74 64 75 66 76
REMARK SMILES IDX 67 77 68 78 69 79 46 80 47 81 55 82 48 83 50 84 56 85 49 86
REMARK SMILES IDX 51 87 52 88 53 89 54 90
REMARK H PARENT 12 8 17 24 76 43 44 54
REMARK Flexibility Score: inf
ROOT
ATOM      1  C   UNL A   1      33.987  29.252  26.160  1.00  0.00     0.116 C 
ENDROOT
BRANCH   1   2
ATOM      2  C   UNL A   1      32.979  28.195  26.608  1.00  0.00     0.023 C 
BRANCH   2   3
ATOM      3  C   UNL A   1      32.959  26.906  25.777  1.00  0.00     0.023 C 
BRANCH   3   4
ATOM      4  C   UNL A   1      33.284  27.106  24.297  1.00  0.00     0.116 C 
BRANCH   4   5
ATOM      5  N   UNL A   1      32.144  27.628  23.567  1.00  0.00    -0.355 N 
ATOM      6  C   UNL A   1      31.421  27.152  22.525  1.00  0.00     0.236 C 
ATOM      7  O   UNL A   1      30.559  27.927  22.079  1.00  0.00    -0.274 OA
ATOM      8  H   UNL A   1      31.834  28.503  23.895  1.00  0.00     0.163 HD
BRANCH   6   9
ATOM      9  C   UNL A   1      31.497  25.746  21.947  1.00  0.00     0.193 C 
ATOM     10  C   UNL A   1      35.054  21.238  25.340  1.00  0.00     0.023 C 
ATOM     11  C   UNL A   1      34.016  22.334  25.042  1.00  0.00     0.016 C 
ATOM     12  C   UNL A   1      34.065  23.368  26.178  1.00  0.00     0.023 C 
ATOM     13  C   UNL A   1      34.319  22.963  23.682  1.00  0.00     0.074 C 
ATOM     14  S   UNL A   1      32.386  21.510  24.944  1.00  0.00    -0.150 SA
ATOM     15  C   UNL A   1      33.241  23.822  23.027  1.00  0.00     0.049 C 
ATOM     16  C   UNL A   1      31.359  22.958  24.656  1.00  0.00     0.107 C 
ATOM     17  N   UNL A   1      33.636  24.471  21.976  1.00  0.00    -0.217 NA
ATOM     18  C   UNL A   1      31.856  23.853  23.569  1.00  0.00    -0.019 C 
ATOM     19  C   UNL A   1      32.768  25.286  21.278  1.00  0.00     0.262 C 
ATOM     20  C   UNL A   1      31.060  24.784  23.022  1.00  0.00     0.002 C 
ATOM     21  O   UNL A   1      33.047  25.678  20.147  1.00  0.00    -0.271 OA
ENDBRANCH   6   9
ENDBRANCH   4   5
ENDBRANCH   3   4
ENDBRANCH   2   3
ENDBRANCH   1   2
BRANCH   1  22
ATOM     22  N   UNL A   1      33.837  30.525  26.851  1.00  0.00    -0.352 N 
ATOM     23  C   UNL A   1      34.633  31.065  27.832  1.00  0.00     0.251 C 
ATOM     24  H   UNL A   1      33.063  31.070  26.579  1.00  0.00     0.163 HD
ATOM     25  O   UNL A   1      34.310  32.116  28.380  1.00  0.00    -0.269 OA
BRANCH  23  26
ATOM     26  C   UNL A   1      35.861  30.357  28.249  1.00  0.00     0.039 A 
ATOM     27  C   UNL A   1      37.001  30.456  27.446  1.00  0.00     0.014 A 
ATOM     28  C   UNL A   1      35.896  29.624  29.438  1.00  0.00     0.014 A 
ATOM     29  C   UNL A   1      38.198  29.873  27.870  1.00  0.00     0.010 A 
ATOM     30  C   UNL A   1      37.103  29.099  29.888  1.00  0.00     0.010 A 
ATOM     31  C   UNL A   1      38.267  29.218  29.110  1.00  0.00    -0.014 A 
BRANCH  31  32
ATOM     32  C   UNL A   1      39.548  28.678  29.629  1.00  0.00     0.031 A 
ATOM     33  C   UNL A   1      40.285  29.389  30.728  1.00  0.00     0.074 A 
ATOM     34  C   UNL A   1      40.106  27.609  29.028  1.00  0.00     0.049 A 
ATOM     35  N   UNL A   1      41.447  29.107  31.257  1.00  0.00    -0.248 NA
ATOM     36  C   UNL A   1      39.651  30.597  31.279  1.00  0.00     0.031 C 
ATOM     37  C   UNL A   1      39.541  26.895  27.882  1.00  0.00     0.029 A 
ATOM     38  N   UNL A   1      41.293  26.962  29.271  1.00  0.00    -0.354 N 
ATOM     39  C   UNL A   1      41.703  30.120  32.173  1.00  0.00     0.074 A 
ATOM     40  C   UNL A   1      40.589  31.041  32.102  1.00  0.00     0.031 C 
ATOM     41  C   UNL A   1      40.387  25.921  27.511  1.00  0.00     0.029 A 
ATOM     42  C   UNL A   1      41.560  25.951  28.379  1.00  0.00     0.049 A 
ATOM     43  H   UNL A   1      41.894  27.201  30.013  1.00  0.00     0.167 HD
ATOM     44  C   UNL A   1      42.752  30.256  33.018  1.00  0.00     0.034 A 
ATOM     45  C   UNL A   1      42.633  25.144  28.264  1.00  0.00     0.034 A 
ATOM     46  C   UNL A   1      43.830  29.311  33.123  1.00  0.00     0.049 A 
ATOM     47  C   UNL A   1      43.749  25.262  29.264  1.00  0.00     0.074 A 
ATOM     48  C   UNL A   1      44.876  29.292  34.029  1.00  0.00     0.029 A 
ATOM     49  N   UNL A   1      44.009  28.220  32.284  1.00  0.00    -0.354 N 
ATOM     50  N   UNL A   1      43.880  26.110  30.254  1.00  0.00    -0.248 NA
ATOM     51  C   UNL A   1      44.844  24.287  29.160  1.00  0.00     0.031 C 
ATOM     52  C   UNL A   1      45.695  28.197  33.729  1.00  0.00     0.029 A 
ATOM     53  C   UNL A   1      45.151  27.527  32.644  1.00  0.00     0.049 A 
ATOM     54  H   UNL A   1      43.410  27.974  31.542  1.00  0.00     0.167 HD
ATOM     55  C   UNL A   1      45.056  25.759  30.907  1.00  0.00     0.074 A 
ATOM     56  C   UNL A   1      45.587  24.603  30.213  1.00  0.00     0.031 C 
ATOM     57  C   UNL A   1      45.648  26.350  31.975  1.00  0.00     0.034 A 
BRANCH  44  58
ATOM     58  C   UNL A   1      42.746  31.447  33.942  1.00  0.00     0.023 A 
ATOM     59  C   UNL A   1      43.315  32.663  33.508  1.00  0.00     0.012 A 
ATOM     60  C   UNL A   1      42.164  31.376  35.222  1.00  0.00     0.148 A 
ATOM     61  C   UNL A   1      43.344  33.775  34.347  1.00  0.00     0.002 A 
ATOM     62  C   UNL A   1      42.159  32.503  36.038  1.00  0.00     0.091 A 
ATOM     63  F   UNL A   1      41.652  30.207  35.631  1.00  0.00    -0.205 F 
ATOM     64  C   UNL A   1      42.759  33.698  35.608  1.00  0.00     0.022 A 
BRANCH  62  65
ATOM     65  S   UNL A   1      41.361  32.513  37.648  1.00  0.00     0.127 S 
ATOM     66  O   UNL A   1      41.463  33.922  38.020  1.00  0.00    -0.237 OA
ATOM     67  O   UNL A   1      40.005  32.063  37.328  1.00  0.00    -0.237 OA
ATOM     68  O   UNL A   1      42.123  31.581  38.468  1.00  0.00    -0.744 OA
ENDBRANCH  62  65
ENDBRANCH  44  58
BRANCH  45  69
ATOM     69  C   UNL A   1      42.652  24.107  27.196  1.00  0.00     0.023 A 
ATOM     70  C   UNL A   1      43.365  24.351  26.007  1.00  0.00     0.012 A 
ATOM     71  C   UNL A   1      42.035  22.855  27.385  1.00  0.00     0.148 A 
ATOM     72  C   UNL A   1      43.451  23.372  25.017  1.00  0.00     0.002 A 
ATOM     73  C   UNL A   1      42.169  21.865  26.418  1.00  0.00     0.091 A 
ATOM     74  F   UNL A   1      41.355  22.647  28.521  1.00  0.00    -0.205 F 
ATOM     75  C   UNL A   1      42.865  22.126  25.228  1.00  0.00     0.022 A 
BRANCH  73  76
ATOM     76  S   UNL A   1      41.570  20.188  26.661  1.00  0.00     0.127 S 
ATOM     77  O   UNL A   1      40.131  20.404  26.800  1.00  0.00    -0.237 OA
ATOM     78  O   UNL A   1      41.978  19.540  25.415  1.00  0.00    -0.237 OA
ATOM     79  O   UNL A   1      42.252  19.694  27.849  1.00  0.00    -0.744 OA
ENDBRANCH  73  76
ENDBRANCH  45  69
BRANCH  57  80
ATOM     80  C   UNL A   1      46.939  25.757  32.476  1.00  0.00     0.023 A 
ATOM     81  C   UNL A   1      48.164  26.213  31.952  1.00  0.00     0.012 A 
ATOM     82  C   UNL A   1      46.943  24.812  33.521  1.00  0.00     0.148 A 
ATOM     83  C   UNL A   1      49.372  25.720  32.443  1.00  0.00     0.002 A 
ATOM     84  C   UNL A   1      48.152  24.359  34.035  1.00  0.00     0.091 A 
ATOM     85  F   UNL A   1      45.767  24.374  33.993  1.00  0.00    -0.205 F 
ATOM     86  C   UNL A   1      49.367  24.804  33.491  1.00  0.00     0.022 A 
BRANCH  84  87
ATOM     87  S   UNL A   1      48.239  23.249  35.446  1.00  0.00     0.127 S 
ATOM     88  O   UNL A   1      47.484  23.990  36.456  1.00  0.00    -0.237 OA
ATOM     89  O   UNL A   1      47.569  22.050  34.943  1.00  0.00    -0.237 OA
ATOM     90  O   UNL A   1      49.657  23.072  35.727  1.00  0.00    -0.744 OA
ENDBRANCH  84  87
ENDBRANCH  57  80
ENDBRANCH  31  32
ENDBRANCH  23  26
ENDBRANCH   1  22
TORSDOF 14
ENDMDL
MODEL 2
REMARK VINA RESULT:     -12.0      5.410      8.693
REMARK SMILES CC1(C)CC2=NC(=O)[C@H](C(=O)NCCCCNC(=O)c3ccc(-c4c5nc(c(-c6cccc(S(=O)(=O)[O-])c6F)c6ccc([nH]6)c(-c6cccc(S(=O)(=O)[O-])c6F)c6nc(c(-c7cccc(S(=O)(=O)[O-])c7F)c7ccc4[nH]7)C=C6)C=C5)cc3)C=C2CS1
REMARK SMILES IDX 16 1 15 2 14 3 13 4 12 5 10 6 11 7 9 9 1 10 2 11 3 12 4 13
REMARK SMILES IDX 86 14 5 15 85 16 6 17 84 18 7 19 83 20 8 21 17 22 18 23
REMARK SMILES IDX 19 25 20 26 21 27 82 28 22 29 81 30 23 31 24 32 25 33 75 34
REMARK SMILES IDX 26 35 80 36 74 37 76 38 27 39 79 40 73 41 72 42 28 44 60 45
REMARK SMILES IDX 40 46 59 47 41 48 44 49 58 50 77 51 42 52 43 53 57 55 78 56
REMARK SMILES IDX 45 57 29 58 30 59 38 60 31 61 33 62 39 63 32 64 34 65 35 66
REMARK SMILES IDX 36 67 37 68 61 69 62 70 70 71 63 72 65 73 71 74 64 75 66 76
REMARK SMILES IDX 67 77 68 78 69 79 46 80 47 81 55 82 48 83 50 84 56 85 49 86
REMARK SMILES IDX 51 87 52 88 53 89 54 90
REMARK H PARENT 12 8 17 24 76 43 44 54
REMARK Flexibility Score: inf
ROOT
ATOM      1  C   UNL A   1      39.186  19.873  26.116  1.00  0.00     0.116 C 
ENDROOT
BRANCH   1   2
ATOM      2  C   UNL A   1      38.308  19.690  24.880  1.00  0.00     0.023 C 
BRANCH   2   3
ATOM      3  C   UNL A   1      37.369  20.859  24.556  1.00  0.00     0.023 C 
BRANCH   3   4
ATOM      4  C   UNL A   1      37.411  22.001  25.572  1.00  0.00     0.116 C 
BRANCH   4   5
ATOM      5  N   UNL A   1      36.118  22.202  26.199  1.00  0.00    -0.355 N 
ATOM      6  C   UNL A   1      35.162  23.152  26.056  1.00  0.00     0.236 C 
ATOM      7  O   UNL A   1      34.207  23.067  26.844  1.00  0.00    -0.274 OA
ATOM      8  H   UNL A   1      35.889  21.509  26.861  1.00  0.00     0.163 HD
BRANCH   6   9
ATOM      9  C   UNL A   1      35.109  24.214  24.967  1.00  0.00     0.193 C 
ATOM     10  C   UNL A   1      29.179  26.986  23.688  1.00  0.00     0.023 C 
ATOM     11  C   UNL A   1      30.404  26.493  24.477  1.00  0.00     0.016 C 
ATOM     12  C   UNL A   1      29.909  25.791  25.752  1.00  0.00     0.023 C 
ATOM     13  C   UNL A   1      31.231  25.558  23.595  1.00  0.00     0.074 C 
ATOM     14  S   UNL A   1      31.417  27.966  24.863  1.00  0.00    -0.150 SA
ATOM     15  C   UNL A   1      32.654  25.221  24.034  1.00  0.00     0.049 C 
ATOM     16  C   UNL A   1      32.721  27.167  25.810  1.00  0.00     0.107 C 
ATOM     17  N   UNL A   1      33.221  24.281  23.344  1.00  0.00    -0.217 NA
ATOM     18  C   UNL A   1      33.304  25.961  25.149  1.00  0.00    -0.019 C 
ATOM     19  C   UNL A   1      34.509  23.874  23.626  1.00  0.00     0.262 C 
ATOM     20  C   UNL A   1      34.474  25.446  25.558  1.00  0.00     0.002 C 
ATOM     21  O   UNL A   1      35.144  23.195  22.820  1.00  0.00    -0.271 OA
ENDBRANCH   6   9
ENDBRANCH   4   5
ENDBRANCH   3   4
ENDBRANCH   2   3
ENDBRANCH   1   2
BRANCH   1  22
ATOM     22  N   UNL A   1      40.434  19.126  26.057  1.00  0.00    -0.352 N 
ATOM     23  C   UNL A   1      41.718  19.591  26.212  1.00  0.00     0.251 C 
ATOM     24  H   UNL A   1      40.346  18.161  25.883  1.00  0.00     0.163 HD
ATOM     25  O   UNL A   1      42.672  18.837  26.036  1.00  0.00    -0.269 OA
BRANCH  23  26
ATOM     26  C   UNL A   1      41.945  21.009  26.554  1.00  0.00     0.039 A 
ATOM     27  C   UNL A   1      42.258  21.341  27.875  1.00  0.00     0.014 A 
ATOM     28  C   UNL A   1      41.878  22.003  25.574  1.00  0.00     0.014 A 
ATOM     29  C   UNL A   1      42.570  22.663  28.201  1.00  0.00     0.010 A 
ATOM     30  C   UNL A   1      42.251  23.306  25.887  1.00  0.00     0.010 A 
ATOM     31  C   UNL A   1      42.601  23.650  27.203  1.00  0.00    -0.014 A 
BRANCH  31  32
ATOM     32  C   UNL A   1      43.025  25.041  27.504  1.00  0.00     0.031 A 
ATOM     33  C   UNL A   1      42.057  26.018  28.109  1.00  0.00     0.074 A 
ATOM     34  C   UNL A   1      44.249  25.456  27.122  1.00  0.00     0.049 A 
ATOM     35  N   UNL A   1      42.225  27.287  28.374  1.00  0.00    -0.248 NA
ATOM     36  C   UNL A   1      40.712  25.512  28.423  1.00  0.00     0.031 C 
ATOM     37  C   UNL A   1      45.241  24.633  26.430  1.00  0.00     0.029 A 
ATOM     38  N   UNL A   1      44.850  26.686  27.226  1.00  0.00    -0.354 N 
ATOM     39  C   UNL A   1      41.001  27.742  28.847  1.00  0.00     0.074 A 
ATOM     40  C   UNL A   1      40.089  26.618  28.801  1.00  0.00     0.031 C 
ATOM     41  C   UNL A   1      46.320  25.382  26.157  1.00  0.00     0.029 A 
ATOM     42  C   UNL A   1      46.090  26.742  26.637  1.00  0.00     0.049 A 
ATOM     43  H   UNL A   1      44.432  27.454  27.679  1.00  0.00     0.167 HD
ATOM     44  C   UNL A   1      40.671  28.972  29.308  1.00  0.00     0.034 A 
ATOM     45  C   UNL A   1      46.946  27.773  26.490  1.00  0.00     0.034 A 
ATOM     46  C   UNL A   1      41.594  30.070  29.402  1.00  0.00     0.049 A 
ATOM     47  C   UNL A   1      46.591  29.109  27.080  1.00  0.00     0.074 A 
ATOM     48  C   UNL A   1      41.394  31.318  29.965  1.00  0.00     0.029 A 
ATOM     49  N   UNL A   1      42.890  30.058  28.908  1.00  0.00    -0.354 N 
ATOM     50  N   UNL A   1      45.496  29.469  27.704  1.00  0.00    -0.248 NA
ATOM     51  C   UNL A   1      47.605  30.170  26.987  1.00  0.00     0.031 C 
ATOM     52  C   UNL A   1      42.567  32.065  29.800  1.00  0.00     0.029 A 
ATOM     53  C   UNL A   1      43.500  31.277  29.145  1.00  0.00     0.049 A 
ATOM     54  H   UNL A   1      43.315  29.292  28.457  1.00  0.00     0.167 HD
ATOM     55  C   UNL A   1      45.695  30.786  28.099  1.00  0.00     0.074 A 
ATOM     56  C   UNL A   1      47.027  31.154  27.665  1.00  0.00     0.031 C 
ATOM     57  C   UNL A   1      44.844  31.619  28.749  1.00  0.00     0.034 A 
BRANCH  44  58
ATOM     58  C   UNL A   1      39.262  29.170  29.804  1.00  0.00     0.023 A 
ATOM     59  C   UNL A   1      38.937  28.806  31.128  1.00  0.00     0.012 A 
ATOM     60  C   UNL A   1      38.270  29.733  28.981  1.00  0.00     0.148 A 
ATOM     61  C   UNL A   1      37.637  28.957  31.609  1.00  0.00     0.002 A 
ATOM     62  C   UNL A   1      36.985  29.921  29.482  1.00  0.00     0.091 A 
ATOM     63  F   UNL A   1      38.586  30.049  27.717  1.00  0.00    -0.205 F 
ATOM     64  C   UNL A   1      36.664  29.522  30.789  1.00  0.00     0.022 A 
BRANCH  62  65
ATOM     65  S   UNL A   1      35.690  30.709  28.518  1.00  0.00     0.127 S 
ATOM     66  O   UNL A   1      34.829  31.252  29.567  1.00  0.00    -0.237 OA
ATOM     67  O   UNL A   1      36.433  31.716  27.759  1.00  0.00    -0.237 OA
ATOM     68  O   UNL A   1      35.109  29.652  27.703  1.00  0.00    -0.744 OA
ENDBRANCH  62  65
ENDBRANCH  44  58
BRANCH  45  69
ATOM     69  C   UNL A   1      48.251  27.543  25.812  1.00  0.00     0.023 A 
ATOM     70  C   UNL A   1      49.370  27.160  26.576  1.00  0.00     0.012 A 
ATOM     71  C   UNL A   1      48.370  27.625  24.411  1.00  0.00     0.148 A 
ATOM     72  C   UNL A   1      50.588  26.877  25.959  1.00  0.00     0.002 A 
ATOM     73  C   UNL A   1      49.572  27.290  23.797  1.00  0.00     0.091 A 
ATOM     74  F   UNL A   1      47.294  27.999  23.704  1.00  0.00    -0.205 F 
ATOM     75  C   UNL A   1      50.686  26.929  24.571  1.00  0.00     0.022 A 
BRANCH  73  76
ATOM     76  S   UNL A   1      49.752  27.193  22.012  1.00  0.00     0.127 S 
ATOM     77  O   UNL A   1      49.571  28.589  21.618  1.00  0.00    -0.237 OA
ATOM     78  O   UNL A   1      51.118  26.686  21.875  1.00  0.00    -0.237 OA
ATOM     79  O   UNL A   1      48.719  26.270  21.561  1.00  0.00    -0.744 OA
ENDBRANCH  73  76
ENDBRANCH  45  69
BRANCH  57  80
ATOM     80  C   UNL A   1      45.323  33.016  29.047  1.00  0.00     0.023 A 
ATOM     81  C   UNL A   1      46.048  33.266  30.228  1.00  0.00     0.012 A 
ATOM     82  C   UNL A   1      45.130  34.060  28.120  1.00  0.00     0.148 A 
ATOM     83  C   UNL A   1      46.552  34.538  30.495  1.00  0.00     0.002 A 
ATOM     84  C   UNL A   1      45.673  35.313  28.372  1.00  0.00     0.091 A 
ATOM     85  F   UNL A   1      44.419  33.808  27.011  1.00  0.00    -0.205 F 
ATOM     86  C   UNL A   1      46.376  35.557  29.562  1.00  0.00     0.022 A 
BRANCH  84  87
ATOM     87  S   UNL A   1      45.574  36.658  27.184  1.00  0.00     0.127 S 
ATOM     88  O   UNL A   1      46.268  37.733  27.891  1.00  0.00    -0.237 OA
ATOM     89  O   UNL A   1      46.301  36.115  26.035  1.00  0.00    -0.237 OA
ATOM     90  O   UNL A   1      44.153  36.876  26.946  1.00  0.00    -0.744 OA
ENDBRANCH  84  87
ENDBRANCH  57  80
ENDBRANCH  31  32
ENDBRANCH  23  26
ENDBRANCH   1  22
TORSDOF 14
ENDMDL
MODEL 3
REMARK VINA RESULT:     -12.0      2.200      2.927
REMARK SMILES CC1(C)CC2=NC(=O)[C@H](C(=O)NCCCCNC(=O)c3ccc(-c4c5nc(c(-c6cccc(S(=O)(=O)[O-])c6F)c6ccc([nH]6)c(-c6cccc(S(=O)(=O)[O-])c6F)c6nc(c(-c7cccc(S(=O)(=O)[O-])c7F)c7ccc4[nH]7)C=C6)C=C5)cc3)C=C2CS1
REMARK SMILES IDX 16 1 15 2 14 3 13 4 12 5 10 6 11 7 9 9 1 10 2 11 3 12 4 13
REMARK SMILES IDX 86 14 5 15 85 16 6 17 84 18 7 19 83 20 8 21 17 22 18 23
REMARK SMILES IDX 19 25 20 26 21 27 82 28 22 29 81 30 23 31 24 32 25 33 75 34
REMARK SMILES IDX 26 35 80 36 74 37 76 38 27 39 79 40 73 41 72 42 28 44 60 45
REMARK SMILES IDX 40 46 59 47 41 48 44 49 58 50 77 51 42 52 43 53 57 55 78 56
REMARK SMILES IDX 45 57 29 58 30 59 38 60 31 61 33 62 39 63 32 64 34 65 35 66
REMARK SMILES IDX 36 67 37 68 61 69 62 70 70 71 63 72 65 73 71 74 64 75 66 76
REMARK SMILES IDX 67 77 68 78 69 79 46 80 47 81 55 82 48 83 50 84 56 85 49 86
REMARK SMILES IDX 51 87 52 88 53 89 54 90
REMARK H PARENT 12 8 17 24 76 43 44 54
REMARK Flexibility Score: inf
ROOT
ATOM      1  C   UNL A   1      32.273  29.964  26.480  1.00  0.00     0.116 C 
ENDROOT
BRANCH   1   2
ATOM      2  C   UNL A   1      32.271  29.549  25.010  1.00  0.00     0.023 C 
BRANCH   2   3
ATOM      3  C   UNL A   1      30.895  29.521  24.333  1.00  0.00     0.023 C 
BRANCH   3   4
ATOM      4  C   UNL A   1      30.931  29.161  22.848  1.00  0.00     0.116 C 
BRANCH   4   5
ATOM      5  N   UNL A   1      32.280  28.861  22.406  1.00  0.00    -0.355 N 
ATOM      6  C   UNL A   1      32.920  27.702  22.118  1.00  0.00     0.236 C 
ATOM      7  O   UNL A   1      34.130  27.813  21.862  1.00  0.00    -0.274 OA
ATOM      8  H   UNL A   1      32.844  29.661  22.291  1.00  0.00     0.163 HD
BRANCH   6   9
ATOM      9  C   UNL A   1      32.273  26.332  21.975  1.00  0.00     0.193 C 
ATOM     10  C   UNL A   1      35.004  21.290  25.381  1.00  0.00     0.023 C 
ATOM     11  C   UNL A   1      34.390  22.669  25.084  1.00  0.00     0.016 C 
ATOM     12  C   UNL A   1      35.223  23.736  25.810  1.00  0.00     0.023 C 
ATOM     13  C   UNL A   1      34.361  22.896  23.573  1.00  0.00     0.074 C 
ATOM     14  S   UNL A   1      32.665  22.625  25.692  1.00  0.00    -0.150 SA
ATOM     15  C   UNL A   1      33.494  24.028  23.028  1.00  0.00     0.049 C 
ATOM     16  C   UNL A   1      32.188  24.313  25.299  1.00  0.00     0.107 C 
ATOM     17  N   UNL A   1      33.667  24.279  21.768  1.00  0.00    -0.217 NA
ATOM     18  C   UNL A   1      32.521  24.734  23.905  1.00  0.00    -0.019 C 
ATOM     19  C   UNL A   1      32.948  25.274  21.138  1.00  0.00     0.262 C 
ATOM     20  C   UNL A   1      31.962  25.824  23.359  1.00  0.00     0.002 C 
ATOM     21  O   UNL A   1      32.900  25.335  19.911  1.00  0.00    -0.271 OA
ENDBRANCH   6   9
ENDBRANCH   4   5
ENDBRANCH   3   4
ENDBRANCH   2   3
ENDBRANCH   1   2
BRANCH   1  22
ATOM     22  N   UNL A   1      32.209  31.405  26.676  1.00  0.00    -0.352 N 
ATOM     23  C   UNL A   1      33.096  32.220  27.336  1.00  0.00     0.251 C 
ATOM     24  H   UNL A   1      31.426  31.855  26.283  1.00  0.00     0.163 HD
ATOM     25  O   UNL A   1      32.843  33.412  27.491  1.00  0.00    -0.269 OA
BRANCH  23  26
ATOM     26  C   UNL A   1      34.341  31.648  27.890  1.00  0.00     0.039 A 
ATOM     27  C   UNL A   1      35.440  32.488  28.085  1.00  0.00     0.014 A 
ATOM     28  C   UNL A   1      34.414  30.297  28.241  1.00  0.00     0.014 A 
ATOM     29  C   UNL A   1      36.593  31.989  28.695  1.00  0.00     0.010 A 
ATOM     30  C   UNL A   1      35.539  29.818  28.905  1.00  0.00     0.010 A 
ATOM     31  C   UNL A   1      36.639  30.658  29.140  1.00  0.00    -0.014 A 
BRANCH  31  32
ATOM     32  C   UNL A   1      37.813  30.130  29.878  1.00  0.00     0.031 A 
ATOM     33  C   UNL A   1      38.108  30.600  31.275  1.00  0.00     0.074 A 
ATOM     34  C   UNL A   1      38.680  29.314  29.247  1.00  0.00     0.049 A 
ATOM     35  N   UNL A   1      39.122  30.306  32.046  1.00  0.00    -0.248 NA
ATOM     36  C   UNL A   1      37.159  31.554  31.869  1.00  0.00     0.031 C 
ATOM     37  C   UNL A   1      38.562  28.871  27.857  1.00  0.00     0.029 A 
ATOM     38  N   UNL A   1      39.854  28.747  29.678  1.00  0.00    -0.354 N 
ATOM     39  C   UNL A   1      38.957  31.065  33.197  1.00  0.00     0.074 A 
ATOM     40  C   UNL A   1      37.761  31.859  33.008  1.00  0.00     0.031 C 
ATOM     41  C   UNL A   1      39.626  28.116  27.545  1.00  0.00     0.029 A 
ATOM     42  C   UNL A   1      40.511  28.035  28.704  1.00  0.00     0.049 A 
ATOM     43  H   UNL A   1      40.193  28.843  30.598  1.00  0.00     0.167 HD
ATOM     44  C   UNL A   1      39.711  31.080  34.322  1.00  0.00     0.034 A 
ATOM     45  C   UNL A   1      41.697  27.395  28.733  1.00  0.00     0.034 A 
ATOM     46  C   UNL A   1      40.868  30.251  34.526  1.00  0.00     0.049 A 
ATOM     47  C   UNL A   1      42.477  27.359  30.017  1.00  0.00     0.074 A 
ATOM     48  C   UNL A   1      41.629  30.101  35.671  1.00  0.00     0.029 A 
ATOM     49  N   UNL A   1      41.440  29.439  33.557  1.00  0.00    -0.354 N 
ATOM     50  N   UNL A   1      42.201  27.928  31.165  1.00  0.00    -0.248 NA
ATOM     51  C   UNL A   1      43.710  26.557  30.026  1.00  0.00     0.031 C 
ATOM     52  C   UNL A   1      42.670  29.208  35.391  1.00  0.00     0.029 A 
ATOM     53  C   UNL A   1      42.549  28.792  34.074  1.00  0.00     0.049 A 
ATOM     54  H   UNL A   1      41.105  29.337  32.637  1.00  0.00     0.167 HD
ATOM     55  C   UNL A   1      43.208  27.537  32.039  1.00  0.00     0.074 A 
ATOM     56  C   UNL A   1      44.088  26.660  31.294  1.00  0.00     0.031 C 
ATOM     57  C   UNL A   1      43.393  27.885  33.337  1.00  0.00     0.034 A 
BRANCH  44  58
ATOM     58  C   UNL A   1      39.265  31.983  35.442  1.00  0.00     0.023 A 
ATOM     59  C   UNL A   1      38.321  31.510  36.378  1.00  0.00     0.012 A 
ATOM     60  C   UNL A   1      39.789  33.281  35.588  1.00  0.00     0.148 A 
ATOM     61  C   UNL A   1      37.872  32.329  37.413  1.00  0.00     0.002 A 
ATOM     62  C   UNL A   1      39.368  34.077  36.649  1.00  0.00     0.091 A 
ATOM     63  F   UNL A   1      40.664  33.727  34.676  1.00  0.00    -0.205 F 
ATOM     64  C   UNL A   1      38.402  33.609  37.553  1.00  0.00     0.022 A 
BRANCH  62  65
ATOM     65  S   UNL A   1      40.054  35.711  36.947  1.00  0.00     0.127 S 
ATOM     66  O   UNL A   1      39.624  36.436  35.752  1.00  0.00    -0.237 OA
ATOM     67  O   UNL A   1      39.377  36.116  38.180  1.00  0.00    -0.237 OA
ATOM     68  O   UNL A   1      41.490  35.514  37.088  1.00  0.00    -0.744 OA
ENDBRANCH  62  65
ENDBRANCH  44  58
BRANCH  45  69
ATOM     69  C   UNL A   1      42.167  26.678  27.516  1.00  0.00     0.023 A 
ATOM     70  C   UNL A   1      42.920  27.374  26.551  1.00  0.00     0.012 A 
ATOM     71  C   UNL A   1      41.940  25.299  27.348  1.00  0.00     0.148 A 
ATOM     72  C   UNL A   1      43.426  26.712  25.432  1.00  0.00     0.002 A 
ATOM     73  C   UNL A   1      42.492  24.634  26.259  1.00  0.00     0.091 A 
ATOM     74  F   UNL A   1      41.213  24.658  28.275  1.00  0.00    -0.205 F 
ATOM     75  C   UNL A   1      43.224  25.342  25.293  1.00  0.00     0.022 A 
BRANCH  73  76
ATOM     76  S   UNL A   1      42.402  22.850  26.069  1.00  0.00     0.127 S 
ATOM     77  O   UNL A   1      40.959  22.620  26.084  1.00  0.00    -0.237 OA
ATOM     78  O   UNL A   1      43.044  22.653  24.769  1.00  0.00    -0.237 OA
ATOM     79  O   UNL A   1      43.141  22.295  27.195  1.00  0.00    -0.744 OA
ENDBRANCH  73  76
ENDBRANCH  45  69
BRANCH  57  80
ATOM     80  C   UNL A   1      44.590  27.313  34.051  1.00  0.00     0.023 A 
ATOM     81  C   UNL A   1      45.820  27.998  34.007  1.00  0.00     0.012 A 
ATOM     82  C   UNL A   1      44.476  26.145  34.831  1.00  0.00     0.148 A 
ATOM     83  C   UNL A   1      46.924  27.516  34.709  1.00  0.00     0.002 A 
ATOM     84  C   UNL A   1      45.569  25.697  35.563  1.00  0.00     0.091 A 
ATOM     85  F   UNL A   1      43.303  25.495  34.843  1.00  0.00    -0.205 F 
ATOM     86  C   UNL A   1      46.796  26.375  35.496  1.00  0.00     0.022 A 
BRANCH  84  87
ATOM     87  S   UNL A   1      45.466  24.288  36.675  1.00  0.00     0.127 S 
ATOM     88  O   UNL A   1      46.837  24.202  37.175  1.00  0.00    -0.237 OA
ATOM     89  O   UNL A   1      44.485  24.740  37.662  1.00  0.00    -0.237 OA
ATOM     90  O   UNL A   1      45.023  23.167  35.858  1.00  0.00    -0.744 OA
ENDBRANCH  84  87
ENDBRANCH  57  80
ENDBRANCH  31  32
ENDBRANCH  23  26
ENDBRANCH   1  22
TORSDOF 14
ENDMDL
