MODEL 1
REMARK VINA RESULT:     -10.5      0.000      0.000
REMARK SMILES CCC[C@](C)(CC(F)(F)F)C(=O)NCCCCNC(=O)c1ccc(-c2c3nc(c(-c4cccc(S(=O)(=O)[O-])c4F)c4ccc([nH]4)c(-c4cccc(S(=O)(=O)[O-])c4F)c4nc(c(-c5cccc(S(=O)(=O)[O-])c5F)c5ccc2[nH]5)C=C4)C=C3)cc1
REMARK SMILES IDX 16 1 15 2 14 3 13 4 11 5 12 6 4 8 5 9 3 10 2 11 1 12 6 13
REMARK SMILES IDX 7 14 8 15 9 16 10 17 17 18 18 19 19 20 20 22 21 23 22 24
REMARK SMILES IDX 83 25 23 26 82 27 24 28 25 29 26 30 76 31 27 32 81 33 75 34
REMARK SMILES IDX 77 35 28 36 80 37 74 38 73 39 29 41 61 42 41 43 60 44 42 45
REMARK SMILES IDX 45 46 59 47 78 48 43 49 44 50 58 52 79 53 46 54 30 55 31 56
REMARK SMILES IDX 39 57 32 58 34 59 40 60 33 61 35 62 36 63 37 64 38 65 62 66
REMARK SMILES IDX 63 67 71 68 64 69 66 70 72 71 65 72 67 73 68 74 69 75 70 76
REMARK SMILES IDX 47 77 48 78 56 79 49 80 51 81 57 82 50 83 52 84 53 85 54 86
REMARK SMILES IDX 55 87
REMARK H PARENT 13 7 18 21 77 40 45 51
REMARK Flexibility Score: inf
ROOT
ATOM      1  C   UNL A   1      31.876  28.669  25.350  1.00  0.00     0.023 C 
ENDROOT
BRANCH   1   2
ATOM      2  C   UNL A   1      31.386  27.627  26.357  1.00  0.00     0.023 C 
BRANCH   2   3
ATOM      3  C   UNL A   1      30.664  26.434  25.736  1.00  0.00     0.116 C 
BRANCH   3   4
ATOM      4  N   UNL A   1      30.707  25.268  26.595  1.00  0.00    -0.356 N 
ATOM      5  C   UNL A   1      31.260  24.037  26.449  1.00  0.00     0.226 C 
ATOM      6  O   UNL A   1      31.159  23.270  27.409  1.00  0.00    -0.274 OA
ATOM      7  H   UNL A   1      30.244  25.394  27.455  1.00  0.00     0.163 HD
BRANCH   5   8
ATOM      8  C   UNL A   1      31.975  23.594  25.157  1.00  0.00     0.055 C 
ATOM      9  C   UNL A   1      30.911  23.407  24.041  1.00  0.00     0.022 C 
BRANCH   8  10
ATOM     10  C   UNL A   1      32.737  22.237  25.308  1.00  0.00     0.017 C 
BRANCH  10  11
ATOM     11  C   UNL A   1      33.023  21.397  24.052  1.00  0.00    -0.002 C 
ATOM     12  C   UNL A   1      32.559  19.952  24.100  1.00  0.00     0.004 C 
ENDBRANCH  10  11
ENDBRANCH   8  10
BRANCH   8  13
ATOM     13  C   UNL A   1      32.972  24.690  24.678  1.00  0.00     0.132 C 
BRANCH  13  14
ATOM     14  C   UNL A   1      34.208  24.912  25.535  1.00  0.00     0.390 C 
ATOM     15  F   UNL A   1      34.394  26.205  25.852  1.00  0.00    -0.171 F 
ATOM     16  F   UNL A   1      34.058  24.236  26.703  1.00  0.00    -0.171 F 
ATOM     17  F   UNL A   1      35.327  24.440  24.953  1.00  0.00    -0.171 F 
ENDBRANCH  13  14
ENDBRANCH   8  13
ENDBRANCH   5   8
ENDBRANCH   3   4
ENDBRANCH   2   3
ENDBRANCH   1   2
BRANCH   1  18
ATOM     18  C   UNL A   1      32.989  29.586  25.850  1.00  0.00     0.116 C 
BRANCH  18  19
ATOM     19  N   UNL A   1      32.501  30.875  26.324  1.00  0.00    -0.352 N 
ATOM     20  C   UNL A   1      33.121  31.742  27.193  1.00  0.00     0.251 C 
ATOM     21  H   UNL A   1      31.622  31.160  25.982  1.00  0.00     0.163 HD
ATOM     22  O   UNL A   1      32.552  32.754  27.588  1.00  0.00    -0.269 OA
BRANCH  20  23
ATOM     23  C   UNL A   1      34.479  31.408  27.668  1.00  0.00     0.039 A 
ATOM     24  C   UNL A   1      35.433  32.422  27.774  1.00  0.00     0.014 A 
ATOM     25  C   UNL A   1      34.763  30.109  28.093  1.00  0.00     0.014 A 
ATOM     26  C   UNL A   1      36.659  32.150  28.384  1.00  0.00     0.010 A 
ATOM     27  C   UNL A   1      35.961  29.856  28.752  1.00  0.00     0.010 A 
ATOM     28  C   UNL A   1      36.914  30.874  28.913  1.00  0.00    -0.014 A 
BRANCH  28  29
ATOM     29  C   UNL A   1      38.159  30.563  29.658  1.00  0.00     0.031 A 
ATOM     30  C   UNL A   1      39.148  29.594  29.075  1.00  0.00     0.074 A 
ATOM     31  C   UNL A   1      38.326  31.035  30.909  1.00  0.00     0.049 A 
ATOM     32  N   UNL A   1      40.192  29.043  29.634  1.00  0.00    -0.248 NA
ATOM     33  C   UNL A   1      38.906  29.158  27.688  1.00  0.00     0.031 C 
ATOM     34  C   UNL A   1      37.402  31.930  31.609  1.00  0.00     0.029 A 
ATOM     35  N   UNL A   1      39.312  30.790  31.833  1.00  0.00    -0.354 N 
ATOM     36  C   UNL A   1      40.699  28.157  28.692  1.00  0.00     0.074 A 
ATOM     37  C   UNL A   1      39.840  28.231  27.531  1.00  0.00     0.031 C 
ATOM     38  C   UNL A   1      37.858  32.148  32.854  1.00  0.00     0.029 A 
ATOM     39  C   UNL A   1      39.085  31.384  33.053  1.00  0.00     0.049 A 
ATOM     40  H   UNL A   1      40.107  30.241  31.641  1.00  0.00     0.167 HD
ATOM     41  C   UNL A   1      41.797  27.369  28.778  1.00  0.00     0.034 A 
ATOM     42  C   UNL A   1      39.778  31.307  34.207  1.00  0.00     0.034 A 
ATOM     43  C   UNL A   1      42.686  27.353  29.906  1.00  0.00     0.049 A 
ATOM     44  C   UNL A   1      41.030  30.472  34.253  1.00  0.00     0.074 A 
ATOM     45  C   UNL A   1      43.875  26.660  30.052  1.00  0.00     0.029 A 
ATOM     46  N   UNL A   1      42.489  28.065  31.077  1.00  0.00    -0.354 N 
ATOM     47  N   UNL A   1      41.573  29.750  33.304  1.00  0.00    -0.248 NA
ATOM     48  C   UNL A   1      41.781  30.463  35.518  1.00  0.00     0.031 C 
ATOM     49  C   UNL A   1      44.398  26.956  31.316  1.00  0.00     0.029 A 
ATOM     50  C   UNL A   1      43.537  27.837  31.952  1.00  0.00     0.049 A 
ATOM     51  H   UNL A   1      41.718  28.649  31.261  1.00  0.00     0.167 HD
ATOM     52  C   UNL A   1      42.747  29.235  33.841  1.00  0.00     0.074 A 
ATOM     53  C   UNL A   1      42.843  29.735  35.196  1.00  0.00     0.031 C 
ATOM     54  C   UNL A   1      43.655  28.406  33.268  1.00  0.00     0.034 A 
BRANCH  41  55
ATOM     55  C   UNL A   1      42.134  26.511  27.590  1.00  0.00     0.023 A 
ATOM     56  C   UNL A   1      42.853  27.072  26.516  1.00  0.00     0.012 A 
ATOM     57  C   UNL A   1      41.790  25.146  27.556  1.00  0.00     0.148 A 
ATOM     58  C   UNL A   1      43.198  26.296  25.410  1.00  0.00     0.002 A 
ATOM     59  C   UNL A   1      42.173  24.369  26.469  1.00  0.00     0.091 A 
ATOM     60  F   UNL A   1      41.085  24.636  28.575  1.00  0.00    -0.205 F 
ATOM     61  C   UNL A   1      42.867  24.944  25.392  1.00  0.00     0.022 A 
BRANCH  59  62
ATOM     62  S   UNL A   1      41.855  22.602  26.389  1.00  0.00     0.127 S 
ATOM     63  O   UNL A   1      42.508  22.241  25.132  1.00  0.00    -0.237 OA
ATOM     64  O   UNL A   1      42.529  22.109  27.590  1.00  0.00    -0.237 OA
ATOM     65  O   UNL A   1      40.406  22.459  26.410  1.00  0.00    -0.744 OA
ENDBRANCH  59  62
ENDBRANCH  41  55
BRANCH  42  66
ATOM     66  C   UNL A   1      39.344  32.103  35.390  1.00  0.00     0.023 A 
ATOM     67  C   UNL A   1      38.490  31.506  36.337  1.00  0.00     0.012 A 
ATOM     68  C   UNL A   1      39.794  33.420  35.605  1.00  0.00     0.148 A 
ATOM     69  C   UNL A   1      38.068  32.214  37.464  1.00  0.00     0.002 A 
ATOM     70  C   UNL A   1      39.410  34.102  36.755  1.00  0.00     0.091 A 
ATOM     71  F   UNL A   1      40.593  33.978  34.685  1.00  0.00    -0.205 F 
ATOM     72  C   UNL A   1      38.537  33.508  37.678  1.00  0.00     0.022 A 
BRANCH  70  73
ATOM     73  S   UNL A   1      40.070  35.721  37.171  1.00  0.00     0.127 S 
ATOM     74  O   UNL A   1      39.625  36.527  36.038  1.00  0.00    -0.237 OA
ATOM     75  O   UNL A   1      39.395  36.012  38.437  1.00  0.00    -0.237 OA
ATOM     76  O   UNL A   1      41.510  35.530  37.295  1.00  0.00    -0.744 OA
ENDBRANCH  70  73
ENDBRANCH  42  66
BRANCH  54  77
ATOM     77  C   UNL A   1      44.863  28.017  34.076  1.00  0.00     0.023 A 
ATOM     78  C   UNL A   1      46.001  28.844  34.066  1.00  0.00     0.012 A 
ATOM     79  C   UNL A   1      44.821  26.899  34.933  1.00  0.00     0.148 A 
ATOM     80  C   UNL A   1      47.090  28.558  34.889  1.00  0.00     0.002 A 
ATOM     81  C   UNL A   1      45.891  26.644  35.781  1.00  0.00     0.091 A 
ATOM     82  F   UNL A   1      43.733  26.117  34.911  1.00  0.00    -0.205 F 
ATOM     83  C   UNL A   1      47.029  27.468  35.756  1.00  0.00     0.022 A 
BRANCH  81  84
ATOM     84  S   UNL A   1      45.863  25.319  36.994  1.00  0.00     0.127 S 
ATOM     85  O   UNL A   1      45.756  24.136  36.141  1.00  0.00    -0.237 OA
ATOM     86  O   UNL A   1      47.158  25.476  37.656  1.00  0.00    -0.237 OA
ATOM     87  O   UNL A   1      44.713  25.580  37.848  1.00  0.00    -0.744 OA
ENDBRANCH  81  84
ENDBRANCH  54  77
ENDBRANCH  28  29
ENDBRANCH  20  23
ENDBRANCH  18  19
ENDBRANCH   1  18
TORSDOF 18
ENDMDL
MODEL 2
REMARK VINA RESULT:     -10.2      1.897      2.291
REMARK SMILES CCC[C@](C)(CC(F)(F)F)C(=O)NCCCCNC(=O)c1ccc(-c2c3nc(c(-c4cccc(S(=O)(=O)[O-])c4F)c4ccc([nH]4)c(-c4cccc(S(=O)(=O)[O-])c4F)c4nc(c(-c5cccc(S(=O)(=O)[O-])c5F)c5ccc2[nH]5)C=C4)C=C3)cc1
REMARK SMILES IDX 16 1 15 2 14 3 13 4 11 5 12 6 4 8 5 9 3 10 2 11 1 12 6 13
REMARK SMILES IDX 7 14 8 15 9 16 10 17 17 18 18 19 19 20 20 22 21 23 22 24
REMARK SMILES IDX 83 25 23 26 82 27 24 28 25 29 26 30 76 31 27 32 81 33 75 34
REMARK SMILES IDX 77 35 28 36 80 37 74 38 73 39 29 41 61 42 41 43 60 44 42 45
REMARK SMILES IDX 45 46 59 47 78 48 43 49 44 50 58 52 79 53 46 54 30 55 31 56
REMARK SMILES IDX 39 57 32 58 34 59 40 60 33 61 35 62 36 63 37 64 38 65 62 66
REMARK SMILES IDX 63 67 71 68 64 69 66 70 72 71 65 72 67 73 68 74 69 75 70 76
REMARK SMILES IDX 47 77 48 78 56 79 49 80 51 81 57 82 50 83 52 84 53 85 54 86
REMARK SMILES IDX 55 87
REMARK H PARENT 13 7 18 21 77 40 45 51
REMARK Flexibility Score: inf
ROOT
ATOM      1  C   UNL A   1      32.189  28.867  25.530  1.00  0.00     0.023 C 
ENDROOT
BRANCH   1   2
ATOM      2  C   UNL A   1      31.456  27.881  26.441  1.00  0.00     0.023 C 
BRANCH   2   3
ATOM      3  C   UNL A   1      30.932  26.634  25.735  1.00  0.00     0.116 C 
BRANCH   3   4
ATOM      4  N   UNL A   1      30.929  25.478  26.609  1.00  0.00    -0.356 N 
ATOM      5  C   UNL A   1      31.330  24.193  26.437  1.00  0.00     0.226 C 
ATOM      6  O   UNL A   1      31.237  23.451  27.417  1.00  0.00    -0.274 OA
ATOM      7  H   UNL A   1      30.563  25.661  27.505  1.00  0.00     0.163 HD
BRANCH   5   8
ATOM      8  C   UNL A   1      31.872  23.663  25.095  1.00  0.00     0.055 C 
ATOM      9  C   UNL A   1      30.767  23.825  24.016  1.00  0.00     0.022 C 
BRANCH   8  10
ATOM     10  C   UNL A   1      32.260  22.149  25.141  1.00  0.00     0.017 C 
BRANCH  10  11
ATOM     11  C   UNL A   1      33.330  21.621  24.171  1.00  0.00    -0.002 C 
ATOM     12  C   UNL A   1      34.571  21.028  24.811  1.00  0.00     0.004 C 
ENDBRANCH  10  11
ENDBRANCH   8  10
BRANCH   8  13
ATOM     13  C   UNL A   1      33.107  24.493  24.635  1.00  0.00     0.132 C 
BRANCH  13  14
ATOM     14  C   UNL A   1      34.188  24.745  25.673  1.00  0.00     0.390 C 
ATOM     15  F   UNL A   1      34.168  23.846  26.671  1.00  0.00    -0.171 F 
ATOM     16  F   UNL A   1      35.402  24.645  25.074  1.00  0.00    -0.171 F 
ATOM     17  F   UNL A   1      34.114  25.982  26.199  1.00  0.00    -0.171 F 
ENDBRANCH  13  14
ENDBRANCH   8  13
ENDBRANCH   5   8
ENDBRANCH   3   4
ENDBRANCH   2   3
ENDBRANCH   1   2
BRANCH   1  18
ATOM     18  C   UNL A   1      33.339  29.628  26.184  1.00  0.00     0.116 C 
BRANCH  18  19
ATOM     19  N   UNL A   1      32.952  30.945  26.674  1.00  0.00    -0.352 N 
ATOM     20  C   UNL A   1      33.660  31.771  27.515  1.00  0.00     0.251 C 
ATOM     21  H   UNL A   1      32.080  31.284  26.366  1.00  0.00     0.163 HD
ATOM     22  O   UNL A   1      33.171  32.817  27.930  1.00  0.00    -0.269 OA
BRANCH  20  23
ATOM     23  C   UNL A   1      35.012  31.354  27.936  1.00  0.00     0.039 A 
ATOM     24  C   UNL A   1      36.056  32.280  27.893  1.00  0.00     0.014 A 
ATOM     25  C   UNL A   1      35.210  30.074  28.458  1.00  0.00     0.014 A 
ATOM     26  C   UNL A   1      37.292  31.947  28.450  1.00  0.00     0.010 A 
ATOM     27  C   UNL A   1      36.422  29.767  29.064  1.00  0.00     0.010 A 
ATOM     28  C   UNL A   1      37.470  30.702  29.076  1.00  0.00    -0.014 A 
BRANCH  28  29
ATOM     29  C   UNL A   1      38.730  30.340  29.770  1.00  0.00     0.031 A 
ATOM     30  C   UNL A   1      39.641  29.311  29.162  1.00  0.00     0.074 A 
ATOM     31  C   UNL A   1      38.978  30.825  31.003  1.00  0.00     0.049 A 
ATOM     32  N   UNL A   1      40.681  28.718  29.684  1.00  0.00    -0.248 NA
ATOM     33  C   UNL A   1      39.314  28.865  27.797  1.00  0.00     0.031 C 
ATOM     34  C   UNL A   1      38.134  31.778  31.726  1.00  0.00     0.029 A 
ATOM     35  N   UNL A   1      39.992  30.545  31.886  1.00  0.00    -0.354 N 
ATOM     36  C   UNL A   1      41.098  27.790  28.739  1.00  0.00     0.074 A 
ATOM     37  C   UNL A   1      40.191  27.888  27.616  1.00  0.00     0.031 C 
ATOM     38  C   UNL A   1      38.657  31.993  32.945  1.00  0.00     0.029 A 
ATOM     39  C   UNL A   1      39.852  31.171  33.104  1.00  0.00     0.049 A 
ATOM     40  H   UNL A   1      40.748  29.952  31.670  1.00  0.00     0.167 HD
ATOM     41  C   UNL A   1      42.158  26.949  28.790  1.00  0.00     0.034 A 
ATOM     42  C   UNL A   1      40.593  31.078  34.226  1.00  0.00     0.034 A 
ATOM     43  C   UNL A   1      43.096  26.906  29.877  1.00  0.00     0.049 A 
ATOM     44  C   UNL A   1      41.801  30.180  34.232  1.00  0.00     0.074 A 
ATOM     45  C   UNL A   1      44.254  26.155  29.983  1.00  0.00     0.029 A 
ATOM     46  N   UNL A   1      42.989  27.648  31.042  1.00  0.00    -0.354 N 
ATOM     47  N   UNL A   1      42.262  29.415  33.274  1.00  0.00    -0.248 NA
ATOM     48  C   UNL A   1      42.608  30.155  35.462  1.00  0.00     0.031 C 
ATOM     49  C   UNL A   1      44.848  26.446  31.216  1.00  0.00     0.029 A 
ATOM     50  C   UNL A   1      44.063  27.380  31.872  1.00  0.00     0.049 A 
ATOM     51  H   UNL A   1      42.258  28.274  31.249  1.00  0.00     0.167 HD
ATOM     52  C   UNL A   1      43.433  28.850  33.767  1.00  0.00     0.074 A 
ATOM     53  C   UNL A   1      43.616  29.368  35.107  1.00  0.00     0.031 C 
ATOM     54  C   UNL A   1      44.270  27.966  33.171  1.00  0.00     0.034 A 
BRANCH  41  55
ATOM     55  C   UNL A   1      42.396  26.054  27.605  1.00  0.00     0.023 A 
ATOM     56  C   UNL A   1      43.106  26.553  26.495  1.00  0.00     0.012 A 
ATOM     57  C   UNL A   1      41.968  24.712  27.607  1.00  0.00     0.148 A 
ATOM     58  C   UNL A   1      43.361  25.741  25.391  1.00  0.00     0.002 A 
ATOM     59  C   UNL A   1      42.260  23.897  26.520  1.00  0.00     0.091 A 
ATOM     60  F   UNL A   1      41.271  24.262  28.660  1.00  0.00    -0.205 F 
ATOM     61  C   UNL A   1      42.947  24.412  25.408  1.00  0.00     0.022 A 
BRANCH  59  62
ATOM     62  S   UNL A   1      41.831  22.153  26.482  1.00  0.00     0.127 S 
ATOM     63  O   UNL A   1      42.380  21.686  27.754  1.00  0.00    -0.237 OA
ATOM     64  O   UNL A   1      40.369  22.192  26.426  1.00  0.00    -0.237 OA
ATOM     65  O   UNL A   1      42.465  21.614  25.286  1.00  0.00    -0.744 OA
ENDBRANCH  59  62
ENDBRANCH  41  55
BRANCH  42  66
ATOM     66  C   UNL A   1      40.254  31.916  35.412  1.00  0.00     0.023 A 
ATOM     67  C   UNL A   1      40.993  33.091  35.650  1.00  0.00     0.012 A 
ATOM     68  C   UNL A   1      39.195  31.584  36.277  1.00  0.00     0.148 A 
ATOM     69  C   UNL A   1      40.701  33.907  36.744  1.00  0.00     0.002 A 
ATOM     70  C   UNL A   1      38.877  32.428  37.337  1.00  0.00     0.091 A 
ATOM     71  F   UNL A   1      38.513  30.454  36.045  1.00  0.00    -0.205 F 
ATOM     72  C   UNL A   1      39.637  33.581  37.580  1.00  0.00     0.022 A 
BRANCH  70  73
ATOM     73  S   UNL A   1      37.442  32.151  38.383  1.00  0.00     0.127 S 
ATOM     74  O   UNL A   1      37.896  32.690  39.662  1.00  0.00    -0.237 OA
ATOM     75  O   UNL A   1      36.413  32.944  37.710  1.00  0.00    -0.237 OA
ATOM     76  O   UNL A   1      37.207  30.713  38.342  1.00  0.00    -0.744 OA
ENDBRANCH  70  73
ENDBRANCH  42  66
BRANCH  54  77
ATOM     77  C   UNL A   1      45.493  27.529  33.931  1.00  0.00     0.023 A 
ATOM     78  C   UNL A   1      45.432  26.385  34.746  1.00  0.00     0.012 A 
ATOM     79  C   UNL A   1      46.726  28.184  33.739  1.00  0.00     0.148 A 
ATOM     80  C   UNL A   1      46.580  25.902  35.374  1.00  0.00     0.002 A 
ATOM     81  C   UNL A   1      47.873  27.674  34.334  1.00  0.00     0.091 A 
ATOM     82  F   UNL A   1      46.755  29.283  32.972  1.00  0.00    -0.205 F 
ATOM     83  C   UNL A   1      47.801  26.538  35.157  1.00  0.00     0.022 A 
BRANCH  81  84
ATOM     84  S   UNL A   1      49.503  28.371  34.036  1.00  0.00     0.127 S 
ATOM     85  O   UNL A   1      49.369  29.702  34.625  1.00  0.00    -0.237 OA
ATOM     86  O   UNL A   1      50.371  27.459  34.781  1.00  0.00    -0.237 OA
ATOM     87  O   UNL A   1      49.694  28.342  32.593  1.00  0.00    -0.744 OA
ENDBRANCH  81  84
ENDBRANCH  54  77
ENDBRANCH  28  29
ENDBRANCH  20  23
ENDBRANCH  18  19
ENDBRANCH   1  18
TORSDOF 18
ENDMDL
MODEL 3
REMARK VINA RESULT:     -10.2      2.812      8.602
REMARK SMILES CCC[C@](C)(CC(F)(F)F)C(=O)NCCCCNC(=O)c1ccc(-c2c3nc(c(-c4cccc(S(=O)(=O)[O-])c4F)c4ccc([nH]4)c(-c4cccc(S(=O)(=O)[O-])c4F)c4nc(c(-c5cccc(S(=O)(=O)[O-])c5F)c5ccc2[nH]5)C=C4)C=C3)cc1
REMARK SMILES IDX 16 1 15 2 14 3 13 4 11 5 12 6 4 8 5 9 3 10 2 11 1 12 6 13
REMARK SMILES IDX 7 14 8 15 9 16 10 17 17 18 18 19 19 20 20 22 21 23 22 24
REMARK SMILES IDX 83 25 23 26 82 27 24 28 25 29 26 30 76 31 27 32 81 33 75 34
REMARK SMILES IDX 77 35 28 36 80 37 74 38 73 39 29 41 61 42 41 43 60 44 42 45
REMARK SMILES IDX 45 46 59 47 78 48 43 49 44 50 58 52 79 53 46 54 30 55 31 56
REMARK SMILES IDX 39 57 32 58 34 59 40 60 33 61 35 62 36 63 37 64 38 65 62 66
REMARK SMILES IDX 63 67 71 68 64 69 66 70 72 71 65 72 67 73 68 74 69 75 70 76
REMARK SMILES IDX 47 77 48 78 56 79 49 80 51 81 57 82 50 83 52 84 53 85 54 86
REMARK SMILES IDX 55 87
REMARK H PARENT 13 7 18 21 77 40 45 51
REMARK Flexibility Score: inf
ROOT
ATOM      1  C   UNL A   1      31.927  32.174  26.869  1.00  0.00     0.023 C 
ENDROOT
BRANCH   1   2
ATOM      2  C   UNL A   1      32.230  30.683  26.705  1.00  0.00     0.023 C 
BRANCH   2   3
ATOM      3  C   UNL A   1      31.571  30.031  25.493  1.00  0.00     0.116 C 
BRANCH   3   4
ATOM      4  N   UNL A   1      32.549  29.461  24.588  1.00  0.00    -0.356 N 
ATOM      5  C   UNL A   1      32.437  28.648  23.506  1.00  0.00     0.226 C 
ATOM      6  O   UNL A   1      33.482  28.378  22.910  1.00  0.00    -0.274 OA
ATOM      7  H   UNL A   1      33.477  29.712  24.799  1.00  0.00     0.163 HD
BRANCH   5   8
ATOM      8  C   UNL A   1      31.087  28.073  23.033  1.00  0.00     0.055 C 
ATOM      9  C   UNL A   1      31.363  26.910  22.042  1.00  0.00     0.022 C 
BRANCH   8  10
ATOM     10  C   UNL A   1      30.199  29.121  22.286  1.00  0.00     0.017 C 
BRANCH  10  11
ATOM     11  C   UNL A   1      28.953  29.683  22.991  1.00  0.00    -0.002 C 
ATOM     12  C   UNL A   1      27.822  30.130  22.082  1.00  0.00     0.004 C 
ENDBRANCH  10  11
ENDBRANCH   8  10
BRANCH   8  13
ATOM     13  C   UNL A   1      30.287  27.489  24.235  1.00  0.00     0.132 C 
BRANCH  13  14
ATOM     14  C   UNL A   1      30.533  26.029  24.577  1.00  0.00     0.390 C 
ATOM     15  F   UNL A   1      31.836  25.749  24.751  1.00  0.00    -0.171 F 
ATOM     16  F   UNL A   1      29.906  25.741  25.746  1.00  0.00    -0.171 F 
ATOM     17  F   UNL A   1      30.029  25.194  23.649  1.00  0.00    -0.171 F 
ENDBRANCH  13  14
ENDBRANCH   8  13
ENDBRANCH   5   8
ENDBRANCH   3   4
ENDBRANCH   2   3
ENDBRANCH   1   2
BRANCH   1  18
ATOM     18  C   UNL A   1      33.058  33.007  27.466  1.00  0.00     0.116 C 
BRANCH  18  19
ATOM     19  N   UNL A   1      32.640  34.349  27.853  1.00  0.00    -0.352 N 
ATOM     20  C   UNL A   1      33.092  35.097  28.915  1.00  0.00     0.251 C 
ATOM     21  H   UNL A   1      31.951  34.770  27.289  1.00  0.00     0.163 HD
ATOM     22  O   UNL A   1      32.581  36.179  29.187  1.00  0.00    -0.269 OA
BRANCH  20  23
ATOM     23  C   UNL A   1      34.187  34.553  29.743  1.00  0.00     0.039 A 
ATOM     24  C   UNL A   1      33.878  33.900  30.939  1.00  0.00     0.014 A 
ATOM     25  C   UNL A   1      35.502  34.613  29.277  1.00  0.00     0.014 A 
ATOM     26  C   UNL A   1      34.887  33.234  31.636  1.00  0.00     0.010 A 
ATOM     27  C   UNL A   1      36.491  33.899  29.942  1.00  0.00     0.010 A 
ATOM     28  C   UNL A   1      36.193  33.195  31.120  1.00  0.00    -0.014 A 
BRANCH  28  29
ATOM     29  C   UNL A   1      37.276  32.417  31.770  1.00  0.00     0.031 A 
ATOM     30  C   UNL A   1      37.817  32.869  33.097  1.00  0.00     0.074 A 
ATOM     31  C   UNL A   1      37.864  31.403  31.106  1.00  0.00     0.049 A 
ATOM     32  N   UNL A   1      38.874  32.453  33.743  1.00  0.00    -0.248 NA
ATOM     33  C   UNL A   1      37.090  33.960  33.770  1.00  0.00     0.031 C 
ATOM     34  C   UNL A   1      37.471  30.915  29.781  1.00  0.00     0.029 A 
ATOM     35  N   UNL A   1      38.949  30.628  31.435  1.00  0.00    -0.354 N 
ATOM     36  C   UNL A   1      38.973  33.265  34.865  1.00  0.00     0.074 A 
ATOM     37  C   UNL A   1      37.878  34.209  34.806  1.00  0.00     0.031 C 
ATOM     38  C   UNL A   1      38.310  29.935  29.407  1.00  0.00     0.029 A 
ATOM     39  C   UNL A   1      39.318  29.746  30.445  1.00  0.00     0.049 A 
ATOM     40  H   UNL A   1      39.419  30.697  32.297  1.00  0.00     0.167 HD
ATOM     41  C   UNL A   1      39.881  33.214  35.868  1.00  0.00     0.034 A 
ATOM     42  C   UNL A   1      40.361  28.895  30.375  1.00  0.00     0.034 A 
ATOM     43  C   UNL A   1      40.925  32.231  35.956  1.00  0.00     0.049 A 
ATOM     44  C   UNL A   1      41.319  28.817  31.533  1.00  0.00     0.074 A 
ATOM     45  C   UNL A   1      41.837  32.036  36.978  1.00  0.00     0.029 A 
ATOM     46  N   UNL A   1      41.189  31.272  34.992  1.00  0.00    -0.354 N 
ATOM     47  N   UNL A   1      41.314  29.497  32.653  1.00  0.00    -0.248 NA
ATOM     48  C   UNL A   1      42.410  27.834  31.433  1.00  0.00     0.031 C 
ATOM     49  C   UNL A   1      42.656  30.957  36.629  1.00  0.00     0.029 A 
ATOM     50  C   UNL A   1      42.248  30.477  35.395  1.00  0.00     0.049 A 
ATOM     51  H   UNL A   1      40.698  31.171  34.145  1.00  0.00     0.167 HD
ATOM     52  C   UNL A   1      42.370  29.000  33.408  1.00  0.00     0.074 A 
ATOM     53  C   UNL A   1      42.989  27.953  32.621  1.00  0.00     0.031 C 
ATOM     54  C   UNL A   1      42.800  29.388  34.633  1.00  0.00     0.034 A 
BRANCH  41  55
ATOM     55  C   UNL A   1      39.744  34.212  36.985  1.00  0.00     0.023 A 
ATOM     56  C   UNL A   1      40.097  35.557  36.756  1.00  0.00     0.012 A 
ATOM     57  C   UNL A   1      39.220  33.836  38.237  1.00  0.00     0.148 A 
ATOM     58  C   UNL A   1      39.960  36.508  37.766  1.00  0.00     0.002 A 
ATOM     59  C   UNL A   1      39.049  34.798  39.226  1.00  0.00     0.091 A 
ATOM     60  F   UNL A   1      38.914  32.548  38.444  1.00  0.00    -0.205 F 
ATOM     61  C   UNL A   1      39.428  36.131  38.996  1.00  0.00     0.022 A 
BRANCH  59  62
ATOM     62  S   UNL A   1      38.304  34.421  40.817  1.00  0.00     0.127 S 
ATOM     63  O   UNL A   1      39.398  33.732  41.499  1.00  0.00    -0.237 OA
ATOM     64  O   UNL A   1      38.000  35.753  41.343  1.00  0.00    -0.237 OA
ATOM     65  O   UNL A   1      37.133  33.608  40.523  1.00  0.00    -0.744 OA
ENDBRANCH  59  62
ENDBRANCH  41  55
BRANCH  42  66
ATOM     66  C   UNL A   1      40.509  27.995  29.196  1.00  0.00     0.023 A 
ATOM     67  C   UNL A   1      39.694  26.850  29.106  1.00  0.00     0.012 A 
ATOM     68  C   UNL A   1      41.413  28.278  28.155  1.00  0.00     0.148 A 
ATOM     69  C   UNL A   1      39.795  25.987  28.014  1.00  0.00     0.002 A 
ATOM     70  C   UNL A   1      41.474  27.441  27.046  1.00  0.00     0.091 A 
ATOM     71  F   UNL A   1      42.192  29.362  28.266  1.00  0.00    -0.205 F 
ATOM     72  C   UNL A   1      40.677  26.288  26.979  1.00  0.00     0.022 A 
BRANCH  70  73
ATOM     73  S   UNL A   1      42.487  27.825  25.612  1.00  0.00     0.127 S 
ATOM     74  O   UNL A   1      43.810  27.976  26.211  1.00  0.00    -0.237 OA
ATOM     75  O   UNL A   1      42.318  26.628  24.786  1.00  0.00    -0.237 OA
ATOM     76  O   UNL A   1      41.902  29.030  25.039  1.00  0.00    -0.744 OA
ENDBRANCH  70  73
ENDBRANCH  42  66
BRANCH  54  77
ATOM     77  C   UNL A   1      43.967  28.655  35.236  1.00  0.00     0.023 A 
ATOM     78  C   UNL A   1      45.278  29.074  34.943  1.00  0.00     0.012 A 
ATOM     79  C   UNL A   1      43.759  27.633  36.184  1.00  0.00     0.148 A 
ATOM     80  C   UNL A   1      46.369  28.477  35.574  1.00  0.00     0.002 A 
ATOM     81  C   UNL A   1      44.847  27.071  36.839  1.00  0.00     0.091 A 
ATOM     82  F   UNL A   1      42.501  27.239  36.433  1.00  0.00    -0.205 F 
ATOM     83  C   UNL A   1      46.153  27.487  36.531  1.00  0.00     0.022 A 
BRANCH  81  84
ATOM     84  S   UNL A   1      44.659  25.858  38.152  1.00  0.00     0.127 S 
ATOM     85  O   UNL A   1      43.802  26.573  39.097  1.00  0.00    -0.237 OA
ATOM     86  O   UNL A   1      44.007  24.748  37.458  1.00  0.00    -0.237 OA
ATOM     87  O   UNL A   1      46.005  25.567  38.625  1.00  0.00    -0.744 OA
ENDBRANCH  81  84
ENDBRANCH  54  77
ENDBRANCH  28  29
ENDBRANCH  20  23
ENDBRANCH  18  19
ENDBRANCH   1  18
TORSDOF 18
ENDMDL
