MODEL 1
REMARK VINA RESULT:     -10.7      0.000      0.000
REMARK SMILES O=C(CCCCCC(F)(F)c1ccccc1)NCCCCNC(=O)c1ccc(-c2c3nc(c(-c4cccc(S(=O)(=O)[O-])c4F)c4ccc([nH]4)c(-c4cccc(S(=O)(=O)[O-])c4F)c4nc(c(-c5cccc(S(=O)(=O)[O-])c5F)c5ccc2[nH]5)C=C4)C=C3)cc1
REMARK SMILES IDX 18 1 17 2 1 3 2 4 3 6 4 7 5 8 6 9 7 10 8 11 9 12 10 13 11 14
REMARK SMILES IDX 12 15 16 16 13 17 15 18 14 19 19 20 20 21 21 22 22 23 23 24
REMARK SMILES IDX 24 26 25 27 26 28 87 29 27 30 86 31 28 32 29 33 30 34 80 35
REMARK SMILES IDX 31 36 85 37 79 38 81 39 32 40 84 41 78 42 77 43 33 45 65 46
REMARK SMILES IDX 45 47 64 48 46 49 49 50 63 51 82 52 47 53 48 54 62 56 83 57
REMARK SMILES IDX 50 58 34 59 35 60 43 61 36 62 38 63 44 64 37 65 39 66 40 67
REMARK SMILES IDX 41 68 42 69 66 70 67 71 75 72 68 73 70 74 76 75 69 76 71 77
REMARK SMILES IDX 72 78 73 79 74 80 51 81 52 82 60 83 53 84 55 85 61 86 54 87
REMARK SMILES IDX 56 88 57 89 58 90 59 91
REMARK H PARENT 17 5 22 25 81 44 49 55
REMARK Flexibility Score: inf
ROOT
ATOM      1  C   UNL A   1      33.091  29.768  26.338  1.00  0.00     0.116 C 
ENDROOT
BRANCH   1   2
ATOM      2  N   UNL A   1      33.046  28.326  26.281  1.00  0.00    -0.356 N 
ATOM      3  O   UNL A   1      33.990  28.109  24.195  1.00  0.00    -0.275 OA
ATOM      4  C   UNL A   1      33.577  27.609  25.237  1.00  0.00     0.219 C 
ATOM      5  H   UNL A   1      32.617  27.837  27.020  1.00  0.00     0.163 HD
BRANCH   4   6
ATOM      6  C   UNL A   1      33.679  26.127  25.527  1.00  0.00     0.100 C 
BRANCH   6   7
ATOM      7  C   UNL A   1      32.331  25.444  25.302  1.00  0.00     0.010 C 
BRANCH   7   8
ATOM      8  C   UNL A   1      31.904  24.447  26.390  1.00  0.00     0.001 C 
BRANCH   8   9
ATOM      9  C   UNL A   1      32.738  23.165  26.502  1.00  0.00     0.007 C 
BRANCH   9  10
ATOM     10  C   UNL A   1      32.214  21.915  25.776  1.00  0.00     0.082 C 
BRANCH  10  11
ATOM     11  C   UNL A   1      32.698  21.692  24.330  1.00  0.00     0.273 C 
ATOM     12  F   UNL A   1      32.254  20.462  23.935  1.00  0.00    -0.201 F 
ATOM     13  F   UNL A   1      32.018  22.586  23.548  1.00  0.00    -0.201 F 
BRANCH  11  14
ATOM     14  C   UNL A   1      34.193  21.856  24.153  1.00  0.00     0.021 A 
ATOM     15  C   UNL A   1      35.085  20.993  24.810  1.00  0.00     0.010 A 
ATOM     16  C   UNL A   1      34.711  22.925  23.406  1.00  0.00     0.010 A 
ATOM     17  C   UNL A   1      36.457  21.257  24.802  1.00  0.00     0.001 A 
ATOM     18  C   UNL A   1      36.080  23.193  23.410  1.00  0.00     0.001 A 
ATOM     19  C   UNL A   1      36.950  22.370  24.123  1.00  0.00     0.000 A 
ENDBRANCH  11  14
ENDBRANCH  10  11
ENDBRANCH   9  10
ENDBRANCH   8   9
ENDBRANCH   7   8
ENDBRANCH   6   7
ENDBRANCH   4   6
ENDBRANCH   1   2
BRANCH   1  20
ATOM     20  C   UNL A   1      31.730  30.386  26.032  1.00  0.00     0.023 C 
BRANCH  20  21
ATOM     21  C   UNL A   1      31.519  31.800  26.589  1.00  0.00     0.023 C 
BRANCH  21  22
ATOM     22  C   UNL A   1      32.760  32.467  27.176  1.00  0.00     0.116 C 
BRANCH  22  23
ATOM     23  N   UNL A   1      32.517  33.851  27.553  1.00  0.00    -0.352 N 
ATOM     24  C   UNL A   1      33.074  34.602  28.557  1.00  0.00     0.251 C 
ATOM     25  H   UNL A   1      31.850  34.321  27.002  1.00  0.00     0.163 HD
ATOM     26  O   UNL A   1      32.582  35.697  28.836  1.00  0.00    -0.269 OA
BRANCH  24  27
ATOM     27  C   UNL A   1      34.245  34.109  29.316  1.00  0.00     0.039 A 
ATOM     28  C   UNL A   1      34.032  33.400  30.502  1.00  0.00     0.014 A 
ATOM     29  C   UNL A   1      35.549  34.365  28.885  1.00  0.00     0.014 A 
ATOM     30  C   UNL A   1      35.121  32.896  31.219  1.00  0.00     0.010 A 
ATOM     31  C   UNL A   1      36.631  33.799  29.561  1.00  0.00     0.010 A 
ATOM     32  C   UNL A   1      36.430  33.060  30.737  1.00  0.00    -0.014 A 
BRANCH  32  33
ATOM     33  C   UNL A   1      37.593  32.450  31.437  1.00  0.00     0.031 A 
ATOM     34  C   UNL A   1      38.348  31.305  30.815  1.00  0.00     0.074 A 
ATOM     35  C   UNL A   1      37.920  32.874  32.675  1.00  0.00     0.049 A 
ATOM     36  N   UNL A   1      39.351  30.618  31.300  1.00  0.00    -0.248 NA
ATOM     37  C   UNL A   1      37.907  30.857  29.484  1.00  0.00     0.031 C 
ATOM     38  C   UNL A   1      37.226  33.926  33.419  1.00  0.00     0.029 A 
ATOM     39  N   UNL A   1      38.903  32.453  33.537  1.00  0.00    -0.354 N 
ATOM     40  C   UNL A   1      39.633  29.636  30.358  1.00  0.00     0.074 A 
ATOM     41  C   UNL A   1      38.679  29.798  29.284  1.00  0.00     0.031 C 
ATOM     42  C   UNL A   1      37.806  34.073  34.621  1.00  0.00     0.029 A 
ATOM     43  C   UNL A   1      38.889  33.103  34.750  1.00  0.00     0.049 A 
ATOM     44  H   UNL A   1      39.556  31.752  33.309  1.00  0.00     0.167 HD
ATOM     45  C   UNL A   1      40.612  28.699  30.374  1.00  0.00     0.034 A 
ATOM     46  C   UNL A   1      39.654  32.932  35.847  1.00  0.00     0.034 A 
ATOM     47  C   UNL A   1      41.584  28.563  31.425  1.00  0.00     0.049 A 
ATOM     48  C   UNL A   1      40.749  31.901  35.825  1.00  0.00     0.074 A 
ATOM     49  C   UNL A   1      42.670  27.707  31.485  1.00  0.00     0.029 A 
ATOM     50  N   UNL A   1      41.583  29.289  32.605  1.00  0.00    -0.354 N 
ATOM     51  N   UNL A   1      41.102  31.091  34.857  1.00  0.00    -0.248 NA
ATOM     52  C   UNL A   1      41.576  31.784  37.036  1.00  0.00     0.031 C 
ATOM     53  C   UNL A   1      43.304  27.890  32.718  1.00  0.00     0.029 A 
ATOM     54  C   UNL A   1      42.637  28.889  33.409  1.00  0.00     0.049 A 
ATOM     55  H   UNL A   1      40.928  29.986  32.838  1.00  0.00     0.167 HD
ATOM     56  C   UNL A   1      42.214  30.399  35.325  1.00  0.00     0.074 A 
ATOM     57  C   UNL A   1      42.487  30.899  36.656  1.00  0.00     0.031 C 
ATOM     58  C   UNL A   1      42.934  29.429  34.711  1.00  0.00     0.034 A 
BRANCH  45  59
ATOM     59  C   UNL A   1      40.709  27.764  29.195  1.00  0.00     0.023 A 
ATOM     60  C   UNL A   1      39.868  26.634  29.126  1.00  0.00     0.012 A 
ATOM     61  C   UNL A   1      41.582  28.041  28.123  1.00  0.00     0.148 A 
ATOM     62  C   UNL A   1      39.919  25.775  28.029  1.00  0.00     0.002 A 
ATOM     63  C   UNL A   1      41.592  27.207  27.011  1.00  0.00     0.091 A 
ATOM     64  F   UNL A   1      42.385  29.109  28.213  1.00  0.00    -0.205 F 
ATOM     65  C   UNL A   1      40.771  26.067  26.968  1.00  0.00     0.022 A 
BRANCH  63  66
ATOM     66  S   UNL A   1      42.593  27.540  25.557  1.00  0.00     0.127 S 
ATOM     67  O   UNL A   1      43.945  27.470  26.108  1.00  0.00    -0.237 OA
ATOM     68  O   UNL A   1      42.235  26.427  24.677  1.00  0.00    -0.237 OA
ATOM     69  O   UNL A   1      42.181  28.852  25.077  1.00  0.00    -0.744 OA
ENDBRANCH  63  66
ENDBRANCH  45  59
BRANCH  46  70
ATOM     70  C   UNL A   1      39.447  33.798  37.044  1.00  0.00     0.023 A 
ATOM     71  C   UNL A   1      39.883  35.137  37.012  1.00  0.00     0.012 A 
ATOM     72  C   UNL A   1      38.813  33.310  38.202  1.00  0.00     0.148 A 
ATOM     73  C   UNL A   1      39.725  35.964  38.125  1.00  0.00     0.002 A 
ATOM     74  C   UNL A   1      38.605  34.155  39.286  1.00  0.00     0.091 A 
ATOM     75  F   UNL A   1      38.413  32.030  38.217  1.00  0.00    -0.205 F 
ATOM     76  C   UNL A   1      39.079  35.476  39.258  1.00  0.00     0.022 A 
BRANCH  74  77
ATOM     77  S   UNL A   1      37.668  33.654  40.733  1.00  0.00     0.127 S 
ATOM     78  O   UNL A   1      37.554  34.912  41.467  1.00  0.00    -0.237 OA
ATOM     79  O   UNL A   1      36.422  33.175  40.134  1.00  0.00    -0.237 OA
ATOM     80  O   UNL A   1      38.460  32.616  41.377  1.00  0.00    -0.744 OA
ENDBRANCH  74  77
ENDBRANCH  46  70
BRANCH  58  81
ATOM     81  C   UNL A   1      44.125  28.868  35.446  1.00  0.00     0.023 A 
ATOM     82  C   UNL A   1      45.401  29.435  35.261  1.00  0.00     0.012 A 
ATOM     83  C   UNL A   1      43.963  27.820  36.375  1.00  0.00     0.148 A 
ATOM     84  C   UNL A   1      46.503  28.946  35.964  1.00  0.00     0.002 A 
ATOM     85  C   UNL A   1      45.055  27.374  37.110  1.00  0.00     0.091 A 
ATOM     86  F   UNL A   1      42.745  27.281  36.524  1.00  0.00    -0.205 F 
ATOM     87  C   UNL A   1      46.327  27.927  36.896  1.00  0.00     0.022 A 
BRANCH  85  88
ATOM     88  S   UNL A   1      44.905  26.135  38.403  1.00  0.00     0.127 S 
ATOM     89  O   UNL A   1      43.945  26.765  39.308  1.00  0.00    -0.237 OA
ATOM     90  O   UNL A   1      44.384  24.983  37.667  1.00  0.00    -0.237 OA
ATOM     91  O   UNL A   1      46.245  25.952  38.943  1.00  0.00    -0.744 OA
ENDBRANCH  85  88
ENDBRANCH  58  81
ENDBRANCH  32  33
ENDBRANCH  24  27
ENDBRANCH  22  23
ENDBRANCH  21  22
ENDBRANCH  20  21
ENDBRANCH   1  20
TORSDOF 20
ENDMDL
MODEL 2
REMARK VINA RESULT:     -10.2      2.527      8.106
REMARK SMILES O=C(CCCCCC(F)(F)c1ccccc1)NCCCCNC(=O)c1ccc(-c2c3nc(c(-c4cccc(S(=O)(=O)[O-])c4F)c4ccc([nH]4)c(-c4cccc(S(=O)(=O)[O-])c4F)c4nc(c(-c5cccc(S(=O)(=O)[O-])c5F)c5ccc2[nH]5)C=C4)C=C3)cc1
REMARK SMILES IDX 18 1 17 2 1 3 2 4 3 6 4 7 5 8 6 9 7 10 8 11 9 12 10 13 11 14
REMARK SMILES IDX 12 15 16 16 13 17 15 18 14 19 19 20 20 21 21 22 22 23 23 24
REMARK SMILES IDX 24 26 25 27 26 28 87 29 27 30 86 31 28 32 29 33 30 34 80 35
REMARK SMILES IDX 31 36 85 37 79 38 81 39 32 40 84 41 78 42 77 43 33 45 65 46
REMARK SMILES IDX 45 47 64 48 46 49 49 50 63 51 82 52 47 53 48 54 62 56 83 57
REMARK SMILES IDX 50 58 34 59 35 60 43 61 36 62 38 63 44 64 37 65 39 66 40 67
REMARK SMILES IDX 41 68 42 69 66 70 67 71 75 72 68 73 70 74 76 75 69 76 71 77
REMARK SMILES IDX 72 78 73 79 74 80 51 81 52 82 60 83 53 84 55 85 61 86 54 87
REMARK SMILES IDX 56 88 57 89 58 90 59 91
REMARK H PARENT 17 5 22 25 81 44 49 55
REMARK Flexibility Score: inf
ROOT
ATOM      1  C   UNL A   1      31.683  28.291  23.229  1.00  0.00     0.116 C 
ENDROOT
BRANCH   1   2
ATOM      2  N   UNL A   1      30.923  27.120  23.601  1.00  0.00    -0.356 N 
ATOM      3  O   UNL A   1      31.636  25.777  21.876  1.00  0.00    -0.275 OA
ATOM      4  C   UNL A   1      31.027  25.926  22.931  1.00  0.00     0.219 C 
ATOM      5  H   UNL A   1      30.306  27.181  24.366  1.00  0.00     0.163 HD
BRANCH   4   6
ATOM      6  C   UNL A   1      30.375  24.775  23.667  1.00  0.00     0.100 C 
BRANCH   6   7
ATOM      7  C   UNL A   1      31.411  23.711  24.023  1.00  0.00     0.010 C 
BRANCH   7   8
ATOM      8  C   UNL A   1      31.938  23.756  25.466  1.00  0.00     0.001 C 
BRANCH   8   9
ATOM      9  C   UNL A   1      31.987  22.417  26.213  1.00  0.00     0.007 C 
BRANCH   9  10
ATOM     10  C   UNL A   1      32.149  21.143  25.368  1.00  0.00     0.082 C 
BRANCH  10  11
ATOM     11  C   UNL A   1      33.580  20.772  24.930  1.00  0.00     0.273 C 
ATOM     12  F   UNL A   1      34.032  21.773  24.118  1.00  0.00    -0.201 F 
ATOM     13  F   UNL A   1      34.362  20.840  26.051  1.00  0.00    -0.201 F 
BRANCH  11  14
ATOM     14  C   UNL A   1      33.687  19.406  24.285  1.00  0.00     0.021 A 
ATOM     15  C   UNL A   1      32.700  18.963  23.391  1.00  0.00     0.010 A 
ATOM     16  C   UNL A   1      34.723  18.528  24.640  1.00  0.00     0.010 A 
ATOM     17  C   UNL A   1      32.695  17.639  22.944  1.00  0.00     0.001 A 
ATOM     18  C   UNL A   1      34.709  17.203  24.202  1.00  0.00     0.001 A 
ATOM     19  C   UNL A   1      33.685  16.755  23.369  1.00  0.00     0.000 A 
ENDBRANCH  11  14
ENDBRANCH  10  11
ENDBRANCH   9  10
ENDBRANCH   8   9
ENDBRANCH   7   8
ENDBRANCH   6   7
ENDBRANCH   4   6
ENDBRANCH   1   2
BRANCH   1  20
ATOM     20  C   UNL A   1      31.515  29.416  24.246  1.00  0.00     0.023 C 
BRANCH  20  21
ATOM     21  C   UNL A   1      32.526  29.405  25.400  1.00  0.00     0.023 C 
BRANCH  21  22
ATOM     22  C   UNL A   1      32.029  30.005  26.713  1.00  0.00     0.116 C 
BRANCH  22  23
ATOM     23  N   UNL A   1      32.124  31.457  26.726  1.00  0.00    -0.352 N 
ATOM     24  C   UNL A   1      33.033  32.276  27.349  1.00  0.00     0.251 C 
ATOM     25  H   UNL A   1      31.429  31.924  26.208  1.00  0.00     0.163 HD
ATOM     26  O   UNL A   1      32.816  33.488  27.401  1.00  0.00    -0.269 OA
BRANCH  24  27
ATOM     27  C   UNL A   1      34.256  31.721  27.970  1.00  0.00     0.039 A 
ATOM     28  C   UNL A   1      35.339  32.573  28.207  1.00  0.00     0.014 A 
ATOM     29  C   UNL A   1      34.356  30.366  28.292  1.00  0.00     0.014 A 
ATOM     30  C   UNL A   1      36.494  32.080  28.822  1.00  0.00     0.010 A 
ATOM     31  C   UNL A   1      35.478  29.891  28.972  1.00  0.00     0.010 A 
ATOM     32  C   UNL A   1      36.561  30.742  29.243  1.00  0.00    -0.014 A 
BRANCH  32  33
ATOM     33  C   UNL A   1      37.743  30.223  29.983  1.00  0.00     0.031 A 
ATOM     34  C   UNL A   1      38.035  30.687  31.386  1.00  0.00     0.074 A 
ATOM     35  C   UNL A   1      38.605  29.393  29.360  1.00  0.00     0.049 A 
ATOM     36  N   UNL A   1      39.044  30.383  32.162  1.00  0.00    -0.248 NA
ATOM     37  C   UNL A   1      37.082  31.633  31.989  1.00  0.00     0.031 C 
ATOM     38  C   UNL A   1      38.477  28.924  27.979  1.00  0.00     0.029 A 
ATOM     39  N   UNL A   1      39.773  28.819  29.797  1.00  0.00    -0.354 N 
ATOM     40  C   UNL A   1      38.870  31.127  33.323  1.00  0.00     0.074 A 
ATOM     41  C   UNL A   1      37.673  31.918  33.140  1.00  0.00     0.031 C 
ATOM     42  C   UNL A   1      39.520  28.130  27.685  1.00  0.00     0.029 A 
ATOM     43  C   UNL A   1      40.409  28.063  28.839  1.00  0.00     0.049 A 
ATOM     44  H   UNL A   1      40.124  28.938  30.710  1.00  0.00     0.167 HD
ATOM     45  C   UNL A   1      39.624  31.134  34.449  1.00  0.00     0.034 A 
ATOM     46  C   UNL A   1      41.582  27.398  28.881  1.00  0.00     0.034 A 
ATOM     47  C   UNL A   1      40.794  30.319  34.644  1.00  0.00     0.049 A 
ATOM     48  C   UNL A   1      42.385  27.404  30.153  1.00  0.00     0.074 A 
ATOM     49  C   UNL A   1      41.568  30.187  35.783  1.00  0.00     0.029 A 
ATOM     50  N   UNL A   1      41.366  29.509  33.676  1.00  0.00    -0.354 N 
ATOM     51  N   UNL A   1      42.117  27.986  31.296  1.00  0.00    -0.248 NA
ATOM     52  C   UNL A   1      43.636  26.632  30.153  1.00  0.00     0.031 C 
ATOM     53  C   UNL A   1      42.630  29.325  35.493  1.00  0.00     0.029 A 
ATOM     54  C   UNL A   1      42.494  28.888  34.186  1.00  0.00     0.049 A 
ATOM     55  H   UNL A   1      41.021  29.392  32.762  1.00  0.00     0.167 HD
ATOM     56  C   UNL A   1      43.142  27.619  32.161  1.00  0.00     0.074 A 
ATOM     57  C   UNL A   1      44.025  26.747  31.414  1.00  0.00     0.031 C 
ATOM     58  C   UNL A   1      43.339  27.980  33.453  1.00  0.00     0.034 A 
BRANCH  45  59
ATOM     59  C   UNL A   1      39.188  32.028  35.583  1.00  0.00     0.023 A 
ATOM     60  C   UNL A   1      38.313  31.529  36.570  1.00  0.00     0.012 A 
ATOM     61  C   UNL A   1      39.697  33.336  35.709  1.00  0.00     0.148 A 
ATOM     62  C   UNL A   1      37.924  32.328  37.645  1.00  0.00     0.002 A 
ATOM     63  C   UNL A   1      39.343  34.110  36.807  1.00  0.00     0.091 A 
ATOM     64  F   UNL A   1      40.513  33.799  34.752  1.00  0.00    -0.205 F 
ATOM     65  C   UNL A   1      38.446  33.612  37.769  1.00  0.00     0.022 A 
BRANCH  63  66
ATOM     66  S   UNL A   1      40.024  35.745  37.103  1.00  0.00     0.127 S 
ATOM     67  O   UNL A   1      41.450  35.451  37.232  1.00  0.00    -0.237 OA
ATOM     68  O   UNL A   1      39.657  36.456  35.878  1.00  0.00    -0.237 OA
ATOM     69  O   UNL A   1      39.377  36.238  38.311  1.00  0.00    -0.744 OA
ENDBRANCH  63  66
ENDBRANCH  45  59
BRANCH  46  70
ATOM     70  C   UNL A   1      42.042  26.622  27.693  1.00  0.00     0.023 A 
ATOM     71  C   UNL A   1      42.781  27.273  26.686  1.00  0.00     0.012 A 
ATOM     72  C   UNL A   1      41.766  25.248  27.563  1.00  0.00     0.148 A 
ATOM     73  C   UNL A   1      43.205  26.578  25.552  1.00  0.00     0.002 A 
ATOM     74  C   UNL A   1      42.241  24.548  26.460  1.00  0.00     0.091 A 
ATOM     75  F   UNL A   1      41.054  24.648  28.528  1.00  0.00    -0.205 F 
ATOM     76  C   UNL A   1      42.942  25.215  25.443  1.00  0.00     0.022 A 
BRANCH  74  77
ATOM     77  S   UNL A   1      42.066  22.768  26.299  1.00  0.00     0.127 S 
ATOM     78  O   UNL A   1      42.703  22.519  25.009  1.00  0.00    -0.237 OA
ATOM     79  O   UNL A   1      42.817  22.286  27.460  1.00  0.00    -0.237 OA
ATOM     80  O   UNL A   1      40.636  22.504  26.360  1.00  0.00    -0.744 OA
ENDBRANCH  74  77
ENDBRANCH  46  70
BRANCH  58  81
ATOM     81  C   UNL A   1      44.531  27.400  34.170  1.00  0.00     0.023 A 
ATOM     82  C   UNL A   1      45.775  28.060  34.120  1.00  0.00     0.012 A 
ATOM     83  C   UNL A   1      44.397  26.235  34.952  1.00  0.00     0.148 A 
ATOM     84  C   UNL A   1      46.876  27.550  34.810  1.00  0.00     0.002 A 
ATOM     85  C   UNL A   1      45.484  25.763  35.679  1.00  0.00     0.091 A 
ATOM     86  F   UNL A   1      43.211  25.612  34.972  1.00  0.00    -0.205 F 
ATOM     87  C   UNL A   1      46.727  26.411  35.598  1.00  0.00     0.022 A 
BRANCH  85  88
ATOM     88  S   UNL A   1      45.360  24.363  36.798  1.00  0.00     0.127 S 
ATOM     89  O   UNL A   1      44.968  23.289  35.887  1.00  0.00    -0.237 OA
ATOM     90  O   UNL A   1      46.725  24.258  37.313  1.00  0.00    -0.237 OA
ATOM     91  O   UNL A   1      44.364  24.730  37.794  1.00  0.00    -0.744 OA
ENDBRANCH  85  88
ENDBRANCH  58  81
ENDBRANCH  32  33
ENDBRANCH  24  27
ENDBRANCH  22  23
ENDBRANCH  21  22
ENDBRANCH  20  21
ENDBRANCH   1  20
TORSDOF 20
ENDMDL
MODEL 3
REMARK VINA RESULT:     -10.0      3.776      8.682
REMARK SMILES O=C(CCCCCC(F)(F)c1ccccc1)NCCCCNC(=O)c1ccc(-c2c3nc(c(-c4cccc(S(=O)(=O)[O-])c4F)c4ccc([nH]4)c(-c4cccc(S(=O)(=O)[O-])c4F)c4nc(c(-c5cccc(S(=O)(=O)[O-])c5F)c5ccc2[nH]5)C=C4)C=C3)cc1
REMARK SMILES IDX 18 1 17 2 1 3 2 4 3 6 4 7 5 8 6 9 7 10 8 11 9 12 10 13 11 14
REMARK SMILES IDX 12 15 16 16 13 17 15 18 14 19 19 20 20 21 21 22 22 23 23 24
REMARK SMILES IDX 24 26 25 27 26 28 87 29 27 30 86 31 28 32 29 33 30 34 80 35
REMARK SMILES IDX 31 36 85 37 79 38 81 39 32 40 84 41 78 42 77 43 33 45 65 46
REMARK SMILES IDX 45 47 64 48 46 49 49 50 63 51 82 52 47 53 48 54 62 56 83 57
REMARK SMILES IDX 50 58 34 59 35 60 43 61 36 62 38 63 44 64 37 65 39 66 40 67
REMARK SMILES IDX 41 68 42 69 66 70 67 71 75 72 68 73 70 74 76 75 69 76 71 77
REMARK SMILES IDX 72 78 73 79 74 80 51 81 52 82 60 83 53 84 55 85 61 86 54 87
REMARK SMILES IDX 56 88 57 89 58 90 59 91
REMARK H PARENT 17 5 22 25 81 44 49 55
REMARK Flexibility Score: inf
ROOT
ATOM      1  C   UNL A   1      31.950  28.748  23.678  1.00  0.00     0.116 C 
ENDROOT
BRANCH   1   2
ATOM      2  N   UNL A   1      31.736  27.320  23.646  1.00  0.00    -0.356 N 
ATOM      3  O   UNL A   1      30.693  27.250  21.597  1.00  0.00    -0.275 OA
ATOM      4  C   UNL A   1      31.191  26.677  22.561  1.00  0.00     0.219 C 
ATOM      5  H   UNL A   1      31.990  26.786  24.433  1.00  0.00     0.163 HD
BRANCH   4   6
ATOM      6  C   UNL A   1      31.334  25.172  22.632  1.00  0.00     0.100 C 
BRANCH   6   7
ATOM      7  C   UNL A   1      32.716  24.742  22.144  1.00  0.00     0.010 C 
BRANCH   7   8
ATOM      8  C   UNL A   1      33.514  23.854  23.112  1.00  0.00     0.001 C 
BRANCH   8   9
ATOM      9  C   UNL A   1      33.596  24.337  24.566  1.00  0.00     0.007 C 
BRANCH   9  10
ATOM     10  C   UNL A   1      32.858  23.508  25.629  1.00  0.00     0.082 C 
BRANCH  10  11
ATOM     11  C   UNL A   1      33.706  22.531  26.467  1.00  0.00     0.273 C 
ATOM     12  F   UNL A   1      33.613  22.923  27.772  1.00  0.00    -0.201 F 
ATOM     13  F   UNL A   1      33.074  21.318  26.412  1.00  0.00    -0.201 F 
BRANCH  11  14
ATOM     14  C   UNL A   1      35.141  22.407  25.996  1.00  0.00     0.021 A 
ATOM     15  C   UNL A   1      36.087  23.386  26.338  1.00  0.00     0.010 A 
ATOM     16  C   UNL A   1      35.524  21.365  25.138  1.00  0.00     0.010 A 
ATOM     17  C   UNL A   1      37.355  23.376  25.753  1.00  0.00     0.001 A 
ATOM     18  C   UNL A   1      36.787  21.365  24.545  1.00  0.00     0.001 A 
ATOM     19  C   UNL A   1      37.695  22.380  24.839  1.00  0.00     0.000 A 
ENDBRANCH  11  14
ENDBRANCH  10  11
ENDBRANCH   9  10
ENDBRANCH   8   9
ENDBRANCH   7   8
ENDBRANCH   6   7
ENDBRANCH   4   6
ENDBRANCH   1   2
BRANCH   1  20
ATOM     20  C   UNL A   1      33.434  29.092  23.766  1.00  0.00     0.023 C 
BRANCH  20  21
ATOM     21  C   UNL A   1      34.246  28.222  24.736  1.00  0.00     0.023 C 
BRANCH  21  22
ATOM     22  C   UNL A   1      33.973  28.463  26.218  1.00  0.00     0.116 C 
BRANCH  22  23
ATOM     23  N   UNL A   1      33.804  29.876  26.526  1.00  0.00    -0.352 N 
ATOM     24  C   UNL A   1      34.516  30.684  27.377  1.00  0.00     0.251 C 
ATOM     25  H   UNL A   1      33.066  30.320  26.050  1.00  0.00     0.163 HD
ATOM     26  O   UNL A   1      34.084  31.805  27.647  1.00  0.00    -0.269 OA
BRANCH  24  27
ATOM     27  C   UNL A   1      35.784  30.220  27.984  1.00  0.00     0.039 A 
ATOM     28  C   UNL A   1      35.762  29.698  29.280  1.00  0.00     0.014 A 
ATOM     29  C   UNL A   1      36.997  30.325  27.298  1.00  0.00     0.014 A 
ATOM     30  C   UNL A   1      36.942  29.225  29.862  1.00  0.00     0.010 A 
ATOM     31  C   UNL A   1      38.159  29.785  27.849  1.00  0.00     0.010 A 
ATOM     32  C   UNL A   1      38.145  29.230  29.139  1.00  0.00    -0.014 A 
BRANCH  32  33
ATOM     33  C   UNL A   1      39.390  28.644  29.706  1.00  0.00     0.031 A 
ATOM     34  C   UNL A   1      40.034  29.245  30.928  1.00  0.00     0.074 A 
ATOM     35  C   UNL A   1      39.990  27.617  29.070  1.00  0.00     0.049 A 
ATOM     36  N   UNL A   1      41.145  28.901  31.528  1.00  0.00    -0.248 NA
ATOM     37  C   UNL A   1      39.356  30.397  31.543  1.00  0.00     0.031 C 
ATOM     38  C   UNL A   1      39.509  26.989  27.838  1.00  0.00     0.029 A 
ATOM     39  N   UNL A   1      41.149  26.938  29.356  1.00  0.00    -0.354 N 
ATOM     40  C   UNL A   1      41.319  29.813  32.563  1.00  0.00     0.074 A 
ATOM     41  C   UNL A   1      40.214  30.743  32.492  1.00  0.00     0.031 C 
ATOM     42  C   UNL A   1      40.360  26.014  27.478  1.00  0.00     0.029 A 
ATOM     43  C   UNL A   1      41.465  25.971  28.429  1.00  0.00     0.049 A 
ATOM     44  H   UNL A   1      41.702  27.125  30.149  1.00  0.00     0.167 HD
ATOM     45  C   UNL A   1      42.296  29.859  33.500  1.00  0.00     0.034 A 
ATOM     46  C   UNL A   1      42.531  25.149  28.347  1.00  0.00     0.034 A 
ATOM     47  C   UNL A   1      43.374  28.910  33.591  1.00  0.00     0.049 A 
ATOM     48  C   UNL A   1      43.587  25.206  29.416  1.00  0.00     0.074 A 
ATOM     49  C   UNL A   1      44.357  28.818  34.561  1.00  0.00     0.029 A 
ATOM     50  N   UNL A   1      43.620  27.899  32.676  1.00  0.00    -0.354 N 
ATOM     51  N   UNL A   1      43.647  25.972  30.478  1.00  0.00    -0.248 NA
ATOM     52  C   UNL A   1      44.707  24.260  29.296  1.00  0.00     0.031 C 
ATOM     53  C   UNL A   1      45.220  27.775  34.213  1.00  0.00     0.029 A 
ATOM     54  C   UNL A   1      44.751  27.190  33.048  1.00  0.00     0.049 A 
ATOM     55  H   UNL A   1      43.073  27.713  31.880  1.00  0.00     0.167 HD
ATOM     56  C   UNL A   1      44.785  25.574  31.172  1.00  0.00     0.074 A 
ATOM     57  C   UNL A   1      45.373  24.486  30.419  1.00  0.00     0.031 C 
ATOM     58  C   UNL A   1      45.301  26.074  32.322  1.00  0.00     0.034 A 
BRANCH  45  59
ATOM     59  C   UNL A   1      42.228  30.954  34.535  1.00  0.00     0.023 A 
ATOM     60  C   UNL A   1      41.588  30.712  35.768  1.00  0.00     0.012 A 
ATOM     61  C   UNL A   1      42.855  32.196  34.314  1.00  0.00     0.148 A 
ATOM     62  C   UNL A   1      41.543  31.699  36.751  1.00  0.00     0.002 A 
ATOM     63  C   UNL A   1      42.848  33.158  35.317  1.00  0.00     0.091 A 
ATOM     64  F   UNL A   1      43.443  32.415  33.130  1.00  0.00    -0.205 F 
ATOM     65  C   UNL A   1      42.181  32.917  36.530  1.00  0.00     0.022 A 
BRANCH  63  66
ATOM     66  S   UNL A   1      43.710  34.726  35.164  1.00  0.00     0.127 S 
ATOM     67  O   UNL A   1      42.985  35.356  34.063  1.00  0.00    -0.237 OA
ATOM     68  O   UNL A   1      43.475  35.335  36.475  1.00  0.00    -0.237 OA
ATOM     69  O   UNL A   1      45.101  34.396  34.888  1.00  0.00    -0.744 OA
ENDBRANCH  63  66
ENDBRANCH  45  59
BRANCH  46  70
ATOM     70  C   UNL A   1      42.625  24.158  27.236  1.00  0.00     0.023 A 
ATOM     71  C   UNL A   1      43.311  24.505  26.056  1.00  0.00     0.012 A 
ATOM     72  C   UNL A   1      42.054  22.876  27.346  1.00  0.00     0.148 A 
ATOM     73  C   UNL A   1      43.395  23.608  24.990  1.00  0.00     0.002 A 
ATOM     74  C   UNL A   1      42.192  21.965  26.305  1.00  0.00     0.091 A 
ATOM     75  F   UNL A   1      41.398  22.567  28.474  1.00  0.00    -0.205 F 
ATOM     76  C   UNL A   1      42.843  22.336  25.118  1.00  0.00     0.022 A 
BRANCH  74  77
ATOM     77  S   UNL A   1      41.630  20.264  26.432  1.00  0.00     0.127 S 
ATOM     78  O   UNL A   1      42.327  19.634  25.313  1.00  0.00    -0.237 OA
ATOM     79  O   UNL A   1      42.121  19.883  27.757  1.00  0.00    -0.237 OA
ATOM     80  O   UNL A   1      40.179  20.318  26.323  1.00  0.00    -0.744 OA
ENDBRANCH  74  77
ENDBRANCH  46  70
BRANCH  58  81
ATOM     81  C   UNL A   1      46.543  25.423  32.875  1.00  0.00     0.023 A 
ATOM     82  C   UNL A   1      47.815  25.930  32.540  1.00  0.00     0.012 A 
ATOM     83  C   UNL A   1      46.444  24.351  33.783  1.00  0.00     0.148 A 
ATOM     84  C   UNL A   1      48.969  25.357  33.075  1.00  0.00     0.002 A 
ATOM     85  C   UNL A   1      47.595  23.820  34.353  1.00  0.00     0.091 A 
ATOM     86  F   UNL A   1      45.227  23.871  34.075  1.00  0.00    -0.205 F 
ATOM     87  C   UNL A   1      48.858  24.313  33.990  1.00  0.00     0.022 A 
BRANCH  85  88
ATOM     88  S   UNL A   1      47.545  22.541  35.614  1.00  0.00     0.127 S 
ATOM     89  O   UNL A   1      46.981  21.415  34.872  1.00  0.00    -0.237 OA
ATOM     90  O   UNL A   1      48.958  22.396  35.964  1.00  0.00    -0.237 OA
ATOM     91  O   UNL A   1      46.708  23.064  36.685  1.00  0.00    -0.744 OA
ENDBRANCH  85  88
ENDBRANCH  58  81
ENDBRANCH  32  33
ENDBRANCH  24  27
ENDBRANCH  22  23
ENDBRANCH  21  22
ENDBRANCH  20  21
ENDBRANCH   1  20
TORSDOF 20
ENDMDL
