MODEL 1
REMARK VINA RESULT:     -12.7      0.000      0.000
REMARK SMILES O=C(NCCCCNC(=O)[C@H]1CC=CC[C@@H]1C(=O)N[C@@H]1CCCN(c2ccccc2F)C1=O)c1ccc(-c2c3nc(c(-c4cccc(S(=O)(=O)[O-])c4F)c4ccc([nH]4)c(-c4cccc(S(=O)(=O)[O-])c4F)c4nc(c(-c5cccc(S(=O)(=O)[O-])c5F)c5ccc2[nH]5)C=C4)C=C3)cc1
REMARK SMILES IDX 5 1 4 2 3 3 1 4 2 5 34 7 35 8 96 9 36 10 95 11 37 12 38 13
REMARK SMILES IDX 39 14 89 15 40 16 94 17 88 18 90 19 41 20 93 21 87 22 86 23
REMARK SMILES IDX 42 25 74 26 54 27 73 28 55 29 58 30 72 31 91 32 56 33 57 34
REMARK SMILES IDX 71 36 92 37 59 38 43 39 44 40 52 41 45 42 47 43 53 44 46 45
REMARK SMILES IDX 48 46 49 47 50 48 51 49 75 50 76 51 84 52 77 53 79 54 85 55
REMARK SMILES IDX 78 56 80 57 81 58 82 59 83 60 60 61 61 62 69 63 62 64 64 65
REMARK SMILES IDX 70 66 63 67 65 68 66 69 67 70 68 71 6 72 7 73 8 74 9 75
REMARK SMILES IDX 10 77 11 78 12 79 16 80 13 81 15 82 14 83 17 84 18 85 19 86
REMARK SMILES IDX 20 88 21 89 32 90 22 91 24 92 33 93 23 94 25 95 26 96 30 97
REMARK SMILES IDX 27 98 29 99 31 100 28 101
REMARK H PARENT 3 6 90 24 58 35 8 76 19 87
REMARK Flexibility Score: inf
ROOT
ATOM      1  C   UNL A   1      31.615  31.826  26.874  1.00  0.00     0.023 C 
ENDROOT
BRANCH   1   2
ATOM      2  C   UNL A   1      32.373  33.132  26.668  1.00  0.00     0.116 C 
BRANCH   2   3
ATOM      3  N   UNL A   1      32.154  34.171  27.677  1.00  0.00    -0.352 N 
ATOM      4  O   UNL A   1      32.680  35.414  29.507  1.00  0.00    -0.269 OA
ATOM      5  C   UNL A   1      32.989  34.517  28.729  1.00  0.00     0.251 C 
ATOM      6  H   UNL A   1      31.317  34.684  27.600  1.00  0.00     0.163 HD
BRANCH   5   7
ATOM      7  C   UNL A   1      34.224  33.727  28.924  1.00  0.00     0.039 A 
ATOM      8  C   UNL A   1      34.135  32.536  29.629  1.00  0.00     0.014 A 
ATOM      9  C   UNL A   1      35.475  34.263  28.603  1.00  0.00     0.014 A 
ATOM     10  C   UNL A   1      35.247  32.092  30.313  1.00  0.00     0.010 A 
ATOM     11  C   UNL A   1      36.632  33.664  29.118  1.00  0.00     0.010 A 
ATOM     12  C   UNL A   1      36.525  32.613  30.039  1.00  0.00    -0.014 A 
BRANCH  12  13
ATOM     13  C   UNL A   1      37.689  31.964  30.706  1.00  0.00     0.031 A 
ATOM     14  C   UNL A   1      37.998  32.160  32.165  1.00  0.00     0.074 A 
ATOM     15  C   UNL A   1      38.415  31.094  29.972  1.00  0.00     0.049 A 
ATOM     16  N   UNL A   1      38.956  31.616  32.870  1.00  0.00    -0.248 NA
ATOM     17  C   UNL A   1      37.157  33.094  32.932  1.00  0.00     0.031 C 
ATOM     18  C   UNL A   1      38.221  30.860  28.537  1.00  0.00     0.029 A 
ATOM     19  N   UNL A   1      39.392  30.198  30.314  1.00  0.00    -0.354 N 
ATOM     20  C   UNL A   1      38.895  32.205  34.128  1.00  0.00     0.074 A 
ATOM     21  C   UNL A   1      37.780  33.126  34.104  1.00  0.00     0.031 C 
ATOM     22  C   UNL A   1      38.919  29.786  28.164  1.00  0.00     0.029 A 
ATOM     23  C   UNL A   1      39.749  29.361  29.281  1.00  0.00     0.049 A 
ATOM     24  H   UNL A   1      39.800  30.157  31.210  1.00  0.00     0.167 HD
ATOM     25  C   UNL A   1      39.705  31.995  35.193  1.00  0.00     0.034 A 
ATOM     26  C   UNL A   1      40.667  28.378  29.213  1.00  0.00     0.034 A 
ATOM     27  C   UNL A   1      40.762  31.015  35.210  1.00  0.00     0.049 A 
ATOM     28  C   UNL A   1      41.497  28.114  30.426  1.00  0.00     0.074 A 
ATOM     29  C   UNL A   1      41.613  30.691  36.251  1.00  0.00     0.029 A 
ATOM     30  N   UNL A   1      41.103  30.193  34.145  1.00  0.00    -0.354 N 
ATOM     31  N   UNL A   1      41.405  28.667  31.611  1.00  0.00    -0.248 NA
ATOM     32  C   UNL A   1      42.566  27.117  30.300  1.00  0.00     0.031 C 
ATOM     33  C   UNL A   1      42.479  29.687  35.810  1.00  0.00     0.029 A 
ATOM     34  C   UNL A   1      42.153  29.366  34.501  1.00  0.00     0.049 A 
ATOM     35  H   UNL A   1      40.663  30.199  33.264  1.00  0.00     0.167 HD
ATOM     36  C   UNL A   1      42.412  28.099  32.374  1.00  0.00     0.074 A 
ATOM     37  C   UNL A   1      43.076  27.127  31.526  1.00  0.00     0.031 C 
ATOM     38  C   UNL A   1      42.773  28.382  33.648  1.00  0.00     0.034 A 
BRANCH  25  39
ATOM     39  C   UNL A   1      39.493  32.823  36.435  1.00  0.00     0.023 A 
ATOM     40  C   UNL A   1      40.070  34.104  36.538  1.00  0.00     0.012 A 
ATOM     41  C   UNL A   1      38.636  32.370  37.461  1.00  0.00     0.148 A 
ATOM     42  C   UNL A   1      39.815  34.911  37.649  1.00  0.00     0.002 A 
ATOM     43  C   UNL A   1      38.354  33.195  38.544  1.00  0.00     0.091 A 
ATOM     44  F   UNL A   1      38.114  31.140  37.359  1.00  0.00    -0.205 F 
ATOM     45  C   UNL A   1      38.949  34.463  38.644  1.00  0.00     0.022 A 
BRANCH  43  46
ATOM     46  S   UNL A   1      37.185  32.735  39.829  1.00  0.00     0.127 S 
ATOM     47  O   UNL A   1      35.948  32.589  39.064  1.00  0.00    -0.237 OA
ATOM     48  O   UNL A   1      37.746  31.476  40.325  1.00  0.00    -0.237 OA
ATOM     49  O   UNL A   1      37.205  33.825  40.794  1.00  0.00    -0.744 OA
ENDBRANCH  43  46
ENDBRANCH  25  39
BRANCH  26  50
ATOM     50  C   UNL A   1      40.804  27.607  27.944  1.00  0.00     0.023 A 
ATOM     51  C   UNL A   1      41.485  28.179  26.854  1.00  0.00     0.012 A 
ATOM     52  C   UNL A   1      40.431  26.248  27.882  1.00  0.00     0.148 A 
ATOM     53  C   UNL A   1      41.815  27.403  25.739  1.00  0.00     0.002 A 
ATOM     54  C   UNL A   1      40.843  25.463  26.813  1.00  0.00     0.091 A 
ATOM     55  F   UNL A   1      39.755  25.728  28.918  1.00  0.00    -0.205 F 
ATOM     56  C   UNL A   1      41.522  26.041  25.732  1.00  0.00     0.022 A 
BRANCH  54  57
ATOM     57  S   UNL A   1      40.720  23.668  26.852  1.00  0.00     0.127 S 
ATOM     58  O   UNL A   1      41.201  23.364  28.196  1.00  0.00    -0.237 OA
ATOM     59  O   UNL A   1      39.286  23.458  26.644  1.00  0.00    -0.237 OA
ATOM     60  O   UNL A   1      41.554  23.198  25.754  1.00  0.00    -0.744 OA
ENDBRANCH  54  57
ENDBRANCH  26  50
BRANCH  38  61
ATOM     61  C   UNL A   1      43.941  27.626  34.214  1.00  0.00     0.023 A 
ATOM     62  C   UNL A   1      45.217  28.221  34.210  1.00  0.00     0.012 A 
ATOM     63  C   UNL A   1      43.751  26.380  34.839  1.00  0.00     0.148 A 
ATOM     64  C   UNL A   1      46.295  27.575  34.813  1.00  0.00     0.002 A 
ATOM     65  C   UNL A   1      44.820  25.764  35.476  1.00  0.00     0.091 A 
ATOM     66  F   UNL A   1      42.528  25.830  34.808  1.00  0.00    -0.205 F 
ATOM     67  C   UNL A   1      46.094  26.356  35.457  1.00  0.00     0.022 A 
BRANCH  65  68
ATOM     68  S   UNL A   1      44.634  24.242  36.409  1.00  0.00     0.127 S 
ATOM     69  O   UNL A   1      43.872  24.696  37.570  1.00  0.00    -0.237 OA
ATOM     70  O   UNL A   1      43.884  23.398  35.476  1.00  0.00    -0.237 OA
ATOM     71  O   UNL A   1      45.985  23.776  36.693  1.00  0.00    -0.744 OA
ENDBRANCH  65  68
ENDBRANCH  38  61
ENDBRANCH  12  13
ENDBRANCH   5   7
ENDBRANCH   2   3
ENDBRANCH   1   2
BRANCH   1  72
ATOM     72  C   UNL A   1      32.576  30.645  26.961  1.00  0.00     0.023 C 
BRANCH  72  73
ATOM     73  C   UNL A   1      31.958  29.277  27.244  1.00  0.00     0.116 C 
BRANCH  73  74
ATOM     74  N   UNL A   1      32.842  28.144  27.068  1.00  0.00    -0.356 N 
ATOM     75  C   UNL A   1      33.121  27.413  25.945  1.00  0.00     0.224 C 
ATOM     76  H   UNL A   1      33.317  27.855  27.880  1.00  0.00     0.163 HD
ATOM     77  O   UNL A   1      34.188  26.799  25.939  1.00  0.00    -0.275 OA
BRANCH  75  78
ATOM     78  C   UNL A   1      32.118  27.327  24.779  1.00  0.00     0.095 C 
ATOM     79  C   UNL A   1      31.961  28.694  24.090  1.00  0.00     0.041 C 
ATOM     80  C   UNL A   1      32.552  26.195  23.809  1.00  0.00     0.095 C 
ATOM     81  C   UNL A   1      32.907  28.953  22.953  1.00  0.00    -0.030 C 
ATOM     82  C   UNL A   1      33.754  26.599  22.926  1.00  0.00     0.041 C 
ATOM     83  C   UNL A   1      33.721  28.021  22.443  1.00  0.00    -0.030 C 
BRANCH  80  84
ATOM     84  C   UNL A   1      31.407  25.745  22.902  1.00  0.00     0.224 C 
ATOM     85  O   UNL A   1      30.780  26.550  22.206  1.00  0.00    -0.275 OA
ATOM     86  N   UNL A   1      31.047  24.443  22.751  1.00  0.00    -0.344 N 
ATOM     87  H   UNL A   1      30.645  24.261  21.871  1.00  0.00     0.164 HD
BRANCH  86  88
ATOM     88  C   UNL A   1      31.118  23.241  23.599  1.00  0.00     0.172 C 
ATOM     89  C   UNL A   1      30.626  23.529  25.022  1.00  0.00     0.037 C 
ATOM     90  C   UNL A   1      32.371  22.343  23.428  1.00  0.00     0.249 C 
ATOM     91  C   UNL A   1      31.563  23.060  26.112  1.00  0.00     0.025 C 
ATOM     92  N   UNL A   1      33.285  22.378  24.481  1.00  0.00    -0.308 N 
ATOM     93  O   UNL A   1      32.512  21.679  22.401  1.00  0.00    -0.272 OA
ATOM     94  C   UNL A   1      32.992  23.182  25.652  1.00  0.00     0.126 C 
BRANCH  92  95
ATOM     95  C   UNL A   1      34.651  21.967  24.339  1.00  0.00     0.080 A 
ATOM     96  C   UNL A   1      35.093  20.806  24.999  1.00  0.00     0.029 A 
ATOM     97  C   UNL A   1      35.615  22.774  23.716  1.00  0.00     0.146 A 
ATOM     98  C   UNL A   1      36.453  20.509  25.108  1.00  0.00     0.002 A 
ATOM     99  C   UNL A   1      36.973  22.472  23.814  1.00  0.00     0.041 A 
ATOM    100  F   UNL A   1      35.283  23.939  23.142  1.00  0.00    -0.205 F 
ATOM    101  C   UNL A   1      37.394  21.352  24.529  1.00  0.00     0.003 A 
ENDBRANCH  92  95
ENDBRANCH  86  88
ENDBRANCH  80  84
ENDBRANCH  75  78
ENDBRANCH  73  74
ENDBRANCH  72  73
ENDBRANCH   1  72
TORSDOF 17
ENDMDL
MODEL 2
REMARK VINA RESULT:     -12.7      1.704      3.554
REMARK SMILES O=C(NCCCCNC(=O)[C@H]1CC=CC[C@@H]1C(=O)N[C@@H]1CCCN(c2ccccc2F)C1=O)c1ccc(-c2c3nc(c(-c4cccc(S(=O)(=O)[O-])c4F)c4ccc([nH]4)c(-c4cccc(S(=O)(=O)[O-])c4F)c4nc(c(-c5cccc(S(=O)(=O)[O-])c5F)c5ccc2[nH]5)C=C4)C=C3)cc1
REMARK SMILES IDX 5 1 4 2 3 3 1 4 2 5 34 7 35 8 96 9 36 10 95 11 37 12 38 13
REMARK SMILES IDX 39 14 89 15 40 16 94 17 88 18 90 19 41 20 93 21 87 22 86 23
REMARK SMILES IDX 42 25 74 26 54 27 73 28 55 29 58 30 72 31 91 32 56 33 57 34
REMARK SMILES IDX 71 36 92 37 59 38 43 39 44 40 52 41 45 42 47 43 53 44 46 45
REMARK SMILES IDX 48 46 49 47 50 48 51 49 75 50 76 51 84 52 77 53 79 54 85 55
REMARK SMILES IDX 78 56 80 57 81 58 82 59 83 60 60 61 61 62 69 63 62 64 64 65
REMARK SMILES IDX 70 66 63 67 65 68 66 69 67 70 68 71 6 72 7 73 8 74 9 75
REMARK SMILES IDX 10 77 11 78 12 79 16 80 13 81 15 82 14 83 17 84 18 85 19 86
REMARK SMILES IDX 20 88 21 89 32 90 22 91 24 92 33 93 23 94 25 95 26 96 30 97
REMARK SMILES IDX 27 98 29 99 31 100 28 101
REMARK H PARENT 3 6 90 24 58 35 8 76 19 87
REMARK Flexibility Score: inf
ROOT
ATOM      1  C   UNL A   1      31.803  30.255  26.866  1.00  0.00     0.023 C 
ENDROOT
BRANCH   1   2
ATOM      2  C   UNL A   1      32.372  31.540  26.278  1.00  0.00     0.116 C 
BRANCH   2   3
ATOM      3  N   UNL A   1      32.122  32.765  27.042  1.00  0.00    -0.352 N 
ATOM      4  O   UNL A   1      32.648  34.441  28.486  1.00  0.00    -0.269 OA
ATOM      5  C   UNL A   1      32.990  33.414  27.907  1.00  0.00     0.251 C 
ATOM      6  H   UNL A   1      31.234  33.176  26.927  1.00  0.00     0.163 HD
BRANCH   5   7
ATOM      7  C   UNL A   1      34.309  32.796  28.160  1.00  0.00     0.039 A 
ATOM      8  C   UNL A   1      34.341  31.538  28.743  1.00  0.00     0.014 A 
ATOM      9  C   UNL A   1      35.486  33.537  28.022  1.00  0.00     0.014 A 
ATOM     10  C   UNL A   1      35.440  31.191  29.499  1.00  0.00     0.010 A 
ATOM     11  C   UNL A   1      36.670  33.061  28.602  1.00  0.00     0.010 A 
ATOM     12  C   UNL A   1      36.642  31.916  29.409  1.00  0.00    -0.014 A 
BRANCH  12  13
ATOM     13  C   UNL A   1      37.826  31.376  30.135  1.00  0.00     0.031 A 
ATOM     14  C   UNL A   1      38.081  31.659  31.590  1.00  0.00     0.074 A 
ATOM     15  C   UNL A   1      38.628  30.524  29.462  1.00  0.00     0.049 A 
ATOM     16  N   UNL A   1      39.052  31.212  32.345  1.00  0.00    -0.248 NA
ATOM     17  C   UNL A   1      37.160  32.570  32.291  1.00  0.00     0.031 C 
ATOM     18  C   UNL A   1      38.490  30.212  28.035  1.00  0.00     0.029 A 
ATOM     19  N   UNL A   1      39.651  29.711  29.871  1.00  0.00    -0.354 N 
ATOM     20  C   UNL A   1      38.917  31.853  33.571  1.00  0.00     0.074 A 
ATOM     21  C   UNL A   1      37.746  32.696  33.476  1.00  0.00     0.031 C 
ATOM     22  C   UNL A   1      39.267  29.171  27.731  1.00  0.00     0.029 A 
ATOM     23  C   UNL A   1      40.090  28.853  28.888  1.00  0.00     0.049 A 
ATOM     24  H   UNL A   1      40.035  29.738  30.778  1.00  0.00     0.167 HD
ATOM     25  C   UNL A   1      39.709  31.746  34.665  1.00  0.00     0.034 A 
ATOM     26  C   UNL A   1      41.072  27.931  28.890  1.00  0.00     0.034 A 
ATOM     27  C   UNL A   1      40.825  30.840  34.756  1.00  0.00     0.049 A 
ATOM     28  C   UNL A   1      41.883  27.778  30.135  1.00  0.00     0.074 A 
ATOM     29  C   UNL A   1      41.666  30.621  35.832  1.00  0.00     0.029 A 
ATOM     30  N   UNL A   1      41.250  29.994  33.740  1.00  0.00    -0.354 N 
ATOM     31  N   UNL A   1      41.721  28.378  31.290  1.00  0.00    -0.248 NA
ATOM     32  C   UNL A   1      43.017  26.849  30.084  1.00  0.00     0.031 C 
ATOM     33  C   UNL A   1      42.608  29.656  35.461  1.00  0.00     0.029 A 
ATOM     34  C   UNL A   1      42.341  29.255  34.161  1.00  0.00     0.049 A 
ATOM     35  H   UNL A   1      40.835  29.931  32.849  1.00  0.00     0.167 HD
ATOM     36  C   UNL A   1      42.741  27.913  32.104  1.00  0.00     0.074 A 
ATOM     37  C   UNL A   1      43.491  26.948  31.320  1.00  0.00     0.031 C 
ATOM     38  C   UNL A   1      43.046  28.276  33.372  1.00  0.00     0.034 A 
BRANCH  25  39
ATOM     39  C   UNL A   1      39.408  32.614  35.861  1.00  0.00     0.023 A 
ATOM     40  C   UNL A   1      39.879  33.941  35.908  1.00  0.00     0.012 A 
ATOM     41  C   UNL A   1      38.572  32.144  36.896  1.00  0.00     0.148 A 
ATOM     42  C   UNL A   1      39.539  34.778  36.972  1.00  0.00     0.002 A 
ATOM     43  C   UNL A   1      38.205  32.996  37.932  1.00  0.00     0.091 A 
ATOM     44  F   UNL A   1      38.152  30.872  36.849  1.00  0.00    -0.205 F 
ATOM     45  C   UNL A   1      38.694  34.311  37.976  1.00  0.00     0.022 A 
BRANCH  43  46
ATOM     46  S   UNL A   1      37.053  32.506  39.222  1.00  0.00     0.127 S 
ATOM     47  O   UNL A   1      37.514  31.153  39.531  1.00  0.00    -0.237 OA
ATOM     48  O   UNL A   1      37.319  33.493  40.270  1.00  0.00    -0.237 OA
ATOM     49  O   UNL A   1      35.727  32.599  38.628  1.00  0.00    -0.744 OA
ENDBRANCH  43  46
ENDBRANCH  25  39
BRANCH  26  50
ATOM     50  C   UNL A   1      41.295  27.113  27.663  1.00  0.00     0.023 A 
ATOM     51  C   UNL A   1      42.040  27.650  26.597  1.00  0.00     0.012 A 
ATOM     52  C   UNL A   1      40.936  25.749  27.630  1.00  0.00     0.148 A 
ATOM     53  C   UNL A   1      42.445  26.835  25.536  1.00  0.00     0.002 A 
ATOM     54  C   UNL A   1      41.420  24.928  26.621  1.00  0.00     0.091 A 
ATOM     55  F   UNL A   1      40.199  25.263  28.640  1.00  0.00    -0.205 F 
ATOM     56  C   UNL A   1      42.163  25.471  25.563  1.00  0.00     0.022 A 
BRANCH  54  57
ATOM     57  S   UNL A   1      41.308  23.135  26.721  1.00  0.00     0.127 S 
ATOM     58  O   UNL A   1      41.774  22.881  28.081  1.00  0.00    -0.237 OA
ATOM     59  O   UNL A   1      39.878  22.908  26.503  1.00  0.00    -0.237 OA
ATOM     60  O   UNL A   1      42.158  22.632  25.650  1.00  0.00    -0.744 OA
ENDBRANCH  54  57
ENDBRANCH  26  50
BRANCH  38  61
ATOM     61  C   UNL A   1      44.245  27.626  34.002  1.00  0.00     0.023 A 
ATOM     62  C   UNL A   1      45.509  28.232  33.873  1.00  0.00     0.012 A 
ATOM     63  C   UNL A   1      44.097  26.480  34.805  1.00  0.00     0.148 A 
ATOM     64  C   UNL A   1      46.616  27.695  34.527  1.00  0.00     0.002 A 
ATOM     65  C   UNL A   1      45.195  25.977  35.489  1.00  0.00     0.091 A 
ATOM     66  F   UNL A   1      42.884  25.914  34.892  1.00  0.00    -0.205 F 
ATOM     67  C   UNL A   1      46.457  26.578  35.344  1.00  0.00     0.022 A 
BRANCH  65  68
ATOM     68  S   UNL A   1      45.065  24.602  36.635  1.00  0.00     0.127 S 
ATOM     69  O   UNL A   1      44.642  23.517  35.750  1.00  0.00    -0.237 OA
ATOM     70  O   UNL A   1      46.435  24.485  37.134  1.00  0.00    -0.237 OA
ATOM     71  O   UNL A   1      44.087  25.004  37.638  1.00  0.00    -0.744 OA
ENDBRANCH  65  68
ENDBRANCH  38  61
ENDBRANCH  12  13
ENDBRANCH   5   7
ENDBRANCH   2   3
ENDBRANCH   1   2
BRANCH   1  72
ATOM     72  C   UNL A   1      32.917  29.266  27.197  1.00  0.00     0.023 C 
BRANCH  72  73
ATOM     73  C   UNL A   1      32.485  27.875  27.654  1.00  0.00     0.116 C 
BRANCH  73  74
ATOM     74  N   UNL A   1      31.276  27.363  27.042  1.00  0.00    -0.356 N 
ATOM     75  C   UNL A   1      31.025  26.143  26.477  1.00  0.00     0.224 C 
ATOM     76  H   UNL A   1      30.517  27.990  27.032  1.00  0.00     0.163 HD
ATOM     77  O   UNL A   1      29.845  25.796  26.417  1.00  0.00    -0.275 OA
BRANCH  75  78
ATOM     78  C   UNL A   1      32.164  25.282  25.899  1.00  0.00     0.095 C 
ATOM     79  C   UNL A   1      32.546  24.154  26.874  1.00  0.00     0.041 C 
ATOM     80  C   UNL A   1      31.757  24.766  24.492  1.00  0.00     0.095 C 
ATOM     81  C   UNL A   1      31.794  22.868  26.696  1.00  0.00    -0.030 C 
ATOM     82  C   UNL A   1      30.731  23.612  24.557  1.00  0.00     0.041 C 
ATOM     83  C   UNL A   1      30.969  22.631  25.668  1.00  0.00    -0.030 C 
BRANCH  80  84
ATOM     84  C   UNL A   1      32.965  24.304  23.678  1.00  0.00     0.224 C 
ATOM     85  O   UNL A   1      33.621  23.309  24.004  1.00  0.00    -0.275 OA
ATOM     86  N   UNL A   1      33.357  24.904  22.523  1.00  0.00    -0.344 N 
ATOM     87  H   UNL A   1      33.817  24.286  21.912  1.00  0.00     0.164 HD
BRANCH  86  88
ATOM     88  C   UNL A   1      33.253  26.268  21.975  1.00  0.00     0.172 C 
ATOM     89  C   UNL A   1      34.320  27.194  22.571  1.00  0.00     0.037 C 
ATOM     90  C   UNL A   1      31.822  26.833  21.782  1.00  0.00     0.249 C 
ATOM     91  C   UNL A   1      33.783  28.505  23.097  1.00  0.00     0.025 C 
ATOM     92  N   UNL A   1      31.446  27.835  22.676  1.00  0.00    -0.308 N 
ATOM     93  O   UNL A   1      31.098  26.376  20.897  1.00  0.00    -0.272 OA
ATOM     94  C   UNL A   1      32.400  28.308  23.660  1.00  0.00     0.126 C 
BRANCH  92  95
ATOM     95  C   UNL A   1      30.076  28.178  22.927  1.00  0.00     0.080 A 
ATOM     96  C   UNL A   1      29.238  27.245  23.565  1.00  0.00     0.029 A 
ATOM     97  C   UNL A   1      29.485  29.335  22.399  1.00  0.00     0.146 A 
ATOM     98  C   UNL A   1      27.854  27.419  23.596  1.00  0.00     0.002 A 
ATOM     99  C   UNL A   1      28.103  29.517  22.440  1.00  0.00     0.041 A 
ATOM    100  F   UNL A   1      30.203  30.229  21.702  1.00  0.00    -0.205 F 
ATOM    101  C   UNL A   1      27.285  28.548  23.019  1.00  0.00     0.003 A 
ENDBRANCH  92  95
ENDBRANCH  86  88
ENDBRANCH  80  84
ENDBRANCH  75  78
ENDBRANCH  73  74
ENDBRANCH  72  73
ENDBRANCH   1  72
TORSDOF 17
ENDMDL
MODEL 3
REMARK VINA RESULT:     -12.3      2.201      3.966
REMARK SMILES O=C(NCCCCNC(=O)[C@H]1CC=CC[C@@H]1C(=O)N[C@@H]1CCCN(c2ccccc2F)C1=O)c1ccc(-c2c3nc(c(-c4cccc(S(=O)(=O)[O-])c4F)c4ccc([nH]4)c(-c4cccc(S(=O)(=O)[O-])c4F)c4nc(c(-c5cccc(S(=O)(=O)[O-])c5F)c5ccc2[nH]5)C=C4)C=C3)cc1
REMARK SMILES IDX 5 1 4 2 3 3 1 4 2 5 34 7 35 8 96 9 36 10 95 11 37 12 38 13
REMARK SMILES IDX 39 14 89 15 40 16 94 17 88 18 90 19 41 20 93 21 87 22 86 23
REMARK SMILES IDX 42 25 74 26 54 27 73 28 55 29 58 30 72 31 91 32 56 33 57 34
REMARK SMILES IDX 71 36 92 37 59 38 43 39 44 40 52 41 45 42 47 43 53 44 46 45
REMARK SMILES IDX 48 46 49 47 50 48 51 49 75 50 76 51 84 52 77 53 79 54 85 55
REMARK SMILES IDX 78 56 80 57 81 58 82 59 83 60 60 61 61 62 69 63 62 64 64 65
REMARK SMILES IDX 70 66 63 67 65 68 66 69 67 70 68 71 6 72 7 73 8 74 9 75
REMARK SMILES IDX 10 77 11 78 12 79 16 80 13 81 15 82 14 83 17 84 18 85 19 86
REMARK SMILES IDX 20 88 21 89 32 90 22 91 24 92 33 93 23 94 25 95 26 96 30 97
REMARK SMILES IDX 27 98 29 99 31 100 28 101
REMARK H PARENT 3 6 90 24 58 35 8 76 19 87
REMARK Flexibility Score: inf
ROOT
ATOM      1  C   UNL A   1      32.678  30.750  27.231  1.00  0.00     0.023 C 
ENDROOT
BRANCH   1   2
ATOM      2  C   UNL A   1      33.582  31.901  27.654  1.00  0.00     0.116 C 
BRANCH   2   3
ATOM      3  N   UNL A   1      32.965  33.229  27.683  1.00  0.00    -0.352 N 
ATOM      4  O   UNL A   1      32.688  35.361  28.426  1.00  0.00    -0.269 OA
ATOM      5  C   UNL A   1      33.292  34.295  28.508  1.00  0.00     0.251 C 
ATOM      6  H   UNL A   1      32.233  33.383  27.043  1.00  0.00     0.163 HD
BRANCH   5   7
ATOM      7  C   UNL A   1      34.340  34.086  29.531  1.00  0.00     0.039 A 
ATOM      8  C   UNL A   1      35.639  34.458  29.220  1.00  0.00     0.014 A 
ATOM      9  C   UNL A   1      34.077  33.339  30.683  1.00  0.00     0.014 A 
ATOM     10  C   UNL A   1      36.679  33.792  29.835  1.00  0.00     0.010 A 
ATOM     11  C   UNL A   1      35.148  32.852  31.444  1.00  0.00     0.010 A 
ATOM     12  C   UNL A   1      36.463  33.013  30.987  1.00  0.00    -0.014 A 
BRANCH  12  13
ATOM     13  C   UNL A   1      37.662  32.463  31.679  1.00  0.00     0.031 A 
ATOM     14  C   UNL A   1      38.037  32.856  33.082  1.00  0.00     0.074 A 
ATOM     15  C   UNL A   1      38.361  31.504  31.036  1.00  0.00     0.049 A 
ATOM     16  N   UNL A   1      39.032  32.414  33.808  1.00  0.00    -0.248 NA
ATOM     17  C   UNL A   1      37.225  33.884  33.755  1.00  0.00     0.031 C 
ATOM     18  C   UNL A   1      38.102  31.077  29.657  1.00  0.00     0.029 A 
ATOM     19  N   UNL A   1      39.361  30.664  31.450  1.00  0.00    -0.354 N 
ATOM     20  C   UNL A   1      39.025  33.168  34.976  1.00  0.00     0.074 A 
ATOM     21  C   UNL A   1      37.902  34.076  34.881  1.00  0.00     0.031 C 
ATOM     22  C   UNL A   1      38.792  29.964  29.400  1.00  0.00     0.029 A 
ATOM     23  C   UNL A   1      39.676  29.696  30.524  1.00  0.00     0.049 A 
ATOM     24  H   UNL A   1      39.810  30.746  32.323  1.00  0.00     0.167 HD
ATOM     25  C   UNL A   1      39.885  33.107  36.020  1.00  0.00     0.034 A 
ATOM     26  C   UNL A   1      40.599  28.715  30.546  1.00  0.00     0.034 A 
ATOM     27  C   UNL A   1      40.950  32.140  36.120  1.00  0.00     0.049 A 
ATOM     28  C   UNL A   1      41.486  28.620  31.743  1.00  0.00     0.074 A 
ATOM     29  C   UNL A   1      41.851  31.963  37.154  1.00  0.00     0.029 A 
ATOM     30  N   UNL A   1      41.248  31.183  35.161  1.00  0.00    -0.354 N 
ATOM     31  N   UNL A   1      41.445  29.328  32.845  1.00  0.00    -0.248 NA
ATOM     32  C   UNL A   1      42.557  27.617  31.703  1.00  0.00     0.031 C 
ATOM     33  C   UNL A   1      42.705  30.909  36.812  1.00  0.00     0.029 A 
ATOM     34  C   UNL A   1      42.321  30.413  35.575  1.00  0.00     0.049 A 
ATOM     35  H   UNL A   1      40.767  31.068  34.310  1.00  0.00     0.167 HD
ATOM     36  C   UNL A   1      42.491  28.871  33.629  1.00  0.00     0.074 A 
ATOM     37  C   UNL A   1      43.123  27.794  32.891  1.00  0.00     0.031 C 
ATOM     38  C   UNL A   1      42.908  29.324  34.835  1.00  0.00     0.034 A 
BRANCH  25  39
ATOM     39  C   UNL A   1      39.723  34.095  37.148  1.00  0.00     0.023 A 
ATOM     40  C   UNL A   1      40.045  35.452  36.950  1.00  0.00     0.012 A 
ATOM     41  C   UNL A   1      39.157  33.695  38.377  1.00  0.00     0.148 A 
ATOM     42  C   UNL A   1      39.825  36.390  37.961  1.00  0.00     0.002 A 
ATOM     43  C   UNL A   1      38.903  34.640  39.364  1.00  0.00     0.091 A 
ATOM     44  F   UNL A   1      38.879  32.396  38.558  1.00  0.00    -0.205 F 
ATOM     45  C   UNL A   1      39.243  35.987  39.161  1.00  0.00     0.022 A 
BRANCH  43  46
ATOM     46  S   UNL A   1      38.079  34.226  40.907  1.00  0.00     0.127 S 
ATOM     47  O   UNL A   1      39.122  33.479  41.607  1.00  0.00    -0.237 OA
ATOM     48  O   UNL A   1      37.792  35.546  41.472  1.00  0.00    -0.237 OA
ATOM     49  O   UNL A   1      36.898  33.460  40.534  1.00  0.00    -0.744 OA
ENDBRANCH  43  46
ENDBRANCH  25  39
BRANCH  26  50
ATOM     50  C   UNL A   1      40.683  27.779  29.388  1.00  0.00     0.023 A 
ATOM     51  C   UNL A   1      39.687  26.802  29.211  1.00  0.00     0.012 A 
ATOM     52  C   UNL A   1      41.637  27.978  28.368  1.00  0.00     0.148 A 
ATOM     53  C   UNL A   1      39.624  26.061  28.028  1.00  0.00     0.002 A 
ATOM     54  C   UNL A   1      41.512  27.305  27.160  1.00  0.00     0.091 A 
ATOM     55  F   UNL A   1      42.598  28.892  28.568  1.00  0.00    -0.205 F 
ATOM     56  C   UNL A   1      40.515  26.334  26.992  1.00  0.00     0.022 A 
BRANCH  54  57
ATOM     57  S   UNL A   1      42.461  27.779  25.707  1.00  0.00     0.127 S 
ATOM     58  O   UNL A   1      41.876  29.075  25.376  1.00  0.00    -0.237 OA
ATOM     59  O   UNL A   1      43.824  27.832  26.239  1.00  0.00    -0.237 OA
ATOM     60  O   UNL A   1      42.244  26.714  24.736  1.00  0.00    -0.744 OA
ENDBRANCH  54  57
ENDBRANCH  26  50
BRANCH  38  61
ATOM     61  C   UNL A   1      44.108  28.654  35.442  1.00  0.00     0.023 A 
ATOM     62  C   UNL A   1      45.398  29.108  35.105  1.00  0.00     0.012 A 
ATOM     63  C   UNL A   1      43.951  27.655  36.420  1.00  0.00     0.148 A 
ATOM     64  C   UNL A   1      46.519  28.561  35.726  1.00  0.00     0.002 A 
ATOM     65  C   UNL A   1      45.069  27.148  37.067  1.00  0.00     0.091 A 
ATOM     66  F   UNL A   1      42.710  27.230  36.705  1.00  0.00    -0.205 F 
ATOM     67  C   UNL A   1      46.355  27.594  36.715  1.00  0.00     0.022 A 
BRANCH  65  68
ATOM     68  S   UNL A   1      44.947  25.970  38.415  1.00  0.00     0.127 S 
ATOM     69  O   UNL A   1      46.351  25.792  38.782  1.00  0.00    -0.237 OA
ATOM     70  O   UNL A   1      44.147  26.704  39.395  1.00  0.00    -0.237 OA
ATOM     71  O   UNL A   1      44.294  24.791  37.861  1.00  0.00    -0.744 OA
ENDBRANCH  65  68
ENDBRANCH  38  61
ENDBRANCH  12  13
ENDBRANCH   5   7
ENDBRANCH   2   3
ENDBRANCH   1   2
BRANCH   1  72
ATOM     72  C   UNL A   1      33.495  29.596  26.658  1.00  0.00     0.023 C 
BRANCH  72  73
ATOM     73  C   UNL A   1      33.243  28.214  27.256  1.00  0.00     0.116 C 
BRANCH  73  74
ATOM     74  N   UNL A   1      31.953  27.628  26.957  1.00  0.00    -0.356 N 
ATOM     75  C   UNL A   1      31.633  26.352  26.582  1.00  0.00     0.224 C 
ATOM     76  H   UNL A   1      31.188  28.242  27.037  1.00  0.00     0.163 HD
ATOM     77  O   UNL A   1      30.476  25.989  26.798  1.00  0.00    -0.275 OA
BRANCH  75  78
ATOM     78  C   UNL A   1      32.659  25.446  25.877  1.00  0.00     0.095 C 
ATOM     79  C   UNL A   1      33.062  24.268  26.782  1.00  0.00     0.041 C 
ATOM     80  C   UNL A   1      32.094  24.999  24.502  1.00  0.00     0.095 C 
ATOM     81  C   UNL A   1      32.221  23.033  26.642  1.00  0.00    -0.030 C 
ATOM     82  C   UNL A   1      31.011  23.904  24.633  1.00  0.00     0.041 C 
ATOM     83  C   UNL A   1      31.292  22.876  25.691  1.00  0.00    -0.030 C 
BRANCH  80  84
ATOM     84  C   UNL A   1      33.191  24.494  23.565  1.00  0.00     0.224 C 
ATOM     85  O   UNL A   1      33.897  23.524  23.861  1.00  0.00    -0.275 OA
ATOM     86  N   UNL A   1      33.422  25.026  22.336  1.00  0.00    -0.344 N 
ATOM     87  H   UNL A   1      33.806  24.374  21.707  1.00  0.00     0.164 HD
BRANCH  86  88
ATOM     88  C   UNL A   1      33.231  26.354  21.727  1.00  0.00     0.172 C 
ATOM     89  C   UNL A   1      34.310  27.341  22.185  1.00  0.00     0.037 C 
ATOM     90  C   UNL A   1      31.771  26.866  21.621  1.00  0.00     0.249 C 
ATOM     91  C   UNL A   1      33.774  28.664  22.682  1.00  0.00     0.025 C 
ATOM     92  N   UNL A   1      31.434  27.905  22.488  1.00  0.00    -0.308 N 
ATOM     93  O   UNL A   1      30.995  26.340  20.823  1.00  0.00    -0.272 OA
ATOM     94  C   UNL A   1      32.447  28.459  23.365  1.00  0.00     0.126 C 
BRANCH  92  95
ATOM     95  C   UNL A   1      30.078  28.222  22.830  1.00  0.00     0.080 A 
ATOM     96  C   UNL A   1      29.307  27.280  23.535  1.00  0.00     0.029 A 
ATOM     97  C   UNL A   1      29.426  29.360  22.331  1.00  0.00     0.146 A 
ATOM     98  C   UNL A   1      27.925  27.426  23.662  1.00  0.00     0.002 A 
ATOM     99  C   UNL A   1      28.046  29.513  22.467  1.00  0.00     0.041 A 
ATOM    100  F   UNL A   1      30.073  30.259  21.575  1.00  0.00    -0.205 F 
ATOM    101  C   UNL A   1      27.292  28.535  23.113  1.00  0.00     0.003 A 
ENDBRANCH  92  95
ENDBRANCH  86  88
ENDBRANCH  80  84
ENDBRANCH  75  78
ENDBRANCH  73  74
ENDBRANCH  72  73
ENDBRANCH   1  72
TORSDOF 17
ENDMDL
