MODEL 1
REMARK VINA RESULT:     -11.9      0.000      0.000
REMARK SMILES O=C(CCn1ccnc1)N[C@H]1C=C[C@H](C(=O)NCCCCNC(=O)c2ccc(-c3c4nc(c(-c5cccc(S(=O)(=O)[O-])c5F)c5ccc([nH]5)c(-c5cccc(S(=O)(=O)[O-])c5F)c5nc(c(-c6cccc(S(=O)(=O)[O-])c6F)c6ccc3[nH]6)C=C5)C=C4)cc2)C1
REMARK SMILES IDX 19 1 18 2 17 3 15 4 16 5 14 7 11 8 12 9 88 10 13 11 10 12
REMARK SMILES IDX 1 13 2 14 3 16 4 17 5 18 6 19 9 20 7 21 8 22 20 23 21 24
REMARK SMILES IDX 22 25 23 26 24 28 25 29 26 30 87 31 27 32 86 33 28 34 29 35
REMARK SMILES IDX 30 36 80 37 31 38 85 39 79 40 81 41 32 42 84 43 78 44 77 45
REMARK SMILES IDX 33 47 65 48 45 49 64 50 46 51 49 52 63 53 82 54 47 55 48 56
REMARK SMILES IDX 62 58 83 59 50 60 34 61 35 62 43 63 36 64 38 65 44 66 37 67
REMARK SMILES IDX 39 68 40 69 41 70 42 71 66 72 67 73 75 74 68 75 70 76 76 77
REMARK SMILES IDX 69 78 71 79 72 80 73 81 74 82 51 83 52 84 60 85 53 86 55 87
REMARK SMILES IDX 61 88 54 89 56 90 57 91 58 92 59 93
REMARK H PARENT 17 6 10 15 22 27 81 46 49 57
REMARK Flexibility Score: inf
ROOT
ATOM      1  C   UNL A   1      31.558  30.228  26.161  1.00  0.00     0.023 C 
ENDROOT
BRANCH   1   2
ATOM      2  C   UNL A   1      33.004  29.751  25.981  1.00  0.00     0.116 C 
BRANCH   2   3
ATOM      3  N   UNL A   1      33.431  29.716  24.602  1.00  0.00    -0.356 N 
ATOM      4  C   UNL A   1      33.167  28.839  23.596  1.00  0.00     0.227 C 
ATOM      5  O   UNL A   1      33.761  29.032  22.528  1.00  0.00    -0.274 OA
ATOM      6  H   UNL A   1      34.021  30.461  24.343  1.00  0.00     0.163 HD
BRANCH   4   7
ATOM      7  C   UNL A   1      32.292  27.581  23.748  1.00  0.00     0.103 C 
ATOM      8  C   UNL A   1      32.488  25.530  22.404  1.00  0.00     0.106 C 
ATOM      9  C   UNL A   1      31.338  26.375  21.964  1.00  0.00    -0.006 C 
ATOM     10  C   UNL A   1      32.934  26.186  23.725  1.00  0.00     0.047 C 
ATOM     11  C   UNL A   1      31.242  27.501  22.679  1.00  0.00    -0.016 C 
BRANCH   8  12
ATOM     12  N   UNL A   1      32.048  24.169  22.537  1.00  0.00    -0.350 N 
ATOM     13  O   UNL A   1      34.143  23.267  22.272  1.00  0.00    -0.275 OA
ATOM     14  C   UNL A   1      32.939  23.123  22.473  1.00  0.00     0.222 C 
ATOM     15  H   UNL A   1      31.091  23.981  22.677  1.00  0.00     0.164 HD
BRANCH  14  16
ATOM     16  C   UNL A   1      32.351  21.738  22.598  1.00  0.00     0.122 C 
BRANCH  16  17
ATOM     17  C   UNL A   1      32.321  21.223  24.031  1.00  0.00     0.133 C 
BRANCH  17  18
ATOM     18  N   UNL A   1      32.549  19.799  24.168  1.00  0.00    -0.337 N 
ATOM     19  C   UNL A   1      32.751  19.136  25.345  1.00  0.00     0.107 A 
ATOM     20  C   UNL A   1      32.503  18.864  23.172  1.00  0.00     0.199 A 
ATOM     21  C   UNL A   1      32.710  17.803  25.013  1.00  0.00     0.130 A 
ATOM     22  N   UNL A   1      32.551  17.645  23.659  1.00  0.00    -0.245 NA
ENDBRANCH  17  18
ENDBRANCH  16  17
ENDBRANCH  14  16
ENDBRANCH   8  12
ENDBRANCH   4   7
ENDBRANCH   2   3
ENDBRANCH   1   2
BRANCH   1  23
ATOM     23  C   UNL A   1      31.399  31.746  26.322  1.00  0.00     0.023 C 
BRANCH  23  24
ATOM     24  C   UNL A   1      32.388  32.379  27.294  1.00  0.00     0.116 C 
BRANCH  24  25
ATOM     25  N   UNL A   1      32.228  33.830  27.444  1.00  0.00    -0.352 N 
ATOM     26  C   UNL A   1      32.865  34.649  28.370  1.00  0.00     0.251 C 
ATOM     27  H   UNL A   1      31.605  34.270  26.822  1.00  0.00     0.163 HD
ATOM     28  O   UNL A   1      32.425  35.734  28.689  1.00  0.00    -0.269 OA
BRANCH  26  29
ATOM     29  C   UNL A   1      34.138  34.154  28.925  1.00  0.00     0.039 A 
ATOM     30  C   UNL A   1      34.246  33.590  30.202  1.00  0.00     0.014 A 
ATOM     31  C   UNL A   1      35.221  34.197  28.056  1.00  0.00     0.014 A 
ATOM     32  C   UNL A   1      35.453  32.994  30.567  1.00  0.00     0.010 A 
ATOM     33  C   UNL A   1      36.314  33.434  28.333  1.00  0.00     0.010 A 
ATOM     34  C   UNL A   1      36.476  32.917  29.616  1.00  0.00    -0.014 A 
BRANCH  34  35
ATOM     35  C   UNL A   1      37.748  32.254  29.870  1.00  0.00     0.031 A 
ATOM     36  C   UNL A   1      37.865  30.869  29.332  1.00  0.00     0.074 A 
ATOM     37  C   UNL A   1      38.810  33.007  30.239  1.00  0.00     0.049 A 
ATOM     38  N   UNL A   1      38.115  29.779  29.981  1.00  0.00    -0.248 NA
ATOM     39  C   UNL A   1      37.545  30.648  27.912  1.00  0.00     0.031 C 
ATOM     40  C   UNL A   1      38.856  34.468  30.436  1.00  0.00     0.029 A 
ATOM     41  N   UNL A   1      40.121  32.664  30.314  1.00  0.00    -0.354 N 
ATOM     42  C   UNL A   1      38.211  28.776  29.013  1.00  0.00     0.074 A 
ATOM     43  C   UNL A   1      37.636  29.322  27.815  1.00  0.00     0.031 C 
ATOM     44  C   UNL A   1      40.129  34.900  30.322  1.00  0.00     0.029 A 
ATOM     45  C   UNL A   1      40.997  33.744  30.232  1.00  0.00     0.049 A 
ATOM     46  H   UNL A   1      40.426  31.733  30.417  1.00  0.00     0.167 HD
ATOM     47  C   UNL A   1      38.993  27.674  29.199  1.00  0.00     0.034 A 
ATOM     48  C   UNL A   1      42.337  33.687  30.039  1.00  0.00     0.034 A 
ATOM     49  C   UNL A   1      39.391  27.549  30.579  1.00  0.00     0.049 A 
ATOM     50  C   UNL A   1      42.760  32.313  30.392  1.00  0.00     0.074 A 
ATOM     51  C   UNL A   1      38.729  27.396  31.780  1.00  0.00     0.029 A 
ATOM     52  N   UNL A   1      40.657  27.982  30.897  1.00  0.00    -0.354 N 
ATOM     53  N   UNL A   1      42.650  31.816  31.594  1.00  0.00    -0.248 NA
ATOM     54  C   UNL A   1      42.855  31.340  29.316  1.00  0.00     0.031 C 
ATOM     55  C   UNL A   1      39.459  28.206  32.700  1.00  0.00     0.029 A 
ATOM     56  C   UNL A   1      40.558  28.747  32.028  1.00  0.00     0.049 A 
ATOM     57  H   UNL A   1      41.483  27.780  30.401  1.00  0.00     0.167 HD
ATOM     58  C   UNL A   1      42.203  30.516  31.391  1.00  0.00     0.074 A 
ATOM     59  C   UNL A   1      42.457  30.246  29.974  1.00  0.00     0.031 C 
ATOM     60  C   UNL A   1      41.399  29.893  32.305  1.00  0.00     0.034 A 
BRANCH  47  61
ATOM     61  C   UNL A   1      39.716  26.904  28.110  1.00  0.00     0.023 A 
ATOM     62  C   UNL A   1      39.468  25.513  28.034  1.00  0.00     0.012 A 
ATOM     63  C   UNL A   1      40.805  27.394  27.353  1.00  0.00     0.148 A 
ATOM     64  C   UNL A   1      40.296  24.651  27.304  1.00  0.00     0.002 A 
ATOM     65  C   UNL A   1      41.580  26.544  26.568  1.00  0.00     0.091 A 
ATOM     66  F   UNL A   1      41.196  28.664  27.479  1.00  0.00    -0.205 F 
ATOM     67  C   UNL A   1      41.352  25.167  26.567  1.00  0.00     0.022 A 
BRANCH  65  68
ATOM     68  S   UNL A   1      42.932  27.168  25.557  1.00  0.00     0.127 S 
ATOM     69  O   UNL A   1      43.389  25.948  24.899  1.00  0.00    -0.237 OA
ATOM     70  O   UNL A   1      42.241  28.121  24.689  1.00  0.00    -0.237 OA
ATOM     71  O   UNL A   1      43.865  27.782  26.493  1.00  0.00    -0.744 OA
ENDBRANCH  65  68
ENDBRANCH  47  61
BRANCH  48  72
ATOM     72  C   UNL A   1      43.213  34.632  29.309  1.00  0.00     0.023 A 
ATOM     73  C   UNL A   1      43.316  34.562  27.906  1.00  0.00     0.012 A 
ATOM     74  C   UNL A   1      43.747  35.768  29.959  1.00  0.00     0.148 A 
ATOM     75  C   UNL A   1      43.910  35.599  27.174  1.00  0.00     0.002 A 
ATOM     76  C   UNL A   1      44.345  36.791  29.228  1.00  0.00     0.091 A 
ATOM     77  F   UNL A   1      43.585  35.887  31.284  1.00  0.00    -0.205 F 
ATOM     78  C   UNL A   1      44.419  36.715  27.832  1.00  0.00     0.022 A 
BRANCH  76  79
ATOM     79  S   UNL A   1      45.010  38.268  30.013  1.00  0.00     0.127 S 
ATOM     80  O   UNL A   1      45.594  38.977  28.875  1.00  0.00    -0.237 OA
ATOM     81  O   UNL A   1      43.805  38.880  30.568  1.00  0.00    -0.237 OA
ATOM     82  O   UNL A   1      45.987  37.794  30.986  1.00  0.00    -0.744 OA
ENDBRANCH  76  79
ENDBRANCH  48  72
BRANCH  60  83
ATOM     83  C   UNL A   1      41.152  30.588  33.626  1.00  0.00     0.023 A 
ATOM     84  C   UNL A   1      42.150  30.692  34.620  1.00  0.00     0.012 A 
ATOM     85  C   UNL A   1      39.972  31.330  33.781  1.00  0.00     0.148 A 
ATOM     86  C   UNL A   1      41.971  31.501  35.745  1.00  0.00     0.002 A 
ATOM     87  C   UNL A   1      39.814  32.169  34.878  1.00  0.00     0.091 A 
ATOM     88  F   UNL A   1      39.037  31.236  32.822  1.00  0.00    -0.205 F 
ATOM     89  C   UNL A   1      40.807  32.252  35.868  1.00  0.00     0.022 A 
BRANCH  87  90
ATOM     90  S   UNL A   1      38.403  33.266  35.031  1.00  0.00     0.127 S 
ATOM     91  O   UNL A   1      38.469  34.024  33.784  1.00  0.00    -0.237 OA
ATOM     92  O   UNL A   1      37.285  32.324  35.117  1.00  0.00    -0.237 OA
ATOM     93  O   UNL A   1      38.624  34.040  36.246  1.00  0.00    -0.744 OA
ENDBRANCH  87  90
ENDBRANCH  60  83
ENDBRANCH  34  35
ENDBRANCH  26  29
ENDBRANCH  24  25
ENDBRANCH  23  24
ENDBRANCH   1  23
TORSDOF 18
ENDMDL
MODEL 2
REMARK VINA RESULT:     -11.8      4.742     10.347
REMARK SMILES O=C(CCn1ccnc1)N[C@H]1C=C[C@H](C(=O)NCCCCNC(=O)c2ccc(-c3c4nc(c(-c5cccc(S(=O)(=O)[O-])c5F)c5ccc([nH]5)c(-c5cccc(S(=O)(=O)[O-])c5F)c5nc(c(-c6cccc(S(=O)(=O)[O-])c6F)c6ccc3[nH]6)C=C5)C=C4)cc2)C1
REMARK SMILES IDX 19 1 18 2 17 3 15 4 16 5 14 7 11 8 12 9 88 10 13 11 10 12
REMARK SMILES IDX 1 13 2 14 3 16 4 17 5 18 6 19 9 20 7 21 8 22 20 23 21 24
REMARK SMILES IDX 22 25 23 26 24 28 25 29 26 30 87 31 27 32 86 33 28 34 29 35
REMARK SMILES IDX 30 36 80 37 31 38 85 39 79 40 81 41 32 42 84 43 78 44 77 45
REMARK SMILES IDX 33 47 65 48 45 49 64 50 46 51 49 52 63 53 82 54 47 55 48 56
REMARK SMILES IDX 62 58 83 59 50 60 34 61 35 62 43 63 36 64 38 65 44 66 37 67
REMARK SMILES IDX 39 68 40 69 41 70 42 71 66 72 67 73 75 74 68 75 70 76 76 77
REMARK SMILES IDX 69 78 71 79 72 80 73 81 74 82 51 83 52 84 60 85 53 86 55 87
REMARK SMILES IDX 61 88 54 89 56 90 57 91 58 92 59 93
REMARK H PARENT 17 6 10 15 22 27 81 46 49 57
REMARK Flexibility Score: inf
ROOT
ATOM      1  C   UNL A   1      36.797  20.892  24.679  1.00  0.00     0.023 C 
ENDROOT
BRANCH   1   2
ATOM      2  C   UNL A   1      35.345  20.658  25.114  1.00  0.00     0.116 C 
BRANCH   2   3
ATOM      3  N   UNL A   1      35.028  21.239  26.397  1.00  0.00    -0.356 N 
ATOM      4  C   UNL A   1      34.198  22.260  26.746  1.00  0.00     0.227 C 
ATOM      5  O   UNL A   1      34.206  22.591  27.938  1.00  0.00    -0.274 OA
ATOM      6  H   UNL A   1      35.497  20.823  27.157  1.00  0.00     0.163 HD
BRANCH   4   7
ATOM      7  C   UNL A   1      33.369  23.087  25.745  1.00  0.00     0.103 C 
ATOM      8  C   UNL A   1      32.702  25.436  26.036  1.00  0.00     0.106 C 
ATOM      9  C   UNL A   1      31.574  24.498  26.319  1.00  0.00    -0.006 C 
ATOM     10  C   UNL A   1      33.778  24.528  25.409  1.00  0.00     0.047 C 
ATOM     11  C   UNL A   1      31.940  23.220  26.183  1.00  0.00    -0.016 C 
BRANCH   8  12
ATOM     12  N   UNL A   1      32.235  26.485  25.173  1.00  0.00    -0.350 N 
ATOM     13  O   UNL A   1      33.852  27.986  25.811  1.00  0.00    -0.275 OA
ATOM     14  C   UNL A   1      32.876  27.701  25.120  1.00  0.00     0.222 C 
ATOM     15  H   UNL A   1      31.443  26.332  24.609  1.00  0.00     0.164 HD
BRANCH  14  16
ATOM     16  C   UNL A   1      32.274  28.732  24.197  1.00  0.00     0.122 C 
BRANCH  16  17
ATOM     17  C   UNL A   1      30.955  29.299  24.706  1.00  0.00     0.133 C 
BRANCH  17  18
ATOM     18  N   UNL A   1      29.984  29.598  23.673  1.00  0.00    -0.337 N 
ATOM     19  C   UNL A   1      29.389  30.810  23.467  1.00  0.00     0.107 A 
ATOM     20  C   UNL A   1      29.573  28.763  22.672  1.00  0.00     0.199 A 
ATOM     21  C   UNL A   1      28.720  30.680  22.274  1.00  0.00     0.130 A 
ATOM     22  N   UNL A   1      28.844  29.403  21.786  1.00  0.00    -0.245 NA
ENDBRANCH  17  18
ENDBRANCH  16  17
ENDBRANCH  14  16
ENDBRANCH   8  12
ENDBRANCH   4   7
ENDBRANCH   2   3
ENDBRANCH   1   2
BRANCH   1  23
ATOM     23  C   UNL A   1      37.756  19.736  24.994  1.00  0.00     0.023 C 
BRANCH  23  24
ATOM     24  C   UNL A   1      39.105  20.178  25.551  1.00  0.00     0.116 C 
BRANCH  24  25
ATOM     25  N   UNL A   1      40.053  19.077  25.752  1.00  0.00    -0.352 N 
ATOM     26  C   UNL A   1      41.425  19.184  25.962  1.00  0.00     0.251 C 
ATOM     27  H   UNL A   1      39.680  18.166  25.738  1.00  0.00     0.163 HD
ATOM     28  O   UNL A   1      42.189  18.265  25.747  1.00  0.00    -0.269 OA
BRANCH  26  29
ATOM     29  C   UNL A   1      41.912  20.465  26.505  1.00  0.00     0.039 A 
ATOM     30  C   UNL A   1      42.641  21.387  25.745  1.00  0.00     0.014 A 
ATOM     31  C   UNL A   1      41.519  20.747  27.807  1.00  0.00     0.014 A 
ATOM     32  C   UNL A   1      42.906  22.641  26.295  1.00  0.00     0.010 A 
ATOM     33  C   UNL A   1      41.592  22.032  28.251  1.00  0.00     0.010 A 
ATOM     34  C   UNL A   1      42.365  22.951  27.548  1.00  0.00    -0.014 A 
BRANCH  34  35
ATOM     35  C   UNL A   1      42.521  24.254  28.179  1.00  0.00     0.031 A 
ATOM     36  C   UNL A   1      41.377  25.192  28.000  1.00  0.00     0.074 A 
ATOM     37  C   UNL A   1      43.471  24.405  29.131  1.00  0.00     0.049 A 
ATOM     38  N   UNL A   1      41.386  26.372  27.471  1.00  0.00    -0.248 NA
ATOM     39  C   UNL A   1      40.027  24.711  28.341  1.00  0.00     0.031 C 
ATOM     40  C   UNL A   1      44.417  23.390  29.632  1.00  0.00     0.029 A 
ATOM     41  N   UNL A   1      43.659  25.429  30.002  1.00  0.00    -0.354 N 
ATOM     42  C   UNL A   1      40.088  26.867  27.627  1.00  0.00     0.074 A 
ATOM     43  C   UNL A   1      39.266  25.734  27.953  1.00  0.00     0.031 C 
ATOM     44  C   UNL A   1      44.853  23.744  30.859  1.00  0.00     0.029 A 
ATOM     45  C   UNL A   1      44.372  25.079  31.146  1.00  0.00     0.049 A 
ATOM     46  H   UNL A   1      43.321  26.340  29.838  1.00  0.00     0.167 HD
ATOM     47  C   UNL A   1      39.840  28.203  27.736  1.00  0.00     0.034 A 
ATOM     48  C   UNL A   1      44.500  25.815  32.277  1.00  0.00     0.034 A 
ATOM     49  C   UNL A   1      40.992  28.977  27.344  1.00  0.00     0.049 A 
ATOM     50  C   UNL A   1      44.159  27.210  31.918  1.00  0.00     0.074 A 
ATOM     51  C   UNL A   1      41.733  29.115  26.188  1.00  0.00     0.029 A 
ATOM     52  N   UNL A   1      41.778  29.468  28.359  1.00  0.00    -0.354 N 
ATOM     53  N   UNL A   1      44.848  27.919  31.067  1.00  0.00    -0.248 NA
ATOM     54  C   UNL A   1      42.789  27.646  32.136  1.00  0.00     0.031 C 
ATOM     55  C   UNL A   1      43.084  29.217  26.635  1.00  0.00     0.029 A 
ATOM     56  C   UNL A   1      43.082  29.206  28.033  1.00  0.00     0.049 A 
ATOM     57  H   UNL A   1      41.462  29.924  29.172  1.00  0.00     0.167 HD
ATOM     58  C   UNL A   1      43.889  28.585  30.314  1.00  0.00     0.074 A 
ATOM     59  C   UNL A   1      42.652  28.466  31.088  1.00  0.00     0.031 C 
ATOM     60  C   UNL A   1      44.114  28.904  29.004  1.00  0.00     0.034 A 
BRANCH  47  61
ATOM     61  C   UNL A   1      38.715  28.836  28.534  1.00  0.00     0.023 A 
ATOM     62  C   UNL A   1      37.833  29.692  27.833  1.00  0.00     0.012 A 
ATOM     63  C   UNL A   1      38.634  28.862  29.945  1.00  0.00     0.148 A 
ATOM     64  C   UNL A   1      36.971  30.572  28.498  1.00  0.00     0.002 A 
ATOM     65  C   UNL A   1      37.722  29.685  30.601  1.00  0.00     0.091 A 
ATOM     66  F   UNL A   1      39.524  28.196  30.684  1.00  0.00    -0.205 F 
ATOM     67  C   UNL A   1      36.913  30.567  29.884  1.00  0.00     0.022 A 
BRANCH  65  68
ATOM     68  S   UNL A   1      37.573  29.684  32.394  1.00  0.00     0.127 S 
ATOM     69  O   UNL A   1      38.761  30.436  32.784  1.00  0.00    -0.237 OA
ATOM     70  O   UNL A   1      36.303  30.383  32.589  1.00  0.00    -0.237 OA
ATOM     71  O   UNL A   1      37.545  28.279  32.781  1.00  0.00    -0.744 OA
ENDBRANCH  65  68
ENDBRANCH  47  61
BRANCH  48  72
ATOM     72  C   UNL A   1      44.613  25.353  33.680  1.00  0.00     0.023 A 
ATOM     73  C   UNL A   1      43.454  25.071  34.427  1.00  0.00     0.012 A 
ATOM     74  C   UNL A   1      45.860  24.941  34.204  1.00  0.00     0.148 A 
ATOM     75  C   UNL A   1      43.530  24.380  35.644  1.00  0.00     0.002 A 
ATOM     76  C   UNL A   1      45.932  24.264  35.419  1.00  0.00     0.091 A 
ATOM     77  F   UNL A   1      46.963  25.131  33.468  1.00  0.00    -0.205 F 
ATOM     78  C   UNL A   1      44.767  23.972  36.137  1.00  0.00     0.022 A 
BRANCH  76  79
ATOM     79  S   UNL A   1      47.494  23.696  36.108  1.00  0.00     0.127 S 
ATOM     80  O   UNL A   1      47.076  23.164  37.405  1.00  0.00    -0.237 OA
ATOM     81  O   UNL A   1      47.902  22.688  35.132  1.00  0.00    -0.237 OA
ATOM     82  O   UNL A   1      48.344  24.878  36.193  1.00  0.00    -0.744 OA
ENDBRANCH  76  79
ENDBRANCH  48  72
BRANCH  60  83
ATOM     83  C   UNL A   1      45.500  28.673  28.442  1.00  0.00     0.023 A 
ATOM     84  C   UNL A   1      46.586  29.522  28.749  1.00  0.00     0.012 A 
ATOM     85  C   UNL A   1      45.758  27.469  27.772  1.00  0.00     0.148 A 
ATOM     86  C   UNL A   1      47.893  29.187  28.385  1.00  0.00     0.002 A 
ATOM     87  C   UNL A   1      47.064  27.115  27.452  1.00  0.00     0.091 A 
ATOM     88  F   UNL A   1      44.720  26.662  27.501  1.00  0.00    -0.205 F 
ATOM     89  C   UNL A   1      48.135  27.975  27.747  1.00  0.00     0.022 A 
BRANCH  87  90
ATOM     90  S   UNL A   1      47.462  25.512  26.753  1.00  0.00     0.127 S 
ATOM     91  O   UNL A   1      46.674  25.512  25.522  1.00  0.00    -0.237 OA
ATOM     92  O   UNL A   1      48.909  25.609  26.553  1.00  0.00    -0.237 OA
ATOM     93  O   UNL A   1      47.063  24.527  27.750  1.00  0.00    -0.744 OA
ENDBRANCH  87  90
ENDBRANCH  60  83
ENDBRANCH  34  35
ENDBRANCH  26  29
ENDBRANCH  24  25
ENDBRANCH  23  24
ENDBRANCH   1  23
TORSDOF 18
ENDMDL
MODEL 3
REMARK VINA RESULT:     -11.7      1.683      2.000
REMARK SMILES O=C(CCn1ccnc1)N[C@H]1C=C[C@H](C(=O)NCCCCNC(=O)c2ccc(-c3c4nc(c(-c5cccc(S(=O)(=O)[O-])c5F)c5ccc([nH]5)c(-c5cccc(S(=O)(=O)[O-])c5F)c5nc(c(-c6cccc(S(=O)(=O)[O-])c6F)c6ccc3[nH]6)C=C5)C=C4)cc2)C1
REMARK SMILES IDX 19 1 18 2 17 3 15 4 16 5 14 7 11 8 12 9 88 10 13 11 10 12
REMARK SMILES IDX 1 13 2 14 3 16 4 17 5 18 6 19 9 20 7 21 8 22 20 23 21 24
REMARK SMILES IDX 22 25 23 26 24 28 25 29 26 30 87 31 27 32 86 33 28 34 29 35
REMARK SMILES IDX 30 36 80 37 31 38 85 39 79 40 81 41 32 42 84 43 78 44 77 45
REMARK SMILES IDX 33 47 65 48 45 49 64 50 46 51 49 52 63 53 82 54 47 55 48 56
REMARK SMILES IDX 62 58 83 59 50 60 34 61 35 62 43 63 36 64 38 65 44 66 37 67
REMARK SMILES IDX 39 68 40 69 41 70 42 71 66 72 67 73 75 74 68 75 70 76 76 77
REMARK SMILES IDX 69 78 71 79 72 80 73 81 74 82 51 83 52 84 60 85 53 86 55 87
REMARK SMILES IDX 61 88 54 89 56 90 57 91 58 92 59 93
REMARK H PARENT 17 6 10 15 22 27 81 46 49 57
REMARK Flexibility Score: inf
ROOT
ATOM      1  C   UNL A   1      31.585  30.302  26.304  1.00  0.00     0.023 C 
ENDROOT
BRANCH   1   2
ATOM      2  C   UNL A   1      31.354  29.811  24.870  1.00  0.00     0.116 C 
BRANCH   2   3
ATOM      3  N   UNL A   1      32.573  29.640  24.117  1.00  0.00    -0.356 N 
ATOM      4  C   UNL A   1      33.257  28.523  23.747  1.00  0.00     0.227 C 
ATOM      5  O   UNL A   1      34.337  28.705  23.172  1.00  0.00    -0.274 OA
ATOM      6  H   UNL A   1      32.986  30.483  23.817  1.00  0.00     0.163 HD
BRANCH   4   7
ATOM      7  C   UNL A   1      32.836  27.086  24.109  1.00  0.00     0.103 C 
ATOM      8  C   UNL A   1      34.354  25.166  24.348  1.00  0.00     0.106 C 
ATOM      9  C   UNL A   1      33.623  25.138  23.046  1.00  0.00    -0.006 C 
ATOM     10  C   UNL A   1      33.642  26.281  25.139  1.00  0.00     0.047 C 
ATOM     11  C   UNL A   1      32.814  26.192  22.904  1.00  0.00    -0.016 C 
BRANCH   8  12
ATOM     12  N   UNL A   1      34.279  23.868  24.957  1.00  0.00    -0.350 N 
ATOM     13  O   UNL A   1      36.399  23.950  25.837  1.00  0.00    -0.275 OA
ATOM     14  C   UNL A   1      35.331  23.360  25.684  1.00  0.00     0.222 C 
ATOM     15  H   UNL A   1      33.461  23.331  24.853  1.00  0.00     0.164 HD
BRANCH  14  16
ATOM     16  C   UNL A   1      35.143  21.973  26.250  1.00  0.00     0.122 C 
BRANCH  16  17
ATOM     17  C   UNL A   1      35.494  20.867  25.263  1.00  0.00     0.133 C 
BRANCH  17  18
ATOM     18  N   UNL A   1      34.389  20.004  24.902  1.00  0.00    -0.337 N 
ATOM     19  C   UNL A   1      33.089  20.396  24.753  1.00  0.00     0.107 A 
ATOM     20  C   UNL A   1      34.462  18.684  24.552  1.00  0.00     0.199 A 
ATOM     21  C   UNL A   1      32.449  19.307  24.211  1.00  0.00     0.130 A 
ATOM     22  N   UNL A   1      33.315  18.249  24.086  1.00  0.00    -0.245 NA
ENDBRANCH  17  18
ENDBRANCH  16  17
ENDBRANCH  14  16
ENDBRANCH   8  12
ENDBRANCH   4   7
ENDBRANCH   2   3
ENDBRANCH   1   2
BRANCH   1  23
ATOM     23  C   UNL A   1      31.417  31.814  26.501  1.00  0.00     0.023 C 
BRANCH  23  24
ATOM     24  C   UNL A   1      32.528  32.466  27.317  1.00  0.00     0.116 C 
BRANCH  24  25
ATOM     25  N   UNL A   1      32.361  33.912  27.501  1.00  0.00    -0.352 N 
ATOM     26  C   UNL A   1      32.999  34.713  28.442  1.00  0.00     0.251 C 
ATOM     27  H   UNL A   1      31.732  34.363  26.893  1.00  0.00     0.163 HD
ATOM     28  O   UNL A   1      32.555  35.788  28.788  1.00  0.00    -0.269 OA
BRANCH  26  29
ATOM     29  C   UNL A   1      34.278  34.213  28.978  1.00  0.00     0.039 A 
ATOM     30  C   UNL A   1      34.428  33.754  30.292  1.00  0.00     0.014 A 
ATOM     31  C   UNL A   1      35.318  34.136  28.060  1.00  0.00     0.014 A 
ATOM     32  C   UNL A   1      35.628  33.140  30.650  1.00  0.00     0.010 A 
ATOM     33  C   UNL A   1      36.394  33.354  28.350  1.00  0.00     0.010 A 
ATOM     34  C   UNL A   1      36.599  32.940  29.664  1.00  0.00    -0.014 A 
BRANCH  34  35
ATOM     35  C   UNL A   1      37.855  32.248  29.914  1.00  0.00     0.031 A 
ATOM     36  C   UNL A   1      37.937  30.859  29.380  1.00  0.00     0.074 A 
ATOM     37  C   UNL A   1      38.937  32.975  30.277  1.00  0.00     0.049 A 
ATOM     38  N   UNL A   1      38.163  29.764  30.031  1.00  0.00    -0.248 NA
ATOM     39  C   UNL A   1      37.606  30.641  27.962  1.00  0.00     0.031 C 
ATOM     40  C   UNL A   1      39.019  34.435  30.470  1.00  0.00     0.029 A 
ATOM     41  N   UNL A   1      40.239  32.601  30.348  1.00  0.00    -0.354 N 
ATOM     42  C   UNL A   1      38.231  28.756  29.065  1.00  0.00     0.074 A 
ATOM     43  C   UNL A   1      37.665  29.313  27.868  1.00  0.00     0.031 C 
ATOM     44  C   UNL A   1      40.302  34.836  30.349  1.00  0.00     0.029 A 
ATOM     45  C   UNL A   1      41.141  33.660  30.260  1.00  0.00     0.049 A 
ATOM     46  H   UNL A   1      40.522  31.663  30.452  1.00  0.00     0.167 HD
ATOM     47  C   UNL A   1      38.987  27.636  29.251  1.00  0.00     0.034 A 
ATOM     48  C   UNL A   1      42.478  33.569  30.061  1.00  0.00     0.034 A 
ATOM     49  C   UNL A   1      39.388  27.506  30.630  1.00  0.00     0.049 A 
ATOM     50  C   UNL A   1      42.869  32.186  30.416  1.00  0.00     0.074 A 
ATOM     51  C   UNL A   1      38.727  27.372  31.834  1.00  0.00     0.029 A 
ATOM     52  N   UNL A   1      40.664  27.909  30.941  1.00  0.00    -0.354 N 
ATOM     53  N   UNL A   1      42.752  31.696  31.620  1.00  0.00    -0.248 NA
ATOM     54  C   UNL A   1      42.937  31.208  29.343  1.00  0.00     0.031 C 
ATOM     55  C   UNL A   1      39.480  28.167  32.749  1.00  0.00     0.029 A 
ATOM     56  C   UNL A   1      40.589  28.679  32.071  1.00  0.00     0.049 A 
ATOM     57  H   UNL A   1      41.483  27.685  30.443  1.00  0.00     0.167 HD
ATOM     58  C   UNL A   1      42.274  30.406  31.423  1.00  0.00     0.074 A 
ATOM     59  C   UNL A   1      42.515  30.127  30.006  1.00  0.00     0.031 C 
ATOM     60  C   UNL A   1      41.458  29.806  32.341  1.00  0.00     0.034 A 
BRANCH  47  61
ATOM     61  C   UNL A   1      39.687  26.846  28.161  1.00  0.00     0.023 A 
ATOM     62  C   UNL A   1      39.419  25.458  28.102  1.00  0.00     0.012 A 
ATOM     63  C   UNL A   1      40.773  27.314  27.387  1.00  0.00     0.148 A 
ATOM     64  C   UNL A   1      40.226  24.578  27.371  1.00  0.00     0.002 A 
ATOM     65  C   UNL A   1      41.527  26.446  26.602  1.00  0.00     0.091 A 
ATOM     66  F   UNL A   1      41.183  28.580  27.497  1.00  0.00    -0.205 F 
ATOM     67  C   UNL A   1      41.281  25.073  26.617  1.00  0.00     0.022 A 
BRANCH  65  68
ATOM     68  S   UNL A   1      42.876  27.042  25.570  1.00  0.00     0.127 S 
ATOM     69  O   UNL A   1      43.802  27.560  26.573  1.00  0.00    -0.237 OA
ATOM     70  O   UNL A   1      43.306  25.813  24.903  1.00  0.00    -0.237 OA
ATOM     71  O   UNL A   1      42.278  28.026  24.677  1.00  0.00    -0.744 OA
ENDBRANCH  65  68
ENDBRANCH  47  61
BRANCH  48  72
ATOM     72  C   UNL A   1      43.374  34.491  29.325  1.00  0.00     0.023 A 
ATOM     73  C   UNL A   1      44.008  35.550  30.000  1.00  0.00     0.012 A 
ATOM     74  C   UNL A   1      43.812  34.178  28.017  1.00  0.00     0.148 A 
ATOM     75  C   UNL A   1      45.059  36.260  29.403  1.00  0.00     0.002 A 
ATOM     76  C   UNL A   1      44.849  34.892  27.424  1.00  0.00     0.091 A 
ATOM     77  F   UNL A   1      43.273  33.121  27.393  1.00  0.00    -0.205 F 
ATOM     78  C   UNL A   1      45.484  35.928  28.119  1.00  0.00     0.022 A 
BRANCH  76  79
ATOM     79  S   UNL A   1      45.457  34.508  25.774  1.00  0.00     0.127 S 
ATOM     80  O   UNL A   1      44.232  34.577  24.978  1.00  0.00    -0.237 OA
ATOM     81  O   UNL A   1      46.404  35.596  25.543  1.00  0.00    -0.237 OA
ATOM     82  O   UNL A   1      46.034  33.172  25.866  1.00  0.00    -0.744 OA
ENDBRANCH  76  79
ENDBRANCH  48  72
BRANCH  60  83
ATOM     83  C   UNL A   1      41.233  30.510  33.662  1.00  0.00     0.023 A 
ATOM     84  C   UNL A   1      42.218  30.546  34.672  1.00  0.00     0.012 A 
ATOM     85  C   UNL A   1      40.100  31.324  33.800  1.00  0.00     0.148 A 
ATOM     86  C   UNL A   1      42.072  31.360  35.799  1.00  0.00     0.002 A 
ATOM     87  C   UNL A   1      39.977  32.168  34.898  1.00  0.00     0.091 A 
ATOM     88  F   UNL A   1      39.177  31.293  32.825  1.00  0.00    -0.205 F 
ATOM     89  C   UNL A   1      40.956  32.183  35.906  1.00  0.00     0.022 A 
BRANCH  87  90
ATOM     90  S   UNL A   1      38.636  33.351  35.034  1.00  0.00     0.127 S 
ATOM     91  O   UNL A   1      38.814  34.153  33.825  1.00  0.00    -0.237 OA
ATOM     92  O   UNL A   1      37.455  32.486  35.026  1.00  0.00    -0.237 OA
ATOM     93  O   UNL A   1      38.848  34.059  36.290  1.00  0.00    -0.744 OA
ENDBRANCH  87  90
ENDBRANCH  60  83
ENDBRANCH  34  35
ENDBRANCH  26  29
ENDBRANCH  24  25
ENDBRANCH  23  24
ENDBRANCH   1  23
TORSDOF 18
ENDMDL
