MODEL 1
REMARK VINA RESULT:     -12.9      0.000      0.000
REMARK SMILES CCC[C@@H]1CCc2nc3c(F)cccc3c(C(=O)NCCCCNC(=O)c3ccc(-c4c5nc(c(-c6cccc(S(=O)(=O)[O-])c6F)c6ccc([nH]6)c(-c6cccc(S(=O)(=O)[O-])c6F)c6nc(c(-c7cccc(S(=O)(=O)[O-])c7F)c7ccc4[nH]7)C=C6)C=C5)cc3)c2C1
REMARK SMILES IDX 22 1 21 2 20 3 19 4 17 5 18 6 16 8 4 9 5 10 91 11 6 12 90 13
REMARK SMILES IDX 7 14 8 15 15 16 9 17 14 18 10 19 13 20 11 21 12 22 3 23 2 24
REMARK SMILES IDX 1 25 23 26 24 27 25 28 26 30 27 31 28 32 89 33 29 34 88 35
REMARK SMILES IDX 30 36 31 37 32 38 82 39 33 40 87 41 81 42 83 43 34 44 86 45
REMARK SMILES IDX 80 46 79 47 35 49 67 50 47 51 66 52 48 53 51 54 65 55 84 56
REMARK SMILES IDX 49 57 50 58 64 60 85 61 52 62 36 63 37 64 45 65 38 66 40 67
REMARK SMILES IDX 46 68 39 69 41 70 42 71 43 72 44 73 68 74 69 75 77 76 70 77
REMARK SMILES IDX 72 78 78 79 71 80 73 81 74 82 75 83 76 84 53 85 54 86 62 87
REMARK SMILES IDX 55 88 57 89 63 90 56 91 58 92 59 93 60 94 61 95
REMARK H PARENT 19 7 24 29 83 48 51 59
REMARK Flexibility Score: inf
ROOT
ATOM      1  C   UNL A   1      32.306  31.308  26.917  1.00  0.00     0.023 C 
ENDROOT
BRANCH   1   2
ATOM      2  C   UNL A   1      32.563  29.861  27.313  1.00  0.00     0.023 C 
BRANCH   2   3
ATOM      3  C   UNL A   1      33.916  29.277  26.870  1.00  0.00     0.116 C 
BRANCH   3   4
ATOM      4  N   UNL A   1      33.940  29.198  25.420  1.00  0.00    -0.352 N 
ATOM      5  C   UNL A   1      33.570  28.219  24.526  1.00  0.00     0.252 C 
ATOM      6  O   UNL A   1      34.205  28.204  23.472  1.00  0.00    -0.269 OA
ATOM      7  H   UNL A   1      34.292  30.011  24.989  1.00  0.00     0.163 HD
BRANCH   5   8
ATOM      8  C   UNL A   1      32.408  27.274  24.701  1.00  0.00     0.054 A 
ATOM      9  C   UNL A   1      29.641  29.010  22.552  1.00  0.00    -0.006 C 
ATOM     10  C   UNL A   1      28.445  28.337  23.220  1.00  0.00     0.010 C 
ATOM     11  C   UNL A   1      30.890  28.986  23.463  1.00  0.00     0.042 C 
ATOM     12  C   UNL A   1      28.792  26.915  23.613  1.00  0.00     0.057 C 
ATOM     13  C   UNL A   1      31.148  27.669  24.175  1.00  0.00    -0.013 A 
ATOM     14  C   UNL A   1      30.075  26.803  24.388  1.00  0.00     0.045 A 
ATOM     15  N   UNL A   1      30.148  25.715  25.180  1.00  0.00    -0.249 NA
ATOM     16  C   UNL A   1      32.523  25.989  25.311  1.00  0.00     0.016 A 
ATOM     17  C   UNL A   1      31.338  25.314  25.643  1.00  0.00     0.107 A 
ATOM     18  C   UNL A   1      33.726  25.286  25.551  1.00  0.00     0.011 A 
ATOM     19  C   UNL A   1      31.408  24.157  26.422  1.00  0.00     0.149 A 
ATOM     20  C   UNL A   1      33.788  24.122  26.320  1.00  0.00     0.004 A 
ATOM     21  F   UNL A   1      30.278  23.541  26.810  1.00  0.00    -0.205 F 
ATOM     22  C   UNL A   1      32.615  23.580  26.801  1.00  0.00     0.041 A 
BRANCH   9  23
ATOM     23  C   UNL A   1      29.348  30.426  22.003  1.00  0.00     0.003 C 
BRANCH  23  24
ATOM     24  C   UNL A   1      28.498  31.370  22.862  1.00  0.00    -0.003 C 
ATOM     25  C   UNL A   1      28.596  32.838  22.480  1.00  0.00     0.004 C 
ENDBRANCH  23  24
ENDBRANCH   9  23
ENDBRANCH   5   8
ENDBRANCH   3   4
ENDBRANCH   2   3
ENDBRANCH   1   2
BRANCH   1  26
ATOM     26  C   UNL A   1      33.356  32.287  27.405  1.00  0.00     0.116 C 
BRANCH  26  27
ATOM     27  N   UNL A   1      32.828  33.626  27.649  1.00  0.00    -0.352 N 
ATOM     28  C   UNL A   1      33.211  34.516  28.625  1.00  0.00     0.251 C 
ATOM     29  H   UNL A   1      32.113  33.928  27.045  1.00  0.00     0.163 HD
ATOM     30  O   UNL A   1      32.629  35.583  28.778  1.00  0.00    -0.269 OA
BRANCH  28  31
ATOM     31  C   UNL A   1      34.324  34.123  29.504  1.00  0.00     0.039 A 
ATOM     32  C   UNL A   1      34.059  33.324  30.618  1.00  0.00     0.014 A 
ATOM     33  C   UNL A   1      35.635  34.426  29.122  1.00  0.00     0.014 A 
ATOM     34  C   UNL A   1      35.126  32.763  31.317  1.00  0.00     0.010 A 
ATOM     35  C   UNL A   1      36.689  33.803  29.771  1.00  0.00     0.010 A 
ATOM     36  C   UNL A   1      36.442  32.973  30.875  1.00  0.00    -0.014 A 
BRANCH  36  37
ATOM     37  C   UNL A   1      37.592  32.371  31.582  1.00  0.00     0.031 A 
ATOM     38  C   UNL A   1      38.331  31.237  30.935  1.00  0.00     0.074 A 
ATOM     39  C   UNL A   1      37.916  32.787  32.820  1.00  0.00     0.049 A 
ATOM     40  N   UNL A   1      39.324  30.532  31.402  1.00  0.00    -0.248 NA
ATOM     41  C   UNL A   1      37.871  30.822  29.598  1.00  0.00     0.031 C 
ATOM     42  C   UNL A   1      37.221  33.832  33.575  1.00  0.00     0.029 A 
ATOM     43  N   UNL A   1      38.909  32.368  33.668  1.00  0.00    -0.354 N 
ATOM     44  C   UNL A   1      39.592  29.579  30.431  1.00  0.00     0.074 A 
ATOM     45  C   UNL A   1      38.629  29.761  29.370  1.00  0.00     0.031 C 
ATOM     46  C   UNL A   1      37.819  33.982  34.768  1.00  0.00     0.029 A 
ATOM     47  C   UNL A   1      38.930  33.039  34.867  1.00  0.00     0.049 A 
ATOM     48  H   UNL A   1      39.547  31.654  33.440  1.00  0.00     0.167 HD
ATOM     49  C   UNL A   1      40.585  28.662  30.401  1.00  0.00     0.034 A 
ATOM     50  C   UNL A   1      39.761  32.915  35.919  1.00  0.00     0.034 A 
ATOM     51  C   UNL A   1      41.578  28.525  31.425  1.00  0.00     0.049 A 
ATOM     52  C   UNL A   1      40.887  31.921  35.848  1.00  0.00     0.074 A 
ATOM     53  C   UNL A   1      42.667  27.674  31.459  1.00  0.00     0.029 A 
ATOM     54  N   UNL A   1      41.608  29.270  32.594  1.00  0.00    -0.354 N 
ATOM     55  N   UNL A   1      41.198  31.104  34.870  1.00  0.00    -0.248 NA
ATOM     56  C   UNL A   1      41.793  31.850  37.002  1.00  0.00     0.031 C 
ATOM     57  C   UNL A   1      43.364  27.913  32.649  1.00  0.00     0.029 A 
ATOM     58  C   UNL A   1      42.703  28.908  33.354  1.00  0.00     0.049 A 
ATOM     59  H   UNL A   1      40.947  29.955  32.845  1.00  0.00     0.167 HD
ATOM     60  C   UNL A   1      42.345  30.435  35.280  1.00  0.00     0.074 A 
ATOM     61  C   UNL A   1      42.681  30.952  36.592  1.00  0.00     0.031 C 
ATOM     62  C   UNL A   1      43.046  29.472  34.635  1.00  0.00     0.034 A 
BRANCH  49  63
ATOM     63  C   UNL A   1      40.684  27.808  29.171  1.00  0.00     0.023 A 
ATOM     64  C   UNL A   1      39.888  26.648  29.085  1.00  0.00     0.012 A 
ATOM     65  C   UNL A   1      41.546  28.142  28.110  1.00  0.00     0.148 A 
ATOM     66  C   UNL A   1      39.968  25.814  27.971  1.00  0.00     0.002 A 
ATOM     67  C   UNL A   1      41.598  27.321  26.990  1.00  0.00     0.091 A 
ATOM     68  F   UNL A   1      42.316  29.233  28.231  1.00  0.00    -0.205 F 
ATOM     69  C   UNL A   1      40.816  26.155  26.922  1.00  0.00     0.022 A 
BRANCH  67  70
ATOM     70  S   UNL A   1      42.628  27.693  25.567  1.00  0.00     0.127 S 
ATOM     71  O   UNL A   1      42.411  26.514  24.730  1.00  0.00    -0.237 OA
ATOM     72  O   UNL A   1      42.020  28.923  25.059  1.00  0.00    -0.237 OA
ATOM     73  O   UNL A   1      43.981  27.855  26.084  1.00  0.00    -0.744 OA
ENDBRANCH  67  70
ENDBRANCH  49  63
BRANCH  50  74
ATOM     74  C   UNL A   1      39.612  33.840  37.075  1.00  0.00     0.023 A 
ATOM     75  C   UNL A   1      39.991  35.187  36.920  1.00  0.00     0.012 A 
ATOM     76  C   UNL A   1      39.019  33.423  38.282  1.00  0.00     0.148 A 
ATOM     77  C   UNL A   1      39.785  36.106  37.948  1.00  0.00     0.002 A 
ATOM     78  C   UNL A   1      38.787  34.351  39.292  1.00  0.00     0.091 A 
ATOM     79  F   UNL A   1      38.656  32.139  38.398  1.00  0.00    -0.205 F 
ATOM     80  C   UNL A   1      39.178  35.691  39.130  1.00  0.00     0.022 A 
BRANCH  78  81
ATOM     81  S   UNL A   1      37.929  33.941  40.815  1.00  0.00     0.127 S 
ATOM     82  O   UNL A   1      37.756  35.257  41.428  1.00  0.00    -0.237 OA
ATOM     83  O   UNL A   1      36.701  33.331  40.306  1.00  0.00    -0.237 OA
ATOM     84  O   UNL A   1      38.812  33.036  41.538  1.00  0.00    -0.744 OA
ENDBRANCH  78  81
ENDBRANCH  50  74
BRANCH  62  85
ATOM     85  C   UNL A   1      44.254  28.899  35.319  1.00  0.00     0.023 A 
ATOM     86  C   UNL A   1      45.504  29.517  35.130  1.00  0.00     0.012 A 
ATOM     87  C   UNL A   1      44.123  27.856  36.257  1.00  0.00     0.148 A 
ATOM     88  C   UNL A   1      46.612  29.105  35.868  1.00  0.00     0.002 A 
ATOM     89  C   UNL A   1      45.225  27.473  37.011  1.00  0.00     0.091 A 
ATOM     90  F   UNL A   1      42.921  27.281  36.409  1.00  0.00    -0.205 F 
ATOM     91  C   UNL A   1      46.469  28.094  36.817  1.00  0.00     0.022 A 
BRANCH  89  92
ATOM     92  S   UNL A   1      45.124  26.237  38.312  1.00  0.00     0.127 S 
ATOM     93  O   UNL A   1      43.994  26.727  39.100  1.00  0.00    -0.237 OA
ATOM     94  O   UNL A   1      44.855  25.014  37.554  1.00  0.00    -0.237 OA
ATOM     95  O   UNL A   1      46.412  26.259  38.991  1.00  0.00    -0.744 OA
ENDBRANCH  89  92
ENDBRANCH  62  85
ENDBRANCH  36  37
ENDBRANCH  28  31
ENDBRANCH  26  27
ENDBRANCH   1  26
TORSDOF 16
ENDMDL
MODEL 2
REMARK VINA RESULT:     -12.8      6.651     10.062
REMARK SMILES CCC[C@@H]1CCc2nc3c(F)cccc3c(C(=O)NCCCCNC(=O)c3ccc(-c4c5nc(c(-c6cccc(S(=O)(=O)[O-])c6F)c6ccc([nH]6)c(-c6cccc(S(=O)(=O)[O-])c6F)c6nc(c(-c7cccc(S(=O)(=O)[O-])c7F)c7ccc4[nH]7)C=C6)C=C5)cc3)c2C1
REMARK SMILES IDX 22 1 21 2 20 3 19 4 17 5 18 6 16 8 4 9 5 10 91 11 6 12 90 13
REMARK SMILES IDX 7 14 8 15 15 16 9 17 14 18 10 19 13 20 11 21 12 22 3 23 2 24
REMARK SMILES IDX 1 25 23 26 24 27 25 28 26 30 27 31 28 32 89 33 29 34 88 35
REMARK SMILES IDX 30 36 31 37 32 38 82 39 33 40 87 41 81 42 83 43 34 44 86 45
REMARK SMILES IDX 80 46 79 47 35 49 67 50 47 51 66 52 48 53 51 54 65 55 84 56
REMARK SMILES IDX 49 57 50 58 64 60 85 61 52 62 36 63 37 64 45 65 38 66 40 67
REMARK SMILES IDX 46 68 39 69 41 70 42 71 43 72 44 73 68 74 69 75 77 76 70 77
REMARK SMILES IDX 72 78 78 79 71 80 73 81 74 82 75 83 76 84 53 85 54 86 62 87
REMARK SMILES IDX 55 88 57 89 63 90 56 91 58 92 59 93 60 94 61 95
REMARK H PARENT 19 7 24 29 83 48 51 59
REMARK Flexibility Score: inf
ROOT
ATOM      1  C   UNL A   1      37.931  20.628  25.024  1.00  0.00     0.023 C 
ENDROOT
BRANCH   1   2
ATOM      2  C   UNL A   1      37.403  21.952  24.491  1.00  0.00     0.023 C 
BRANCH   2   3
ATOM      3  C   UNL A   1      37.220  23.068  25.534  1.00  0.00     0.116 C 
BRANCH   3   4
ATOM      4  N   UNL A   1      36.027  22.790  26.313  1.00  0.00    -0.352 N 
ATOM      5  C   UNL A   1      34.709  23.169  26.182  1.00  0.00     0.252 C 
ATOM      6  O   UNL A   1      34.083  23.260  27.237  1.00  0.00    -0.269 OA
ATOM      7  H   UNL A   1      36.193  22.212  27.092  1.00  0.00     0.163 HD
BRANCH   5   8
ATOM      8  C   UNL A   1      33.985  23.361  24.873  1.00  0.00     0.054 A 
ATOM      9  C   UNL A   1      32.536  19.787  24.234  1.00  0.00    -0.006 C 
ATOM     10  C   UNL A   1      32.339  19.940  22.727  1.00  0.00     0.010 C 
ATOM     11  C   UNL A   1      33.576  20.794  24.776  1.00  0.00     0.042 C 
ATOM     12  C   UNL A   1      31.931  21.360  22.391  1.00  0.00     0.057 C 
ATOM     13  C   UNL A   1      33.451  22.209  24.236  1.00  0.00    -0.013 A 
ATOM     14  C   UNL A   1      32.825  22.401  23.004  1.00  0.00     0.045 A 
ATOM     15  N   UNL A   1      32.841  23.574  22.341  1.00  0.00    -0.249 NA
ATOM     16  C   UNL A   1      33.759  24.640  24.279  1.00  0.00     0.016 A 
ATOM     17  C   UNL A   1      33.304  24.671  22.952  1.00  0.00     0.107 A 
ATOM     18  C   UNL A   1      33.881  25.891  24.925  1.00  0.00     0.011 A 
ATOM     19  C   UNL A   1      33.270  25.892  22.272  1.00  0.00     0.149 A 
ATOM     20  C   UNL A   1      33.833  27.108  24.243  1.00  0.00     0.004 A 
ATOM     21  F   UNL A   1      32.906  25.928  20.979  1.00  0.00    -0.205 F 
ATOM     22  C   UNL A   1      33.571  27.102  22.888  1.00  0.00     0.041 A 
BRANCH   9  23
ATOM     23  C   UNL A   1      32.834  18.340  24.691  1.00  0.00     0.003 C 
BRANCH  23  24
ATOM     24  C   UNL A   1      34.161  17.706  24.259  1.00  0.00    -0.003 C 
ATOM     25  C   UNL A   1      34.028  16.582  23.244  1.00  0.00     0.004 C 
ENDBRANCH  23  24
ENDBRANCH   9  23
ENDBRANCH   5   8
ENDBRANCH   3   4
ENDBRANCH   2   3
ENDBRANCH   1   2
BRANCH   1  26
ATOM     26  C   UNL A   1      39.043  20.762  26.045  1.00  0.00     0.116 C 
BRANCH  26  27
ATOM     27  N   UNL A   1      40.019  19.678  25.981  1.00  0.00    -0.352 N 
ATOM     28  C   UNL A   1      41.384  19.764  26.126  1.00  0.00     0.251 C 
ATOM     29  H   UNL A   1      39.658  18.777  25.815  1.00  0.00     0.163 HD
ATOM     30  O   UNL A   1      42.105  18.786  25.967  1.00  0.00    -0.269 OA
BRANCH  28  31
ATOM     31  C   UNL A   1      41.951  21.085  26.441  1.00  0.00     0.039 A 
ATOM     32  C   UNL A   1      42.169  21.995  25.404  1.00  0.00     0.014 A 
ATOM     33  C   UNL A   1      42.114  21.455  27.780  1.00  0.00     0.014 A 
ATOM     34  C   UNL A   1      42.486  23.314  25.719  1.00  0.00     0.010 A 
ATOM     35  C   UNL A   1      42.352  22.784  28.089  1.00  0.00     0.010 A 
ATOM     36  C   UNL A   1      42.544  23.721  27.062  1.00  0.00    -0.014 A 
BRANCH  36  37
ATOM     37  C   UNL A   1      42.854  25.120  27.426  1.00  0.00     0.031 A 
ATOM     38  C   UNL A   1      44.261  25.617  27.274  1.00  0.00     0.074 A 
ATOM     39  C   UNL A   1      41.899  25.905  27.958  1.00  0.00     0.049 A 
ATOM     40  N   UNL A   1      44.757  26.783  27.586  1.00  0.00    -0.248 NA
ATOM     41  C   UNL A   1      45.245  24.667  26.725  1.00  0.00     0.031 C 
ATOM     42  C   UNL A   1      40.516  25.503  28.219  1.00  0.00     0.029 A 
ATOM     43  N   UNL A   1      41.955  27.206  28.388  1.00  0.00    -0.354 N 
ATOM     44  C   UNL A   1      46.111  26.699  27.296  1.00  0.00     0.074 A 
ATOM     45  C   UNL A   1      46.370  25.356  26.829  1.00  0.00     0.031 C 
ATOM     46  C   UNL A   1      39.850  26.541  28.751  1.00  0.00     0.029 A 
ATOM     47  C   UNL A   1      40.760  27.677  28.879  1.00  0.00     0.049 A 
ATOM     48  H   UNL A   1      42.773  27.751  28.350  1.00  0.00     0.167 HD
ATOM     49  C   UNL A   1      47.050  27.669  27.365  1.00  0.00     0.034 A 
ATOM     50  C   UNL A   1      40.436  28.891  29.362  1.00  0.00     0.034 A 
ATOM     51  C   UNL A   1      46.778  29.018  27.768  1.00  0.00     0.049 A 
ATOM     52  C   UNL A   1      41.483  29.970  29.388  1.00  0.00     0.074 A 
ATOM     53  C   UNL A   1      47.643  30.095  27.807  1.00  0.00     0.029 A 
ATOM     54  N   UNL A   1      45.539  29.476  28.191  1.00  0.00    -0.354 N 
ATOM     55  N   UNL A   1      42.734  29.908  29.000  1.00  0.00    -0.248 NA
ATOM     56  C   UNL A   1      41.072  31.290  29.886  1.00  0.00     0.031 C 
ATOM     57  C   UNL A   1      46.922  31.211  28.246  1.00  0.00     0.029 A 
ATOM     58  C   UNL A   1      45.612  30.824  28.484  1.00  0.00     0.049 A 
ATOM     59  H   UNL A   1      44.729  28.922  28.271  1.00  0.00     0.167 HD
ATOM     60  C   UNL A   1      43.256  31.182  29.187  1.00  0.00     0.074 A 
ATOM     61  C   UNL A   1      42.181  32.000  29.712  1.00  0.00     0.031 C 
ATOM     62  C   UNL A   1      44.515  31.629  28.958  1.00  0.00     0.034 A 
BRANCH  49  63
ATOM     63  C   UNL A   1      48.432  27.312  26.903  1.00  0.00     0.023 A 
ATOM     64  C   UNL A   1      49.316  26.702  27.816  1.00  0.00     0.012 A 
ATOM     65  C   UNL A   1      48.858  27.568  25.587  1.00  0.00     0.148 A 
ATOM     66  C   UNL A   1      50.616  26.376  27.435  1.00  0.00     0.002 A 
ATOM     67  C   UNL A   1      50.147  27.213  25.206  1.00  0.00     0.091 A 
ATOM     68  F   UNL A   1      48.010  28.178  24.747  1.00  0.00    -0.205 F 
ATOM     69  C   UNL A   1      51.028  26.625  26.130  1.00  0.00     0.022 A 
BRANCH  67  70
ATOM     70  S   UNL A   1      50.761  27.454  23.536  1.00  0.00     0.127 S 
ATOM     71  O   UNL A   1      52.012  26.698  23.571  1.00  0.00    -0.237 OA
ATOM     72  O   UNL A   1      49.704  26.847  22.728  1.00  0.00    -0.237 OA
ATOM     73  O   UNL A   1      50.903  28.894  23.365  1.00  0.00    -0.744 OA
ENDBRANCH  67  70
ENDBRANCH  49  63
BRANCH  50  74
ATOM     74  C   UNL A   1      39.027  29.164  29.752  1.00  0.00     0.023 A 
ATOM     75  C   UNL A   1      38.618  28.879  31.068  1.00  0.00     0.012 A 
ATOM     76  C   UNL A   1      38.124  29.784  28.867  1.00  0.00     0.148 A 
ATOM     77  C   UNL A   1      37.333  29.202  31.499  1.00  0.00     0.002 A 
ATOM     78  C   UNL A   1      36.854  30.134  29.312  1.00  0.00     0.091 A 
ATOM     79  F   UNL A   1      38.543  30.056  27.624  1.00  0.00    -0.205 F 
ATOM     80  C   UNL A   1      36.453  29.835  30.625  1.00  0.00     0.022 A 
BRANCH  78  81
ATOM     81  S   UNL A   1      35.677  31.033  28.296  1.00  0.00     0.127 S 
ATOM     82  O   UNL A   1      36.473  32.176  27.852  1.00  0.00    -0.237 OA
ATOM     83  O   UNL A   1      35.376  30.050  27.256  1.00  0.00    -0.237 OA
ATOM     84  O   UNL A   1      34.563  31.361  29.174  1.00  0.00    -0.744 OA
ENDBRANCH  78  81
ENDBRANCH  50  74
BRANCH  62  85
ATOM     85  C   UNL A   1      44.822  33.066  29.265  1.00  0.00     0.023 A 
ATOM     86  C   UNL A   1      45.389  33.393  30.511  1.00  0.00     0.012 A 
ATOM     87  C   UNL A   1      44.692  34.057  28.273  1.00  0.00     0.148 A 
ATOM     88  C   UNL A   1      45.825  34.692  30.768  1.00  0.00     0.002 A 
ATOM     89  C   UNL A   1      45.158  35.342  28.525  1.00  0.00     0.091 A 
ATOM     90  F   UNL A   1      44.140  33.718  27.099  1.00  0.00    -0.205 F 
ATOM     91  C   UNL A   1      45.723  35.661  29.771  1.00  0.00     0.022 A 
BRANCH  89  92
ATOM     92  S   UNL A   1      45.144  36.638  27.280  1.00  0.00     0.127 S 
ATOM     93  O   UNL A   1      45.714  37.764  28.017  1.00  0.00    -0.237 OA
ATOM     94  O   UNL A   1      46.016  36.080  26.245  1.00  0.00    -0.237 OA
ATOM     95  O   UNL A   1      43.753  36.797  26.879  1.00  0.00    -0.744 OA
ENDBRANCH  89  92
ENDBRANCH  62  85
ENDBRANCH  36  37
ENDBRANCH  28  31
ENDBRANCH  26  27
ENDBRANCH   1  26
TORSDOF 16
ENDMDL
MODEL 3
REMARK VINA RESULT:     -12.5      6.066     11.868
REMARK SMILES CCC[C@@H]1CCc2nc3c(F)cccc3c(C(=O)NCCCCNC(=O)c3ccc(-c4c5nc(c(-c6cccc(S(=O)(=O)[O-])c6F)c6ccc([nH]6)c(-c6cccc(S(=O)(=O)[O-])c6F)c6nc(c(-c7cccc(S(=O)(=O)[O-])c7F)c7ccc4[nH]7)C=C6)C=C5)cc3)c2C1
REMARK SMILES IDX 22 1 21 2 20 3 19 4 17 5 18 6 16 8 4 9 5 10 91 11 6 12 90 13
REMARK SMILES IDX 7 14 8 15 15 16 9 17 14 18 10 19 13 20 11 21 12 22 3 23 2 24
REMARK SMILES IDX 1 25 23 26 24 27 25 28 26 30 27 31 28 32 89 33 29 34 88 35
REMARK SMILES IDX 30 36 31 37 32 38 82 39 33 40 87 41 81 42 83 43 34 44 86 45
REMARK SMILES IDX 80 46 79 47 35 49 67 50 47 51 66 52 48 53 51 54 65 55 84 56
REMARK SMILES IDX 49 57 50 58 64 60 85 61 52 62 36 63 37 64 45 65 38 66 40 67
REMARK SMILES IDX 46 68 39 69 41 70 42 71 43 72 44 73 68 74 69 75 77 76 70 77
REMARK SMILES IDX 72 78 78 79 71 80 73 81 74 82 75 83 76 84 53 85 54 86 62 87
REMARK SMILES IDX 55 88 57 89 63 90 56 91 58 92 59 93 60 94 61 95
REMARK H PARENT 19 7 24 29 83 48 51 59
REMARK Flexibility Score: inf
ROOT
ATOM      1  C   UNL A   1      38.002  20.785  25.096  1.00  0.00     0.023 C 
ENDROOT
BRANCH   1   2
ATOM      2  C   UNL A   1      37.438  22.126  24.649  1.00  0.00     0.023 C 
BRANCH   2   3
ATOM      3  C   UNL A   1      37.217  23.163  25.765  1.00  0.00     0.116 C 
BRANCH   3   4
ATOM      4  N   UNL A   1      36.008  22.818  26.492  1.00  0.00    -0.352 N 
ATOM      5  C   UNL A   1      34.682  23.148  26.322  1.00  0.00     0.252 C 
ATOM      6  O   UNL A   1      34.015  23.187  27.354  1.00  0.00    -0.269 OA
ATOM      7  H   UNL A   1      36.170  22.228  27.263  1.00  0.00     0.163 HD
BRANCH   5   8
ATOM      8  C   UNL A   1      33.998  23.344  24.992  1.00  0.00     0.054 A 
ATOM      9  C   UNL A   1      32.555  19.776  24.306  1.00  0.00    -0.006 C 
ATOM     10  C   UNL A   1      32.403  19.930  22.794  1.00  0.00     0.010 C 
ATOM     11  C   UNL A   1      33.582  20.778  24.880  1.00  0.00     0.042 C 
ATOM     12  C   UNL A   1      32.012  21.352  22.447  1.00  0.00     0.057 C 
ATOM     13  C   UNL A   1      33.479  22.194  24.338  1.00  0.00    -0.013 A 
ATOM     14  C   UNL A   1      32.891  22.390  23.088  1.00  0.00     0.045 A 
ATOM     15  N   UNL A   1      32.931  23.564  22.427  1.00  0.00    -0.249 NA
ATOM     16  C   UNL A   1      33.795  24.624  24.392  1.00  0.00     0.016 A 
ATOM     17  C   UNL A   1      33.380  24.658  23.052  1.00  0.00     0.107 A 
ATOM     18  C   UNL A   1      33.903  25.874  25.042  1.00  0.00     0.011 A 
ATOM     19  C   UNL A   1      33.371  25.879  22.373  1.00  0.00     0.149 A 
ATOM     20  C   UNL A   1      33.880  27.092  24.360  1.00  0.00     0.004 A 
ATOM     21  F   UNL A   1      33.046  25.918  21.069  1.00  0.00    -0.205 F 
ATOM     22  C   UNL A   1      33.658  27.087  22.998  1.00  0.00     0.041 A 
BRANCH   9  23
ATOM     23  C   UNL A   1      32.833  18.327  24.771  1.00  0.00     0.003 C 
BRANCH  23  24
ATOM     24  C   UNL A   1      32.814  17.215  23.716  1.00  0.00    -0.003 C 
ATOM     25  C   UNL A   1      34.182  16.817  23.187  1.00  0.00     0.004 C 
ENDBRANCH  23  24
ENDBRANCH   9  23
ENDBRANCH   5   8
ENDBRANCH   3   4
ENDBRANCH   2   3
ENDBRANCH   1   2
BRANCH   1  26
ATOM     26  C   UNL A   1      39.243  20.884  25.961  1.00  0.00     0.116 C 
BRANCH  26  27
ATOM     27  N   UNL A   1      40.049  19.666  25.958  1.00  0.00    -0.352 N 
ATOM     28  C   UNL A   1      41.411  19.557  26.104  1.00  0.00     0.251 C 
ATOM     29  H   UNL A   1      39.557  18.821  25.837  1.00  0.00     0.163 HD
ATOM     30  O   UNL A   1      41.980  18.477  25.999  1.00  0.00    -0.269 OA
BRANCH  28  31
ATOM     31  C   UNL A   1      42.168  20.795  26.353  1.00  0.00     0.039 A 
ATOM     32  C   UNL A   1      42.518  21.606  25.272  1.00  0.00     0.014 A 
ATOM     33  C   UNL A   1      42.385  21.207  27.672  1.00  0.00     0.014 A 
ATOM     34  C   UNL A   1      43.027  22.879  25.519  1.00  0.00     0.010 A 
ATOM     35  C   UNL A   1      42.817  22.502  27.912  1.00  0.00     0.010 A 
ATOM     36  C   UNL A   1      43.146  23.343  26.839  1.00  0.00    -0.014 A 
BRANCH  36  37
ATOM     37  C   UNL A   1      43.659  24.698  27.130  1.00  0.00     0.031 A 
ATOM     38  C   UNL A   1      42.710  25.743  27.639  1.00  0.00     0.074 A 
ATOM     39  C   UNL A   1      44.943  25.005  26.868  1.00  0.00     0.049 A 
ATOM     40  N   UNL A   1      42.937  27.000  27.901  1.00  0.00    -0.248 NA
ATOM     41  C   UNL A   1      41.313  25.323  27.851  1.00  0.00     0.031 C 
ATOM     42  C   UNL A   1      45.936  24.088  26.303  1.00  0.00     0.029 A 
ATOM     43  N   UNL A   1      45.628  26.182  27.029  1.00  0.00    -0.354 N 
ATOM     44  C   UNL A   1      41.712  27.526  28.285  1.00  0.00     0.074 A 
ATOM     45  C   UNL A   1      40.735  26.468  28.176  1.00  0.00     0.031 C 
ATOM     46  C   UNL A   1      47.108  24.734  26.180  1.00  0.00     0.029 A 
ATOM     47  C   UNL A   1      46.946  26.110  26.644  1.00  0.00     0.049 A 
ATOM     48  H   UNL A   1      45.215  27.000  27.386  1.00  0.00     0.167 HD
ATOM     49  C   UNL A   1      41.433  28.769  28.736  1.00  0.00     0.034 A 
ATOM     50  C   UNL A   1      47.914  27.045  26.677  1.00  0.00     0.034 A 
ATOM     51  C   UNL A   1      42.416  29.799  28.904  1.00  0.00     0.049 A 
ATOM     52  C   UNL A   1      47.594  28.408  27.226  1.00  0.00     0.074 A 
ATOM     53  C   UNL A   1      42.250  31.071  29.419  1.00  0.00     0.029 A 
ATOM     54  N   UNL A   1      43.755  29.667  28.570  1.00  0.00    -0.354 N 
ATOM     55  N   UNL A   1      46.454  28.857  27.695  1.00  0.00    -0.248 NA
ATOM     56  C   UNL A   1      48.692  29.383  27.280  1.00  0.00     0.031 C 
ATOM     57  C   UNL A   1      43.496  31.707  29.405  1.00  0.00     0.029 A 
ATOM     58  C   UNL A   1      44.432  30.831  28.877  1.00  0.00     0.049 A 
ATOM     59  H   UNL A   1      44.162  28.864  28.173  1.00  0.00     0.167 HD
ATOM     60  C   UNL A   1      46.700  30.157  28.118  1.00  0.00     0.074 A 
ATOM     61  C   UNL A   1      48.102  30.421  27.861  1.00  0.00     0.031 C 
ATOM     62  C   UNL A   1      45.839  31.054  28.657  1.00  0.00     0.034 A 
BRANCH  49  63
ATOM     63  C   UNL A   1      40.019  29.035  29.165  1.00  0.00     0.023 A 
ATOM     64  C   UNL A   1      39.050  29.302  28.176  1.00  0.00     0.012 A 
ATOM     65  C   UNL A   1      39.645  29.020  30.521  1.00  0.00     0.148 A 
ATOM     66  C   UNL A   1      37.731  29.578  28.532  1.00  0.00     0.002 A 
ATOM     67  C   UNL A   1      38.321  29.267  30.866  1.00  0.00     0.091 A 
ATOM     68  F   UNL A   1      40.592  28.795  31.443  1.00  0.00    -0.205 F 
ATOM     69  C   UNL A   1      37.367  29.553  29.875  1.00  0.00     0.022 A 
BRANCH  67  70
ATOM     70  S   UNL A   1      37.741  29.218  32.564  1.00  0.00     0.127 S 
ATOM     71  O   UNL A   1      36.394  29.773  32.431  1.00  0.00    -0.237 OA
ATOM     72  O   UNL A   1      37.784  27.786  32.863  1.00  0.00    -0.237 OA
ATOM     73  O   UNL A   1      38.679  30.025  33.332  1.00  0.00    -0.744 OA
ENDBRANCH  67  70
ENDBRANCH  49  63
BRANCH  50  74
ATOM     74  C   UNL A   1      49.297  26.672  26.276  1.00  0.00     0.023 A 
ATOM     75  C   UNL A   1      50.019  25.773  27.083  1.00  0.00     0.012 A 
ATOM     76  C   UNL A   1      49.861  27.123  25.067  1.00  0.00     0.148 A 
ATOM     77  C   UNL A   1      51.283  25.330  26.697  1.00  0.00     0.002 A 
ATOM     78  C   UNL A   1      51.108  26.652  24.672  1.00  0.00     0.091 A 
ATOM     79  F   UNL A   1      49.147  27.967  24.311  1.00  0.00    -0.205 F 
ATOM     80  C   UNL A   1      51.825  25.762  25.490  1.00  0.00     0.022 A 
BRANCH  78  81
ATOM     81  S   UNL A   1      51.856  27.074  23.094  1.00  0.00     0.127 S 
ATOM     82  O   UNL A   1      50.782  26.753  22.156  1.00  0.00    -0.237 OA
ATOM     83  O   UNL A   1      52.118  28.502  23.267  1.00  0.00    -0.237 OA
ATOM     84  O   UNL A   1      53.043  26.239  22.980  1.00  0.00    -0.744 OA
ENDBRANCH  78  81
ENDBRANCH  50  74
BRANCH  62  85
ATOM     85  C   UNL A   1      46.367  32.413  29.016  1.00  0.00     0.023 A 
ATOM     86  C   UNL A   1      47.069  32.576  30.224  1.00  0.00     0.012 A 
ATOM     87  C   UNL A   1      46.302  33.476  28.095  1.00  0.00     0.148 A 
ATOM     88  C   UNL A   1      47.702  33.784  30.514  1.00  0.00     0.002 A 
ATOM     89  C   UNL A   1      46.961  34.666  28.376  1.00  0.00     0.091 A 
ATOM     90  F   UNL A   1      45.618  33.293  26.956  1.00  0.00    -0.205 F 
ATOM     91  C   UNL A   1      47.660  34.822  29.585  1.00  0.00     0.022 A 
BRANCH  89  92
ATOM     92  S   UNL A   1      47.033  36.032  27.210  1.00  0.00     0.127 S 
ATOM     93  O   UNL A   1      45.762  35.885  26.503  1.00  0.00    -0.237 OA
ATOM     94  O   UNL A   1      47.107  37.192  28.099  1.00  0.00    -0.237 OA
ATOM     95  O   UNL A   1      48.223  35.811  26.401  1.00  0.00    -0.744 OA
ENDBRANCH  89  92
ENDBRANCH  62  85
ENDBRANCH  36  37
ENDBRANCH  28  31
ENDBRANCH  26  27
ENDBRANCH   1  26
TORSDOF 16
ENDMDL
