MODEL 1
REMARK VINA RESULT:     -11.9      0.000      0.000
REMARK SMILES Cc1nc2cc(S(=O)(=O)N3CCC(C(=O)NCCCCNC(=O)c4ccc(-c5c6nc(c(-c7cccc(S(=O)(=O)[O-])c7F)c7ccc([nH]7)c(-c7cccc(S(=O)(=O)[O-])c7F)c7nc(c(-c8cccc(S(=O)(=O)[O-])c8F)c8ccc5[nH]8)C=C7)C=C6)cc4)CC3)ccc2n1C1CCCC1
REMARK SMILES IDX 18 1 17 2 16 3 14 4 15 5 13 7 10 8 11 9 88 10 12 11 87 12
REMARK SMILES IDX 7 13 8 14 9 15 6 16 1 17 2 18 3 19 92 20 4 21 91 22 5 23
REMARK SMILES IDX 90 24 89 25 93 26 94 27 97 28 95 29 96 30 19 31 20 32 21 33
REMARK SMILES IDX 22 34 23 36 24 37 25 38 86 39 26 40 85 41 27 42 28 43 29 44
REMARK SMILES IDX 79 45 30 46 84 47 78 48 80 49 31 50 83 51 77 52 76 53 32 55
REMARK SMILES IDX 64 56 44 57 63 58 45 59 48 60 62 61 81 62 46 63 47 64 61 66
REMARK SMILES IDX 82 67 49 68 33 69 34 70 42 71 35 72 37 73 43 74 36 75 38 76
REMARK SMILES IDX 39 77 40 78 41 79 65 80 66 81 74 82 67 83 69 84 75 85 68 86
REMARK SMILES IDX 70 87 71 88 72 89 73 90 50 91 51 92 59 93 52 94 54 95 60 96
REMARK SMILES IDX 53 97 55 98 56 99 57 100 58 101
REMARK H PARENT 16 6 21 35 80 54 48 65
REMARK Flexibility Score: inf
ROOT
ATOM      1  C   UNL A   1      36.391  30.607  27.981  1.00  0.00     0.023 C 
ENDROOT
BRANCH   1   2
ATOM      2  C   UNL A   1      35.084  29.829  28.000  1.00  0.00     0.116 C 
BRANCH   2   3
ATOM      3  N   UNL A   1      33.927  30.691  27.797  1.00  0.00    -0.356 N 
ATOM      4  C   UNL A   1      32.824  30.513  27.017  1.00  0.00     0.223 C 
ATOM      5  O   UNL A   1      31.934  31.364  27.042  1.00  0.00    -0.275 OA
ATOM      6  H   UNL A   1      33.945  31.535  28.303  1.00  0.00     0.163 HD
BRANCH   4   7
ATOM      7  C   UNL A   1      32.680  29.272  26.151  1.00  0.00     0.081 C 
ATOM      8  N   UNL A   1      31.128  27.657  24.301  1.00  0.00    -0.198 NA
ATOM      9  C   UNL A   1      31.126  27.280  25.734  1.00  0.00     0.103 C 
ATOM     10  C   UNL A   1      32.181  28.547  23.761  1.00  0.00     0.103 C 
ATOM     11  C   UNL A   1      31.565  28.377  26.677  1.00  0.00     0.030 C 
ATOM     12  C   UNL A   1      32.569  29.675  24.685  1.00  0.00     0.030 C 
BRANCH   8  13
ATOM     13  S   UNL A   1      30.687  26.375  23.232  1.00  0.00     0.243 S 
ATOM     14  O   UNL A   1      30.983  26.801  21.888  1.00  0.00    -0.207 OA
ATOM     15  O   UNL A   1      29.363  25.916  23.620  1.00  0.00    -0.207 OA
BRANCH  13  16
ATOM     16  C   UNL A   1      31.805  25.029  23.594  1.00  0.00     0.085 A 
ATOM     17  C   UNL A   1      33.234  19.274  24.334  1.00  0.00     0.088 C 
ATOM     18  C   UNL A   1      33.049  20.732  24.143  1.00  0.00     0.106 A 
ATOM     19  N   UNL A   1      31.913  21.309  23.800  1.00  0.00    -0.233 NA
ATOM     20  N   UNL A   1      34.045  21.669  24.321  1.00  0.00    -0.325 N 
ATOM     21  C   UNL A   1      32.157  22.656  23.792  1.00  0.00     0.090 A 
ATOM     22  C   UNL A   1      33.481  22.912  24.130  1.00  0.00     0.068 A 
ATOM     23  C   UNL A   1      31.291  23.726  23.515  1.00  0.00     0.052 A 
ATOM     24  C   UNL A   1      34.000  24.200  24.226  1.00  0.00     0.030 A 
ATOM     25  C   UNL A   1      33.140  25.248  23.942  1.00  0.00     0.024 A 
BRANCH  20  26
ATOM     26  C   UNL A   1      35.435  21.421  24.664  1.00  0.00     0.089 C 
ATOM     27  C   UNL A   1      36.444  22.152  23.771  1.00  0.00     0.025 C 
ATOM     28  C   UNL A   1      35.796  21.830  26.096  1.00  0.00     0.025 C 
ATOM     29  C   UNL A   1      37.708  22.251  24.609  1.00  0.00     0.002 C 
ATOM     30  C   UNL A   1      37.266  22.232  26.069  1.00  0.00     0.002 C 
ENDBRANCH  20  26
ENDBRANCH  13  16
ENDBRANCH   8  13
ENDBRANCH   4   7
ENDBRANCH   2   3
ENDBRANCH   1   2
BRANCH   1  31
ATOM     31  C   UNL A   1      36.250  32.072  28.390  1.00  0.00     0.023 C 
BRANCH  31  32
ATOM     32  C   UNL A   1      35.435  32.301  29.667  1.00  0.00     0.116 C 
BRANCH  32  33
ATOM     33  N   UNL A   1      36.107  33.120  30.656  1.00  0.00    -0.352 N 
ATOM     34  C   UNL A   1      37.335  33.084  31.257  1.00  0.00     0.251 C 
ATOM     35  H   UNL A   1      35.556  33.875  30.965  1.00  0.00     0.163 HD
ATOM     36  O   UNL A   1      37.608  34.048  31.976  1.00  0.00    -0.269 OA
BRANCH  34  37
ATOM     37  C   UNL A   1      38.308  31.964  31.142  1.00  0.00     0.039 A 
ATOM     38  C   UNL A   1      38.073  30.652  31.547  1.00  0.00     0.014 A 
ATOM     39  C   UNL A   1      39.580  32.290  30.631  1.00  0.00     0.014 A 
ATOM     40  C   UNL A   1      39.096  29.716  31.538  1.00  0.00     0.010 A 
ATOM     41  C   UNL A   1      40.602  31.346  30.589  1.00  0.00     0.010 A 
ATOM     42  C   UNL A   1      40.368  30.070  31.085  1.00  0.00    -0.014 A 
BRANCH  42  43
ATOM     43  C   UNL A   1      41.378  29.018  31.073  1.00  0.00     0.031 A 
ATOM     44  C   UNL A   1      42.093  28.832  32.365  1.00  0.00     0.074 A 
ATOM     45  C   UNL A   1      41.641  28.233  30.011  1.00  0.00     0.049 A 
ATOM     46  N   UNL A   1      43.329  29.109  32.631  1.00  0.00    -0.248 NA
ATOM     47  C   UNL A   1      41.304  28.408  33.530  1.00  0.00     0.031 C 
ATOM     48  C   UNL A   1      40.862  28.110  28.776  1.00  0.00     0.029 A 
ATOM     49  N   UNL A   1      42.617  27.289  29.861  1.00  0.00    -0.354 N 
ATOM     50  C   UNL A   1      43.530  28.675  33.939  1.00  0.00     0.074 A 
ATOM     51  C   UNL A   1      42.228  28.403  34.492  1.00  0.00     0.031 C 
ATOM     52  C   UNL A   1      41.245  26.991  28.121  1.00  0.00     0.029 A 
ATOM     53  C   UNL A   1      42.396  26.421  28.798  1.00  0.00     0.049 A 
ATOM     54  H   UNL A   1      43.402  27.229  30.451  1.00  0.00     0.167 HD
ATOM     55  C   UNL A   1      44.763  28.324  34.396  1.00  0.00     0.034 A 
ATOM     56  C   UNL A   1      43.092  25.294  28.525  1.00  0.00     0.034 A 
ATOM     57  C   UNL A   1      45.813  28.712  33.501  1.00  0.00     0.049 A 
ATOM     58  C   UNL A   1      44.431  25.438  29.137  1.00  0.00     0.074 A 
ATOM     59  C   UNL A   1      46.528  29.848  33.202  1.00  0.00     0.029 A 
ATOM     60  N   UNL A   1      46.036  27.805  32.502  1.00  0.00    -0.354 N 
ATOM     61  N   UNL A   1      45.315  26.306  28.735  1.00  0.00    -0.248 NA
ATOM     62  C   UNL A   1      44.739  24.756  30.388  1.00  0.00     0.031 C 
ATOM     63  C   UNL A   1      47.048  29.655  31.887  1.00  0.00     0.029 A 
ATOM     64  C   UNL A   1      46.638  28.403  31.430  1.00  0.00     0.049 A 
ATOM     65  H   UNL A   1      45.797  26.851  32.548  1.00  0.00     0.167 HD
ATOM     66  C   UNL A   1      46.051  26.579  29.870  1.00  0.00     0.074 A 
ATOM     67  C   UNL A   1      45.793  25.475  30.781  1.00  0.00     0.031 C 
ATOM     68  C   UNL A   1      46.525  27.832  30.109  1.00  0.00     0.034 A 
BRANCH  55  69
ATOM     69  C   UNL A   1      45.007  27.242  35.417  1.00  0.00     0.023 A 
ATOM     70  C   UNL A   1      45.694  27.580  36.603  1.00  0.00     0.012 A 
ATOM     71  C   UNL A   1      44.853  25.868  35.128  1.00  0.00     0.148 A 
ATOM     72  C   UNL A   1      46.195  26.594  37.461  1.00  0.00     0.002 A 
ATOM     73  C   UNL A   1      45.285  24.894  36.020  1.00  0.00     0.091 A 
ATOM     74  F   UNL A   1      44.415  25.495  33.919  1.00  0.00    -0.205 F 
ATOM     75  C   UNL A   1      45.976  25.250  37.179  1.00  0.00     0.022 A 
BRANCH  73  76
ATOM     76  S   UNL A   1      44.987  23.151  35.713  1.00  0.00     0.127 S 
ATOM     77  O   UNL A   1      43.555  23.142  35.435  1.00  0.00    -0.237 OA
ATOM     78  O   UNL A   1      45.847  22.897  34.556  1.00  0.00    -0.237 OA
ATOM     79  O   UNL A   1      45.414  22.473  36.931  1.00  0.00    -0.744 OA
ENDBRANCH  73  76
ENDBRANCH  55  69
BRANCH  56  80
ATOM     80  C   UNL A   1      42.693  24.017  27.891  1.00  0.00     0.023 A 
ATOM     81  C   UNL A   1      41.321  23.687  27.843  1.00  0.00     0.012 A 
ATOM     82  C   UNL A   1      43.581  23.306  27.057  1.00  0.00     0.148 A 
ATOM     83  C   UNL A   1      40.835  22.747  26.930  1.00  0.00     0.002 A 
ATOM     84  C   UNL A   1      43.091  22.363  26.156  1.00  0.00     0.091 A 
ATOM     85  F   UNL A   1      44.882  23.625  27.071  1.00  0.00    -0.205 F 
ATOM     86  C   UNL A   1      41.717  22.099  26.074  1.00  0.00     0.022 A 
BRANCH  84  87
ATOM     87  S   UNL A   1      44.168  21.494  25.009  1.00  0.00     0.127 S 
ATOM     88  O   UNL A   1      44.119  22.354  23.825  1.00  0.00    -0.237 OA
ATOM     89  O   UNL A   1      45.442  21.507  25.721  1.00  0.00    -0.237 OA
ATOM     90  O   UNL A   1      43.554  20.185  24.817  1.00  0.00    -0.744 OA
ENDBRANCH  84  87
ENDBRANCH  56  80
BRANCH  68  91
ATOM     91  C   UNL A   1      46.712  28.738  28.934  1.00  0.00     0.023 A 
ATOM     92  C   UNL A   1      47.871  28.712  28.135  1.00  0.00     0.012 A 
ATOM     93  C   UNL A   1      45.637  29.563  28.568  1.00  0.00     0.148 A 
ATOM     94  C   UNL A   1      47.957  29.507  26.990  1.00  0.00     0.002 A 
ATOM     95  C   UNL A   1      45.711  30.323  27.410  1.00  0.00     0.091 A 
ATOM     96  F   UNL A   1      44.548  29.565  29.352  1.00  0.00    -0.205 F 
ATOM     97  C   UNL A   1      46.872  30.303  26.621  1.00  0.00     0.022 A 
BRANCH  95  98
ATOM     98  S   UNL A   1      44.316  31.286  26.824  1.00  0.00     0.127 S 
ATOM     99  O   UNL A   1      43.327  30.251  26.535  1.00  0.00    -0.237 OA
ATOM    100  O   UNL A   1      44.010  32.120  27.989  1.00  0.00    -0.237 OA
ATOM    101  O   UNL A   1      44.794  32.030  25.666  1.00  0.00    -0.744 OA
ENDBRANCH  95  98
ENDBRANCH  68  91
ENDBRANCH  42  43
ENDBRANCH  34  37
ENDBRANCH  32  33
ENDBRANCH  31  32
ENDBRANCH   1  31
TORSDOF 17
ENDMDL
MODEL 2
REMARK VINA RESULT:     -11.9      5.232     12.459
REMARK SMILES Cc1nc2cc(S(=O)(=O)N3CCC(C(=O)NCCCCNC(=O)c4ccc(-c5c6nc(c(-c7cccc(S(=O)(=O)[O-])c7F)c7ccc([nH]7)c(-c7cccc(S(=O)(=O)[O-])c7F)c7nc(c(-c8cccc(S(=O)(=O)[O-])c8F)c8ccc5[nH]8)C=C7)C=C6)cc4)CC3)ccc2n1C1CCCC1
REMARK SMILES IDX 18 1 17 2 16 3 14 4 15 5 13 7 10 8 11 9 88 10 12 11 87 12
REMARK SMILES IDX 7 13 8 14 9 15 6 16 1 17 2 18 3 19 92 20 4 21 91 22 5 23
REMARK SMILES IDX 90 24 89 25 93 26 94 27 97 28 95 29 96 30 19 31 20 32 21 33
REMARK SMILES IDX 22 34 23 36 24 37 25 38 86 39 26 40 85 41 27 42 28 43 29 44
REMARK SMILES IDX 79 45 30 46 84 47 78 48 80 49 31 50 83 51 77 52 76 53 32 55
REMARK SMILES IDX 64 56 44 57 63 58 45 59 48 60 62 61 81 62 46 63 47 64 61 66
REMARK SMILES IDX 82 67 49 68 33 69 34 70 42 71 35 72 37 73 43 74 36 75 38 76
REMARK SMILES IDX 39 77 40 78 41 79 65 80 66 81 74 82 67 83 69 84 75 85 68 86
REMARK SMILES IDX 70 87 71 88 72 89 73 90 50 91 51 92 59 93 52 94 54 95 60 96
REMARK SMILES IDX 53 97 55 98 56 99 57 100 58 101
REMARK H PARENT 16 6 21 35 80 54 48 65
REMARK Flexibility Score: inf
ROOT
ATOM      1  C   UNL A   1      44.647  25.167  25.195  1.00  0.00     0.023 C 
ENDROOT
BRANCH   1   2
ATOM      2  C   UNL A   1      44.193  26.610  25.360  1.00  0.00     0.116 C 
BRANCH   2   3
ATOM      3  N   UNL A   1      45.049  27.542  24.639  1.00  0.00    -0.356 N 
ATOM      4  C   UNL A   1      46.175  28.195  25.043  1.00  0.00     0.223 C 
ATOM      5  O   UNL A   1      46.773  28.906  24.235  1.00  0.00    -0.275 OA
ATOM      6  H   UNL A   1      44.770  27.730  23.714  1.00  0.00     0.163 HD
BRANCH   4   7
ATOM      7  C   UNL A   1      46.700  28.028  26.461  1.00  0.00     0.081 C 
ATOM      8  N   UNL A   1      48.916  28.002  28.339  1.00  0.00    -0.198 NA
ATOM      9  C   UNL A   1      48.414  26.704  27.827  1.00  0.00     0.103 C 
ATOM     10  C   UNL A   1      48.083  29.222  28.235  1.00  0.00     0.103 C 
ATOM     11  C   UNL A   1      47.596  26.799  26.559  1.00  0.00     0.030 C 
ATOM     12  C   UNL A   1      47.316  29.337  26.940  1.00  0.00     0.030 C 
BRANCH   8  13
ATOM     13  S   UNL A   1      49.793  27.885  29.821  1.00  0.00     0.243 S 
ATOM     14  O   UNL A   1      50.164  29.218  30.220  1.00  0.00    -0.207 OA
ATOM     15  O   UNL A   1      50.778  26.826  29.665  1.00  0.00    -0.207 OA
BRANCH  13  16
ATOM     16  C   UNL A   1      48.623  27.299  31.038  1.00  0.00     0.085 A 
ATOM     17  C   UNL A   1      44.880  27.946  35.651  1.00  0.00     0.088 C 
ATOM     18  C   UNL A   1      45.734  27.632  34.480  1.00  0.00     0.106 A 
ATOM     19  N   UNL A   1      46.464  28.513  33.823  1.00  0.00    -0.233 NA
ATOM     20  N   UNL A   1      45.882  26.370  33.946  1.00  0.00    -0.325 N 
ATOM     21  C   UNL A   1      47.139  27.808  32.863  1.00  0.00     0.090 A 
ATOM     22  C   UNL A   1      46.805  26.459  32.927  1.00  0.00     0.068 A 
ATOM     23  C   UNL A   1      48.064  28.250  31.904  1.00  0.00     0.052 A 
ATOM     24  C   UNL A   1      47.363  25.503  32.083  1.00  0.00     0.030 A 
ATOM     25  C   UNL A   1      48.268  25.951  31.135  1.00  0.00     0.024 A 
BRANCH  20  26
ATOM     26  C   UNL A   1      45.216  25.151  34.372  1.00  0.00     0.089 C 
ATOM     27  C   UNL A   1      44.410  24.456  33.268  1.00  0.00     0.025 C 
ATOM     28  C   UNL A   1      46.175  24.080  34.903  1.00  0.00     0.025 C 
ATOM     29  C   UNL A   1      44.315  23.005  33.708  1.00  0.00     0.002 C 
ATOM     30  C   UNL A   1      45.532  22.735  34.586  1.00  0.00     0.002 C 
ENDBRANCH  20  26
ENDBRANCH  13  16
ENDBRANCH   8  13
ENDBRANCH   4   7
ENDBRANCH   2   3
ENDBRANCH   1   2
BRANCH   1  31
ATOM     31  C   UNL A   1      43.502  24.166  25.055  1.00  0.00     0.023 C 
BRANCH  31  32
ATOM     32  C   UNL A   1      43.553  22.997  26.044  1.00  0.00     0.116 C 
BRANCH  32  33
ATOM     33  N   UNL A   1      42.280  22.696  26.667  1.00  0.00    -0.352 N 
ATOM     34  C   UNL A   1      41.308  23.443  27.273  1.00  0.00     0.251 C 
ATOM     35  H   UNL A   1      42.065  21.735  26.649  1.00  0.00     0.163 HD
ATOM     36  O   UNL A   1      40.279  22.836  27.579  1.00  0.00    -0.269 OA
BRANCH  34  37
ATOM     37  C   UNL A   1      41.433  24.884  27.620  1.00  0.00     0.039 A 
ATOM     38  C   UNL A   1      42.284  25.404  28.593  1.00  0.00     0.014 A 
ATOM     39  C   UNL A   1      40.575  25.769  26.939  1.00  0.00     0.014 A 
ATOM     40  C   UNL A   1      42.216  26.743  28.948  1.00  0.00     0.010 A 
ATOM     41  C   UNL A   1      40.525  27.121  27.268  1.00  0.00     0.010 A 
ATOM     42  C   UNL A   1      41.319  27.596  28.305  1.00  0.00    -0.014 A 
BRANCH  42  43
ATOM     43  C   UNL A   1      41.336  28.996  28.711  1.00  0.00     0.031 A 
ATOM     44  C   UNL A   1      42.554  29.745  28.300  1.00  0.00     0.074 A 
ATOM     45  C   UNL A   1      40.333  29.606  29.370  1.00  0.00     0.049 A 
ATOM     46  N   UNL A   1      43.501  30.194  29.060  1.00  0.00    -0.248 NA
ATOM     47  C   UNL A   1      42.811  29.899  26.860  1.00  0.00     0.031 C 
ATOM     48  C   UNL A   1      38.981  29.093  29.612  1.00  0.00     0.029 A 
ATOM     49  N   UNL A   1      40.281  30.874  29.876  1.00  0.00    -0.354 N 
ATOM     50  C   UNL A   1      44.358  30.889  28.211  1.00  0.00     0.074 A 
ATOM     51  C   UNL A   1      43.978  30.546  26.864  1.00  0.00     0.031 C 
ATOM     52  C   UNL A   1      38.181  30.116  29.989  1.00  0.00     0.029 A 
ATOM     53  C   UNL A   1      38.995  31.304  30.176  1.00  0.00     0.049 A 
ATOM     54  H   UNL A   1      41.082  31.431  30.013  1.00  0.00     0.167 HD
ATOM     55  C   UNL A   1      45.153  31.897  28.662  1.00  0.00     0.034 A 
ATOM     56  C   UNL A   1      38.628  32.561  30.515  1.00  0.00     0.034 A 
ATOM     57  C   UNL A   1      45.208  31.955  30.093  1.00  0.00     0.049 A 
ATOM     58  C   UNL A   1      39.818  33.234  31.081  1.00  0.00     0.074 A 
ATOM     59  C   UNL A   1      45.874  31.316  31.112  1.00  0.00     0.029 A 
ATOM     60  N   UNL A   1      44.175  32.657  30.649  1.00  0.00    -0.354 N 
ATOM     61  N   UNL A   1      40.371  32.890  32.209  1.00  0.00    -0.248 NA
ATOM     62  C   UNL A   1      40.573  34.184  30.272  1.00  0.00     0.031 C 
ATOM     63  C   UNL A   1      45.089  31.516  32.287  1.00  0.00     0.029 A 
ATOM     64  C   UNL A   1      43.973  32.277  31.946  1.00  0.00     0.049 A 
ATOM     65  H   UNL A   1      43.648  33.344  30.179  1.00  0.00     0.167 HD
ATOM     66  C   UNL A   1      41.697  33.236  32.047  1.00  0.00     0.074 A 
ATOM     67  C   UNL A   1      41.723  34.190  30.949  1.00  0.00     0.031 C 
ATOM     68  C   UNL A   1      42.688  32.468  32.577  1.00  0.00     0.034 A 
BRANCH  55  69
ATOM     69  C   UNL A   1      45.523  33.109  27.846  1.00  0.00     0.023 A 
ATOM     70  C   UNL A   1      44.485  33.865  27.257  1.00  0.00     0.012 A 
ATOM     71  C   UNL A   1      46.838  33.357  27.396  1.00  0.00     0.148 A 
ATOM     72  C   UNL A   1      44.751  34.825  26.275  1.00  0.00     0.002 A 
ATOM     73  C   UNL A   1      47.105  34.363  26.476  1.00  0.00     0.091 A 
ATOM     74  F   UNL A   1      47.823  32.521  27.751  1.00  0.00    -0.205 F 
ATOM     75  C   UNL A   1      46.062  35.088  25.895  1.00  0.00     0.022 A 
BRANCH  73  76
ATOM     76  S   UNL A   1      48.786  34.761  25.989  1.00  0.00     0.127 S 
ATOM     77  O   UNL A   1      49.247  33.485  25.452  1.00  0.00    -0.237 OA
ATOM     78  O   UNL A   1      48.571  35.813  24.995  1.00  0.00    -0.237 OA
ATOM     79  O   UNL A   1      49.435  35.223  27.210  1.00  0.00    -0.744 OA
ENDBRANCH  73  76
ENDBRANCH  55  69
BRANCH  56  80
ATOM     80  C   UNL A   1      37.376  33.318  30.292  1.00  0.00     0.023 A 
ATOM     81  C   UNL A   1      36.800  33.305  29.003  1.00  0.00     0.012 A 
ATOM     82  C   UNL A   1      36.583  33.756  31.373  1.00  0.00     0.148 A 
ATOM     83  C   UNL A   1      35.455  33.627  28.809  1.00  0.00     0.002 A 
ATOM     84  C   UNL A   1      35.244  34.085  31.171  1.00  0.00     0.091 A 
ATOM     85  F   UNL A   1      37.106  33.749  32.607  1.00  0.00    -0.205 F 
ATOM     86  C   UNL A   1      34.672  33.999  29.895  1.00  0.00     0.022 A 
BRANCH  84  87
ATOM     87  S   UNL A   1      34.167  34.562  32.528  1.00  0.00     0.127 S 
ATOM     88  O   UNL A   1      34.077  33.324  33.304  1.00  0.00    -0.237 OA
ATOM     89  O   UNL A   1      34.936  35.627  33.166  1.00  0.00    -0.237 OA
ATOM     90  O   UNL A   1      32.912  34.964  31.904  1.00  0.00    -0.744 OA
ENDBRANCH  84  87
ENDBRANCH  56  80
BRANCH  68  91
ATOM     91  C   UNL A   1      42.342  31.599  33.744  1.00  0.00     0.023 A 
ATOM     92  C   UNL A   1      42.138  32.114  35.038  1.00  0.00     0.012 A 
ATOM     93  C   UNL A   1      42.114  30.236  33.496  1.00  0.00     0.148 A 
ATOM     94  C   UNL A   1      41.719  31.276  36.074  1.00  0.00     0.002 A 
ATOM     95  C   UNL A   1      41.662  29.414  34.518  1.00  0.00     0.091 A 
ATOM     96  F   UNL A   1      42.319  29.777  32.252  1.00  0.00    -0.205 F 
ATOM     97  C   UNL A   1      41.470  29.928  35.810  1.00  0.00     0.022 A 
BRANCH  95  98
ATOM     98  S   UNL A   1      41.224  27.700  34.225  1.00  0.00     0.127 S 
ATOM     99  O   UNL A   1      42.362  27.222  33.443  1.00  0.00    -0.237 OA
ATOM    100  O   UNL A   1      41.148  27.166  35.587  1.00  0.00    -0.237 OA
ATOM    101  O   UNL A   1      39.949  27.721  33.519  1.00  0.00    -0.744 OA
ENDBRANCH  95  98
ENDBRANCH  68  91
ENDBRANCH  42  43
ENDBRANCH  34  37
ENDBRANCH  32  33
ENDBRANCH  31  32
ENDBRANCH   1  31
TORSDOF 17
ENDMDL
MODEL 3
REMARK VINA RESULT:     -11.8      9.653     15.703
REMARK SMILES Cc1nc2cc(S(=O)(=O)N3CCC(C(=O)NCCCCNC(=O)c4ccc(-c5c6nc(c(-c7cccc(S(=O)(=O)[O-])c7F)c7ccc([nH]7)c(-c7cccc(S(=O)(=O)[O-])c7F)c7nc(c(-c8cccc(S(=O)(=O)[O-])c8F)c8ccc5[nH]8)C=C7)C=C6)cc4)CC3)ccc2n1C1CCCC1
REMARK SMILES IDX 18 1 17 2 16 3 14 4 15 5 13 7 10 8 11 9 88 10 12 11 87 12
REMARK SMILES IDX 7 13 8 14 9 15 6 16 1 17 2 18 3 19 92 20 4 21 91 22 5 23
REMARK SMILES IDX 90 24 89 25 93 26 94 27 97 28 95 29 96 30 19 31 20 32 21 33
REMARK SMILES IDX 22 34 23 36 24 37 25 38 86 39 26 40 85 41 27 42 28 43 29 44
REMARK SMILES IDX 79 45 30 46 84 47 78 48 80 49 31 50 83 51 77 52 76 53 32 55
REMARK SMILES IDX 64 56 44 57 63 58 45 59 48 60 62 61 81 62 46 63 47 64 61 66
REMARK SMILES IDX 82 67 49 68 33 69 34 70 42 71 35 72 37 73 43 74 36 75 38 76
REMARK SMILES IDX 39 77 40 78 41 79 65 80 66 81 74 82 67 83 69 84 75 85 68 86
REMARK SMILES IDX 70 87 71 88 72 89 73 90 50 91 51 92 59 93 52 94 54 95 60 96
REMARK SMILES IDX 53 97 55 98 56 99 57 100 58 101
REMARK H PARENT 16 6 21 35 80 54 48 65
REMARK Flexibility Score: inf
ROOT
ATOM      1  C   UNL A   1      43.503  40.572  29.589  1.00  0.00     0.023 C 
ENDROOT
BRANCH   1   2
ATOM      2  C   UNL A   1      43.766  41.147  28.205  1.00  0.00     0.116 C 
BRANCH   2   3
ATOM      3  N   UNL A   1      44.267  42.513  28.263  1.00  0.00    -0.356 N 
ATOM      4  C   UNL A   1      44.909  43.255  27.317  1.00  0.00     0.223 C 
ATOM      5  O   UNL A   1      45.198  44.424  27.573  1.00  0.00    -0.275 OA
ATOM      6  H   UNL A   1      44.118  42.974  29.120  1.00  0.00     0.163 HD
BRANCH   4   7
ATOM      7  C   UNL A   1      45.240  42.658  25.958  1.00  0.00     0.081 C 
ATOM      8  N   UNL A   1      46.107  42.989  23.205  1.00  0.00    -0.198 NA
ATOM      9  C   UNL A   1      44.654  42.866  23.474  1.00  0.00     0.103 C 
ATOM     10  C   UNL A   1      47.096  42.553  24.217  1.00  0.00     0.103 C 
ATOM     11  C   UNL A   1      44.251  43.142  24.904  1.00  0.00     0.030 C 
ATOM     12  C   UNL A   1      46.712  42.886  25.639  1.00  0.00     0.030 C 
BRANCH   8  13
ATOM     13  S   UNL A   1      46.560  42.608  21.584  1.00  0.00     0.243 S 
ATOM     14  O   UNL A   1      46.000  41.322  21.259  1.00  0.00    -0.207 OA
ATOM     15  O   UNL A   1      47.982  42.884  21.450  1.00  0.00    -0.207 OA
BRANCH  13  16
ATOM     16  C   UNL A   1      45.725  43.800  20.548  1.00  0.00     0.085 A 
ATOM     17  C   UNL A   1      41.267  45.698  17.049  1.00  0.00     0.088 C 
ATOM     18  C   UNL A   1      42.422  45.393  17.928  1.00  0.00     0.106 A 
ATOM     19  N   UNL A   1      42.593  44.258  18.578  1.00  0.00    -0.233 NA
ATOM     20  N   UNL A   1      43.471  46.257  18.156  1.00  0.00    -0.325 N 
ATOM     21  C   UNL A   1      43.801  44.362  19.215  1.00  0.00     0.090 A 
ATOM     22  C   UNL A   1      44.381  45.599  18.955  1.00  0.00     0.068 A 
ATOM     23  C   UNL A   1      44.474  43.436  20.027  1.00  0.00     0.052 A 
ATOM     24  C   UNL A   1      45.626  45.968  19.455  1.00  0.00     0.030 A 
ATOM     25  C   UNL A   1      46.279  45.050  20.262  1.00  0.00     0.024 A 
BRANCH  20  26
ATOM     26  C   UNL A   1      43.625  47.609  17.646  1.00  0.00     0.089 C 
ATOM     27  C   UNL A   1      43.723  48.684  18.734  1.00  0.00     0.025 C 
ATOM     28  C   UNL A   1      44.873  47.800  16.778  1.00  0.00     0.025 C 
ATOM     29  C   UNL A   1      44.443  49.847  18.071  1.00  0.00     0.002 C 
ATOM     30  C   UNL A   1      45.303  49.251  16.961  1.00  0.00     0.002 C 
ENDBRANCH  20  26
ENDBRANCH  13  16
ENDBRANCH   8  13
ENDBRANCH   4   7
ENDBRANCH   2   3
ENDBRANCH   1   2
BRANCH   1  31
ATOM     31  C   UNL A   1      43.834  41.528  30.734  1.00  0.00     0.023 C 
BRANCH  31  32
ATOM     32  C   UNL A   1      43.934  40.862  32.111  1.00  0.00     0.116 C 
BRANCH  32  33
ATOM     33  N   UNL A   1      45.132  40.068  32.295  1.00  0.00    -0.352 N 
ATOM     34  C   UNL A   1      45.395  38.727  32.350  1.00  0.00     0.251 C 
ATOM     35  H   UNL A   1      45.941  40.618  32.404  1.00  0.00     0.163 HD
ATOM     36  O   UNL A   1      46.587  38.416  32.396  1.00  0.00    -0.269 OA
BRANCH  34  37
ATOM     37  C   UNL A   1      44.362  37.657  32.410  1.00  0.00     0.039 A 
ATOM     38  C   UNL A   1      43.477  37.456  33.466  1.00  0.00     0.014 A 
ATOM     39  C   UNL A   1      44.331  36.756  31.328  1.00  0.00     0.014 A 
ATOM     40  C   UNL A   1      42.655  36.338  33.496  1.00  0.00     0.010 A 
ATOM     41  C   UNL A   1      43.486  35.650  31.336  1.00  0.00     0.010 A 
ATOM     42  C   UNL A   1      42.678  35.421  32.444  1.00  0.00    -0.014 A 
BRANCH  42  43
ATOM     43  C   UNL A   1      41.758  34.294  32.533  1.00  0.00     0.031 A 
ATOM     44  C   UNL A   1      40.562  34.400  31.654  1.00  0.00     0.074 A 
ATOM     45  C   UNL A   1      41.960  33.211  33.308  1.00  0.00     0.049 A 
ATOM     46  N   UNL A   1      39.332  34.587  32.011  1.00  0.00    -0.248 NA
ATOM     47  C   UNL A   1      40.780  34.430  30.200  1.00  0.00     0.031 C 
ATOM     48  C   UNL A   1      43.187  32.836  34.016  1.00  0.00     0.029 A 
ATOM     49  N   UNL A   1      41.130  32.151  33.536  1.00  0.00    -0.354 N 
ATOM     50  C   UNL A   1      38.593  34.526  30.833  1.00  0.00     0.074 A 
ATOM     51  C   UNL A   1      39.536  34.587  29.745  1.00  0.00     0.031 C 
ATOM     52  C   UNL A   1      43.105  31.538  34.385  1.00  0.00     0.029 A 
ATOM     53  C   UNL A   1      41.770  31.049  34.089  1.00  0.00     0.049 A 
ATOM     54  H   UNL A   1      40.168  32.167  33.328  1.00  0.00     0.167 HD
ATOM     55  C   UNL A   1      37.279  34.172  30.828  1.00  0.00     0.034 A 
ATOM     56  C   UNL A   1      41.243  29.814  34.253  1.00  0.00     0.034 A 
ATOM     57  C   UNL A   1      36.709  34.154  32.143  1.00  0.00     0.049 A 
ATOM     58  C   UNL A   1      39.773  29.961  34.313  1.00  0.00     0.074 A 
ATOM     59  C   UNL A   1      36.199  35.058  33.044  1.00  0.00     0.029 A 
ATOM     60  N   UNL A   1      36.920  32.978  32.809  1.00  0.00    -0.354 N 
ATOM     61  N   UNL A   1      39.150  30.561  35.288  1.00  0.00    -0.248 NA
ATOM     62  C   UNL A   1      38.958  29.634  33.150  1.00  0.00     0.031 C 
ATOM     63  C   UNL A   1      36.281  34.434  34.324  1.00  0.00     0.029 A 
ATOM     64  C   UNL A   1      36.833  33.164  34.160  1.00  0.00     0.049 A 
ATOM     65  H   UNL A   1      37.107  32.114  32.375  1.00  0.00     0.167 HD
ATOM     66  C   UNL A   1      38.007  31.056  34.695  1.00  0.00     0.074 A 
ATOM     67  C   UNL A   1      37.844  30.300  33.463  1.00  0.00     0.031 C 
ATOM     68  C   UNL A   1      37.488  32.256  35.072  1.00  0.00     0.034 A 
BRANCH  55  69
ATOM     69  C   UNL A   1      36.616  33.407  29.711  1.00  0.00     0.023 A 
ATOM     70  C   UNL A   1      35.445  33.943  29.132  1.00  0.00     0.012 A 
ATOM     71  C   UNL A   1      36.925  32.060  29.416  1.00  0.00     0.148 A 
ATOM     72  C   UNL A   1      34.628  33.174  28.295  1.00  0.00     0.002 A 
ATOM     73  C   UNL A   1      36.153  31.325  28.525  1.00  0.00     0.091 A 
ATOM     74  F   UNL A   1      37.888  31.440  30.110  1.00  0.00    -0.205 F 
ATOM     75  C   UNL A   1      34.990  31.870  27.976  1.00  0.00     0.022 A 
BRANCH  73  76
ATOM     76  S   UNL A   1      36.607  29.653  28.057  1.00  0.00     0.127 S 
ATOM     77  O   UNL A   1      35.448  29.242  27.272  1.00  0.00    -0.237 OA
ATOM     78  O   UNL A   1      37.831  29.879  27.286  1.00  0.00    -0.237 OA
ATOM     79  O   UNL A   1      36.820  28.951  29.316  1.00  0.00    -0.744 OA
ENDBRANCH  73  76
ENDBRANCH  55  69
BRANCH  56  80
ATOM     80  C   UNL A   1      41.860  28.468  34.238  1.00  0.00     0.023 A 
ATOM     81  C   UNL A   1      42.694  28.119  33.154  1.00  0.00     0.012 A 
ATOM     82  C   UNL A   1      41.914  27.675  35.404  1.00  0.00     0.148 A 
ATOM     83  C   UNL A   1      43.617  27.076  33.257  1.00  0.00     0.002 A 
ATOM     84  C   UNL A   1      42.830  26.630  35.497  1.00  0.00     0.091 A 
ATOM     85  F   UNL A   1      41.149  28.009  36.452  1.00  0.00    -0.205 F 
ATOM     86  C   UNL A   1      43.698  26.343  34.435  1.00  0.00     0.022 A 
BRANCH  84  87
ATOM     87  S   UNL A   1      43.002  25.647  36.992  1.00  0.00     0.127 S 
ATOM     88  O   UNL A   1      43.312  26.663  37.999  1.00  0.00    -0.237 OA
ATOM     89  O   UNL A   1      41.676  25.050  37.116  1.00  0.00    -0.237 OA
ATOM     90  O   UNL A   1      44.099  24.723  36.724  1.00  0.00    -0.744 OA
ENDBRANCH  84  87
ENDBRANCH  56  80
BRANCH  68  91
ATOM     91  C   UNL A   1      37.824  32.756  36.441  1.00  0.00     0.023 A 
ATOM     92  C   UNL A   1      37.269  32.198  37.608  1.00  0.00     0.012 A 
ATOM     93  C   UNL A   1      38.810  33.749  36.549  1.00  0.00     0.148 A 
ATOM     94  C   UNL A   1      37.689  32.632  38.868  1.00  0.00     0.002 A 
ATOM     95  C   UNL A   1      39.252  34.152  37.801  1.00  0.00     0.091 A 
ATOM     96  F   UNL A   1      39.317  34.261  35.417  1.00  0.00    -0.205 F 
ATOM     97  C   UNL A   1      38.689  33.601  38.963  1.00  0.00     0.022 A 
BRANCH  95  98
ATOM     98  S   UNL A   1      40.603  35.315  37.995  1.00  0.00     0.127 S 
ATOM     99  O   UNL A   1      41.657  34.698  37.192  1.00  0.00    -0.237 OA
ATOM    100  O   UNL A   1      40.037  36.540  37.427  1.00  0.00    -0.237 OA
ATOM    101  O   UNL A   1      40.874  35.389  39.425  1.00  0.00    -0.744 OA
ENDBRANCH  95  98
ENDBRANCH  68  91
ENDBRANCH  42  43
ENDBRANCH  34  37
ENDBRANCH  32  33
ENDBRANCH  31  32
ENDBRANCH   1  31
TORSDOF 17
ENDMDL
