MODEL 1
REMARK VINA RESULT:      -9.7      0.000      0.000
REMARK SMILES Cc1c(CC(=O)N[C@H](CO)C(=O)NCCCCNC(=O)c2ccc(-c3c4nc(c(-c5cccc(S(=O)(=O)[O-])c5F)c5ccc([nH]5)c(-c5cccc(S(=O)(=O)[O-])c5F)c5nc(c(-c6cccc(S(=O)(=O)[O-])c6F)c6ccc3[nH]6)C=C5)C=C4)cc2)cc(-c2ccc(S(C)(=O)=O)cc2)n1-c1ccc(F)cc1
REMARK SMILES IDX 14 1 13 2 11 3 12 4 8 6 7 7 5 8 6 9 4 11 3 12 1 13 2 14
REMARK SMILES IDX 96 15 84 16 85 17 97 18 98 19 103 20 99 21 102 22 100 23
REMARK SMILES IDX 101 24 86 25 87 26 95 27 88 28 94 29 89 30 90 31 91 32 92 33
REMARK SMILES IDX 93 34 9 35 10 36 15 38 16 39 17 40 18 41 19 42 20 44 21 45
REMARK SMILES IDX 22 46 83 47 23 48 82 49 24 50 25 51 26 52 76 53 27 54 81 55
REMARK SMILES IDX 75 56 77 57 28 58 80 59 74 60 73 61 29 63 61 64 41 65 60 66
REMARK SMILES IDX 42 67 45 68 59 69 78 70 43 71 44 72 58 74 79 75 46 76 30 77
REMARK SMILES IDX 31 78 39 79 32 80 34 81 40 82 33 83 35 84 36 85 37 86 38 87
REMARK SMILES IDX 62 88 63 89 71 90 64 91 66 92 72 93 65 94 67 95 68 96 69 97
REMARK SMILES IDX 70 98 47 99 48 100 56 101 49 102 51 103 57 104 50 105 52 106
REMARK SMILES IDX 53 107 54 108 55 109
REMARK H PARENT 13 5 7 10 10 37 18 43 77 62 45 73
REMARK Flexibility Score: inf
ROOT
ATOM      1  C   UNL A   1      50.446  30.611  28.318  1.00  0.00     0.116 C 
ENDROOT
BRANCH   1   2
ATOM      2  N   UNL A   1      50.049  31.773  27.547  1.00  0.00    -0.354 N 
ATOM      3  C   UNL A   1      48.856  32.167  27.034  1.00  0.00     0.244 C 
ATOM      4  O   UNL A   1      48.871  33.123  26.251  1.00  0.00    -0.273 OA
ATOM      5  H   UNL A   1      50.788  32.397  27.360  1.00  0.00     0.163 HD
BRANCH   3   6
ATOM      6  C   UNL A   1      47.543  31.416  27.306  1.00  0.00     0.197 C 
BRANCH   6   7
ATOM      7  N   UNL A   1      47.032  30.755  26.102  1.00  0.00    -0.342 N 
ATOM      8  C   UNL A   1      46.763  29.436  25.886  1.00  0.00     0.225 C 
ATOM      9  O   UNL A   1      46.378  29.113  24.759  1.00  0.00    -0.275 OA
ATOM     10  H   UNL A   1      46.857  31.351  25.338  1.00  0.00     0.164 HD
BRANCH   8  11
ATOM     11  C   UNL A   1      46.838  28.420  27.014  1.00  0.00     0.137 C 
BRANCH  11  12
ATOM     12  C   UNL A   1      45.826  27.321  26.909  1.00  0.00    -0.017 A 
ATOM     13  C   UNL A   1      43.665  28.502  27.737  1.00  0.00     0.065 C 
ATOM     14  C   UNL A   1      44.459  27.375  27.154  1.00  0.00     0.024 A 
ATOM     15  N   UNL A   1      43.913  26.125  26.864  1.00  0.00    -0.314 N 
ATOM     16  C   UNL A   1      46.123  25.978  26.557  1.00  0.00     0.033 A 
ATOM     17  C   UNL A   1      44.943  25.263  26.484  1.00  0.00     0.053 A 
BRANCH  15  18
ATOM     18  C   UNL A   1      42.545  25.757  26.998  1.00  0.00     0.046 A 
ATOM     19  C   UNL A   1      41.690  25.880  25.894  1.00  0.00     0.029 A 
ATOM     20  C   UNL A   1      42.049  25.343  28.240  1.00  0.00     0.029 A 
ATOM     21  C   UNL A   1      40.337  25.578  26.034  1.00  0.00     0.041 A 
ATOM     22  C   UNL A   1      40.690  25.050  28.374  1.00  0.00     0.041 A 
ATOM     23  C   UNL A   1      39.850  25.169  27.272  1.00  0.00     0.123 A 
ATOM     24  F   UNL A   1      38.546  24.894  27.400  1.00  0.00    -0.207 F 
ENDBRANCH  15  18
BRANCH  17  25
ATOM     25  C   UNL A   1      44.768  23.888  25.998  1.00  0.00    -0.001 A 
ATOM     26  C   UNL A   1      43.868  23.007  26.618  1.00  0.00     0.011 A 
ATOM     27  C   UNL A   1      45.494  23.446  24.884  1.00  0.00     0.011 A 
ATOM     28  C   UNL A   1      43.728  21.693  26.166  1.00  0.00     0.021 A 
ATOM     29  C   UNL A   1      45.358  22.136  24.423  1.00  0.00     0.021 A 
ATOM     30  C   UNL A   1      44.489  21.260  25.076  1.00  0.00     0.067 A 
BRANCH  30  31
ATOM     31  S   UNL A   1      44.297  19.593  24.491  1.00  0.00     0.175 S 
ATOM     32  C   UNL A   1      45.644  18.705  25.230  1.00  0.00     0.163 C 
ATOM     33  O   UNL A   1      43.056  19.092  25.018  1.00  0.00    -0.224 OA
ATOM     34  O   UNL A   1      44.538  19.613  23.046  1.00  0.00    -0.224 OA
ENDBRANCH  30  31
ENDBRANCH  17  25
ENDBRANCH  11  12
ENDBRANCH   8  11
ENDBRANCH   6   7
BRANCH   6  35
ATOM     35  C   UNL A   1      46.488  32.299  27.982  1.00  0.00     0.191 C 
BRANCH  35  36
ATOM     36  O   UNL A   1      46.974  33.577  28.383  1.00  0.00    -0.394 OA
ATOM     37  H   UNL A   1      46.292  34.247  28.226  1.00  0.00     0.210 HD
ENDBRANCH  35  36
ENDBRANCH   6  35
ENDBRANCH   3   6
ENDBRANCH   1   2
BRANCH   1  38
ATOM     38  C   UNL A   1      50.248  29.309  27.542  1.00  0.00     0.023 C 
BRANCH  38  39
ATOM     39  C   UNL A   1      50.892  29.219  26.141  1.00  0.00     0.023 C 
BRANCH  39  40
ATOM     40  C   UNL A   1      50.349  28.189  25.125  1.00  0.00     0.116 C 
BRANCH  40  41
ATOM     41  N   UNL A   1      51.266  27.133  24.772  1.00  0.00    -0.352 N 
ATOM     42  C   UNL A   1      51.565  25.979  25.493  1.00  0.00     0.251 C 
ATOM     43  H   UNL A   1      51.739  27.240  23.916  1.00  0.00     0.163 HD
ATOM     44  O   UNL A   1      52.412  25.231  25.007  1.00  0.00    -0.269 OA
BRANCH  42  45
ATOM     45  C   UNL A   1      50.992  25.710  26.878  1.00  0.00     0.039 A 
ATOM     46  C   UNL A   1      49.685  25.251  26.967  1.00  0.00     0.014 A 
ATOM     47  C   UNL A   1      51.577  26.096  28.099  1.00  0.00     0.014 A 
ATOM     48  C   UNL A   1      49.029  25.107  28.238  1.00  0.00     0.010 A 
ATOM     49  C   UNL A   1      50.866  26.027  29.390  1.00  0.00     0.010 A 
ATOM     50  C   UNL A   1      49.552  25.523  29.525  1.00  0.00    -0.014 A 
BRANCH  50  51
ATOM     51  C   UNL A   1      48.408  25.924  30.666  1.00  0.00     0.031 A 
ATOM     52  C   UNL A   1      49.287  26.003  31.866  1.00  0.00     0.074 A 
ATOM     53  C   UNL A   1      47.031  26.045  30.963  1.00  0.00     0.049 A 
ATOM     54  N   UNL A   1      50.028  24.967  32.152  1.00  0.00    -0.248 NA
ATOM     55  C   UNL A   1      49.747  27.250  32.479  1.00  0.00     0.031 C 
ATOM     56  C   UNL A   1      45.878  25.638  30.136  1.00  0.00     0.029 A 
ATOM     57  N   UNL A   1      46.293  26.566  32.104  1.00  0.00    -0.354 N 
ATOM     58  C   UNL A   1      50.765  25.309  33.244  1.00  0.00     0.074 A 
ATOM     59  C   UNL A   1      50.773  26.768  33.193  1.00  0.00     0.031 C 
ATOM     60  C   UNL A   1      44.680  26.052  30.658  1.00  0.00     0.029 A 
ATOM     61  C   UNL A   1      44.849  26.759  31.931  1.00  0.00     0.049 A 
ATOM     62  H   UNL A   1      46.742  26.779  32.954  1.00  0.00     0.167 HD
ATOM     63  C   UNL A   1      50.534  24.497  34.317  1.00  0.00     0.034 A 
ATOM     64  C   UNL A   1      43.858  27.333  32.757  1.00  0.00     0.034 A 
ATOM     65  C   UNL A   1      49.642  25.107  35.264  1.00  0.00     0.049 A 
ATOM     66  C   UNL A   1      44.363  27.137  34.117  1.00  0.00     0.074 A 
ATOM     67  C   UNL A   1      49.528  26.401  35.740  1.00  0.00     0.029 A 
ATOM     68  N   UNL A   1      48.419  24.506  35.455  1.00  0.00    -0.354 N 
ATOM     69  N   UNL A   1      44.215  25.999  34.729  1.00  0.00    -0.248 NA
ATOM     70  C   UNL A   1      44.925  28.220  34.910  1.00  0.00     0.031 C 
ATOM     71  C   UNL A   1      48.151  26.681  35.678  1.00  0.00     0.029 A 
ATOM     72  C   UNL A   1      47.466  25.479  35.691  1.00  0.00     0.049 A 
ATOM     73  H   UNL A   1      48.250  23.536  35.427  1.00  0.00     0.167 HD
ATOM     74  C   UNL A   1      45.154  26.079  35.708  1.00  0.00     0.074 A 
ATOM     75  C   UNL A   1      45.343  27.499  35.951  1.00  0.00     0.031 C 
ATOM     76  C   UNL A   1      46.082  25.095  35.694  1.00  0.00     0.034 A 
BRANCH  63  77
ATOM     77  C   UNL A   1      50.609  23.015  34.000  1.00  0.00     0.023 A 
ATOM     78  C   UNL A   1      49.490  22.245  34.357  1.00  0.00     0.012 A 
ATOM     79  C   UNL A   1      51.779  22.340  33.550  1.00  0.00     0.148 A 
ATOM     80  C   UNL A   1      49.548  20.848  34.327  1.00  0.00     0.002 A 
ATOM     81  C   UNL A   1      51.863  20.952  33.623  1.00  0.00     0.091 A 
ATOM     82  F   UNL A   1      52.796  23.055  33.044  1.00  0.00    -0.205 F 
ATOM     83  C   UNL A   1      50.740  20.204  33.999  1.00  0.00     0.022 A 
BRANCH  81  84
ATOM     84  S   UNL A   1      53.427  20.065  33.448  1.00  0.00     0.127 S 
ATOM     85  O   UNL A   1      54.281  20.731  34.437  1.00  0.00    -0.237 OA
ATOM     86  O   UNL A   1      53.065  18.695  33.795  1.00  0.00    -0.237 OA
ATOM     87  O   UNL A   1      53.868  20.273  32.073  1.00  0.00    -0.744 OA
ENDBRANCH  81  84
ENDBRANCH  63  77
BRANCH  64  88
ATOM     88  C   UNL A   1      42.360  27.872  32.939  1.00  0.00     0.023 A 
ATOM     89  C   UNL A   1      41.974  28.445  34.214  1.00  0.00     0.012 A 
ATOM     90  C   UNL A   1      41.531  28.283  31.868  1.00  0.00     0.148 A 
ATOM     91  C   UNL A   1      40.962  29.416  34.393  1.00  0.00     0.002 A 
ATOM     92  C   UNL A   1      40.486  29.242  32.057  1.00  0.00     0.091 A 
ATOM     93  F   UNL A   1      41.813  27.821  30.643  1.00  0.00    -0.205 F 
ATOM     94  C   UNL A   1      40.224  29.827  33.306  1.00  0.00     0.022 A 
BRANCH  92  95
ATOM     95  S   UNL A   1      39.458  29.900  30.719  1.00  0.00     0.127 S 
ATOM     96  O   UNL A   1      40.338  29.788  29.553  1.00  0.00    -0.237 OA
ATOM     97  O   UNL A   1      38.333  28.966  30.714  1.00  0.00    -0.237 OA
ATOM     98  O   UNL A   1      39.142  31.265  31.110  1.00  0.00    -0.744 OA
ENDBRANCH  92  95
ENDBRANCH  64  88
BRANCH  76  99
ATOM     99  C   UNL A   1      45.608  23.677  35.512  1.00  0.00     0.023 A 
ATOM    100  C   UNL A   1      44.832  23.194  34.437  1.00  0.00     0.012 A 
ATOM    101  C   UNL A   1      46.005  22.768  36.504  1.00  0.00     0.148 A 
ATOM    102  C   UNL A   1      44.468  21.843  34.363  1.00  0.00     0.002 A 
ATOM    103  C   UNL A   1      45.694  21.422  36.403  1.00  0.00     0.091 A 
ATOM    104  F   UNL A   1      46.692  23.250  37.552  1.00  0.00    -0.205 F 
ATOM    105  C   UNL A   1      44.921  20.951  35.334  1.00  0.00     0.022 A 
BRANCH 103 106
ATOM    106  S   UNL A   1      46.322  20.264  37.616  1.00  0.00     0.127 S 
ATOM    107  O   UNL A   1      45.900  20.886  38.870  1.00  0.00    -0.237 OA
ATOM    108  O   UNL A   1      45.627  19.024  37.281  1.00  0.00    -0.237 OA
ATOM    109  O   UNL A   1      47.764  20.219  37.396  1.00  0.00    -0.744 OA
ENDBRANCH 103 106
ENDBRANCH  76  99
ENDBRANCH  50  51
ENDBRANCH  42  45
ENDBRANCH  40  41
ENDBRANCH  39  40
ENDBRANCH  38  39
ENDBRANCH   1  38
TORSDOF 22
ENDMDL
MODEL 2
REMARK VINA RESULT:      -9.4      8.425     14.168
REMARK SMILES Cc1c(CC(=O)N[C@H](CO)C(=O)NCCCCNC(=O)c2ccc(-c3c4nc(c(-c5cccc(S(=O)(=O)[O-])c5F)c5ccc([nH]5)c(-c5cccc(S(=O)(=O)[O-])c5F)c5nc(c(-c6cccc(S(=O)(=O)[O-])c6F)c6ccc3[nH]6)C=C5)C=C4)cc2)cc(-c2ccc(S(C)(=O)=O)cc2)n1-c1ccc(F)cc1
REMARK SMILES IDX 14 1 13 2 11 3 12 4 8 6 7 7 5 8 6 9 4 11 3 12 1 13 2 14
REMARK SMILES IDX 96 15 84 16 85 17 97 18 98 19 103 20 99 21 102 22 100 23
REMARK SMILES IDX 101 24 86 25 87 26 95 27 88 28 94 29 89 30 90 31 91 32 92 33
REMARK SMILES IDX 93 34 9 35 10 36 15 38 16 39 17 40 18 41 19 42 20 44 21 45
REMARK SMILES IDX 22 46 83 47 23 48 82 49 24 50 25 51 26 52 76 53 27 54 81 55
REMARK SMILES IDX 75 56 77 57 28 58 80 59 74 60 73 61 29 63 61 64 41 65 60 66
REMARK SMILES IDX 42 67 45 68 59 69 78 70 43 71 44 72 58 74 79 75 46 76 30 77
REMARK SMILES IDX 31 78 39 79 32 80 34 81 40 82 33 83 35 84 36 85 37 86 38 87
REMARK SMILES IDX 62 88 63 89 71 90 64 91 66 92 72 93 65 94 67 95 68 96 69 97
REMARK SMILES IDX 70 98 47 99 48 100 56 101 49 102 51 103 57 104 50 105 52 106
REMARK SMILES IDX 53 107 54 108 55 109
REMARK H PARENT 13 5 7 10 10 37 18 43 77 62 45 73
REMARK Flexibility Score: inf
ROOT
ATOM      1  C   UNL A   1      42.916  29.817  29.681  1.00  0.00     0.116 C 
ENDROOT
BRANCH   1   2
ATOM      2  N   UNL A   1      43.050  30.316  28.326  1.00  0.00    -0.354 N 
ATOM      3  C   UNL A   1      43.257  29.695  27.137  1.00  0.00     0.244 C 
ATOM      4  O   UNL A   1      43.520  30.414  26.168  1.00  0.00    -0.273 OA
ATOM      5  H   UNL A   1      42.977  31.296  28.255  1.00  0.00     0.163 HD
BRANCH   3   6
ATOM      6  C   UNL A   1      43.279  28.165  26.989  1.00  0.00     0.197 C 
BRANCH   6   7
ATOM      7  N   UNL A   1      44.475  27.574  27.594  1.00  0.00    -0.342 N 
ATOM      8  C   UNL A   1      44.582  26.747  28.672  1.00  0.00     0.225 C 
ATOM      9  O   UNL A   1      45.718  26.414  29.021  1.00  0.00    -0.275 OA
ATOM     10  H   UNL A   1      45.326  27.808  27.157  1.00  0.00     0.164 HD
BRANCH   8  11
ATOM     11  C   UNL A   1      43.350  26.177  29.356  1.00  0.00     0.137 C 
BRANCH  11  12
ATOM     12  C   UNL A   1      42.708  25.049  28.608  1.00  0.00    -0.017 A 
ATOM     13  C   UNL A   1      44.537  23.208  28.743  1.00  0.00     0.065 C 
ATOM     14  C   UNL A   1      43.187  23.761  28.404  1.00  0.00     0.024 A 
ATOM     15  N   UNL A   1      42.220  23.040  27.705  1.00  0.00    -0.314 N 
ATOM     16  C   UNL A   1      41.465  25.132  27.929  1.00  0.00     0.033 A 
ATOM     17  C   UNL A   1      41.148  23.887  27.420  1.00  0.00     0.053 A 
BRANCH  15  18
ATOM     18  C   UNL A   1      42.327  21.685  27.284  1.00  0.00     0.046 A 
ATOM     19  C   UNL A   1      42.964  21.391  26.070  1.00  0.00     0.029 A 
ATOM     20  C   UNL A   1      41.738  20.666  28.043  1.00  0.00     0.029 A 
ATOM     21  C   UNL A   1      43.019  20.073  25.623  1.00  0.00     0.041 A 
ATOM     22  C   UNL A   1      41.790  19.349  27.583  1.00  0.00     0.041 A 
ATOM     23  C   UNL A   1      42.430  19.066  26.381  1.00  0.00     0.123 A 
ATOM     24  F   UNL A   1      42.476  17.804  25.936  1.00  0.00    -0.207 F 
ENDBRANCH  15  18
BRANCH  17  25
ATOM     25  C   UNL A   1      39.884  23.481  26.790  1.00  0.00    -0.001 A 
ATOM     26  C   UNL A   1      38.828  24.392  26.631  1.00  0.00     0.011 A 
ATOM     27  C   UNL A   1      39.730  22.171  26.320  1.00  0.00     0.011 A 
ATOM     28  C   UNL A   1      37.619  23.990  26.055  1.00  0.00     0.021 A 
ATOM     29  C   UNL A   1      38.528  21.762  25.742  1.00  0.00     0.021 A 
ATOM     30  C   UNL A   1      37.472  22.668  25.627  1.00  0.00     0.067 A 
BRANCH  30  31
ATOM     31  S   UNL A   1      35.941  22.163  24.879  1.00  0.00     0.175 S 
ATOM     32  C   UNL A   1      35.953  20.393  24.993  1.00  0.00     0.163 C 
ATOM     33  O   UNL A   1      34.874  22.680  25.693  1.00  0.00    -0.224 OA
ATOM     34  O   UNL A   1      36.024  22.503  23.457  1.00  0.00    -0.224 OA
ENDBRANCH  30  31
ENDBRANCH  17  25
ENDBRANCH  11  12
ENDBRANCH   8  11
ENDBRANCH   6   7
BRANCH   6  35
ATOM     35  C   UNL A   1      43.068  27.710  25.540  1.00  0.00     0.191 C 
BRANCH  35  36
ATOM     36  O   UNL A   1      42.105  28.481  24.827  1.00  0.00    -0.394 OA
ATOM     37  H   UNL A   1      42.547  29.219  24.381  1.00  0.00     0.210 HD
ENDBRANCH  35  36
ENDBRANCH   6  35
ENDBRANCH   3   6
ENDBRANCH   1   2
BRANCH   1  38
ATOM     38  C   UNL A   1      44.221  29.931  30.469  1.00  0.00     0.023 C 
BRANCH  38  39
ATOM     39  C   UNL A   1      45.155  31.110  30.118  1.00  0.00     0.023 C 
BRANCH  39  40
ATOM     40  C   UNL A   1      46.613  30.821  29.698  1.00  0.00     0.116 C 
BRANCH  40  41
ATOM     41  N   UNL A   1      46.846  30.780  28.276  1.00  0.00    -0.352 N 
ATOM     42  C   UNL A   1      47.200  31.831  27.433  1.00  0.00     0.251 C 
ATOM     43  H   UNL A   1      46.742  29.901  27.846  1.00  0.00     0.163 HD
ATOM     44  O   UNL A   1      47.312  31.564  26.238  1.00  0.00    -0.269 OA
BRANCH  42  45
ATOM     45  C   UNL A   1      47.307  33.269  27.923  1.00  0.00     0.039 A 
ATOM     46  C   UNL A   1      46.132  33.965  28.172  1.00  0.00     0.014 A 
ATOM     47  C   UNL A   1      48.480  34.049  27.934  1.00  0.00     0.014 A 
ATOM     48  C   UNL A   1      46.149  35.364  28.501  1.00  0.00     0.010 A 
ATOM     49  C   UNL A   1      48.478  35.502  28.187  1.00  0.00     0.010 A 
ATOM     50  C   UNL A   1      47.308  36.235  28.488  1.00  0.00    -0.014 A 
BRANCH  50  51
ATOM     51  C   UNL A   1      46.992  37.842  28.186  1.00  0.00     0.031 A 
ATOM     52  C   UNL A   1      47.957  38.457  29.140  1.00  0.00     0.074 A 
ATOM     53  C   UNL A   1      46.135  38.778  27.564  1.00  0.00     0.049 A 
ATOM     54  N   UNL A   1      47.893  38.097  30.393  1.00  0.00    -0.248 NA
ATOM     55  C   UNL A   1      49.237  39.055  28.758  1.00  0.00     0.031 C 
ATOM     56  C   UNL A   1      44.843  38.530  26.894  1.00  0.00     0.029 A 
ATOM     57  N   UNL A   1      46.192  40.220  27.375  1.00  0.00    -0.354 N 
ATOM     58  C   UNL A   1      48.898  38.751  31.035  1.00  0.00     0.074 A 
ATOM     59  C   UNL A   1      49.836  39.055  29.957  1.00  0.00     0.031 C 
ATOM     60  C   UNL A   1      44.356  39.642  26.256  1.00  0.00     0.029 A 
ATOM     61  C   UNL A   1      45.226  40.808  26.442  1.00  0.00     0.049 A 
ATOM     62  H   UNL A   1      46.850  40.776  27.852  1.00  0.00     0.167 HD
ATOM     63  C   UNL A   1      48.450  39.574  32.028  1.00  0.00     0.034 A 
ATOM     64  C   UNL A   1      45.062  42.115  25.937  1.00  0.00     0.034 A 
ATOM     65  C   UNL A   1      48.409  40.946  31.604  1.00  0.00     0.049 A 
ATOM     66  C   UNL A   1      45.612  42.979  26.984  1.00  0.00     0.074 A 
ATOM     67  C   UNL A   1      49.270  41.714  30.840  1.00  0.00     0.029 A 
ATOM     68  N   UNL A   1      47.172  41.546  31.530  1.00  0.00    -0.354 N 
ATOM     69  N   UNL A   1      44.909  43.294  28.031  1.00  0.00    -0.248 NA
ATOM     70  C   UNL A   1      46.902  43.642  26.858  1.00  0.00     0.031 C 
ATOM     71  C   UNL A   1      48.433  42.385  29.930  1.00  0.00     0.029 A 
ATOM     72  C   UNL A   1      47.160  42.434  30.470  1.00  0.00     0.049 A 
ATOM     73  H   UNL A   1      46.416  41.371  32.137  1.00  0.00     0.167 HD
ATOM     74  C   UNL A   1      45.867  43.694  28.907  1.00  0.00     0.074 A 
ATOM     75  C   UNL A   1      46.977  44.150  28.088  1.00  0.00     0.031 C 
ATOM     76  C   UNL A   1      45.904  43.003  30.070  1.00  0.00     0.034 A 
BRANCH  63  77
ATOM     77  C   UNL A   1      47.475  38.915  32.986  1.00  0.00     0.023 A 
ATOM     78  C   UNL A   1      48.039  38.227  34.073  1.00  0.00     0.012 A 
ATOM     79  C   UNL A   1      46.075  38.791  32.760  1.00  0.00     0.148 A 
ATOM     80  C   UNL A   1      47.252  37.395  34.875  1.00  0.00     0.002 A 
ATOM     81  C   UNL A   1      45.321  37.881  33.496  1.00  0.00     0.091 A 
ATOM     82  F   UNL A   1      45.487  39.569  31.837  1.00  0.00    -0.205 F 
ATOM     83  C   UNL A   1      45.908  37.192  34.565  1.00  0.00     0.022 A 
BRANCH  81  84
ATOM     84  S   UNL A   1      43.653  37.388  33.010  1.00  0.00     0.127 S 
ATOM     85  O   UNL A   1      43.370  36.277  33.926  1.00  0.00    -0.237 OA
ATOM     86  O   UNL A   1      42.869  38.591  33.269  1.00  0.00    -0.237 OA
ATOM     87  O   UNL A   1      43.734  36.975  31.613  1.00  0.00    -0.744 OA
ENDBRANCH  81  84
ENDBRANCH  63  77
BRANCH  64  88
ATOM     88  C   UNL A   1      44.359  43.113  24.897  1.00  0.00     0.023 A 
ATOM     89  C   UNL A   1      45.002  44.379  24.600  1.00  0.00     0.012 A 
ATOM     90  C   UNL A   1      43.450  42.699  23.894  1.00  0.00     0.148 A 
ATOM     91  C   UNL A   1      44.861  45.095  23.389  1.00  0.00     0.002 A 
ATOM     92  C   UNL A   1      43.285  43.443  22.683  1.00  0.00     0.091 A 
ATOM     93  F   UNL A   1      42.815  41.534  24.065  1.00  0.00    -0.205 F 
ATOM     94  C   UNL A   1      44.009  44.617  22.420  1.00  0.00     0.022 A 
BRANCH  92  95
ATOM     95  S   UNL A   1      42.227  42.921  21.308  1.00  0.00     0.127 S 
ATOM     96  O   UNL A   1      42.754  41.592  20.985  1.00  0.00    -0.237 OA
ATOM     97  O   UNL A   1      40.905  42.907  21.932  1.00  0.00    -0.237 OA
ATOM     98  O   UNL A   1      42.423  43.919  20.269  1.00  0.00    -0.744 OA
ENDBRANCH  92  95
ENDBRANCH  64  88
BRANCH  76  99
ATOM     99  C   UNL A   1      44.602  42.735  30.777  1.00  0.00     0.023 A 
ATOM    100  C   UNL A   1      43.688  41.706  30.466  1.00  0.00     0.012 A 
ATOM    101  C   UNL A   1      44.303  43.587  31.850  1.00  0.00     0.148 A 
ATOM    102  C   UNL A   1      42.513  41.539  31.212  1.00  0.00     0.002 A 
ATOM    103  C   UNL A   1      43.170  43.388  32.623  1.00  0.00     0.091 A 
ATOM    104  F   UNL A   1      45.149  44.598  32.098  1.00  0.00    -0.205 F 
ATOM    105  C   UNL A   1      42.266  42.366  32.307  1.00  0.00     0.022 A 
BRANCH 103 106
ATOM    106  S   UNL A   1      42.879  44.410  34.064  1.00  0.00     0.127 S 
ATOM    107  O   UNL A   1      44.196  44.414  34.700  1.00  0.00    -0.237 OA
ATOM    108  O   UNL A   1      42.472  45.688  33.488  1.00  0.00    -0.237 OA
ATOM    109  O   UNL A   1      41.826  43.730  34.813  1.00  0.00    -0.744 OA
ENDBRANCH 103 106
ENDBRANCH  76  99
ENDBRANCH  50  51
ENDBRANCH  42  45
ENDBRANCH  40  41
ENDBRANCH  39  40
ENDBRANCH  38  39
ENDBRANCH   1  38
TORSDOF 22
ENDMDL
MODEL 3
REMARK VINA RESULT:      -9.2      7.297     12.714
REMARK SMILES Cc1c(CC(=O)N[C@H](CO)C(=O)NCCCCNC(=O)c2ccc(-c3c4nc(c(-c5cccc(S(=O)(=O)[O-])c5F)c5ccc([nH]5)c(-c5cccc(S(=O)(=O)[O-])c5F)c5nc(c(-c6cccc(S(=O)(=O)[O-])c6F)c6ccc3[nH]6)C=C5)C=C4)cc2)cc(-c2ccc(S(C)(=O)=O)cc2)n1-c1ccc(F)cc1
REMARK SMILES IDX 14 1 13 2 11 3 12 4 8 6 7 7 5 8 6 9 4 11 3 12 1 13 2 14
REMARK SMILES IDX 96 15 84 16 85 17 97 18 98 19 103 20 99 21 102 22 100 23
REMARK SMILES IDX 101 24 86 25 87 26 95 27 88 28 94 29 89 30 90 31 91 32 92 33
REMARK SMILES IDX 93 34 9 35 10 36 15 38 16 39 17 40 18 41 19 42 20 44 21 45
REMARK SMILES IDX 22 46 83 47 23 48 82 49 24 50 25 51 26 52 76 53 27 54 81 55
REMARK SMILES IDX 75 56 77 57 28 58 80 59 74 60 73 61 29 63 61 64 41 65 60 66
REMARK SMILES IDX 42 67 45 68 59 69 78 70 43 71 44 72 58 74 79 75 46 76 30 77
REMARK SMILES IDX 31 78 39 79 32 80 34 81 40 82 33 83 35 84 36 85 37 86 38 87
REMARK SMILES IDX 62 88 63 89 71 90 64 91 66 92 72 93 65 94 67 95 68 96 69 97
REMARK SMILES IDX 70 98 47 99 48 100 56 101 49 102 51 103 57 104 50 105 52 106
REMARK SMILES IDX 53 107 54 108 55 109
REMARK H PARENT 13 5 7 10 10 37 18 43 77 62 45 73
REMARK Flexibility Score: inf
ROOT
ATOM      1  C   UNL A   1      33.708  28.992  26.360  1.00  0.00     0.116 C 
ENDROOT
BRANCH   1   2
ATOM      2  N   UNL A   1      32.512  29.675  25.907  1.00  0.00    -0.354 N 
ATOM      3  C   UNL A   1      31.614  29.399  24.927  1.00  0.00     0.244 C 
ATOM      4  O   UNL A   1      30.795  30.282  24.652  1.00  0.00    -0.273 OA
ATOM      5  H   UNL A   1      32.313  30.501  26.407  1.00  0.00     0.163 HD
BRANCH   3   6
ATOM      6  C   UNL A   1      31.654  28.102  24.103  1.00  0.00     0.197 C 
BRANCH   6   7
ATOM      7  N   UNL A   1      32.723  28.124  23.101  1.00  0.00    -0.342 N 
ATOM      8  C   UNL A   1      33.156  27.130  22.274  1.00  0.00     0.225 C 
ATOM      9  O   UNL A   1      34.114  27.381  21.539  1.00  0.00    -0.275 OA
ATOM     10  H   UNL A   1      33.197  28.982  23.010  1.00  0.00     0.164 HD
BRANCH   8  11
ATOM     11  C   UNL A   1      32.426  25.800  22.190  1.00  0.00     0.137 C 
BRANCH  11  12
ATOM     12  C   UNL A   1      33.071  24.702  22.980  1.00  0.00    -0.017 A 
ATOM     13  C   UNL A   1      31.132  22.986  23.193  1.00  0.00     0.065 C 
ATOM     14  C   UNL A   1      32.538  23.474  23.350  1.00  0.00     0.024 A 
ATOM     15  N   UNL A   1      33.525  22.754  24.023  1.00  0.00    -0.314 N 
ATOM     16  C   UNL A   1      34.378  24.761  23.529  1.00  0.00     0.033 A 
ATOM     17  C   UNL A   1      34.669  23.548  24.124  1.00  0.00     0.053 A 
BRANCH  15  18
ATOM     18  C   UNL A   1      33.381  21.453  24.580  1.00  0.00     0.046 A 
ATOM     19  C   UNL A   1      33.240  20.351  23.725  1.00  0.00     0.029 A 
ATOM     20  C   UNL A   1      33.311  21.290  25.970  1.00  0.00     0.029 A 
ATOM     21  C   UNL A   1      33.039  19.083  24.265  1.00  0.00     0.041 A 
ATOM     22  C   UNL A   1      33.100  20.016  26.501  1.00  0.00     0.041 A 
ATOM     23  C   UNL A   1      32.969  18.927  25.646  1.00  0.00     0.123 A 
ATOM     24  F   UNL A   1      32.761  17.707  26.154  1.00  0.00    -0.207 F 
ENDBRANCH  15  18
BRANCH  17  25
ATOM     25  C   UNL A   1      35.962  23.116  24.670  1.00  0.00    -0.001 A 
ATOM     26  C   UNL A   1      36.550  21.905  24.271  1.00  0.00     0.011 A 
ATOM     27  C   UNL A   1      36.636  23.929  25.589  1.00  0.00     0.011 A 
ATOM     28  C   UNL A   1      37.768  21.489  24.815  1.00  0.00     0.021 A 
ATOM     29  C   UNL A   1      37.854  23.523  26.136  1.00  0.00     0.021 A 
ATOM     30  C   UNL A   1      38.407  22.297  25.759  1.00  0.00     0.067 A 
BRANCH  30  31
ATOM     31  S   UNL A   1      39.963  21.775  26.438  1.00  0.00     0.175 S 
ATOM     32  C   UNL A   1      40.346  22.997  27.666  1.00  0.00     0.163 C 
ATOM     33  O   UNL A   1      39.748  20.508  27.085  1.00  0.00    -0.224 OA
ATOM     34  O   UNL A   1      40.963  21.907  25.376  1.00  0.00    -0.224 OA
ENDBRANCH  30  31
ENDBRANCH  17  25
ENDBRANCH  11  12
ENDBRANCH   8  11
ENDBRANCH   6   7
BRANCH   6  35
ATOM     35  C   UNL A   1      30.291  27.746  23.499  1.00  0.00     0.191 C 
BRANCH  35  36
ATOM     36  O   UNL A   1      29.942  28.525  22.359  1.00  0.00    -0.394 OA
ATOM     37  H   UNL A   1      30.226  28.067  21.554  1.00  0.00     0.210 HD
ENDBRANCH  35  36
ENDBRANCH   6  35
ENDBRANCH   3   6
ENDBRANCH   1   2
BRANCH   1  38
ATOM     38  C   UNL A   1      34.550  29.862  27.295  1.00  0.00     0.023 C 
BRANCH  38  39
ATOM     39  C   UNL A   1      34.046  31.296  27.566  1.00  0.00     0.023 C 
BRANCH  39  40
ATOM     40  C   UNL A   1      34.705  32.128  28.689  1.00  0.00     0.116 C 
BRANCH  40  41
ATOM     41  N   UNL A   1      34.104  33.416  28.932  1.00  0.00    -0.352 N 
ATOM     42  C   UNL A   1      34.116  34.160  30.109  1.00  0.00     0.251 C 
ATOM     43  H   UNL A   1      33.627  33.820  28.172  1.00  0.00     0.163 HD
ATOM     44  O   UNL A   1      33.502  35.226  30.092  1.00  0.00    -0.269 OA
BRANCH  42  45
ATOM     45  C   UNL A   1      34.728  33.636  31.401  1.00  0.00     0.039 A 
ATOM     46  C   UNL A   1      34.883  34.521  32.458  1.00  0.00     0.014 A 
ATOM     47  C   UNL A   1      35.369  32.392  31.561  1.00  0.00     0.014 A 
ATOM     48  C   UNL A   1      35.578  34.138  33.658  1.00  0.00     0.010 A 
ATOM     49  C   UNL A   1      36.154  32.039  32.759  1.00  0.00     0.010 A 
ATOM     50  C   UNL A   1      36.295  32.897  33.873  1.00  0.00    -0.014 A 
BRANCH  50  51
ATOM     51  C   UNL A   1      37.557  32.980  34.956  1.00  0.00     0.031 A 
ATOM     52  C   UNL A   1      38.631  33.446  34.034  1.00  0.00     0.074 A 
ATOM     53  C   UNL A   1      38.024  32.654  36.251  1.00  0.00     0.049 A 
ATOM     54  N   UNL A   1      38.859  32.746  32.956  1.00  0.00    -0.248 NA
ATOM     55  C   UNL A   1      39.130  34.820  33.968  1.00  0.00     0.031 C 
ATOM     56  C   UNL A   1      37.368  31.817  37.275  1.00  0.00     0.029 A 
ATOM     57  N   UNL A   1      39.229  32.985  36.996  1.00  0.00    -0.354 N 
ATOM     58  C   UNL A   1      39.833  33.402  32.269  1.00  0.00     0.074 A 
ATOM     59  C   UNL A   1      39.726  34.770  32.768  1.00  0.00     0.031 C 
ATOM     60  C   UNL A   1      38.022  31.844  38.479  1.00  0.00     0.029 A 
ATOM     61  C   UNL A   1      39.236  32.667  38.427  1.00  0.00     0.049 A 
ATOM     62  H   UNL A   1      40.006  33.404  36.558  1.00  0.00     0.167 HD
ATOM     63  C   UNL A   1      40.958  32.649  32.090  1.00  0.00     0.034 A 
ATOM     64  C   UNL A   1      40.158  32.938  39.460  1.00  0.00     0.034 A 
ATOM     65  C   UNL A   1      41.987  32.996  33.031  1.00  0.00     0.049 A 
ATOM     66  C   UNL A   1      41.449  33.033  38.776  1.00  0.00     0.074 A 
ATOM     67  C   UNL A   1      42.423  34.211  33.530  1.00  0.00     0.029 A 
ATOM     68  N   UNL A   1      42.356  32.036  33.944  1.00  0.00    -0.354 N 
ATOM     69  N   UNL A   1      42.119  31.965  38.457  1.00  0.00    -0.248 NA
ATOM     70  C   UNL A   1      42.121  34.302  38.539  1.00  0.00     0.031 C 
ATOM     71  C   UNL A   1      42.528  34.005  34.918  1.00  0.00     0.029 A 
ATOM     72  C   UNL A   1      42.675  32.647  35.143  1.00  0.00     0.049 A 
ATOM     73  H   UNL A   1      42.388  31.067  33.772  1.00  0.00     0.167 HD
ATOM     74  C   UNL A   1      42.966  32.434  37.503  1.00  0.00     0.074 A 
ATOM     75  C   UNL A   1      43.127  33.850  37.789  1.00  0.00     0.031 C 
ATOM     76  C   UNL A   1      42.870  31.822  36.301  1.00  0.00     0.034 A 
BRANCH  63  77
ATOM     77  C   UNL A   1      40.692  31.258  31.545  1.00  0.00     0.023 A 
ATOM     78  C   UNL A   1      40.799  31.103  30.153  1.00  0.00     0.012 A 
ATOM     79  C   UNL A   1      40.171  30.174  32.307  1.00  0.00     0.148 A 
ATOM     80  C   UNL A   1      40.349  29.936  29.529  1.00  0.00     0.002 A 
ATOM     81  C   UNL A   1      39.630  29.060  31.670  1.00  0.00     0.091 A 
ATOM     82  F   UNL A   1      40.218  30.232  33.648  1.00  0.00    -0.205 F 
ATOM     83  C   UNL A   1      39.732  28.935  30.279  1.00  0.00     0.022 A 
BRANCH  81  84
ATOM     84  S   UNL A   1      38.612  27.847  32.538  1.00  0.00     0.127 S 
ATOM     85  O   UNL A   1      37.535  28.675  33.093  1.00  0.00    -0.237 OA
ATOM     86  O   UNL A   1      38.188  26.951  31.467  1.00  0.00    -0.237 OA
ATOM     87  O   UNL A   1      39.463  27.249  33.561  1.00  0.00    -0.744 OA
ENDBRANCH  81  84
ENDBRANCH  63  77
BRANCH  64  88
ATOM     88  C   UNL A   1      40.510  32.954  41.024  1.00  0.00     0.023 A 
ATOM     89  C   UNL A   1      41.073  31.760  41.626  1.00  0.00     0.012 A 
ATOM     90  C   UNL A   1      40.778  34.131  41.763  1.00  0.00     0.148 A 
ATOM     91  C   UNL A   1      41.914  31.744  42.762  1.00  0.00     0.002 A 
ATOM     92  C   UNL A   1      41.604  34.108  42.931  1.00  0.00     0.091 A 
ATOM     93  F   UNL A   1      40.315  35.292  41.284  1.00  0.00    -0.205 F 
ATOM     94  C   UNL A   1      42.193  32.926  43.409  1.00  0.00     0.022 A 
BRANCH  92  95
ATOM     95  S   UNL A   1      42.083  35.585  43.865  1.00  0.00     0.127 S 
ATOM     96  O   UNL A   1      42.739  36.409  42.847  1.00  0.00    -0.237 OA
ATOM     97  O   UNL A   1      40.787  36.096  44.308  1.00  0.00    -0.237 OA
ATOM     98  O   UNL A   1      42.966  35.107  44.918  1.00  0.00    -0.744 OA
ENDBRANCH  92  95
ENDBRANCH  64  88
BRANCH  76  99
ATOM     99  C   UNL A   1      42.805  30.317  36.275  1.00  0.00     0.023 A 
ATOM    100  C   UNL A   1      41.631  29.540  36.195  1.00  0.00     0.012 A 
ATOM    101  C   UNL A   1      44.040  29.652  36.316  1.00  0.00     0.148 A 
ATOM    102  C   UNL A   1      41.696  28.141  36.155  1.00  0.00     0.002 A 
ATOM    103  C   UNL A   1      44.108  28.272  36.220  1.00  0.00     0.091 A 
ATOM    104  F   UNL A   1      45.146  30.399  36.453  1.00  0.00    -0.205 F 
ATOM    105  C   UNL A   1      42.937  27.507  36.143  1.00  0.00     0.022 A 
BRANCH 103 106
ATOM    106  S   UNL A   1      45.701  27.458  36.146  1.00  0.00     0.127 S 
ATOM    107  O   UNL A   1      46.121  27.745  34.775  1.00  0.00    -0.237 OA
ATOM    108  O   UNL A   1      46.472  28.141  37.181  1.00  0.00    -0.237 OA
ATOM    109  O   UNL A   1      45.430  26.052  36.433  1.00  0.00    -0.744 OA
ENDBRANCH 103 106
ENDBRANCH  76  99
ENDBRANCH  50  51
ENDBRANCH  42  45
ENDBRANCH  40  41
ENDBRANCH  39  40
ENDBRANCH  38  39
ENDBRANCH   1  38
TORSDOF 22
ENDMDL
