MODEL 1
REMARK VINA RESULT:     -13.5      0.000      0.000
REMARK SMILES COc1ccccc1[C@@H]1C[N@@H+](Cc2cc3c(cc2C)OCO3)C[C@H]1C(=O)NCCCCNC(=O)c1ccc(-c2c3nc(c(-c4cccc(S(=O)(=O)[O-])c4F)c4ccc([nH]4)c(-c4cccc(S(=O)(=O)[O-])c4F)c4nc(c(-c5cccc(S(=O)(=O)[O-])c5F)c5ccc2[nH]5)C=C4)C=C3)cc1
REMARK SMILES IDX 30 1 29 2 28 3 27 4 25 5 26 6 24 8 9 9 10 10 11 11 23 12
REMARK SMILES IDX 8 14 3 15 4 16 5 17 7 18 6 19 2 20 1 21 12 22 13 23 14 24
REMARK SMILES IDX 18 25 15 26 17 27 19 28 16 29 22 30 20 31 21 32 31 33 32 34
REMARK SMILES IDX 33 35 34 37 35 38 36 39 97 40 37 41 96 42 38 43 39 44 40 45
REMARK SMILES IDX 90 46 41 47 95 48 89 49 91 50 42 51 94 52 88 53 87 54 43 56
REMARK SMILES IDX 75 57 55 58 74 59 56 60 59 61 73 62 92 63 57 64 58 65 72 67
REMARK SMILES IDX 93 68 60 69 44 70 45 71 53 72 46 73 48 74 54 75 47 76 49 77
REMARK SMILES IDX 50 78 51 79 52 80 76 81 77 82 85 83 78 84 80 85 86 86 79 87
REMARK SMILES IDX 81 88 82 89 83 90 84 91 61 92 62 93 70 94 63 95 65 96 71 97
REMARK SMILES IDX 64 98 66 99 67 100 68 101 69 102
REMARK H PARENT 27 7 11 13 32 36 91 55 59 66
REMARK Flexibility Score: inf
ROOT
ATOM      1  C   UNL A   1      31.600  29.430  26.867  1.00  0.00     0.023 C 
ENDROOT
BRANCH   1   2
ATOM      2  C   UNL A   1      32.090  28.014  26.578  1.00  0.00     0.023 C 
BRANCH   2   3
ATOM      3  C   UNL A   1      33.557  27.708  26.153  1.00  0.00     0.116 C 
BRANCH   3   4
ATOM      4  N   UNL A   1      34.002  26.241  26.072  1.00  0.00    -0.356 N 
ATOM      5  C   UNL A   1      33.812  24.931  25.771  1.00  0.00     0.229 C 
ATOM      6  O   UNL A   1      34.936  24.369  25.814  1.00  0.00    -0.275 OA
ATOM      7  H   UNL A   1      34.918  26.261  26.433  1.00  0.00     0.163 HD
BRANCH   5   8
ATOM      8  C   UNL A   1      32.642  23.897  25.419  1.00  0.00     0.146 C 
ATOM      9  C   UNL A   1      31.967  23.967  24.018  1.00  0.00     0.096 C 
ATOM     10  C   UNL A   1      31.181  22.648  23.865  1.00  0.00     0.272 C 
ATOM     11  N   UNL A   1      31.887  21.638  24.664  1.00  0.00    -0.330 N 
ATOM     12  C   UNL A   1      32.499  22.396  25.788  1.00  0.00     0.276 C 
ATOM     13  H   UNL A   1      31.288  20.932  25.092  1.00  0.00     0.348 HD
BRANCH   9  14
ATOM     14  C   UNL A   1      31.182  25.173  23.520  1.00  0.00     0.004 A 
ATOM     15  C   UNL A   1      31.564  26.078  22.513  1.00  0.00     0.122 A 
ATOM     16  C   UNL A   1      30.825  27.255  22.294  1.00  0.00     0.047 A 
ATOM     17  C   UNL A   1      29.718  27.570  23.081  1.00  0.00     0.004 A 
ATOM     18  C   UNL A   1      30.044  25.517  24.291  1.00  0.00     0.008 A 
ATOM     19  C   UNL A   1      29.335  26.703  24.092  1.00  0.00     0.001 A 
BRANCH  15  20
ATOM     20  O   UNL A   1      32.756  26.041  21.841  1.00  0.00    -0.496 OA
ATOM     21  C   UNL A   1      32.665  25.579  20.501  1.00  0.00     0.278 C 
ENDBRANCH  15  20
ENDBRANCH   9  14
BRANCH  11  22
ATOM     22  C   UNL A   1      32.683  20.672  23.852  1.00  0.00     0.299 C 
BRANCH  22  23
ATOM     23  C   UNL A   1      33.107  19.398  24.563  1.00  0.00     0.013 A 
ATOM     24  C   UNL A   1      32.234  18.358  24.959  1.00  0.00     0.060 A 
ATOM     25  C   UNL A   1      34.465  19.150  24.596  1.00  0.00    -0.038 A 
ATOM     26  C   UNL A   1      32.761  17.083  25.107  1.00  0.00     0.166 A 
ATOM     27  C   UNL A   1      34.820  17.855  24.273  1.00  0.00     0.054 A 
ATOM     28  C   UNL A   1      35.448  20.230  24.934  1.00  0.00     0.045 C 
ATOM     29  C   UNL A   1      34.011  16.832  24.643  1.00  0.00     0.166 A 
ATOM     30  O   UNL A   1      32.187  15.935  25.556  1.00  0.00    -0.454 OA
ATOM     31  O   UNL A   1      34.363  15.526  24.632  1.00  0.00    -0.454 OA
ATOM     32  C   UNL A   1      33.322  15.022  25.480  1.00  0.00     0.468 C 
ENDBRANCH  22  23
ENDBRANCH  11  22
ENDBRANCH   5   8
ENDBRANCH   3   4
ENDBRANCH   2   3
ENDBRANCH   1   2
BRANCH   1  33
ATOM     33  C   UNL A   1      32.486  30.507  26.240  1.00  0.00     0.116 C 
BRANCH  33  34
ATOM     34  N   UNL A   1      32.451  31.824  26.903  1.00  0.00    -0.352 N 
ATOM     35  C   UNL A   1      33.405  32.524  27.622  1.00  0.00     0.251 C 
ATOM     36  H   UNL A   1      31.589  32.293  26.818  1.00  0.00     0.163 HD
ATOM     37  O   UNL A   1      33.146  33.634  28.085  1.00  0.00    -0.269 OA
BRANCH  35  38
ATOM     38  C   UNL A   1      34.719  31.908  27.890  1.00  0.00     0.039 A 
ATOM     39  C   UNL A   1      35.852  32.705  28.078  1.00  0.00     0.014 A 
ATOM     40  C   UNL A   1      34.798  30.539  28.082  1.00  0.00     0.014 A 
ATOM     41  C   UNL A   1      37.007  32.137  28.629  1.00  0.00     0.010 A 
ATOM     42  C   UNL A   1      35.857  30.028  28.807  1.00  0.00     0.010 A 
ATOM     43  C   UNL A   1      36.987  30.810  29.087  1.00  0.00    -0.014 A 
BRANCH  43  44
ATOM     44  C   UNL A   1      38.106  30.185  29.851  1.00  0.00     0.031 A 
ATOM     45  C   UNL A   1      38.343  30.604  31.284  1.00  0.00     0.074 A 
ATOM     46  C   UNL A   1      39.005  29.395  29.225  1.00  0.00     0.049 A 
ATOM     47  N   UNL A   1      39.388  30.400  32.043  1.00  0.00    -0.248 NA
ATOM     48  C   UNL A   1      37.309  31.443  31.919  1.00  0.00     0.031 C 
ATOM     49  C   UNL A   1      38.976  29.011  27.810  1.00  0.00     0.029 A 
ATOM     50  N   UNL A   1      40.152  28.801  29.696  1.00  0.00    -0.354 N 
ATOM     51  C   UNL A   1      39.180  31.168  33.183  1.00  0.00     0.074 A 
ATOM     52  C   UNL A   1      37.939  31.882  32.996  1.00  0.00     0.031 C 
ATOM     53  C   UNL A   1      40.038  28.236  27.535  1.00  0.00     0.029 A 
ATOM     54  C   UNL A   1      40.850  28.098  28.738  1.00  0.00     0.049 A 
ATOM     55  H   UNL A   1      40.449  28.872  30.632  1.00  0.00     0.167 HD
ATOM     56  C   UNL A   1      39.925  31.237  34.311  1.00  0.00     0.034 A 
ATOM     57  C   UNL A   1      42.017  27.427  28.819  1.00  0.00     0.034 A 
ATOM     58  C   UNL A   1      41.061  30.396  34.557  1.00  0.00     0.049 A 
ATOM     59  C   UNL A   1      42.734  27.379  30.143  1.00  0.00     0.074 A 
ATOM     60  C   UNL A   1      41.772  30.235  35.731  1.00  0.00     0.029 A 
ATOM     61  N   UNL A   1      41.632  29.552  33.618  1.00  0.00    -0.354 N 
ATOM     62  N   UNL A   1      42.418  27.966  31.272  1.00  0.00    -0.248 NA
ATOM     63  C   UNL A   1      43.945  26.549  30.219  1.00  0.00     0.031 C 
ATOM     64  C   UNL A   1      42.783  29.298  35.499  1.00  0.00     0.029 A 
ATOM     65  C   UNL A   1      42.688  28.866  34.186  1.00  0.00     0.049 A 
ATOM     66  H   UNL A   1      41.330  29.456  32.686  1.00  0.00     0.167 HD
ATOM     67  C   UNL A   1      43.370  27.552  32.197  1.00  0.00     0.074 A 
ATOM     68  C   UNL A   1      44.257  26.642  31.504  1.00  0.00     0.031 C 
ATOM     69  C   UNL A   1      43.513  27.911  33.495  1.00  0.00     0.034 A 
BRANCH  56  70
ATOM     70  C   UNL A   1      39.487  32.181  35.400  1.00  0.00     0.023 A 
ATOM     71  C   UNL A   1      38.639  31.720  36.429  1.00  0.00     0.012 A 
ATOM     72  C   UNL A   1      39.966  33.505  35.442  1.00  0.00     0.148 A 
ATOM     73  C   UNL A   1      38.239  32.572  37.456  1.00  0.00     0.002 A 
ATOM     74  C   UNL A   1      39.605  34.333  36.498  1.00  0.00     0.091 A 
ATOM     75  F   UNL A   1      40.758  33.930  34.447  1.00  0.00    -0.205 F 
ATOM     76  C   UNL A   1      38.730  33.874  37.497  1.00  0.00     0.022 A 
BRANCH  74  77
ATOM     77  S   UNL A   1      40.251  35.997  36.695  1.00  0.00     0.127 S 
ATOM     78  O   UNL A   1      39.809  36.635  35.456  1.00  0.00    -0.237 OA
ATOM     79  O   UNL A   1      39.555  36.453  37.899  1.00  0.00    -0.237 OA
ATOM     80  O   UNL A   1      41.693  35.855  36.841  1.00  0.00    -0.744 OA
ENDBRANCH  74  77
ENDBRANCH  56  70
BRANCH  57  81
ATOM     81  C   UNL A   1      42.547  26.682  27.638  1.00  0.00     0.023 A 
ATOM     82  C   UNL A   1      43.379  27.352  26.717  1.00  0.00     0.012 A 
ATOM     83  C   UNL A   1      42.245  25.325  27.421  1.00  0.00     0.148 A 
ATOM     84  C   UNL A   1      43.860  26.700  25.581  1.00  0.00     0.002 A 
ATOM     85  C   UNL A   1      42.776  24.664  26.317  1.00  0.00     0.091 A 
ATOM     86  F   UNL A   1      41.444  24.702  28.297  1.00  0.00    -0.205 F 
ATOM     87  C   UNL A   1      43.566  25.354  25.385  1.00  0.00     0.022 A 
BRANCH  85  88
ATOM     88  S   UNL A   1      42.561  22.897  26.067  1.00  0.00     0.127 S 
ATOM     89  O   UNL A   1      41.109  22.760  26.131  1.00  0.00    -0.237 OA
ATOM     90  O   UNL A   1      43.139  22.703  24.736  1.00  0.00    -0.237 OA
ATOM     91  O   UNL A   1      43.313  22.262  27.141  1.00  0.00    -0.744 OA
ENDBRANCH  85  88
ENDBRANCH  57  81
BRANCH  69  92
ATOM     92  C   UNL A   1      44.644  27.295  34.272  1.00  0.00     0.023 A 
ATOM     93  C   UNL A   1      45.902  27.928  34.292  1.00  0.00     0.012 A 
ATOM     94  C   UNL A   1      44.428  26.149  35.063  1.00  0.00     0.148 A 
ATOM     95  C   UNL A   1      46.938  27.413  35.070  1.00  0.00     0.002 A 
ATOM     96  C   UNL A   1      45.449  25.673  35.874  1.00  0.00     0.091 A 
ATOM     97  F   UNL A   1      43.226  25.555  35.014  1.00  0.00    -0.205 F 
ATOM     98  C   UNL A   1      46.708  26.296  35.870  1.00  0.00     0.022 A 
BRANCH  96  99
ATOM     99  S   UNL A   1      45.209  24.306  37.014  1.00  0.00     0.127 S 
ATOM    100  O   UNL A   1      44.160  24.830  37.889  1.00  0.00    -0.237 OA
ATOM    101  O   UNL A   1      44.779  23.229  36.122  1.00  0.00    -0.237 OA
ATOM    102  O   UNL A   1      46.500  24.083  37.651  1.00  0.00    -0.744 OA
ENDBRANCH  96  99
ENDBRANCH  69  92
ENDBRANCH  43  44
ENDBRANCH  35  38
ENDBRANCH  33  34
ENDBRANCH   1  33
TORSDOF 18
ENDMDL
MODEL 2
REMARK VINA RESULT:     -13.5      1.597      7.361
REMARK SMILES COc1ccccc1[C@@H]1C[N@@H+](Cc2cc3c(cc2C)OCO3)C[C@H]1C(=O)NCCCCNC(=O)c1ccc(-c2c3nc(c(-c4cccc(S(=O)(=O)[O-])c4F)c4ccc([nH]4)c(-c4cccc(S(=O)(=O)[O-])c4F)c4nc(c(-c5cccc(S(=O)(=O)[O-])c5F)c5ccc2[nH]5)C=C4)C=C3)cc1
REMARK SMILES IDX 30 1 29 2 28 3 27 4 25 5 26 6 24 8 9 9 10 10 11 11 23 12
REMARK SMILES IDX 8 14 3 15 4 16 5 17 7 18 6 19 2 20 1 21 12 22 13 23 14 24
REMARK SMILES IDX 18 25 15 26 17 27 19 28 16 29 22 30 20 31 21 32 31 33 32 34
REMARK SMILES IDX 33 35 34 37 35 38 36 39 97 40 37 41 96 42 38 43 39 44 40 45
REMARK SMILES IDX 90 46 41 47 95 48 89 49 91 50 42 51 94 52 88 53 87 54 43 56
REMARK SMILES IDX 75 57 55 58 74 59 56 60 59 61 73 62 92 63 57 64 58 65 72 67
REMARK SMILES IDX 93 68 60 69 44 70 45 71 53 72 46 73 48 74 54 75 47 76 49 77
REMARK SMILES IDX 50 78 51 79 52 80 76 81 77 82 85 83 78 84 80 85 86 86 79 87
REMARK SMILES IDX 81 88 82 89 83 90 84 91 61 92 62 93 70 94 63 95 65 96 71 97
REMARK SMILES IDX 64 98 66 99 67 100 68 101 69 102
REMARK H PARENT 27 7 11 13 32 36 91 55 59 66
REMARK Flexibility Score: inf
ROOT
ATOM      1  C   UNL A   1      31.816  29.642  27.159  1.00  0.00     0.023 C 
ENDROOT
BRANCH   1   2
ATOM      2  C   UNL A   1      32.185  28.304  26.525  1.00  0.00     0.023 C 
BRANCH   2   3
ATOM      3  C   UNL A   1      33.630  27.979  26.042  1.00  0.00     0.116 C 
BRANCH   3   4
ATOM      4  N   UNL A   1      34.069  26.509  25.993  1.00  0.00    -0.356 N 
ATOM      5  C   UNL A   1      33.877  25.195  25.713  1.00  0.00     0.229 C 
ATOM      6  O   UNL A   1      34.998  24.629  25.783  1.00  0.00    -0.275 OA
ATOM      7  H   UNL A   1      34.979  26.531  26.368  1.00  0.00     0.163 HD
BRANCH   5   8
ATOM      8  C   UNL A   1      32.708  24.160  25.361  1.00  0.00     0.146 C 
ATOM      9  C   UNL A   1      32.043  24.220  23.954  1.00  0.00     0.096 C 
ATOM     10  C   UNL A   1      31.255  22.900  23.806  1.00  0.00     0.272 C 
ATOM     11  N   UNL A   1      31.954  21.896  24.620  1.00  0.00    -0.330 N 
ATOM     12  C   UNL A   1      32.559  22.663  25.742  1.00  0.00     0.276 C 
ATOM     13  H   UNL A   1      31.350  21.195  25.049  1.00  0.00     0.348 HD
BRANCH   9  14
ATOM     14  C   UNL A   1      31.265  25.423  23.440  1.00  0.00     0.004 A 
ATOM     15  C   UNL A   1      31.750  26.466  22.631  1.00  0.00     0.122 A 
ATOM     16  C   UNL A   1      30.965  27.609  22.395  1.00  0.00     0.047 A 
ATOM     17  C   UNL A   1      29.705  27.753  22.974  1.00  0.00     0.004 A 
ATOM     18  C   UNL A   1      29.974  25.595  24.000  1.00  0.00     0.008 A 
ATOM     19  C   UNL A   1      29.214  26.747  23.790  1.00  0.00     0.001 A 
BRANCH  15  20
ATOM     20  O   UNL A   1      33.047  26.590  22.210  1.00  0.00    -0.496 OA
ATOM     21  C   UNL A   1      33.595  27.891  22.359  1.00  0.00     0.278 C 
ENDBRANCH  15  20
ENDBRANCH   9  14
BRANCH  11  22
ATOM     22  C   UNL A   1      32.754  20.922  23.822  1.00  0.00     0.299 C 
BRANCH  22  23
ATOM     23  C   UNL A   1      33.155  19.646  24.541  1.00  0.00     0.013 A 
ATOM     24  C   UNL A   1      32.274  18.593  24.885  1.00  0.00     0.060 A 
ATOM     25  C   UNL A   1      34.513  19.410  24.639  1.00  0.00    -0.038 A 
ATOM     26  C   UNL A   1      32.806  17.322  25.047  1.00  0.00     0.166 A 
ATOM     27  C   UNL A   1      34.896  18.121  24.322  1.00  0.00     0.054 A 
ATOM     28  C   UNL A   1      35.466  20.496  25.035  1.00  0.00     0.045 C 
ATOM     29  C   UNL A   1      34.080  17.087  24.643  1.00  0.00     0.166 A 
ATOM     30  O   UNL A   1      32.222  16.164  25.456  1.00  0.00    -0.454 OA
ATOM     31  O   UNL A   1      34.445  15.785  24.638  1.00  0.00    -0.454 OA
ATOM     32  C   UNL A   1      33.368  15.263  25.428  1.00  0.00     0.468 C 
ENDBRANCH  22  23
ENDBRANCH  11  22
ENDBRANCH   5   8
ENDBRANCH   3   4
ENDBRANCH   2   3
ENDBRANCH   1   2
BRANCH   1  33
ATOM     33  C   UNL A   1      32.172  30.839  26.277  1.00  0.00     0.116 C 
BRANCH  33  34
ATOM     34  N   UNL A   1      32.021  32.163  26.908  1.00  0.00    -0.352 N 
ATOM     35  C   UNL A   1      32.909  32.961  27.610  1.00  0.00     0.251 C 
ATOM     36  H   UNL A   1      31.121  32.552  26.814  1.00  0.00     0.163 HD
ATOM     37  O   UNL A   1      32.552  34.054  28.047  1.00  0.00    -0.269 OA
BRANCH  35  38
ATOM     38  C   UNL A   1      34.272  32.469  27.891  1.00  0.00     0.039 A 
ATOM     39  C   UNL A   1      35.355  33.352  27.914  1.00  0.00     0.014 A 
ATOM     40  C   UNL A   1      34.451  31.147  28.259  1.00  0.00     0.014 A 
ATOM     41  C   UNL A   1      36.568  32.938  28.477  1.00  0.00     0.010 A 
ATOM     42  C   UNL A   1      35.572  30.805  28.992  1.00  0.00     0.010 A 
ATOM     43  C   UNL A   1      36.657  31.686  29.108  1.00  0.00    -0.014 A 
BRANCH  43  44
ATOM     44  C   UNL A   1      37.846  31.241  29.891  1.00  0.00     0.031 A 
ATOM     45  C   UNL A   1      38.787  30.224  29.285  1.00  0.00     0.074 A 
ATOM     46  C   UNL A   1      37.987  31.597  31.186  1.00  0.00     0.049 A 
ATOM     47  N   UNL A   1      39.716  29.509  29.865  1.00  0.00    -0.248 NA
ATOM     48  C   UNL A   1      38.599  29.901  27.858  1.00  0.00     0.031 C 
ATOM     49  C   UNL A   1      37.081  32.469  31.942  1.00  0.00     0.029 A 
ATOM     50  N   UNL A   1      38.932  31.232  32.115  1.00  0.00    -0.354 N 
ATOM     51  C   UNL A   1      40.134  28.590  28.907  1.00  0.00     0.074 A 
ATOM     52  C   UNL A   1      39.325  28.802  27.730  1.00  0.00     0.031 C 
ATOM     53  C   UNL A   1      37.524  32.584  33.205  1.00  0.00     0.029 A 
ATOM     54  C   UNL A   1      38.719  31.766  33.368  1.00  0.00     0.049 A 
ATOM     55  H   UNL A   1      39.692  30.642  31.905  1.00  0.00     0.167 HD
ATOM     56  C   UNL A   1      41.136  27.684  28.979  1.00  0.00     0.034 A 
ATOM     57  C   UNL A   1      39.404  31.605  34.518  1.00  0.00     0.034 A 
ATOM     58  C   UNL A   1      42.044  27.599  30.087  1.00  0.00     0.049 A 
ATOM     59  C   UNL A   1      40.624  30.721  34.516  1.00  0.00     0.074 A 
ATOM     60  C   UNL A   1      43.209  26.862  30.187  1.00  0.00     0.029 A 
ATOM     61  N   UNL A   1      41.901  28.298  31.274  1.00  0.00    -0.354 N 
ATOM     62  N   UNL A   1      41.116  30.000  33.538  1.00  0.00    -0.248 NA
ATOM     63  C   UNL A   1      41.405  30.656  35.759  1.00  0.00     0.031 C 
ATOM     64  C   UNL A   1      43.769  27.109  31.444  1.00  0.00     0.029 A 
ATOM     65  C   UNL A   1      42.959  28.010  32.116  1.00  0.00     0.049 A 
ATOM     66  H   UNL A   1      41.158  28.906  31.486  1.00  0.00     0.167 HD
ATOM     67  C   UNL A   1      42.278  29.421  34.037  1.00  0.00     0.074 A 
ATOM     68  C   UNL A   1      42.432  29.900  35.395  1.00  0.00     0.031 C 
ATOM     69  C   UNL A   1      43.128  28.554  33.437  1.00  0.00     0.034 A 
BRANCH  56  70
ATOM     70  C   UNL A   1      41.367  26.780  27.796  1.00  0.00     0.023 A 
ATOM     71  C   UNL A   1      42.100  27.249  26.686  1.00  0.00     0.012 A 
ATOM     72  C   UNL A   1      40.915  25.446  27.811  1.00  0.00     0.148 A 
ATOM     73  C   UNL A   1      42.340  26.421  25.591  1.00  0.00     0.002 A 
ATOM     74  C   UNL A   1      41.205  24.610  26.739  1.00  0.00     0.091 A 
ATOM     75  F   UNL A   1      40.207  25.022  28.867  1.00  0.00    -0.205 F 
ATOM     76  C   UNL A   1      41.904  25.100  25.623  1.00  0.00     0.022 A 
BRANCH  74  77
ATOM     77  S   UNL A   1      40.767  22.868  26.715  1.00  0.00     0.127 S 
ATOM     78  O   UNL A   1      41.196  22.438  28.045  1.00  0.00    -0.237 OA
ATOM     79  O   UNL A   1      39.317  22.921  26.529  1.00  0.00    -0.237 OA
ATOM     80  O   UNL A   1      41.505  22.282  25.605  1.00  0.00    -0.744 OA
ENDBRANCH  74  77
ENDBRANCH  56  70
BRANCH  57  81
ATOM     81  C   UNL A   1      39.005  32.349  35.749  1.00  0.00     0.023 A 
ATOM     82  C   UNL A   1      39.357  33.708  35.877  1.00  0.00     0.012 A 
ATOM     83  C   UNL A   1      38.280  31.732  36.786  1.00  0.00     0.148 A 
ATOM     84  C   UNL A   1      39.035  34.425  37.031  1.00  0.00     0.002 A 
ATOM     85  C   UNL A   1      37.912  32.468  37.909  1.00  0.00     0.091 A 
ATOM     86  F   UNL A   1      37.962  30.436  36.658  1.00  0.00    -0.205 F 
ATOM     87  C   UNL A   1      38.306  33.808  38.043  1.00  0.00     0.022 A 
BRANCH  85  88
ATOM     88  S   UNL A   1      36.853  31.788  39.192  1.00  0.00     0.127 S 
ATOM     89  O   UNL A   1      37.617  32.087  40.401  1.00  0.00    -0.237 OA
ATOM     90  O   UNL A   1      35.629  32.573  39.028  1.00  0.00    -0.237 OA
ATOM     91  O   UNL A   1      36.705  30.377  38.861  1.00  0.00    -0.744 OA
ENDBRANCH  85  88
ENDBRANCH  57  81
BRANCH  69  92
ATOM     92  C   UNL A   1      44.325  28.091  34.220  1.00  0.00     0.023 A 
ATOM     93  C   UNL A   1      45.501  28.866  34.219  1.00  0.00     0.012 A 
ATOM     94  C   UNL A   1      44.247  26.944  35.036  1.00  0.00     0.148 A 
ATOM     95  C   UNL A   1      46.593  28.493  35.002  1.00  0.00     0.002 A 
ATOM     96  C   UNL A   1      45.321  26.608  35.850  1.00  0.00     0.091 A 
ATOM     97  F   UNL A   1      43.123  26.213  35.006  1.00  0.00    -0.205 F 
ATOM     98  C   UNL A   1      46.497  27.374  35.826  1.00  0.00     0.022 A 
BRANCH  96  99
ATOM     99  S   UNL A   1      45.245  25.247  37.020  1.00  0.00     0.127 S 
ATOM    100  O   UNL A   1      46.630  25.179  37.487  1.00  0.00    -0.237 OA
ATOM    101  O   UNL A   1      44.290  25.742  38.011  1.00  0.00    -0.237 OA
ATOM    102  O   UNL A   1      44.784  24.092  36.262  1.00  0.00    -0.744 OA
ENDBRANCH  96  99
ENDBRANCH  69  92
ENDBRANCH  43  44
ENDBRANCH  35  38
ENDBRANCH  33  34
ENDBRANCH   1  33
TORSDOF 18
ENDMDL
MODEL 3
REMARK VINA RESULT:     -13.2      1.820      2.455
REMARK SMILES COc1ccccc1[C@@H]1C[N@@H+](Cc2cc3c(cc2C)OCO3)C[C@H]1C(=O)NCCCCNC(=O)c1ccc(-c2c3nc(c(-c4cccc(S(=O)(=O)[O-])c4F)c4ccc([nH]4)c(-c4cccc(S(=O)(=O)[O-])c4F)c4nc(c(-c5cccc(S(=O)(=O)[O-])c5F)c5ccc2[nH]5)C=C4)C=C3)cc1
REMARK SMILES IDX 30 1 29 2 28 3 27 4 25 5 26 6 24 8 9 9 10 10 11 11 23 12
REMARK SMILES IDX 8 14 3 15 4 16 5 17 7 18 6 19 2 20 1 21 12 22 13 23 14 24
REMARK SMILES IDX 18 25 15 26 17 27 19 28 16 29 22 30 20 31 21 32 31 33 32 34
REMARK SMILES IDX 33 35 34 37 35 38 36 39 97 40 37 41 96 42 38 43 39 44 40 45
REMARK SMILES IDX 90 46 41 47 95 48 89 49 91 50 42 51 94 52 88 53 87 54 43 56
REMARK SMILES IDX 75 57 55 58 74 59 56 60 59 61 73 62 92 63 57 64 58 65 72 67
REMARK SMILES IDX 93 68 60 69 44 70 45 71 53 72 46 73 48 74 54 75 47 76 49 77
REMARK SMILES IDX 50 78 51 79 52 80 76 81 77 82 85 83 78 84 80 85 86 86 79 87
REMARK SMILES IDX 81 88 82 89 83 90 84 91 61 92 62 93 70 94 63 95 65 96 71 97
REMARK SMILES IDX 64 98 66 99 67 100 68 101 69 102
REMARK H PARENT 27 7 11 13 32 36 91 55 59 66
REMARK Flexibility Score: inf
ROOT
ATOM      1  C   UNL A   1      31.425  30.392  26.857  1.00  0.00     0.023 C 
ENDROOT
BRANCH   1   2
ATOM      2  C   UNL A   1      31.826  28.923  26.757  1.00  0.00     0.023 C 
BRANCH   2   3
ATOM      3  C   UNL A   1      33.307  28.470  26.594  1.00  0.00     0.116 C 
BRANCH   3   4
ATOM      4  N   UNL A   1      33.588  26.994  26.276  1.00  0.00    -0.356 N 
ATOM      5  C   UNL A   1      33.276  25.792  25.729  1.00  0.00     0.229 C 
ATOM      6  O   UNL A   1      34.322  25.092  25.741  1.00  0.00    -0.275 OA
ATOM      7  H   UNL A   1      34.466  26.835  26.692  1.00  0.00     0.163 HD
BRANCH   5   8
ATOM      8  C   UNL A   1      32.031  24.992  25.120  1.00  0.00     0.146 C 
ATOM      9  C   UNL A   1      31.530  25.347  23.689  1.00  0.00     0.096 C 
ATOM     10  C   UNL A   1      30.605  24.185  23.269  1.00  0.00     0.272 C 
ATOM     11  N   UNL A   1      31.083  22.987  23.969  1.00  0.00    -0.330 N 
ATOM     12  C   UNL A   1      31.657  23.491  25.246  1.00  0.00     0.276 C 
ATOM     13  H   UNL A   1      30.355  22.321  24.230  1.00  0.00     0.348 HD
BRANCH   9  14
ATOM     14  C   UNL A   1      30.966  26.708  23.307  1.00  0.00     0.004 A 
ATOM     15  C   UNL A   1      31.688  27.837  22.879  1.00  0.00     0.122 A 
ATOM     16  C   UNL A   1      31.049  29.083  22.746  1.00  0.00     0.047 A 
ATOM     17  C   UNL A   1      29.700  29.241  23.059  1.00  0.00     0.004 A 
ATOM     18  C   UNL A   1      29.594  26.900  23.603  1.00  0.00     0.008 A 
ATOM     19  C   UNL A   1      28.973  28.147  23.502  1.00  0.00     0.001 A 
BRANCH  15  20
ATOM     20  O   UNL A   1      33.052  27.902  22.785  1.00  0.00    -0.496 OA
ATOM     21  C   UNL A   1      33.605  29.176  23.084  1.00  0.00     0.278 C 
ENDBRANCH  15  20
ENDBRANCH   9  14
BRANCH  11  22
ATOM     22  C   UNL A   1      31.835  22.036  23.099  1.00  0.00     0.299 C 
BRANCH  22  23
ATOM     23  C   UNL A   1      33.267  21.746  23.515  1.00  0.00     0.013 A 
ATOM     24  C   UNL A   1      34.371  22.600  23.285  1.00  0.00     0.060 A 
ATOM     25  C   UNL A   1      33.438  20.688  24.387  1.00  0.00    -0.038 A 
ATOM     26  C   UNL A   1      35.468  22.491  24.128  1.00  0.00     0.166 A 
ATOM     27  C   UNL A   1      34.280  20.952  25.450  1.00  0.00     0.054 A 
ATOM     28  C   UNL A   1      32.731  19.383  24.179  1.00  0.00     0.045 C 
ATOM     29  C   UNL A   1      35.352  21.759  25.265  1.00  0.00     0.166 A 
ATOM     30  O   UNL A   1      36.679  23.108  24.087  1.00  0.00    -0.454 OA
ATOM     31  O   UNL A   1      36.386  21.880  26.128  1.00  0.00    -0.454 OA
ATOM     32  C   UNL A   1      37.330  22.493  25.238  1.00  0.00     0.468 C 
ENDBRANCH  22  23
ENDBRANCH  11  22
ENDBRANCH   5   8
ENDBRANCH   3   4
ENDBRANCH   2   3
ENDBRANCH   1   2
BRANCH   1  33
ATOM     33  C   UNL A   1      32.554  31.345  26.465  1.00  0.00     0.116 C 
BRANCH  33  34
ATOM     34  N   UNL A   1      32.634  32.594  27.248  1.00  0.00    -0.352 N 
ATOM     35  C   UNL A   1      33.647  33.141  28.015  1.00  0.00     0.251 C 
ATOM     36  H   UNL A   1      31.813  33.137  27.219  1.00  0.00     0.163 HD
ATOM     37  O   UNL A   1      33.484  34.221  28.583  1.00  0.00    -0.269 OA
BRANCH  35  38
ATOM     38  C   UNL A   1      34.906  32.396  28.208  1.00  0.00     0.039 A 
ATOM     39  C   UNL A   1      36.128  33.072  28.276  1.00  0.00     0.014 A 
ATOM     40  C   UNL A   1      34.856  31.034  28.448  1.00  0.00     0.014 A 
ATOM     41  C   UNL A   1      37.258  32.402  28.760  1.00  0.00     0.010 A 
ATOM     42  C   UNL A   1      35.911  30.435  29.111  1.00  0.00     0.010 A 
ATOM     43  C   UNL A   1      37.136  31.100  29.272  1.00  0.00    -0.014 A 
BRANCH  43  44
ATOM     44  C   UNL A   1      38.240  30.383  29.972  1.00  0.00     0.031 A 
ATOM     45  C   UNL A   1      38.579  30.765  31.395  1.00  0.00     0.074 A 
ATOM     46  C   UNL A   1      39.045  29.536  29.295  1.00  0.00     0.049 A 
ATOM     47  N   UNL A   1      39.642  30.473  32.099  1.00  0.00    -0.248 NA
ATOM     48  C   UNL A   1      37.644  31.670  32.089  1.00  0.00     0.031 C 
ATOM     49  C   UNL A   1      38.918  29.174  27.879  1.00  0.00     0.029 A 
ATOM     50  N   UNL A   1      40.167  28.852  29.702  1.00  0.00    -0.354 N 
ATOM     51  C   UNL A   1      39.549  31.240  33.256  1.00  0.00     0.074 A 
ATOM     52  C   UNL A   1      38.357  32.047  33.138  1.00  0.00     0.031 C 
ATOM     53  C   UNL A   1      39.904  28.326  27.545  1.00  0.00     0.029 A 
ATOM     54  C   UNL A   1      40.762  28.111  28.703  1.00  0.00     0.049 A 
ATOM     55  H   UNL A   1      40.513  28.888  30.623  1.00  0.00     0.167 HD
ATOM     56  C   UNL A   1      40.352  31.239  34.345  1.00  0.00     0.034 A 
ATOM     57  C   UNL A   1      41.877  27.354  28.720  1.00  0.00     0.034 A 
ATOM     58  C   UNL A   1      41.432  30.311  34.526  1.00  0.00     0.049 A 
ATOM     59  C   UNL A   1      42.652  27.235  30.006  1.00  0.00     0.074 A 
ATOM     60  C   UNL A   1      42.186  30.083  35.661  1.00  0.00     0.029 A 
ATOM     61  N   UNL A   1      41.890  29.440  33.552  1.00  0.00    -0.354 N 
ATOM     62  N   UNL A   1      42.437  27.829  31.154  1.00  0.00    -0.248 NA
ATOM     63  C   UNL A   1      43.800  26.316  30.013  1.00  0.00     0.031 C 
ATOM     64  C   UNL A   1      43.110  29.075  35.370  1.00  0.00     0.029 A 
ATOM     65  C   UNL A   1      42.919  28.669  34.059  1.00  0.00     0.049 A 
ATOM     66  H   UNL A   1      41.537  29.379  32.635  1.00  0.00     0.167 HD
ATOM     67  C   UNL A   1      43.401  27.334  32.026  1.00  0.00     0.074 A 
ATOM     68  C   UNL A   1      44.181  26.369  31.282  1.00  0.00     0.031 C 
ATOM     69  C   UNL A   1      43.634  27.664  33.320  1.00  0.00     0.034 A 
BRANCH  56  70
ATOM     70  C   UNL A   1      40.040  32.198  35.463  1.00  0.00     0.023 A 
ATOM     71  C   UNL A   1      40.704  33.440  35.528  1.00  0.00     0.012 A 
ATOM     72  C   UNL A   1      39.043  31.897  36.412  1.00  0.00     0.148 A 
ATOM     73  C   UNL A   1      40.415  34.349  36.544  1.00  0.00     0.002 A 
ATOM     74  C   UNL A   1      38.723  32.831  37.391  1.00  0.00     0.091 A 
ATOM     75  F   UNL A   1      38.434  30.705  36.344  1.00  0.00    -0.205 F 
ATOM     76  C   UNL A   1      39.417  34.050  37.467  1.00  0.00     0.022 A 
BRANCH  74  77
ATOM     77  S   UNL A   1      37.394  32.584  38.574  1.00  0.00     0.127 S 
ATOM     78  O   UNL A   1      36.238  33.078  37.828  1.00  0.00    -0.237 OA
ATOM     79  O   UNL A   1      37.423  31.134  38.766  1.00  0.00    -0.237 OA
ATOM     80  O   UNL A   1      37.753  33.363  39.752  1.00  0.00    -0.744 OA
ENDBRANCH  74  77
ENDBRANCH  56  70
BRANCH  57  81
ATOM     81  C   UNL A   1      42.291  26.587  27.507  1.00  0.00     0.023 A 
ATOM     82  C   UNL A   1      42.976  27.254  26.471  1.00  0.00     0.012 A 
ATOM     83  C   UNL A   1      42.021  25.213  27.372  1.00  0.00     0.148 A 
ATOM     84  C   UNL A   1      43.343  26.579  25.305  1.00  0.00     0.002 A 
ATOM     85  C   UNL A   1      42.441  24.532  26.232  1.00  0.00     0.091 A 
ATOM     86  F   UNL A   1      41.358  24.593  28.358  1.00  0.00    -0.205 F 
ATOM     87  C   UNL A   1      43.083  25.216  25.189  1.00  0.00     0.022 A 
BRANCH  85  88
ATOM     88  S   UNL A   1      42.270  22.751  26.066  1.00  0.00     0.127 S 
ATOM     89  O   UNL A   1      42.908  22.507  24.775  1.00  0.00    -0.237 OA
ATOM     90  O   UNL A   1      43.018  22.261  27.224  1.00  0.00    -0.237 OA
ATOM     91  O   UNL A   1      40.837  22.494  26.130  1.00  0.00    -0.744 OA
ENDBRANCH  85  88
ENDBRANCH  57  81
BRANCH  69  92
ATOM     92  C   UNL A   1      44.752  26.955  34.033  1.00  0.00     0.023 A 
ATOM     93  C   UNL A   1      46.058  27.480  33.978  1.00  0.00     0.012 A 
ATOM     94  C   UNL A   1      44.487  25.831  34.840  1.00  0.00     0.148 A 
ATOM     95  C   UNL A   1      47.090  26.880  34.697  1.00  0.00     0.002 A 
ATOM     96  C   UNL A   1      45.510  25.270  35.593  1.00  0.00     0.091 A 
ATOM     97  F   UNL A   1      43.239  25.340  34.863  1.00  0.00    -0.205 F 
ATOM     98  C   UNL A   1      46.813  25.786  35.514  1.00  0.00     0.022 A 
BRANCH  96  99
ATOM     99  S   UNL A   1      45.222  23.928  36.751  1.00  0.00     0.127 S 
ATOM    100  O   UNL A   1      44.678  22.890  35.876  1.00  0.00    -0.237 OA
ATOM    101  O   UNL A   1      46.568  23.658  37.255  1.00  0.00    -0.237 OA
ATOM    102  O   UNL A   1      44.298  24.451  37.749  1.00  0.00    -0.744 OA
ENDBRANCH  96  99
ENDBRANCH  69  92
ENDBRANCH  43  44
ENDBRANCH  35  38
ENDBRANCH  33  34
ENDBRANCH   1  33
TORSDOF 18
ENDMDL
