MODEL 1
REMARK VINA RESULT:     -11.8      0.000      0.000
REMARK SMILES O=C(NCCCCNC(=O)[C@@H](NC(=O)c1ccncc1Cl)C1CC1)c1ccc(-c2c3nc(c(-c4cccc(S(=O)(=O)[O-])c4F)c4ccc([nH]4)c(-c4cccc(S(=O)(=O)[O-])c4F)c4nc(c(-c5cccc(S(=O)(=O)[O-])c5F)c5ccc2[nH]5)C=C4)C=C3)cc1
REMARK SMILES IDX 5 1 4 2 3 3 1 4 2 5 25 7 26 8 87 9 27 10 86 11 28 12 29 13
REMARK SMILES IDX 30 14 80 15 31 16 85 17 79 18 81 19 32 20 84 21 78 22 77 23
REMARK SMILES IDX 33 25 65 26 45 27 64 28 46 29 49 30 63 31 82 32 47 33 48 34
REMARK SMILES IDX 62 36 83 37 50 38 34 39 35 40 43 41 36 42 38 43 44 44 37 45
REMARK SMILES IDX 39 46 40 47 41 48 42 49 66 50 67 51 75 52 68 53 70 54 76 55
REMARK SMILES IDX 69 56 71 57 72 58 73 59 74 60 51 61 52 62 60 63 53 64 55 65
REMARK SMILES IDX 61 66 54 67 56 68 57 69 58 70 59 71 6 72 7 73 8 74 9 75
REMARK SMILES IDX 10 77 11 78 12 79 13 80 14 82 15 83 16 84 20 85 17 86 19 87
REMARK SMILES IDX 21 88 18 89 22 90 23 91 24 92
REMARK H PARENT 3 6 81 24 49 35 8 76 12 81
REMARK Flexibility Score: inf
ROOT
ATOM      1  C   UNL A   1      31.621  28.882  25.122  1.00  0.00     0.023 C 
ENDROOT
BRANCH   1   2
ATOM      2  C   UNL A   1      32.771  29.713  25.681  1.00  0.00     0.116 C 
BRANCH   2   3
ATOM      3  N   UNL A   1      32.353  31.024  26.155  1.00  0.00    -0.352 N 
ATOM      4  O   UNL A   1      32.443  32.865  27.462  1.00  0.00    -0.269 OA
ATOM      5  C   UNL A   1      32.979  31.830  27.078  1.00  0.00     0.251 C 
ATOM      6  H   UNL A   1      31.521  31.379  25.767  1.00  0.00     0.163 HD
BRANCH   5   7
ATOM      7  C   UNL A   1      34.284  31.401  27.620  1.00  0.00     0.039 A 
ATOM      8  C   UNL A   1      34.476  30.070  27.997  1.00  0.00     0.014 A 
ATOM      9  C   UNL A   1      35.285  32.352  27.822  1.00  0.00     0.014 A 
ATOM     10  C   UNL A   1      35.614  29.720  28.713  1.00  0.00     0.010 A 
ATOM     11  C   UNL A   1      36.463  31.978  28.473  1.00  0.00     0.010 A 
ATOM     12  C   UNL A   1      36.618  30.672  28.960  1.00  0.00    -0.014 A 
BRANCH  12  13
ATOM     13  C   UNL A   1      37.843  30.260  29.691  1.00  0.00     0.031 A 
ATOM     14  C   UNL A   1      38.098  30.706  31.102  1.00  0.00     0.074 A 
ATOM     15  C   UNL A   1      38.726  29.461  29.061  1.00  0.00     0.049 A 
ATOM     16  N   UNL A   1      39.096  30.401  31.891  1.00  0.00    -0.248 NA
ATOM     17  C   UNL A   1      37.115  31.618  31.709  1.00  0.00     0.031 C 
ATOM     18  C   UNL A   1      38.600  28.999  27.677  1.00  0.00     0.029 A 
ATOM     19  N   UNL A   1      39.894  28.893  29.497  1.00  0.00    -0.354 N 
ATOM     20  C   UNL A   1      38.890  31.113  33.066  1.00  0.00     0.074 A 
ATOM     21  C   UNL A   1      37.670  31.871  32.887  1.00  0.00     0.031 C 
ATOM     22  C   UNL A   1      39.629  28.190  27.388  1.00  0.00     0.029 A 
ATOM     23  C   UNL A   1      40.510  28.112  28.548  1.00  0.00     0.049 A 
ATOM     24  H   UNL A   1      40.256  29.029  30.402  1.00  0.00     0.167 HD
ATOM     25  C   UNL A   1      39.639  31.120  34.195  1.00  0.00     0.034 A 
ATOM     26  C   UNL A   1      41.659  27.413  28.602  1.00  0.00     0.034 A 
ATOM     27  C   UNL A   1      40.825  30.326  34.382  1.00  0.00     0.049 A 
ATOM     28  C   UNL A   1      42.447  27.408  29.879  1.00  0.00     0.074 A 
ATOM     29  C   UNL A   1      41.613  30.209  35.515  1.00  0.00     0.029 A 
ATOM     30  N   UNL A   1      41.396  29.514  33.414  1.00  0.00    -0.354 N 
ATOM     31  N   UNL A   1      42.165  27.986  31.021  1.00  0.00    -0.248 NA
ATOM     32  C   UNL A   1      43.696  26.635  29.884  1.00  0.00     0.031 C 
ATOM     33  C   UNL A   1      42.666  29.334  35.226  1.00  0.00     0.029 A 
ATOM     34  C   UNL A   1      42.529  28.898  33.917  1.00  0.00     0.049 A 
ATOM     35  H   UNL A   1      41.047  29.393  32.501  1.00  0.00     0.167 HD
ATOM     36  C   UNL A   1      43.189  27.630  31.889  1.00  0.00     0.074 A 
ATOM     37  C   UNL A   1      44.084  26.765  31.145  1.00  0.00     0.031 C 
ATOM     38  C   UNL A   1      43.382  28.001  33.180  1.00  0.00     0.034 A 
BRANCH  25  39
ATOM     39  C   UNL A   1      39.174  31.985  35.338  1.00  0.00     0.023 A 
ATOM     40  C   UNL A   1      39.394  33.376  35.289  1.00  0.00     0.012 A 
ATOM     41  C   UNL A   1      38.474  31.436  36.429  1.00  0.00     0.148 A 
ATOM     42  C   UNL A   1      38.949  34.203  36.321  1.00  0.00     0.002 A 
ATOM     43  C   UNL A   1      38.003  32.271  37.437  1.00  0.00     0.091 A 
ATOM     44  F   UNL A   1      38.297  30.107  36.476  1.00  0.00    -0.205 F 
ATOM     45  C   UNL A   1      38.246  33.653  37.388  1.00  0.00     0.022 A 
BRANCH  43  46
ATOM     46  S   UNL A   1      37.028  31.648  38.812  1.00  0.00     0.127 S 
ATOM     47  O   UNL A   1      35.861  32.527  38.771  1.00  0.00    -0.237 OA
ATOM     48  O   UNL A   1      36.761  30.265  38.411  1.00  0.00    -0.237 OA
ATOM     49  O   UNL A   1      37.882  31.776  39.985  1.00  0.00    -0.744 OA
ENDBRANCH  43  46
ENDBRANCH  25  39
BRANCH  26  50
ATOM     50  C   UNL A   1      42.074  26.603  27.424  1.00  0.00     0.023 A 
ATOM     51  C   UNL A   1      42.862  27.201  26.422  1.00  0.00     0.012 A 
ATOM     52  C   UNL A   1      41.768  25.231  27.333  1.00  0.00     0.148 A 
ATOM     53  C   UNL A   1      43.330  26.449  25.344  1.00  0.00     0.002 A 
ATOM     54  C   UNL A   1      42.286  24.476  26.287  1.00  0.00     0.091 A 
ATOM     55  F   UNL A   1      41.004  24.686  28.290  1.00  0.00    -0.205 F 
ATOM     56  C   UNL A   1      43.055  25.086  25.285  1.00  0.00     0.022 A 
BRANCH  54  57
ATOM     57  S   UNL A   1      42.108  22.689  26.218  1.00  0.00     0.127 S 
ATOM     58  O   UNL A   1      42.767  22.372  24.955  1.00  0.00    -0.237 OA
ATOM     59  O   UNL A   1      42.833  22.265  27.417  1.00  0.00    -0.237 OA
ATOM     60  O   UNL A   1      40.674  22.439  26.267  1.00  0.00    -0.744 OA
ENDBRANCH  54  57
ENDBRANCH  26  50
BRANCH  38  61
ATOM     61  C   UNL A   1      44.601  27.462  33.877  1.00  0.00     0.023 A 
ATOM     62  C   UNL A   1      45.806  28.190  33.828  1.00  0.00     0.012 A 
ATOM     63  C   UNL A   1      44.539  26.274  34.629  1.00  0.00     0.148 A 
ATOM     64  C   UNL A   1      46.939  27.729  34.496  1.00  0.00     0.002 A 
ATOM     65  C   UNL A   1      45.661  25.842  35.325  1.00  0.00     0.091 A 
ATOM     66  F   UNL A   1      43.390  25.581  34.641  1.00  0.00    -0.205 F 
ATOM     67  C   UNL A   1      46.864  26.563  35.253  1.00  0.00     0.022 A 
BRANCH  65  68
ATOM     68  S   UNL A   1      45.619  24.396  36.391  1.00  0.00     0.127 S 
ATOM     69  O   UNL A   1      44.627  24.788  37.388  1.00  0.00    -0.237 OA
ATOM     70  O   UNL A   1      45.181  23.340  35.476  1.00  0.00    -0.237 OA
ATOM     71  O   UNL A   1      46.981  24.232  36.884  1.00  0.00    -0.744 OA
ENDBRANCH  65  68
ENDBRANCH  38  61
ENDBRANCH  12  13
ENDBRANCH   5   7
ENDBRANCH   2   3
ENDBRANCH   1   2
BRANCH   1  72
ATOM     72  C   UNL A   1      31.315  29.117  23.645  1.00  0.00     0.023 C 
BRANCH  72  73
ATOM     73  C   UNL A   1      30.817  27.880  22.909  1.00  0.00     0.116 C 
BRANCH  73  74
ATOM     74  N   UNL A   1      31.759  27.420  21.912  1.00  0.00    -0.354 N 
ATOM     75  C   UNL A   1      32.672  26.403  22.001  1.00  0.00     0.242 C 
ATOM     76  H   UNL A   1      31.741  27.902  21.054  1.00  0.00     0.163 HD
ATOM     77  O   UNL A   1      33.340  26.128  21.001  1.00  0.00    -0.273 OA
BRANCH  75  78
ATOM     78  C   UNL A   1      32.827  25.597  23.318  1.00  0.00     0.174 C 
BRANCH  78  79
ATOM     79  N   UNL A   1      32.746  24.166  22.967  1.00  0.00    -0.340 N 
ATOM     80  C   UNL A   1      32.361  23.011  23.581  1.00  0.00     0.253 C 
ATOM     81  H   UNL A   1      33.049  24.002  22.045  1.00  0.00     0.164 HD
ATOM     82  O   UNL A   1      32.448  21.941  22.985  1.00  0.00    -0.269 OA
BRANCH  80  83
ATOM     83  C   UNL A   1      31.943  22.983  24.980  1.00  0.00     0.061 A 
ATOM     84  C   UNL A   1      30.733  23.612  25.297  1.00  0.00     0.035 A 
ATOM     85  C   UNL A   1      32.723  22.407  25.975  1.00  0.00     0.072 A 
ATOM     86  C   UNL A   1      30.305  23.567  26.609  1.00  0.00     0.112 A 
ATOM     87  C   UNL A   1      32.200  22.418  27.259  1.00  0.00     0.132 A 
ATOM     88  Cl  UNL A   1      34.268  21.713  25.685  1.00  0.00    -0.082 Cl
ATOM     89  N   UNL A   1      31.006  22.968  27.595  1.00  0.00    -0.263 NA
ENDBRANCH  80  83
ENDBRANCH  78  79
BRANCH  78  90
ATOM     90  C   UNL A   1      34.017  26.069  24.119  1.00  0.00     0.021 C 
ATOM     91  C   UNL A   1      33.934  26.124  25.631  1.00  0.00     0.006 C 
ATOM     92  C   UNL A   1      34.803  25.097  24.974  1.00  0.00     0.006 C 
ENDBRANCH  78  90
ENDBRANCH  75  78
ENDBRANCH  73  74
ENDBRANCH  72  73
ENDBRANCH   1  72
TORSDOF 17
ENDMDL
MODEL 2
REMARK VINA RESULT:     -11.5      2.550      8.523
REMARK SMILES O=C(NCCCCNC(=O)[C@@H](NC(=O)c1ccncc1Cl)C1CC1)c1ccc(-c2c3nc(c(-c4cccc(S(=O)(=O)[O-])c4F)c4ccc([nH]4)c(-c4cccc(S(=O)(=O)[O-])c4F)c4nc(c(-c5cccc(S(=O)(=O)[O-])c5F)c5ccc2[nH]5)C=C4)C=C3)cc1
REMARK SMILES IDX 5 1 4 2 3 3 1 4 2 5 25 7 26 8 87 9 27 10 86 11 28 12 29 13
REMARK SMILES IDX 30 14 80 15 31 16 85 17 79 18 81 19 32 20 84 21 78 22 77 23
REMARK SMILES IDX 33 25 65 26 45 27 64 28 46 29 49 30 63 31 82 32 47 33 48 34
REMARK SMILES IDX 62 36 83 37 50 38 34 39 35 40 43 41 36 42 38 43 44 44 37 45
REMARK SMILES IDX 39 46 40 47 41 48 42 49 66 50 67 51 75 52 68 53 70 54 76 55
REMARK SMILES IDX 69 56 71 57 72 58 73 59 74 60 51 61 52 62 60 63 53 64 55 65
REMARK SMILES IDX 61 66 54 67 56 68 57 69 58 70 59 71 6 72 7 73 8 74 9 75
REMARK SMILES IDX 10 77 11 78 12 79 13 80 14 82 15 83 16 84 20 85 17 86 19 87
REMARK SMILES IDX 21 88 18 89 22 90 23 91 24 92
REMARK H PARENT 3 6 81 24 49 35 8 76 12 81
REMARK Flexibility Score: inf
ROOT
ATOM      1  C   UNL A   1      31.827  32.207  26.635  1.00  0.00     0.023 C 
ENDROOT
BRANCH   1   2
ATOM      2  C   UNL A   1      32.874  32.870  27.521  1.00  0.00     0.116 C 
BRANCH   2   3
ATOM      3  N   UNL A   1      32.563  34.257  27.838  1.00  0.00    -0.352 N 
ATOM      4  O   UNL A   1      32.677  36.171  29.034  1.00  0.00    -0.269 OA
ATOM      5  C   UNL A   1      33.126  35.051  28.811  1.00  0.00     0.251 C 
ATOM      6  H   UNL A   1      31.864  34.679  27.289  1.00  0.00     0.163 HD
BRANCH   5   7
ATOM      7  C   UNL A   1      34.249  34.509  29.601  1.00  0.00     0.039 A 
ATOM      8  C   UNL A   1      35.553  34.597  29.107  1.00  0.00     0.014 A 
ATOM      9  C   UNL A   1      33.983  33.844  30.798  1.00  0.00     0.014 A 
ATOM     10  C   UNL A   1      36.571  33.891  29.735  1.00  0.00     0.010 A 
ATOM     11  C   UNL A   1      35.025  33.199  31.470  1.00  0.00     0.010 A 
ATOM     12  C   UNL A   1      36.317  33.183  30.922  1.00  0.00    -0.014 A 
BRANCH  12  13
ATOM     13  C   UNL A   1      37.432  32.472  31.596  1.00  0.00     0.031 A 
ATOM     14  C   UNL A   1      38.166  31.349  30.918  1.00  0.00     0.074 A 
ATOM     15  C   UNL A   1      37.785  32.864  32.835  1.00  0.00     0.049 A 
ATOM     16  N   UNL A   1      39.187  30.657  31.353  1.00  0.00    -0.248 NA
ATOM     17  C   UNL A   1      37.693  30.943  29.585  1.00  0.00     0.031 C 
ATOM     18  C   UNL A   1      37.117  33.915  33.604  1.00  0.00     0.029 A 
ATOM     19  N   UNL A   1      38.790  32.433  33.661  1.00  0.00    -0.354 N 
ATOM     20  C   UNL A   1      39.452  29.707  30.375  1.00  0.00     0.074 A 
ATOM     21  C   UNL A   1      38.480  29.909  29.320  1.00  0.00     0.031 C 
ATOM     22  C   UNL A   1      37.751  34.073  34.775  1.00  0.00     0.029 A 
ATOM     23  C   UNL A   1      38.839  33.106  34.859  1.00  0.00     0.049 A 
ATOM     24  H   UNL A   1      39.416  31.713  33.420  1.00  0.00     0.167 HD
ATOM     25  C   UNL A   1      40.425  28.765  30.350  1.00  0.00     0.034 A 
ATOM     26  C   UNL A   1      39.666  32.960  35.911  1.00  0.00     0.034 A 
ATOM     27  C   UNL A   1      41.417  28.601  31.380  1.00  0.00     0.049 A 
ATOM     28  C   UNL A   1      40.759  31.936  35.839  1.00  0.00     0.074 A 
ATOM     29  C   UNL A   1      42.488  27.724  31.414  1.00  0.00     0.029 A 
ATOM     30  N   UNL A   1      41.462  29.329  32.560  1.00  0.00    -0.354 N 
ATOM     31  N   UNL A   1      41.072  31.134  34.849  1.00  0.00    -0.248 NA
ATOM     32  C   UNL A   1      41.630  31.811  37.015  1.00  0.00     0.031 C 
ATOM     33  C   UNL A   1      43.173  27.916  32.619  1.00  0.00     0.029 A 
ATOM     34  C   UNL A   1      42.535  28.919  33.333  1.00  0.00     0.049 A 
ATOM     35  H   UNL A   1      40.823  30.036  32.812  1.00  0.00     0.167 HD
ATOM     36  C   UNL A   1      42.188  30.425  35.273  1.00  0.00     0.074 A 
ATOM     37  C   UNL A   1      42.511  30.912  36.600  1.00  0.00     0.031 C 
ATOM     38  C   UNL A   1      42.872  29.447  34.629  1.00  0.00     0.034 A 
BRANCH  25  39
ATOM     39  C   UNL A   1      40.494  27.860  29.147  1.00  0.00     0.023 A 
ATOM     40  C   UNL A   1      39.599  26.776  29.043  1.00  0.00     0.012 A 
ATOM     41  C   UNL A   1      41.399  28.110  28.098  1.00  0.00     0.148 A 
ATOM     42  C   UNL A   1      39.623  25.940  27.927  1.00  0.00     0.002 A 
ATOM     43  C   UNL A   1      41.392  27.292  26.972  1.00  0.00     0.091 A 
ATOM     44  F   UNL A   1      42.264  29.128  28.224  1.00  0.00    -0.205 F 
ATOM     45  C   UNL A   1      40.511  26.203  26.888  1.00  0.00     0.022 A 
BRANCH  43  46
ATOM     46  S   UNL A   1      42.459  27.607  25.561  1.00  0.00     0.127 S 
ATOM     47  O   UNL A   1      43.780  27.622  26.185  1.00  0.00    -0.237 OA
ATOM     48  O   UNL A   1      42.204  26.446  24.705  1.00  0.00    -0.237 OA
ATOM     49  O   UNL A   1      42.004  28.873  25.003  1.00  0.00    -0.744 OA
ENDBRANCH  43  46
ENDBRANCH  25  39
BRANCH  26  50
ATOM     50  C   UNL A   1      39.522  33.870  37.081  1.00  0.00     0.023 A 
ATOM     51  C   UNL A   1      39.889  35.223  36.947  1.00  0.00     0.012 A 
ATOM     52  C   UNL A   1      38.948  33.427  38.288  1.00  0.00     0.148 A 
ATOM     53  C   UNL A   1      39.696  36.117  38.000  1.00  0.00     0.002 A 
ATOM     54  C   UNL A   1      38.705  34.336  39.311  1.00  0.00     0.091 A 
ATOM     55  F   UNL A   1      38.621  32.132  38.398  1.00  0.00    -0.205 F 
ATOM     56  C   UNL A   1      39.091  35.678  39.175  1.00  0.00     0.022 A 
BRANCH  54  57
ATOM     57  S   UNL A   1      37.795  33.886  40.794  1.00  0.00     0.127 S 
ATOM     58  O   UNL A   1      38.738  32.998  41.466  1.00  0.00    -0.237 OA
ATOM     59  O   UNL A   1      37.603  35.187  41.439  1.00  0.00    -0.237 OA
ATOM     60  O   UNL A   1      36.563  33.267  40.321  1.00  0.00    -0.744 OA
ENDBRANCH  54  57
ENDBRANCH  26  50
BRANCH  38  61
ATOM     61  C   UNL A   1      44.050  28.844  35.346  1.00  0.00     0.023 A 
ATOM     62  C   UNL A   1      45.336  29.381  35.139  1.00  0.00     0.012 A 
ATOM     63  C   UNL A   1      43.877  27.795  36.268  1.00  0.00     0.148 A 
ATOM     64  C   UNL A   1      46.437  28.863  35.820  1.00  0.00     0.002 A 
ATOM     65  C   UNL A   1      44.972  27.311  36.972  1.00  0.00     0.091 A 
ATOM     66  F   UNL A   1      42.648  27.280  36.432  1.00  0.00    -0.205 F 
ATOM     67  C   UNL A   1      46.254  27.837  36.744  1.00  0.00     0.022 A 
BRANCH  65  68
ATOM     68  S   UNL A   1      44.804  26.050  38.241  1.00  0.00     0.127 S 
ATOM     69  O   UNL A   1      43.916  26.705  39.198  1.00  0.00    -0.237 OA
ATOM     70  O   UNL A   1      44.197  24.940  37.507  1.00  0.00    -0.237 OA
ATOM     71  O   UNL A   1      46.158  25.786  38.714  1.00  0.00    -0.744 OA
ENDBRANCH  65  68
ENDBRANCH  38  61
ENDBRANCH  12  13
ENDBRANCH   5   7
ENDBRANCH   2   3
ENDBRANCH   1   2
BRANCH   1  72
ATOM     72  C   UNL A   1      31.720  30.692  26.787  1.00  0.00     0.023 C 
BRANCH  72  73
ATOM     73  C   UNL A   1      33.059  29.989  26.967  1.00  0.00     0.116 C 
BRANCH  73  74
ATOM     74  N   UNL A   1      33.725  29.750  25.704  1.00  0.00    -0.354 N 
ATOM     75  C   UNL A   1      33.375  28.886  24.702  1.00  0.00     0.242 C 
ATOM     76  H   UNL A   1      34.537  30.282  25.543  1.00  0.00     0.163 HD
ATOM     77  O   UNL A   1      34.048  28.886  23.668  1.00  0.00    -0.273 OA
BRANCH  75  78
ATOM     78  C   UNL A   1      32.138  27.961  24.856  1.00  0.00     0.174 C 
BRANCH  78  79
ATOM     79  N   UNL A   1      31.914  27.308  23.551  1.00  0.00    -0.340 N 
ATOM     80  C   UNL A   1      31.037  27.430  22.515  1.00  0.00     0.253 C 
ATOM     81  H   UNL A   1      32.574  26.597  23.385  1.00  0.00     0.164 HD
ATOM     82  O   UNL A   1      31.121  26.677  21.549  1.00  0.00    -0.269 OA
BRANCH  80  83
ATOM     83  C   UNL A   1      29.917  28.367  22.558  1.00  0.00     0.061 A 
ATOM     84  C   UNL A   1      30.135  29.646  22.030  1.00  0.00     0.035 A 
ATOM     85  C   UNL A   1      28.699  28.039  23.139  1.00  0.00     0.072 A 
ATOM     86  C   UNL A   1      29.078  30.534  22.032  1.00  0.00     0.112 A 
ATOM     87  C   UNL A   1      27.706  29.005  23.088  1.00  0.00     0.132 A 
ATOM     88  Cl  UNL A   1      28.389  26.531  23.903  1.00  0.00    -0.082 Cl
ATOM     89  N   UNL A   1      27.862  30.235  22.536  1.00  0.00    -0.263 NA
ENDBRANCH  80  83
ENDBRANCH  78  79
BRANCH  78  90
ATOM     90  C   UNL A   1      32.250  27.086  26.082  1.00  0.00     0.021 C 
ATOM     91  C   UNL A   1      31.541  25.747  26.119  1.00  0.00     0.006 C 
ATOM     92  C   UNL A   1      33.035  25.793  26.035  1.00  0.00     0.006 C 
ENDBRANCH  78  90
ENDBRANCH  75  78
ENDBRANCH  73  74
ENDBRANCH  72  73
ENDBRANCH   1  72
TORSDOF 17
ENDMDL
MODEL 3
REMARK VINA RESULT:     -11.4      5.247     10.279
REMARK SMILES O=C(NCCCCNC(=O)[C@@H](NC(=O)c1ccncc1Cl)C1CC1)c1ccc(-c2c3nc(c(-c4cccc(S(=O)(=O)[O-])c4F)c4ccc([nH]4)c(-c4cccc(S(=O)(=O)[O-])c4F)c4nc(c(-c5cccc(S(=O)(=O)[O-])c5F)c5ccc2[nH]5)C=C4)C=C3)cc1
REMARK SMILES IDX 5 1 4 2 3 3 1 4 2 5 25 7 26 8 87 9 27 10 86 11 28 12 29 13
REMARK SMILES IDX 30 14 80 15 31 16 85 17 79 18 81 19 32 20 84 21 78 22 77 23
REMARK SMILES IDX 33 25 65 26 45 27 64 28 46 29 49 30 63 31 82 32 47 33 48 34
REMARK SMILES IDX 62 36 83 37 50 38 34 39 35 40 43 41 36 42 38 43 44 44 37 45
REMARK SMILES IDX 39 46 40 47 41 48 42 49 66 50 67 51 75 52 68 53 70 54 76 55
REMARK SMILES IDX 69 56 71 57 72 58 73 59 74 60 51 61 52 62 60 63 53 64 55 65
REMARK SMILES IDX 61 66 54 67 56 68 57 69 58 70 59 71 6 72 7 73 8 74 9 75
REMARK SMILES IDX 10 77 11 78 12 79 13 80 14 82 15 83 16 84 20 85 17 86 19 87
REMARK SMILES IDX 21 88 18 89 22 90 23 91 24 92
REMARK H PARENT 3 6 81 24 49 35 8 76 12 81
REMARK Flexibility Score: inf
ROOT
ATOM      1  C   UNL A   1      34.600  21.614  26.372  1.00  0.00     0.023 C 
ENDROOT
BRANCH   1   2
ATOM      2  C   UNL A   1      35.966  22.172  25.990  1.00  0.00     0.116 C 
BRANCH   2   3
ATOM      3  N   UNL A   1      36.943  21.137  25.683  1.00  0.00    -0.352 N 
ATOM      4  O   UNL A   1      39.013  20.289  25.368  1.00  0.00    -0.269 OA
ATOM      5  C   UNL A   1      38.314  21.212  25.773  1.00  0.00     0.251 C 
ATOM      6  H   UNL A   1      36.578  20.277  25.373  1.00  0.00     0.163 HD
BRANCH   5   7
ATOM      7  C   UNL A   1      38.918  22.440  26.328  1.00  0.00     0.039 A 
ATOM      8  C   UNL A   1      38.452  23.691  25.918  1.00  0.00     0.014 A 
ATOM      9  C   UNL A   1      40.003  22.333  27.198  1.00  0.00     0.014 A 
ATOM     10  C   UNL A   1      39.166  24.832  26.261  1.00  0.00     0.010 A 
ATOM     11  C   UNL A   1      40.672  23.490  27.606  1.00  0.00     0.010 A 
ATOM     12  C   UNL A   1      40.285  24.742  27.107  1.00  0.00    -0.014 A 
BRANCH  12  13
ATOM     13  C   UNL A   1      41.004  25.983  27.493  1.00  0.00     0.031 A 
ATOM     14  C   UNL A   1      42.411  26.244  27.035  1.00  0.00     0.074 A 
ATOM     15  C   UNL A   1      40.360  26.884  28.259  1.00  0.00     0.049 A 
ATOM     16  N   UNL A   1      43.160  27.295  27.249  1.00  0.00    -0.248 NA
ATOM     17  C   UNL A   1      43.069  25.194  26.242  1.00  0.00     0.031 C 
ATOM     18  C   UNL A   1      39.007  26.716  28.793  1.00  0.00     0.029 A 
ATOM     19  N   UNL A   1      40.748  28.116  28.716  1.00  0.00    -0.354 N 
ATOM     20  C   UNL A   1      44.388  27.018  26.662  1.00  0.00     0.074 A 
ATOM     21  C   UNL A   1      44.285  25.695  26.081  1.00  0.00     0.031 C 
ATOM     22  C   UNL A   1      38.664  27.818  29.475  1.00  0.00     0.029 A 
ATOM     23  C   UNL A   1      39.786  28.750  29.466  1.00  0.00     0.049 A 
ATOM     24  H   UNL A   1      41.630  28.509  28.525  1.00  0.00     0.167 HD
ATOM     25  C   UNL A   1      45.492  27.800  26.596  1.00  0.00     0.034 A 
ATOM     26  C   UNL A   1      39.804  29.947  30.081  1.00  0.00     0.034 A 
ATOM     27  C   UNL A   1      45.571  29.133  27.134  1.00  0.00     0.049 A 
ATOM     28  C   UNL A   1      41.026  30.808  29.958  1.00  0.00     0.074 A 
ATOM     29  C   UNL A   1      46.620  30.033  27.057  1.00  0.00     0.029 A 
ATOM     30  N   UNL A   1      44.561  29.758  27.851  1.00  0.00    -0.354 N 
ATOM     31  N   UNL A   1      42.129  30.580  29.288  1.00  0.00    -0.248 NA
ATOM     32  C   UNL A   1      40.998  32.101  30.654  1.00  0.00     0.031 C 
ATOM     33  C   UNL A   1      46.247  31.199  27.736  1.00  0.00     0.029 A 
ATOM     34  C   UNL A   1      44.962  31.029  28.228  1.00  0.00     0.049 A 
ATOM     35  H   UNL A   1      43.686  29.358  28.061  1.00  0.00     0.167 HD
ATOM     36  C   UNL A   1      42.920  31.708  29.461  1.00  0.00     0.074 A 
ATOM     37  C   UNL A   1      42.156  32.630  30.279  1.00  0.00     0.031 C 
ATOM     38  C   UNL A   1      44.172  31.953  29.000  1.00  0.00     0.034 A 
BRANCH  25  39
ATOM     39  C   UNL A   1      46.698  27.251  25.880  1.00  0.00     0.023 A 
ATOM     40  C   UNL A   1      47.502  26.284  26.516  1.00  0.00     0.012 A 
ATOM     41  C   UNL A   1      47.005  27.644  24.563  1.00  0.00     0.148 A 
ATOM     42  C   UNL A   1      48.608  25.739  25.864  1.00  0.00     0.002 A 
ATOM     43  C   UNL A   1      48.090  27.070  23.907  1.00  0.00     0.091 A 
ATOM     44  F   UNL A   1      46.249  28.586  23.981  1.00  0.00    -0.205 F 
ATOM     45  C   UNL A   1      48.896  26.123  24.558  1.00  0.00     0.022 A 
BRANCH  43  46
ATOM     46  S   UNL A   1      48.485  27.463  22.198  1.00  0.00     0.127 S 
ATOM     47  O   UNL A   1      49.722  28.225  22.348  1.00  0.00    -0.237 OA
ATOM     48  O   UNL A   1      48.656  26.137  21.600  1.00  0.00    -0.237 OA
ATOM     49  O   UNL A   1      47.337  28.203  21.693  1.00  0.00    -0.744 OA
ENDBRANCH  43  46
ENDBRANCH  25  39
BRANCH  26  50
ATOM     50  C   UNL A   1      38.586  30.415  30.797  1.00  0.00     0.023 A 
ATOM     51  C   UNL A   1      38.494  30.228  32.190  1.00  0.00     0.012 A 
ATOM     52  C   UNL A   1      37.565  31.115  30.126  1.00  0.00     0.148 A 
ATOM     53  C   UNL A   1      37.401  30.724  32.901  1.00  0.00     0.002 A 
ATOM     54  C   UNL A   1      36.508  31.656  30.850  1.00  0.00     0.091 A 
ATOM     55  F   UNL A   1      37.665  31.268  28.798  1.00  0.00    -0.205 F 
ATOM     56  C   UNL A   1      36.417  31.449  32.234  1.00  0.00     0.022 A 
BRANCH  54  57
ATOM     57  S   UNL A   1      35.282  32.730  30.094  1.00  0.00     0.127 S 
ATOM     58  O   UNL A   1      34.397  33.012  31.220  1.00  0.00    -0.237 OA
ATOM     59  O   UNL A   1      36.100  33.861  29.652  1.00  0.00    -0.237 OA
ATOM     60  O   UNL A   1      34.700  31.953  29.007  1.00  0.00    -0.744 OA
ENDBRANCH  54  57
ENDBRANCH  26  50
BRANCH  38  61
ATOM     61  C   UNL A   1      44.791  33.276  29.359  1.00  0.00     0.023 A 
ATOM     62  C   UNL A   1      45.587  33.377  30.516  1.00  0.00     0.012 A 
ATOM     63  C   UNL A   1      44.640  34.397  28.521  1.00  0.00     0.148 A 
ATOM     64  C   UNL A   1      46.201  34.584  30.850  1.00  0.00     0.002 A 
ATOM     65  C   UNL A   1      45.288  35.585  28.839  1.00  0.00     0.091 A 
ATOM     66  F   UNL A   1      43.856  34.287  27.437  1.00  0.00    -0.205 F 
ATOM     67  C   UNL A   1      46.062  35.683  30.006  1.00  0.00     0.022 A 
BRANCH  65  68
ATOM     68  S   UNL A   1      45.226  37.018  27.758  1.00  0.00     0.127 S 
ATOM     69  O   UNL A   1      46.116  37.950  28.446  1.00  0.00    -0.237 OA
ATOM     70  O   UNL A   1      45.752  36.489  26.499  1.00  0.00    -0.237 OA
ATOM     71  O   UNL A   1      43.823  37.408  27.703  1.00  0.00    -0.744 OA
ENDBRANCH  65  68
ENDBRANCH  38  61
ENDBRANCH  12  13
ENDBRANCH   5   7
ENDBRANCH   2   3
ENDBRANCH   1   2
BRANCH   1  72
ATOM     72  C   UNL A   1      33.856  20.904  25.244  1.00  0.00     0.023 C 
BRANCH  72  73
ATOM     73  C   UNL A   1      32.491  21.502  24.927  1.00  0.00     0.116 C 
BRANCH  73  74
ATOM     74  N   UNL A   1      31.722  21.773  26.123  1.00  0.00    -0.354 N 
ATOM     75  C   UNL A   1      31.161  22.953  26.532  1.00  0.00     0.242 C 
ATOM     76  H   UNL A   1      31.582  21.005  26.723  1.00  0.00     0.163 HD
ATOM     77  O   UNL A   1      30.481  22.952  27.561  1.00  0.00    -0.273 OA
BRANCH  75  78
ATOM     78  C   UNL A   1      31.349  24.246  25.693  1.00  0.00     0.174 C 
BRANCH  78  79
ATOM     79  N   UNL A   1      32.788  24.572  25.708  1.00  0.00    -0.340 N 
ATOM     80  C   UNL A   1      33.552  25.700  25.748  1.00  0.00     0.253 C 
ATOM     81  H   UNL A   1      33.343  23.759  25.683  1.00  0.00     0.164 HD
ATOM     82  O   UNL A   1      34.777  25.612  25.721  1.00  0.00    -0.269 OA
BRANCH  80  83
ATOM     83  C   UNL A   1      32.960  27.035  25.715  1.00  0.00     0.061 A 
ATOM     84  C   UNL A   1      32.317  27.477  26.877  1.00  0.00     0.035 A 
ATOM     85  C   UNL A   1      32.980  27.826  24.573  1.00  0.00     0.072 A 
ATOM     86  C   UNL A   1      31.780  28.749  26.875  1.00  0.00     0.112 A 
ATOM     87  C   UNL A   1      32.412  29.085  24.679  1.00  0.00     0.132 A 
ATOM     88  Cl  UNL A   1      33.654  27.313  23.077  1.00  0.00    -0.082 Cl
ATOM     89  N   UNL A   1      31.828  29.570  25.804  1.00  0.00    -0.263 NA
ENDBRANCH  80  83
ENDBRANCH  78  79
BRANCH  78  90
ATOM     90  C   UNL A   1      30.653  24.145  24.357  1.00  0.00     0.021 C 
ATOM     91  C   UNL A   1      30.230  25.405  23.631  1.00  0.00     0.006 C 
ATOM     92  C   UNL A   1      31.356  24.581  23.089  1.00  0.00     0.006 C 
ENDBRANCH  78  90
ENDBRANCH  75  78
ENDBRANCH  73  74
ENDBRANCH  72  73
ENDBRANCH   1  72
TORSDOF 17
ENDMDL
