MODEL 1
REMARK VINA RESULT:     -10.9      0.000      0.000
REMARK SMILES O=C(CNC(=O)CNC(=O)OCc1ccccc1)NCCCCNC(=O)c1ccc(-c2c3nc(c(-c4cccc(S(=O)(=O)[O-])c4F)c4ccc([nH]4)c(-c4cccc(S(=O)(=O)[O-])c4F)c4nc(c(-c5cccc(S(=O)(=O)[O-])c5F)c5ccc2[nH]5)C=C4)C=C3)cc1
REMARK SMILES IDX 20 1 19 2 1 3 2 4 3 6 4 7 5 8 6 10 7 11 8 12 9 13 10 15
REMARK SMILES IDX 11 16 12 17 13 18 14 19 18 20 15 21 17 22 16 23 21 24 22 25
REMARK SMILES IDX 23 26 24 27 25 28 26 30 27 31 28 32 89 33 29 34 88 35 30 36
REMARK SMILES IDX 31 37 32 38 82 39 33 40 87 41 81 42 83 43 34 44 86 45 80 46
REMARK SMILES IDX 79 47 35 49 67 50 47 51 66 52 48 53 51 54 65 55 84 56 49 57
REMARK SMILES IDX 50 58 64 60 85 61 52 62 36 63 37 64 45 65 38 66 40 67 46 68
REMARK SMILES IDX 39 69 41 70 42 71 43 72 44 73 68 74 69 75 77 76 70 77 72 78
REMARK SMILES IDX 78 79 71 80 73 81 74 82 75 83 76 84 53 85 54 86 62 87 55 88
REMARK SMILES IDX 57 89 63 90 56 91 58 92 59 93 60 94 61 95
REMARK H PARENT 19 5 4 9 8 14 24 29 83 48 51 59
REMARK Flexibility Score: inf
ROOT
ATOM      1  C   UNL A   1      36.510  21.907  24.248  1.00  0.00     0.116 C 
ENDROOT
BRANCH   1   2
ATOM      2  N   UNL A   1      35.518  21.411  25.183  1.00  0.00    -0.355 N 
ATOM      3  O   UNL A   1      35.682  23.152  26.671  1.00  0.00    -0.273 OA
ATOM      4  C   UNL A   1      35.134  22.115  26.304  1.00  0.00     0.239 C 
ATOM      5  H   UNL A   1      35.102  20.535  25.011  1.00  0.00     0.163 HD
BRANCH   4   6
ATOM      6  C   UNL A   1      34.046  21.446  27.158  1.00  0.00     0.216 C 
BRANCH   6   7
ATOM      7  N   UNL A   1      33.332  20.376  26.476  1.00  0.00    -0.346 N 
ATOM      8  C   UNL A   1      32.346  20.435  25.535  1.00  0.00     0.239 C 
ATOM      9  H   UNL A   1      33.603  19.465  26.735  1.00  0.00     0.164 HD
ATOM     10  O   UNL A   1      32.054  19.391  24.949  1.00  0.00    -0.273 OA
BRANCH   8  11
ATOM     11  C   UNL A   1      31.675  21.762  25.182  1.00  0.00     0.219 C 
BRANCH  11  12
ATOM     12  N   UNL A   1      30.601  22.039  26.118  1.00  0.00    -0.312 N 
ATOM     13  C   UNL A   1      30.339  23.226  26.723  1.00  0.00     0.407 C 
ATOM     14  H   UNL A   1      30.001  21.288  26.337  1.00  0.00     0.167 HD
ATOM     15  O   UNL A   1      29.526  23.313  27.633  1.00  0.00    -0.225 OA
BRANCH  13  16
ATOM     16  O   UNL A   1      31.086  24.245  26.234  1.00  0.00    -0.445 OA
BRANCH  16  17
ATOM     17  C   UNL A   1      30.348  25.243  25.515  1.00  0.00     0.270 C 
BRANCH  17  18
ATOM     18  C   UNL A   1      30.916  26.638  25.636  1.00  0.00    -0.011 A 
ATOM     19  C   UNL A   1      30.948  27.526  24.552  1.00  0.00     0.007 A 
ATOM     20  C   UNL A   1      31.422  27.063  26.874  1.00  0.00     0.007 A 
ATOM     21  C   UNL A   1      31.422  28.829  24.716  1.00  0.00     0.000 A 
ATOM     22  C   UNL A   1      31.909  28.362  27.033  1.00  0.00     0.000 A 
ATOM     23  C   UNL A   1      31.898  29.246  25.956  1.00  0.00     0.000 A 
ENDBRANCH  17  18
ENDBRANCH  16  17
ENDBRANCH  13  16
ENDBRANCH  11  12
ENDBRANCH   8  11
ENDBRANCH   6   7
ENDBRANCH   4   6
ENDBRANCH   1   2
BRANCH   1  24
ATOM     24  C   UNL A   1      37.943  21.515  24.606  1.00  0.00     0.023 C 
BRANCH  24  25
ATOM     25  C   UNL A   1      38.183  20.020  24.828  1.00  0.00     0.023 C 
BRANCH  25  26
ATOM     26  C   UNL A   1      38.831  19.626  26.148  1.00  0.00     0.116 C 
BRANCH  26  27
ATOM     27  N   UNL A   1      40.076  18.893  25.987  1.00  0.00    -0.352 N 
ATOM     28  C   UNL A   1      41.371  19.357  26.024  1.00  0.00     0.251 C 
ATOM     29  H   UNL A   1      39.979  17.926  25.830  1.00  0.00     0.163 HD
ATOM     30  O   UNL A   1      42.297  18.597  25.753  1.00  0.00    -0.269 OA
BRANCH  28  31
ATOM     31  C   UNL A   1      41.652  20.774  26.358  1.00  0.00     0.039 A 
ATOM     32  C   UNL A   1      42.124  21.083  27.637  1.00  0.00     0.014 A 
ATOM     33  C   UNL A   1      41.460  21.797  25.424  1.00  0.00     0.014 A 
ATOM     34  C   UNL A   1      42.469  22.401  27.955  1.00  0.00     0.010 A 
ATOM     35  C   UNL A   1      41.882  23.094  25.715  1.00  0.00     0.010 A 
ATOM     36  C   UNL A   1      42.390  23.412  26.984  1.00  0.00    -0.014 A 
BRANCH  36  37
ATOM     37  C   UNL A   1      42.853  24.798  27.272  1.00  0.00     0.031 A 
ATOM     38  C   UNL A   1      41.934  25.789  27.938  1.00  0.00     0.074 A 
ATOM     39  C   UNL A   1      44.074  25.193  26.861  1.00  0.00     0.049 A 
ATOM     40  N   UNL A   1      42.144  27.050  28.216  1.00  0.00    -0.248 NA
ATOM     41  C   UNL A   1      40.598  25.307  28.322  1.00  0.00     0.031 C 
ATOM     42  C   UNL A   1      45.035  24.357  26.135  1.00  0.00     0.029 A 
ATOM     43  N   UNL A   1      44.709  26.408  26.966  1.00  0.00    -0.354 N 
ATOM     44  C   UNL A   1      40.961  27.520  28.774  1.00  0.00     0.074 A 
ATOM     45  C   UNL A   1      40.024  26.418  28.763  1.00  0.00     0.031 C 
ATOM     46  C   UNL A   1      46.133  25.080  25.865  1.00  0.00     0.029 A 
ATOM     47  C   UNL A   1      45.945  26.439  26.361  1.00  0.00     0.049 A 
ATOM     48  H   UNL A   1      44.317  27.181  27.432  1.00  0.00     0.167 HD
ATOM     49  C   UNL A   1      40.684  28.748  29.278  1.00  0.00     0.034 A 
ATOM     50  C   UNL A   1      46.823  27.450  26.207  1.00  0.00     0.034 A 
ATOM     51  C   UNL A   1      41.625  29.836  29.315  1.00  0.00     0.049 A 
ATOM     52  C   UNL A   1      46.501  28.798  26.794  1.00  0.00     0.074 A 
ATOM     53  C   UNL A   1      41.464  31.092  29.875  1.00  0.00     0.029 A 
ATOM     54  N   UNL A   1      42.895  29.806  28.762  1.00  0.00    -0.354 N 
ATOM     55  N   UNL A   1      45.434  29.178  27.452  1.00  0.00    -0.248 NA
ATOM     56  C   UNL A   1      47.521  29.848  26.649  1.00  0.00     0.031 C 
ATOM     57  C   UNL A   1      42.625  31.833  29.628  1.00  0.00     0.029 A 
ATOM     58  C   UNL A   1      43.524  31.025  28.953  1.00  0.00     0.049 A 
ATOM     59  H   UNL A   1      43.292  29.033  28.300  1.00  0.00     0.167 HD
ATOM     60  C   UNL A   1      45.667  30.496  27.832  1.00  0.00     0.074 A 
ATOM     61  C   UNL A   1      46.989  30.841  27.348  1.00  0.00     0.031 C 
ATOM     62  C   UNL A   1      44.857  31.346  28.510  1.00  0.00     0.034 A 
BRANCH  49  63
ATOM     63  C   UNL A   1      39.316  28.970  29.872  1.00  0.00     0.023 A 
ATOM     64  C   UNL A   1      39.031  28.486  31.166  1.00  0.00     0.012 A 
ATOM     65  C   UNL A   1      38.335  29.707  29.180  1.00  0.00     0.148 A 
ATOM     66  C   UNL A   1      37.780  28.697  31.745  1.00  0.00     0.002 A 
ATOM     67  C   UNL A   1      37.107  29.956  29.783  1.00  0.00     0.091 A 
ATOM     68  F   UNL A   1      38.618  30.146  27.945  1.00  0.00    -0.205 F 
ATOM     69  C   UNL A   1      36.823  29.440  31.059  1.00  0.00     0.022 A 
BRANCH  67  70
ATOM     70  S   UNL A   1      35.838  30.971  29.021  1.00  0.00     0.127 S 
ATOM     71  O   UNL A   1      36.641  31.970  28.318  1.00  0.00    -0.237 OA
ATOM     72  O   UNL A   1      35.159  30.011  28.150  1.00  0.00    -0.237 OA
ATOM     73  O   UNL A   1      35.022  31.484  30.113  1.00  0.00    -0.744 OA
ENDBRANCH  67  70
ENDBRANCH  49  63
BRANCH  50  74
ATOM     74  C   UNL A   1      48.115  27.215  25.499  1.00  0.00     0.023 A 
ATOM     75  C   UNL A   1      49.233  26.758  26.224  1.00  0.00     0.012 A 
ATOM     76  C   UNL A   1      48.235  27.425  24.112  1.00  0.00     0.148 A 
ATOM     77  C   UNL A   1      50.456  26.551  25.587  1.00  0.00     0.002 A 
ATOM     78  C   UNL A   1      49.440  27.160  23.473  1.00  0.00     0.091 A 
ATOM     79  F   UNL A   1      47.162  27.868  23.442  1.00  0.00    -0.205 F 
ATOM     80  C   UNL A   1      50.558  26.741  24.211  1.00  0.00     0.022 A 
BRANCH  78  81
ATOM     81  S   UNL A   1      49.628  27.258  21.689  1.00  0.00     0.127 S 
ATOM     82  O   UNL A   1      51.032  26.893  21.515  1.00  0.00    -0.237 OA
ATOM     83  O   UNL A   1      48.669  26.251  21.231  1.00  0.00    -0.237 OA
ATOM     84  O   UNL A   1      49.282  28.626  21.328  1.00  0.00    -0.744 OA
ENDBRANCH  78  81
ENDBRANCH  50  74
BRANCH  62  85
ATOM     85  C   UNL A   1      45.385  32.725  28.815  1.00  0.00     0.023 A 
ATOM     86  C   UNL A   1      46.222  32.932  29.929  1.00  0.00     0.012 A 
ATOM     87  C   UNL A   1      45.106  33.802  27.950  1.00  0.00     0.148 A 
ATOM     88  C   UNL A   1      46.743  34.197  30.198  1.00  0.00     0.002 A 
ATOM     89  C   UNL A   1      45.672  35.048  28.196  1.00  0.00     0.091 A 
ATOM     90  F   UNL A   1      44.295  33.590  26.904  1.00  0.00    -0.205 F 
ATOM     91  C   UNL A   1      46.478  35.251  29.327  1.00  0.00     0.022 A 
BRANCH  89  92
ATOM     92  S   UNL A   1      45.469  36.437  27.075  1.00  0.00     0.127 S 
ATOM     93  O   UNL A   1      44.024  36.425  26.845  1.00  0.00    -0.237 OA
ATOM     94  O   UNL A   1      45.948  37.558  27.883  1.00  0.00    -0.237 OA
ATOM     95  O   UNL A   1      46.288  36.138  25.908  1.00  0.00    -0.744 OA
ENDBRANCH  89  92
ENDBRANCH  62  85
ENDBRANCH  36  37
ENDBRANCH  28  31
ENDBRANCH  26  27
ENDBRANCH  25  26
ENDBRANCH  24  25
ENDBRANCH   1  24
TORSDOF 20
ENDMDL
MODEL 2
REMARK VINA RESULT:     -10.8      1.850      2.618
REMARK SMILES O=C(CNC(=O)CNC(=O)OCc1ccccc1)NCCCCNC(=O)c1ccc(-c2c3nc(c(-c4cccc(S(=O)(=O)[O-])c4F)c4ccc([nH]4)c(-c4cccc(S(=O)(=O)[O-])c4F)c4nc(c(-c5cccc(S(=O)(=O)[O-])c5F)c5ccc2[nH]5)C=C4)C=C3)cc1
REMARK SMILES IDX 20 1 19 2 1 3 2 4 3 6 4 7 5 8 6 10 7 11 8 12 9 13 10 15
REMARK SMILES IDX 11 16 12 17 13 18 14 19 18 20 15 21 17 22 16 23 21 24 22 25
REMARK SMILES IDX 23 26 24 27 25 28 26 30 27 31 28 32 89 33 29 34 88 35 30 36
REMARK SMILES IDX 31 37 32 38 82 39 33 40 87 41 81 42 83 43 34 44 86 45 80 46
REMARK SMILES IDX 79 47 35 49 67 50 47 51 66 52 48 53 51 54 65 55 84 56 49 57
REMARK SMILES IDX 50 58 64 60 85 61 52 62 36 63 37 64 45 65 38 66 40 67 46 68
REMARK SMILES IDX 39 69 41 70 42 71 43 72 44 73 68 74 69 75 77 76 70 77 72 78
REMARK SMILES IDX 78 79 71 80 73 81 74 82 75 83 76 84 53 85 54 86 62 87 55 88
REMARK SMILES IDX 57 89 63 90 56 91 58 92 59 93 60 94 61 95
REMARK H PARENT 19 5 4 9 8 14 24 29 83 48 51 59
REMARK Flexibility Score: inf
ROOT
ATOM      1  C   UNL A   1      35.328  20.209  25.258  1.00  0.00     0.116 C 
ENDROOT
BRANCH   1   2
ATOM      2  N   UNL A   1      34.131  20.998  25.041  1.00  0.00    -0.355 N 
ATOM      3  O   UNL A   1      32.639  19.276  25.329  1.00  0.00    -0.273 OA
ATOM      4  C   UNL A   1      32.862  20.472  25.158  1.00  0.00     0.239 C 
ATOM      5  H   UNL A   1      34.227  21.947  24.801  1.00  0.00     0.163 HD
BRANCH   4   6
ATOM      6  C   UNL A   1      31.715  21.467  24.925  1.00  0.00     0.216 C 
BRANCH   6   7
ATOM      7  N   UNL A   1      31.102  21.962  26.151  1.00  0.00    -0.346 N 
ATOM      8  C   UNL A   1      30.666  23.212  26.474  1.00  0.00     0.239 C 
ATOM      9  H   UNL A   1      30.985  21.285  26.858  1.00  0.00     0.164 HD
ATOM     10  O   UNL A   1      29.982  23.332  27.493  1.00  0.00    -0.273 OA
BRANCH   8  11
ATOM     11  C   UNL A   1      30.965  24.407  25.570  1.00  0.00     0.219 C 
BRANCH  11  12
ATOM     12  N   UNL A   1      31.174  25.597  26.374  1.00  0.00    -0.312 N 
ATOM     13  C   UNL A   1      31.011  26.885  25.975  1.00  0.00     0.407 C 
ATOM     14  H   UNL A   1      31.464  25.456  27.305  1.00  0.00     0.167 HD
ATOM     15  O   UNL A   1      31.386  27.820  26.667  1.00  0.00    -0.225 OA
BRANCH  13  16
ATOM     16  O   UNL A   1      30.437  26.990  24.752  1.00  0.00    -0.445 OA
BRANCH  16  17
ATOM     17  C   UNL A   1      30.889  28.101  23.966  1.00  0.00     0.270 C 
BRANCH  17  18
ATOM     18  C   UNL A   1      29.804  29.093  23.616  1.00  0.00    -0.011 A 
ATOM     19  C   UNL A   1      28.625  28.707  22.962  1.00  0.00     0.007 A 
ATOM     20  C   UNL A   1      29.975  30.442  23.961  1.00  0.00     0.007 A 
ATOM     21  C   UNL A   1      27.616  29.639  22.712  1.00  0.00     0.000 A 
ATOM     22  C   UNL A   1      28.971  31.375  23.696  1.00  0.00     0.000 A 
ATOM     23  C   UNL A   1      27.788  30.970  23.081  1.00  0.00     0.000 A 
ENDBRANCH  17  18
ENDBRANCH  16  17
ENDBRANCH  13  16
ENDBRANCH  11  12
ENDBRANCH   8  11
ENDBRANCH   6   7
ENDBRANCH   4   6
ENDBRANCH   1   2
BRANCH   1  24
ATOM     24  C   UNL A   1      36.621  21.019  25.176  1.00  0.00     0.023 C 
BRANCH  24  25
ATOM     25  C   UNL A   1      37.891  20.210  24.902  1.00  0.00     0.023 C 
BRANCH  25  26
ATOM     26  C   UNL A   1      39.093  20.514  25.786  1.00  0.00     0.116 C 
BRANCH  26  27
ATOM     27  N   UNL A   1      40.037  19.413  25.882  1.00  0.00    -0.352 N 
ATOM     28  C   UNL A   1      41.392  19.447  26.123  1.00  0.00     0.251 C 
ATOM     29  H   UNL A   1      39.653  18.516  25.758  1.00  0.00     0.163 HD
ATOM     30  O   UNL A   1      42.047  18.410  26.055  1.00  0.00    -0.269 OA
BRANCH  28  31
ATOM     31  C   UNL A   1      42.069  20.730  26.430  1.00  0.00     0.039 A 
ATOM     32  C   UNL A   1      42.448  21.560  25.371  1.00  0.00     0.014 A 
ATOM     33  C   UNL A   1      42.330  21.122  27.746  1.00  0.00     0.014 A 
ATOM     34  C   UNL A   1      43.020  22.809  25.633  1.00  0.00     0.010 A 
ATOM     35  C   UNL A   1      42.823  22.400  28.007  1.00  0.00     0.010 A 
ATOM     36  C   UNL A   1      43.175  23.259  26.954  1.00  0.00    -0.014 A 
BRANCH  36  37
ATOM     37  C   UNL A   1      43.683  24.627  27.251  1.00  0.00     0.031 A 
ATOM     38  C   UNL A   1      42.746  25.703  27.735  1.00  0.00     0.074 A 
ATOM     39  C   UNL A   1      44.974  24.928  27.007  1.00  0.00     0.049 A 
ATOM     40  N   UNL A   1      42.997  26.962  27.988  1.00  0.00    -0.248 NA
ATOM     41  C   UNL A   1      41.340  25.322  27.938  1.00  0.00     0.031 C 
ATOM     42  C   UNL A   1      45.971  24.000  26.465  1.00  0.00     0.029 A 
ATOM     43  N   UNL A   1      45.667  26.106  27.156  1.00  0.00    -0.354 N 
ATOM     44  C   UNL A   1      41.780  27.529  28.348  1.00  0.00     0.074 A 
ATOM     45  C   UNL A   1      40.783  26.486  28.244  1.00  0.00     0.031 C 
ATOM     46  C   UNL A   1      47.143  24.642  26.330  1.00  0.00     0.029 A 
ATOM     47  C   UNL A   1      46.976  26.033  26.737  1.00  0.00     0.049 A 
ATOM     48  H   UNL A   1      45.264  26.923  27.527  1.00  0.00     0.167 HD
ATOM     49  C   UNL A   1      41.516  28.794  28.755  1.00  0.00     0.034 A 
ATOM     50  C   UNL A   1      47.932  26.981  26.672  1.00  0.00     0.034 A 
ATOM     51  C   UNL A   1      42.512  29.825  28.886  1.00  0.00     0.049 A 
ATOM     52  C   UNL A   1      47.620  28.373  27.150  1.00  0.00     0.074 A 
ATOM     53  C   UNL A   1      42.356  31.114  29.364  1.00  0.00     0.029 A 
ATOM     54  N   UNL A   1      43.843  29.692  28.526  1.00  0.00    -0.354 N 
ATOM     55  N   UNL A   1      46.496  28.849  27.629  1.00  0.00    -0.248 NA
ATOM     56  C   UNL A   1      48.717  29.352  27.114  1.00  0.00     0.031 C 
ATOM     57  C   UNL A   1      43.586  31.772  29.260  1.00  0.00     0.029 A 
ATOM     58  C   UNL A   1      44.518  30.879  28.758  1.00  0.00     0.049 A 
ATOM     59  H   UNL A   1      44.250  28.874  28.159  1.00  0.00     0.167 HD
ATOM     60  C   UNL A   1      46.760  30.167  27.985  1.00  0.00     0.074 A 
ATOM     61  C   UNL A   1      48.157  30.408  27.686  1.00  0.00     0.031 C 
ATOM     62  C   UNL A   1      45.919  31.097  28.502  1.00  0.00     0.034 A 
BRANCH  49  63
ATOM     63  C   UNL A   1      40.094  29.128  29.133  1.00  0.00     0.023 A 
ATOM     64  C   UNL A   1      39.155  29.427  28.123  1.00  0.00     0.012 A 
ATOM     65  C   UNL A   1      39.672  29.088  30.477  1.00  0.00     0.148 A 
ATOM     66  C   UNL A   1      37.831  29.718  28.447  1.00  0.00     0.002 A 
ATOM     67  C   UNL A   1      38.339  29.330  30.787  1.00  0.00     0.091 A 
ATOM     68  F   UNL A   1      40.581  28.817  31.425  1.00  0.00    -0.205 F 
ATOM     69  C   UNL A   1      37.421  29.660  29.776  1.00  0.00     0.022 A 
BRANCH  67  70
ATOM     70  S   UNL A   1      37.690  29.199  32.457  1.00  0.00     0.127 S 
ATOM     71  O   UNL A   1      38.547  30.136  33.181  1.00  0.00    -0.237 OA
ATOM     72  O   UNL A   1      36.308  29.645  32.284  1.00  0.00    -0.237 OA
ATOM     73  O   UNL A   1      37.835  27.801  32.836  1.00  0.00    -0.744 OA
ENDBRANCH  67  70
ENDBRANCH  49  63
BRANCH  50  74
ATOM     74  C   UNL A   1      49.294  26.634  26.171  1.00  0.00     0.023 A 
ATOM     75  C   UNL A   1      50.132  25.809  26.947  1.00  0.00     0.012 A 
ATOM     76  C   UNL A   1      49.754  27.102  24.926  1.00  0.00     0.148 A 
ATOM     77  C   UNL A   1      51.416  25.488  26.508  1.00  0.00     0.002 A 
ATOM     78  C   UNL A   1      51.012  26.731  24.468  1.00  0.00     0.091 A 
ATOM     79  F   UNL A   1      48.945  27.894  24.208  1.00  0.00    -0.205 F 
ATOM     80  C   UNL A   1      51.853  25.940  25.265  1.00  0.00     0.022 A 
BRANCH  78  81
ATOM     81  S   UNL A   1      51.608  27.163  22.828  1.00  0.00     0.127 S 
ATOM     82  O   UNL A   1      50.458  26.823  21.993  1.00  0.00    -0.237 OA
ATOM     83  O   UNL A   1      51.864  28.597  22.971  1.00  0.00    -0.237 OA
ATOM     84  O   UNL A   1      52.802  26.357  22.615  1.00  0.00    -0.744 OA
ENDBRANCH  78  81
ENDBRANCH  50  74
BRANCH  62  85
ATOM     85  C   UNL A   1      46.488  32.455  28.825  1.00  0.00     0.023 A 
ATOM     86  C   UNL A   1      47.139  32.676  30.054  1.00  0.00     0.012 A 
ATOM     87  C   UNL A   1      46.438  33.493  27.873  1.00  0.00     0.148 A 
ATOM     88  C   UNL A   1      47.699  33.920  30.346  1.00  0.00     0.002 A 
ATOM     89  C   UNL A   1      47.044  34.713  28.151  1.00  0.00     0.091 A 
ATOM     90  F   UNL A   1      45.800  33.270  26.716  1.00  0.00    -0.205 F 
ATOM     91  C   UNL A   1      47.661  34.933  29.392  1.00  0.00     0.022 A 
BRANCH  89  92
ATOM     92  S   UNL A   1      47.134  36.042  26.945  1.00  0.00     0.127 S 
ATOM     93  O   UNL A   1      48.017  36.994  27.617  1.00  0.00    -0.237 OA
ATOM     94  O   UNL A   1      47.727  35.370  25.789  1.00  0.00    -0.237 OA
ATOM     95  O   UNL A   1      45.765  36.498  26.743  1.00  0.00    -0.744 OA
ENDBRANCH  89  92
ENDBRANCH  62  85
ENDBRANCH  36  37
ENDBRANCH  28  31
ENDBRANCH  26  27
ENDBRANCH  25  26
ENDBRANCH  24  25
ENDBRANCH   1  24
TORSDOF 20
ENDMDL
MODEL 3
REMARK VINA RESULT:     -10.7      1.344      3.447
REMARK SMILES O=C(CNC(=O)CNC(=O)OCc1ccccc1)NCCCCNC(=O)c1ccc(-c2c3nc(c(-c4cccc(S(=O)(=O)[O-])c4F)c4ccc([nH]4)c(-c4cccc(S(=O)(=O)[O-])c4F)c4nc(c(-c5cccc(S(=O)(=O)[O-])c5F)c5ccc2[nH]5)C=C4)C=C3)cc1
REMARK SMILES IDX 20 1 19 2 1 3 2 4 3 6 4 7 5 8 6 10 7 11 8 12 9 13 10 15
REMARK SMILES IDX 11 16 12 17 13 18 14 19 18 20 15 21 17 22 16 23 21 24 22 25
REMARK SMILES IDX 23 26 24 27 25 28 26 30 27 31 28 32 89 33 29 34 88 35 30 36
REMARK SMILES IDX 31 37 32 38 82 39 33 40 87 41 81 42 83 43 34 44 86 45 80 46
REMARK SMILES IDX 79 47 35 49 67 50 47 51 66 52 48 53 51 54 65 55 84 56 49 57
REMARK SMILES IDX 50 58 64 60 85 61 52 62 36 63 37 64 45 65 38 66 40 67 46 68
REMARK SMILES IDX 39 69 41 70 42 71 43 72 44 73 68 74 69 75 77 76 70 77 72 78
REMARK SMILES IDX 78 79 71 80 73 81 74 82 75 83 76 84 53 85 54 86 62 87 55 88
REMARK SMILES IDX 57 89 63 90 56 91 58 92 59 93 60 94 61 95
REMARK H PARENT 19 5 4 9 8 14 24 29 83 48 51 59
REMARK Flexibility Score: inf
ROOT
ATOM      1  C   UNL A   1      35.995  21.537  25.850  1.00  0.00     0.116 C 
ENDROOT
BRANCH   1   2
ATOM      2  N   UNL A   1      35.085  22.620  25.526  1.00  0.00    -0.355 N 
ATOM      3  O   UNL A   1      34.323  22.958  27.665  1.00  0.00    -0.273 OA
ATOM      4  C   UNL A   1      34.359  23.294  26.483  1.00  0.00     0.239 C 
ATOM      5  H   UNL A   1      34.982  22.884  24.583  1.00  0.00     0.163 HD
BRANCH   4   6
ATOM      6  C   UNL A   1      33.473  24.432  25.955  1.00  0.00     0.216 C 
BRANCH   6   7
ATOM      7  N   UNL A   1      32.122  24.433  26.501  1.00  0.00    -0.346 N 
ATOM      8  C   UNL A   1      31.182  23.447  26.524  1.00  0.00     0.239 C 
ATOM      9  H   UNL A   1      31.845  25.281  26.918  1.00  0.00     0.164 HD
ATOM     10  O   UNL A   1      30.192  23.620  27.238  1.00  0.00    -0.273 OA
BRANCH   8  11
ATOM     11  C   UNL A   1      31.382  22.151  25.740  1.00  0.00     0.219 C 
BRANCH  11  12
ATOM     12  N   UNL A   1      31.623  22.450  24.341  1.00  0.00    -0.312 N 
ATOM     13  C   UNL A   1      32.502  21.822  23.517  1.00  0.00     0.407 C 
ATOM     14  H   UNL A   1      31.095  23.183  23.948  1.00  0.00     0.167 HD
ATOM     15  O   UNL A   1      32.764  22.264  22.408  1.00  0.00    -0.225 OA
BRANCH  13  16
ATOM     16  O   UNL A   1      33.049  20.715  24.074  1.00  0.00    -0.445 OA
BRANCH  16  17
ATOM     17  C   UNL A   1      32.394  19.484  23.738  1.00  0.00     0.270 C 
BRANCH  17  18
ATOM     18  C   UNL A   1      33.035  18.257  24.344  1.00  0.00    -0.011 A 
ATOM     19  C   UNL A   1      32.289  17.287  25.028  1.00  0.00     0.007 A 
ATOM     20  C   UNL A   1      34.420  18.078  24.215  1.00  0.00     0.007 A 
ATOM     21  C   UNL A   1      32.905  16.135  25.518  1.00  0.00     0.000 A 
ATOM     22  C   UNL A   1      35.037  16.932  24.719  1.00  0.00     0.000 A 
ATOM     23  C   UNL A   1      34.277  15.956  25.362  1.00  0.00     0.000 A 
ENDBRANCH  17  18
ENDBRANCH  16  17
ENDBRANCH  13  16
ENDBRANCH  11  12
ENDBRANCH   8  11
ENDBRANCH   6   7
ENDBRANCH   4   6
ENDBRANCH   1   2
BRANCH   1  24
ATOM     24  C   UNL A   1      36.647  20.894  24.627  1.00  0.00     0.023 C 
BRANCH  24  25
ATOM     25  C   UNL A   1      37.730  19.855  24.925  1.00  0.00     0.023 C 
BRANCH  25  26
ATOM     26  C   UNL A   1      38.916  20.331  25.751  1.00  0.00     0.116 C 
BRANCH  26  27
ATOM     27  N   UNL A   1      39.909  19.297  25.993  1.00  0.00    -0.352 N 
ATOM     28  C   UNL A   1      41.243  19.426  26.306  1.00  0.00     0.251 C 
ATOM     29  H   UNL A   1      39.580  18.372  25.924  1.00  0.00     0.163 HD
ATOM     30  O   UNL A   1      41.953  18.426  26.363  1.00  0.00    -0.269 OA
BRANCH  28  31
ATOM     31  C   UNL A   1      41.833  20.766  26.543  1.00  0.00     0.039 A 
ATOM     32  C   UNL A   1      41.800  21.707  25.509  1.00  0.00     0.014 A 
ATOM     33  C   UNL A   1      42.413  21.104  27.769  1.00  0.00     0.014 A 
ATOM     34  C   UNL A   1      42.281  23.002  25.728  1.00  0.00     0.010 A 
ATOM     35  C   UNL A   1      42.814  22.417  28.012  1.00  0.00     0.010 A 
ATOM     36  C   UNL A   1      42.755  23.382  26.994  1.00  0.00    -0.014 A 
BRANCH  36  37
ATOM     37  C   UNL A   1      43.171  24.783  27.275  1.00  0.00     0.031 A 
ATOM     38  C   UNL A   1      42.211  25.753  27.915  1.00  0.00     0.074 A 
ATOM     39  C   UNL A   1      44.387  25.211  26.882  1.00  0.00     0.049 A 
ATOM     40  N   UNL A   1      42.378  27.023  28.182  1.00  0.00    -0.248 NA
ATOM     41  C   UNL A   1      40.883  25.236  28.280  1.00  0.00     0.031 C 
ATOM     42  C   UNL A   1      45.386  24.396  26.183  1.00  0.00     0.029 A 
ATOM     43  N   UNL A   1      44.984  26.445  26.986  1.00  0.00    -0.354 N 
ATOM     44  C   UNL A   1      41.171  27.463  28.714  1.00  0.00     0.074 A 
ATOM     45  C   UNL A   1      40.268  26.333  28.698  1.00  0.00     0.031 C 
ATOM     46  C   UNL A   1      46.467  25.149  25.925  1.00  0.00     0.029 A 
ATOM     47  C   UNL A   1      46.229  26.507  26.403  1.00  0.00     0.049 A 
ATOM     48  H   UNL A   1      44.560  27.211  27.436  1.00  0.00     0.167 HD
ATOM     49  C   UNL A   1      40.849  28.687  29.198  1.00  0.00     0.034 A 
ATOM     50  C   UNL A   1      47.079  27.542  26.253  1.00  0.00     0.034 A 
ATOM     51  C   UNL A   1      41.757  29.803  29.241  1.00  0.00     0.049 A 
ATOM     52  C   UNL A   1      46.707  28.886  26.819  1.00  0.00     0.074 A 
ATOM     53  C   UNL A   1      41.548  31.060  29.783  1.00  0.00     0.029 A 
ATOM     54  N   UNL A   1      43.036  29.806  28.711  1.00  0.00    -0.354 N 
ATOM     55  N   UNL A   1      45.616  29.241  27.454  1.00  0.00    -0.248 NA
ATOM     56  C   UNL A   1      47.697  29.965  26.681  1.00  0.00     0.031 C 
ATOM     57  C   UNL A   1      42.690  31.833  29.549  1.00  0.00     0.029 A 
ATOM     58  C   UNL A   1      43.625  31.045  28.900  1.00  0.00     0.049 A 
ATOM     59  H   UNL A   1      43.464  29.040  28.265  1.00  0.00     0.167 HD
ATOM     60  C   UNL A   1      45.804  30.569  27.824  1.00  0.00     0.074 A 
ATOM     61  C   UNL A   1      47.123  30.948  27.359  1.00  0.00     0.031 C 
ATOM     62  C   UNL A   1      44.956  31.401  28.477  1.00  0.00     0.034 A 
BRANCH  49  63
ATOM     63  C   UNL A   1      39.464  28.875  29.766  1.00  0.00     0.023 A 
ATOM     64  C   UNL A   1      39.172  28.401  31.062  1.00  0.00     0.012 A 
ATOM     65  C   UNL A   1      38.472  29.569  29.045  1.00  0.00     0.148 A 
ATOM     66  C   UNL A   1      37.905  28.581  31.616  1.00  0.00     0.002 A 
ATOM     67  C   UNL A   1      37.227  29.788  29.623  1.00  0.00     0.091 A 
ATOM     68  F   UNL A   1      38.763  29.998  27.808  1.00  0.00    -0.205 F 
ATOM     69  C   UNL A   1      36.937  29.282  30.901  1.00  0.00     0.022 A 
BRANCH  67  70
ATOM     70  S   UNL A   1      35.940  30.750  28.823  1.00  0.00     0.127 S 
ATOM     71  O   UNL A   1      35.148  31.194  29.968  1.00  0.00    -0.237 OA
ATOM     72  O   UNL A   1      36.709  31.807  28.167  1.00  0.00    -0.237 OA
ATOM     73  O   UNL A   1      35.262  29.838  27.913  1.00  0.00    -0.744 OA
ENDBRANCH  67  70
ENDBRANCH  49  63
BRANCH  50  74
ATOM     74  C   UNL A   1      48.390  27.339  25.571  1.00  0.00     0.023 A 
ATOM     75  C   UNL A   1      49.518  26.964  26.328  1.00  0.00     0.012 A 
ATOM     76  C   UNL A   1      48.520  27.497  24.178  1.00  0.00     0.148 A 
ATOM     77  C   UNL A   1      50.758  26.787  25.715  1.00  0.00     0.002 A 
ATOM     78  C   UNL A   1      49.745  27.263  23.566  1.00  0.00     0.091 A 
ATOM     79  F   UNL A   1      47.438  27.863  23.478  1.00  0.00    -0.205 F 
ATOM     80  C   UNL A   1      50.870  26.927  24.334  1.00  0.00     0.022 A 
BRANCH  78  81
ATOM     81  S   UNL A   1      49.953  27.297  21.781  1.00  0.00     0.127 S 
ATOM     82  O   UNL A   1      48.882  26.408  21.338  1.00  0.00    -0.237 OA
ATOM     83  O   UNL A   1      49.741  28.714  21.482  1.00  0.00    -0.237 OA
ATOM     84  O   UNL A   1      51.308  26.826  21.530  1.00  0.00    -0.744 OA
ENDBRANCH  78  81
ENDBRANCH  50  74
BRANCH  62  85
ATOM     85  C   UNL A   1      45.437  32.798  28.777  1.00  0.00     0.023 A 
ATOM     86  C   UNL A   1      46.119  33.070  29.979  1.00  0.00     0.012 A 
ATOM     87  C   UNL A   1      45.274  33.827  27.827  1.00  0.00     0.148 A 
ATOM     88  C   UNL A   1      46.598  34.352  30.248  1.00  0.00     0.002 A 
ATOM     89  C   UNL A   1      45.800  35.089  28.080  1.00  0.00     0.091 A 
ATOM     90  F   UNL A   1      44.608  33.554  26.696  1.00  0.00    -0.205 F 
ATOM     91  C   UNL A   1      46.449  35.356  29.295  1.00  0.00     0.022 A 
BRANCH  89  92
ATOM     92  S   UNL A   1      45.744  36.416  26.871  1.00  0.00     0.127 S 
ATOM     93  O   UNL A   1      46.440  35.813  25.734  1.00  0.00    -0.237 OA
ATOM     94  O   UNL A   1      44.305  36.599  26.678  1.00  0.00    -0.237 OA
ATOM     95  O   UNL A   1      46.421  37.551  27.484  1.00  0.00    -0.744 OA
ENDBRANCH  89  92
ENDBRANCH  62  85
ENDBRANCH  36  37
ENDBRANCH  28  31
ENDBRANCH  26  27
ENDBRANCH  25  26
ENDBRANCH  24  25
ENDBRANCH   1  24
TORSDOF 20
ENDMDL
