MODEL 1
REMARK VINA RESULT:     -11.4      0.000      0.000
REMARK SMILES CCn1c(=O)n(CC)c2cc(C(=O)NCCCCNC(=O)c3ccc(-c4c5nc(c(-c6cccc(S(=O)(=O)[O-])c6F)c6ccc([nH]6)c(-c6cccc(S(=O)(=O)[O-])c6F)c6nc(c(-c7cccc(S(=O)(=O)[O-])c7F)c7ccc4[nH]7)C=C6)C=C5)cc3)ccc21
REMARK SMILES IDX 17 1 16 2 15 3 14 4 12 5 13 6 11 8 3 9 4 10 87 11 5 12 6 13
REMARK SMILES IDX 9 14 86 15 10 16 85 17 2 18 1 19 7 20 8 21 18 22 19 23 20 24
REMARK SMILES IDX 21 26 22 27 23 28 84 29 24 30 83 31 25 32 26 33 27 34 77 35
REMARK SMILES IDX 28 36 82 37 76 38 78 39 29 40 81 41 75 42 74 43 30 45 62 46
REMARK SMILES IDX 42 47 61 48 43 49 46 50 60 51 79 52 44 53 45 54 59 56 80 57
REMARK SMILES IDX 47 58 31 59 32 60 40 61 33 62 35 63 41 64 34 65 36 66 37 67
REMARK SMILES IDX 38 68 39 69 63 70 64 71 72 72 65 73 67 74 73 75 66 76 68 77
REMARK SMILES IDX 69 78 70 79 71 80 48 81 49 82 57 83 50 84 52 85 58 86 51 87
REMARK SMILES IDX 53 88 54 89 55 90 56 91
REMARK H PARENT 14 7 19 25 78 44 46 55
REMARK Flexibility Score: inf
ROOT
ATOM      1  C   UNL A   1      32.979  28.649  27.507  1.00  0.00     0.023 C 
ENDROOT
BRANCH   1   2
ATOM      2  C   UNL A   1      31.775  29.264  26.780  1.00  0.00     0.023 C 
BRANCH   2   3
ATOM      3  C   UNL A   1      32.094  29.708  25.350  1.00  0.00     0.116 C 
BRANCH   3   4
ATOM      4  N   UNL A   1      31.148  29.132  24.421  1.00  0.00    -0.352 N 
ATOM      5  C   UNL A   1      31.069  27.899  23.832  1.00  0.00     0.251 C 
ATOM      6  O   UNL A   1      30.106  27.691  23.092  1.00  0.00    -0.269 OA
ATOM      7  H   UNL A   1      30.419  29.741  24.164  1.00  0.00     0.163 HD
BRANCH   5   8
ATOM      8  C   UNL A   1      32.027  26.787  24.103  1.00  0.00     0.042 A 
ATOM      9  N   UNL A   1      34.264  23.554  25.445  1.00  0.00    -0.292 N 
ATOM     10  C   UNL A   1      33.227  22.674  25.824  1.00  0.00     0.329 A 
ATOM     11  C   UNL A   1      33.692  24.712  24.905  1.00  0.00     0.069 A 
ATOM     12  O   UNL A   1      33.357  21.559  26.325  1.00  0.00    -0.248 OA
ATOM     13  N   UNL A   1      32.016  23.323  25.511  1.00  0.00    -0.292 N 
ATOM     14  C   UNL A   1      32.308  24.587  24.986  1.00  0.00     0.070 A 
ATOM     15  C   UNL A   1      34.277  25.825  24.347  1.00  0.00     0.029 A 
ATOM     16  C   UNL A   1      31.460  25.606  24.606  1.00  0.00     0.042 A 
ATOM     17  C   UNL A   1      33.424  26.845  23.902  1.00  0.00     0.016 A 
BRANCH   9  18
ATOM     18  C   UNL A   1      35.670  23.322  25.656  1.00  0.00     0.124 C 
ATOM     19  C   UNL A   1      36.324  22.608  24.486  1.00  0.00     0.028 C 
ENDBRANCH   9  18
BRANCH  13  20
ATOM     20  C   UNL A   1      30.699  22.754  25.643  1.00  0.00     0.124 C 
ATOM     21  C   UNL A   1      30.073  23.007  27.003  1.00  0.00     0.028 C 
ENDBRANCH  13  20
ENDBRANCH   5   8
ENDBRANCH   3   4
ENDBRANCH   2   3
ENDBRANCH   1   2
BRANCH   1  22
ATOM     22  C   UNL A   1      34.270  29.443  27.316  1.00  0.00     0.116 C 
BRANCH  22  23
ATOM     23  N   UNL A   1      34.254  30.743  27.964  1.00  0.00    -0.352 N 
ATOM     24  C   UNL A   1      35.142  31.474  28.705  1.00  0.00     0.251 C 
ATOM     25  H   UNL A   1      33.398  31.212  27.838  1.00  0.00     0.163 HD
ATOM     26  O   UNL A   1      34.782  32.612  29.018  1.00  0.00    -0.269 OA
BRANCH  24  27
ATOM     27  C   UNL A   1      36.416  30.941  29.237  1.00  0.00     0.039 A 
ATOM     28  C   UNL A   1      37.596  31.672  29.327  1.00  0.00     0.014 A 
ATOM     29  C   UNL A   1      36.437  29.573  29.556  1.00  0.00     0.014 A 
ATOM     30  C   UNL A   1      38.804  31.025  29.457  1.00  0.00     0.010 A 
ATOM     31  C   UNL A   1      37.642  28.927  29.781  1.00  0.00     0.010 A 
ATOM     32  C   UNL A   1      38.821  29.644  29.616  1.00  0.00    -0.014 A 
BRANCH  32  33
ATOM     33  C   UNL A   1      40.127  29.014  29.635  1.00  0.00     0.031 A 
ATOM     34  C   UNL A   1      40.704  28.805  30.994  1.00  0.00     0.074 A 
ATOM     35  C   UNL A   1      40.726  28.626  28.493  1.00  0.00     0.049 A 
ATOM     36  N   UNL A   1      41.821  29.254  31.474  1.00  0.00    -0.248 NA
ATOM     37  C   UNL A   1      39.850  28.134  31.987  1.00  0.00     0.031 C 
ATOM     38  C   UNL A   1      40.169  28.580  27.139  1.00  0.00     0.029 A 
ATOM     39  N   UNL A   1      41.938  28.036  28.347  1.00  0.00    -0.354 N 
ATOM     40  C   UNL A   1      41.893  28.762  32.777  1.00  0.00     0.074 A 
ATOM     41  C   UNL A   1      40.603  28.202  33.083  1.00  0.00     0.031 C 
ATOM     42  C   UNL A   1      40.913  27.736  26.389  1.00  0.00     0.029 A 
ATOM     43  C   UNL A   1      42.057  27.306  27.171  1.00  0.00     0.049 A 
ATOM     44  H   UNL A   1      42.663  28.117  29.009  1.00  0.00     0.167 HD
ATOM     45  C   UNL A   1      43.057  28.679  33.476  1.00  0.00     0.034 A 
ATOM     46  C   UNL A   1      42.964  26.326  26.945  1.00  0.00     0.034 A 
ATOM     47  C   UNL A   1      44.100  29.489  32.919  1.00  0.00     0.049 A 
ATOM     48  C   UNL A   1      44.082  26.554  27.896  1.00  0.00     0.074 A 
ATOM     49  C   UNL A   1      44.293  30.847  32.764  1.00  0.00     0.029 A 
ATOM     50  N   UNL A   1      44.985  28.884  32.060  1.00  0.00    -0.354 N 
ATOM     51  N   UNL A   1      44.841  27.616  27.870  1.00  0.00    -0.248 NA
ATOM     52  C   UNL A   1      44.066  25.827  29.155  1.00  0.00     0.031 C 
ATOM     53  C   UNL A   1      44.909  30.984  31.485  1.00  0.00     0.029 A 
ATOM     54  C   UNL A   1      45.098  29.702  30.964  1.00  0.00     0.049 A 
ATOM     55  H   UNL A   1      45.449  28.027  32.203  1.00  0.00     0.167 HD
ATOM     56  C   UNL A   1      45.047  27.933  29.207  1.00  0.00     0.074 A 
ATOM     57  C   UNL A   1      44.626  26.745  29.948  1.00  0.00     0.031 C 
ATOM     58  C   UNL A   1      45.260  29.221  29.609  1.00  0.00     0.034 A 
BRANCH  45  59
ATOM     59  C   UNL A   1      43.311  27.634  34.524  1.00  0.00     0.023 A 
ATOM     60  C   UNL A   1      43.495  28.029  35.862  1.00  0.00     0.012 A 
ATOM     61  C   UNL A   1      43.597  26.289  34.193  1.00  0.00     0.148 A 
ATOM     62  C   UNL A   1      43.934  27.118  36.831  1.00  0.00     0.002 A 
ATOM     63  C   UNL A   1      43.967  25.374  35.169  1.00  0.00     0.091 A 
ATOM     64  F   UNL A   1      43.624  25.922  32.905  1.00  0.00    -0.205 F 
ATOM     65  C   UNL A   1      44.154  25.787  36.489  1.00  0.00     0.022 A 
BRANCH  63  66
ATOM     66  S   UNL A   1      44.229  23.641  34.781  1.00  0.00     0.127 S 
ATOM     67  O   UNL A   1      44.680  23.117  36.067  1.00  0.00    -0.237 OA
ATOM     68  O   UNL A   1      42.888  23.218  34.374  1.00  0.00    -0.237 OA
ATOM     69  O   UNL A   1      45.209  23.630  33.703  1.00  0.00    -0.744 OA
ENDBRANCH  63  66
ENDBRANCH  45  59
BRANCH  46  70
ATOM     70  C   UNL A   1      42.743  25.026  26.260  1.00  0.00     0.023 A 
ATOM     71  C   UNL A   1      43.662  24.600  25.281  1.00  0.00     0.012 A 
ATOM     72  C   UNL A   1      41.805  24.082  26.741  1.00  0.00     0.148 A 
ATOM     73  C   UNL A   1      43.670  23.275  24.825  1.00  0.00     0.002 A 
ATOM     74  C   UNL A   1      41.802  22.773  26.269  1.00  0.00     0.091 A 
ATOM     75  F   UNL A   1      40.976  24.429  27.734  1.00  0.00    -0.205 F 
ATOM     76  C   UNL A   1      42.746  22.361  25.322  1.00  0.00     0.022 A 
BRANCH  74  77
ATOM     77  S   UNL A   1      40.630  21.549  26.871  1.00  0.00     0.127 S 
ATOM     78  O   UNL A   1      39.346  22.159  26.524  1.00  0.00    -0.237 OA
ATOM     79  O   UNL A   1      40.984  20.374  26.080  1.00  0.00    -0.237 OA
ATOM     80  O   UNL A   1      40.870  21.447  28.306  1.00  0.00    -0.744 OA
ENDBRANCH  74  77
ENDBRANCH  46  70
BRANCH  58  81
ATOM     81  C   UNL A   1      45.393  30.280  28.537  1.00  0.00     0.023 A 
ATOM     82  C   UNL A   1      44.264  30.958  28.028  1.00  0.00     0.012 A 
ATOM     83  C   UNL A   1      46.671  30.735  28.179  1.00  0.00     0.148 A 
ATOM     84  C   UNL A   1      44.402  32.049  27.166  1.00  0.00     0.002 A 
ATOM     85  C   UNL A   1      46.807  31.843  27.348  1.00  0.00     0.091 A 
ATOM     86  F   UNL A   1      47.735  30.099  28.693  1.00  0.00    -0.205 F 
ATOM     87  C   UNL A   1      45.676  32.499  26.834  1.00  0.00     0.022 A 
BRANCH  85  88
ATOM     88  S   UNL A   1      48.411  32.549  26.962  1.00  0.00     0.127 S 
ATOM     89  O   UNL A   1      49.150  31.382  26.483  1.00  0.00    -0.237 OA
ATOM     90  O   UNL A   1      48.078  33.528  25.925  1.00  0.00    -0.237 OA
ATOM     91  O   UNL A   1      48.904  33.135  28.201  1.00  0.00    -0.744 OA
ENDBRANCH  85  88
ENDBRANCH  58  81
ENDBRANCH  32  33
ENDBRANCH  24  27
ENDBRANCH  22  23
ENDBRANCH   1  22
TORSDOF 16
ENDMDL
MODEL 2
REMARK VINA RESULT:     -11.3      3.834      8.196
REMARK SMILES CCn1c(=O)n(CC)c2cc(C(=O)NCCCCNC(=O)c3ccc(-c4c5nc(c(-c6cccc(S(=O)(=O)[O-])c6F)c6ccc([nH]6)c(-c6cccc(S(=O)(=O)[O-])c6F)c6nc(c(-c7cccc(S(=O)(=O)[O-])c7F)c7ccc4[nH]7)C=C6)C=C5)cc3)ccc21
REMARK SMILES IDX 17 1 16 2 15 3 14 4 12 5 13 6 11 8 3 9 4 10 87 11 5 12 6 13
REMARK SMILES IDX 9 14 86 15 10 16 85 17 2 18 1 19 7 20 8 21 18 22 19 23 20 24
REMARK SMILES IDX 21 26 22 27 23 28 84 29 24 30 83 31 25 32 26 33 27 34 77 35
REMARK SMILES IDX 28 36 82 37 76 38 78 39 29 40 81 41 75 42 74 43 30 45 62 46
REMARK SMILES IDX 42 47 61 48 43 49 46 50 60 51 79 52 44 53 45 54 59 56 80 57
REMARK SMILES IDX 47 58 31 59 32 60 40 61 33 62 35 63 41 64 34 65 36 66 37 67
REMARK SMILES IDX 38 68 39 69 63 70 64 71 72 72 65 73 67 74 73 75 66 76 68 77
REMARK SMILES IDX 69 78 70 79 71 80 48 81 49 82 57 83 50 84 52 85 58 86 51 87
REMARK SMILES IDX 53 88 54 89 55 90 56 91
REMARK H PARENT 14 7 19 25 78 44 46 55
REMARK Flexibility Score: inf
ROOT
ATOM      1  C   UNL A   1      31.743  29.652  27.125  1.00  0.00     0.023 C 
ENDROOT
BRANCH   1   2
ATOM      2  C   UNL A   1      32.436  28.299  26.910  1.00  0.00     0.023 C 
BRANCH   2   3
ATOM      3  C   UNL A   1      31.466  27.173  26.543  1.00  0.00     0.116 C 
BRANCH   3   4
ATOM      4  N   UNL A   1      31.317  27.086  25.108  1.00  0.00    -0.352 N 
ATOM      5  C   UNL A   1      31.520  26.064  24.221  1.00  0.00     0.251 C 
ATOM      6  O   UNL A   1      31.274  26.291  23.035  1.00  0.00    -0.269 OA
ATOM      7  H   UNL A   1      31.012  27.921  24.687  1.00  0.00     0.163 HD
BRANCH   5   8
ATOM      8  C   UNL A   1      31.935  24.687  24.623  1.00  0.00     0.042 A 
ATOM      9  N   UNL A   1      33.571  20.910  25.179  1.00  0.00    -0.292 N 
ATOM     10  C   UNL A   1      34.937  21.196  24.969  1.00  0.00     0.329 A 
ATOM     11  C   UNL A   1      32.844  22.102  25.082  1.00  0.00     0.069 A 
ATOM     12  O   UNL A   1      35.868  20.393  24.989  1.00  0.00    -0.248 OA
ATOM     13  N   UNL A   1      35.024  22.583  24.733  1.00  0.00    -0.292 N 
ATOM     14  C   UNL A   1      33.734  23.125  24.764  1.00  0.00     0.070 A 
ATOM     15  C   UNL A   1      31.504  22.352  25.265  1.00  0.00     0.029 A 
ATOM     16  C   UNL A   1      33.308  24.413  24.520  1.00  0.00     0.042 A 
ATOM     17  C   UNL A   1      31.065  23.671  25.077  1.00  0.00     0.016 A 
BRANCH   9  18
ATOM     18  C   UNL A   1      33.019  19.594  25.382  1.00  0.00     0.124 C 
ATOM     19  C   UNL A   1      32.911  18.803  24.091  1.00  0.00     0.028 C 
ENDBRANCH   9  18
BRANCH  13  20
ATOM     20  C   UNL A   1      36.243  23.331  24.560  1.00  0.00     0.124 C 
ATOM     21  C   UNL A   1      36.887  23.733  25.876  1.00  0.00     0.028 C 
ENDBRANCH  13  20
ENDBRANCH   5   8
ENDBRANCH   3   4
ENDBRANCH   2   3
ENDBRANCH   1   2
BRANCH   1  22
ATOM     22  C   UNL A   1      32.495  30.823  26.493  1.00  0.00     0.116 C 
BRANCH  22  23
ATOM     23  N   UNL A   1      32.024  32.123  26.937  1.00  0.00    -0.352 N 
ATOM     24  C   UNL A   1      32.585  33.202  27.564  1.00  0.00     0.251 C 
ATOM     25  H   UNL A   1      31.070  32.262  26.738  1.00  0.00     0.163 HD
ATOM     26  O   UNL A   1      31.860  34.191  27.700  1.00  0.00    -0.269 OA
BRANCH  24  27
ATOM     27  C   UNL A   1      33.933  33.198  28.176  1.00  0.00     0.039 A 
ATOM     28  C   UNL A   1      35.041  33.844  27.640  1.00  0.00     0.014 A 
ATOM     29  C   UNL A   1      34.102  32.385  29.310  1.00  0.00     0.014 A 
ATOM     30  C   UNL A   1      36.311  33.485  28.033  1.00  0.00     0.010 A 
ATOM     31  C   UNL A   1      35.373  32.091  29.775  1.00  0.00     0.010 A 
ATOM     32  C   UNL A   1      36.467  32.557  29.057  1.00  0.00    -0.014 A 
BRANCH  32  33
ATOM     33  C   UNL A   1      37.827  32.142  29.346  1.00  0.00     0.031 A 
ATOM     34  C   UNL A   1      38.136  30.724  29.001  1.00  0.00     0.074 A 
ATOM     35  C   UNL A   1      38.723  33.008  29.852  1.00  0.00     0.049 A 
ATOM     36  N   UNL A   1      38.552  29.777  29.782  1.00  0.00    -0.248 NA
ATOM     37  C   UNL A   1      37.793  30.276  27.643  1.00  0.00     0.031 C 
ATOM     38  C   UNL A   1      38.597  34.458  30.023  1.00  0.00     0.029 A 
ATOM     39  N   UNL A   1      40.017  32.772  30.181  1.00  0.00    -0.354 N 
ATOM     40  C   UNL A   1      38.699  28.656  28.966  1.00  0.00     0.074 A 
ATOM     41  C   UNL A   1      38.092  28.980  27.701  1.00  0.00     0.031 C 
ATOM     42  C   UNL A   1      39.834  34.994  30.132  1.00  0.00     0.029 A 
ATOM     43  C   UNL A   1      40.805  33.917  30.178  1.00  0.00     0.049 A 
ATOM     44  H   UNL A   1      40.365  31.877  30.400  1.00  0.00     0.167 HD
ATOM     45  C   UNL A   1      39.466  27.585  29.305  1.00  0.00     0.034 A 
ATOM     46  C   UNL A   1      42.155  33.939  30.080  1.00  0.00     0.034 A 
ATOM     47  C   UNL A   1      39.774  27.541  30.703  1.00  0.00     0.049 A 
ATOM     48  C   UNL A   1      42.636  32.604  30.520  1.00  0.00     0.074 A 
ATOM     49  C   UNL A   1      39.030  27.370  31.853  1.00  0.00     0.029 A 
ATOM     50  N   UNL A   1      40.971  28.080  31.108  1.00  0.00    -0.354 N 
ATOM     51  N   UNL A   1      42.474  32.146  31.732  1.00  0.00    -0.248 NA
ATOM     52  C   UNL A   1      42.884  31.598  29.500  1.00  0.00     0.031 C 
ATOM     53  C   UNL A   1      39.612  28.263  32.801  1.00  0.00     0.029 A 
ATOM     54  C   UNL A   1      40.702  28.884  32.187  1.00  0.00     0.049 A 
ATOM     55  H   UNL A   1      41.854  27.919  30.702  1.00  0.00     0.167 HD
ATOM     56  C   UNL A   1      42.168  30.802  31.562  1.00  0.00     0.074 A 
ATOM     57  C   UNL A   1      42.528  30.502  30.177  1.00  0.00     0.031 C 
ATOM     58  C   UNL A   1      41.385  30.130  32.458  1.00  0.00     0.034 A 
BRANCH  45  59
ATOM     59  C   UNL A   1      40.161  26.721  28.292  1.00  0.00     0.023 A 
ATOM     60  C   UNL A   1      39.925  25.334  28.290  1.00  0.00     0.012 A 
ATOM     61  C   UNL A   1      41.215  27.207  27.483  1.00  0.00     0.148 A 
ATOM     62  C   UNL A   1      40.700  24.469  27.506  1.00  0.00     0.002 A 
ATOM     63  C   UNL A   1      41.935  26.355  26.656  1.00  0.00     0.091 A 
ATOM     64  F   UNL A   1      41.599  28.484  27.603  1.00  0.00    -0.205 F 
ATOM     65  C   UNL A   1      41.693  24.981  26.676  1.00  0.00     0.022 A 
BRANCH  63  66
ATOM     66  S   UNL A   1      43.203  26.974  25.546  1.00  0.00     0.127 S 
ATOM     67  O   UNL A   1      43.677  25.740  24.925  1.00  0.00    -0.237 OA
ATOM     68  O   UNL A   1      42.431  27.854  24.668  1.00  0.00    -0.237 OA
ATOM     69  O   UNL A   1      44.156  27.672  26.398  1.00  0.00    -0.744 OA
ENDBRANCH  63  66
ENDBRANCH  45  59
BRANCH  46  70
ATOM     70  C   UNL A   1      42.991  34.871  29.281  1.00  0.00     0.023 A 
ATOM     71  C   UNL A   1      43.057  34.710  27.883  1.00  0.00     0.012 A 
ATOM     72  C   UNL A   1      43.503  36.070  29.832  1.00  0.00     0.148 A 
ATOM     73  C   UNL A   1      43.578  35.719  27.062  1.00  0.00     0.002 A 
ATOM     74  C   UNL A   1      44.040  37.060  29.015  1.00  0.00     0.091 A 
ATOM     75  F   UNL A   1      43.376  36.293  31.147  1.00  0.00    -0.205 F 
ATOM     76  C   UNL A   1      44.064  36.896  27.626  1.00  0.00     0.022 A 
BRANCH  74  77
ATOM     77  S   UNL A   1      44.685  38.598  29.688  1.00  0.00     0.127 S 
ATOM     78  O   UNL A   1      43.495  39.185  30.304  1.00  0.00    -0.237 OA
ATOM     79  O   UNL A   1      45.691  38.120  30.631  1.00  0.00    -0.237 OA
ATOM     80  O   UNL A   1      45.191  39.347  28.543  1.00  0.00    -0.744 OA
ENDBRANCH  74  77
ENDBRANCH  46  70
BRANCH  58  81
ATOM     81  C   UNL A   1      40.964  30.863  33.712  1.00  0.00     0.023 A 
ATOM     82  C   UNL A   1      41.847  31.022  34.803  1.00  0.00     0.012 A 
ATOM     83  C   UNL A   1      39.749  31.563  33.721  1.00  0.00     0.148 A 
ATOM     84  C   UNL A   1      41.520  31.841  35.886  1.00  0.00     0.002 A 
ATOM     85  C   UNL A   1      39.440  32.405  34.784  1.00  0.00     0.091 A 
ATOM     86  F   UNL A   1      38.933  31.425  32.665  1.00  0.00    -0.205 F 
ATOM     87  C   UNL A   1      40.318  32.543  35.872  1.00  0.00     0.022 A 
BRANCH  85  88
ATOM     88  S   UNL A   1      37.963  33.425  34.790  1.00  0.00     0.127 S 
ATOM     89  O   UNL A   1      36.901  32.423  34.721  1.00  0.00    -0.237 OA
ATOM     90  O   UNL A   1      38.068  34.118  36.076  1.00  0.00    -0.237 OA
ATOM     91  O   UNL A   1      38.071  34.300  33.629  1.00  0.00    -0.744 OA
ENDBRANCH  85  88
ENDBRANCH  58  81
ENDBRANCH  32  33
ENDBRANCH  24  27
ENDBRANCH  22  23
ENDBRANCH   1  22
TORSDOF 16
ENDMDL
MODEL 3
REMARK VINA RESULT:     -11.3      3.253      8.709
REMARK SMILES CCn1c(=O)n(CC)c2cc(C(=O)NCCCCNC(=O)c3ccc(-c4c5nc(c(-c6cccc(S(=O)(=O)[O-])c6F)c6ccc([nH]6)c(-c6cccc(S(=O)(=O)[O-])c6F)c6nc(c(-c7cccc(S(=O)(=O)[O-])c7F)c7ccc4[nH]7)C=C6)C=C5)cc3)ccc21
REMARK SMILES IDX 17 1 16 2 15 3 14 4 12 5 13 6 11 8 3 9 4 10 87 11 5 12 6 13
REMARK SMILES IDX 9 14 86 15 10 16 85 17 2 18 1 19 7 20 8 21 18 22 19 23 20 24
REMARK SMILES IDX 21 26 22 27 23 28 84 29 24 30 83 31 25 32 26 33 27 34 77 35
REMARK SMILES IDX 28 36 82 37 76 38 78 39 29 40 81 41 75 42 74 43 30 45 62 46
REMARK SMILES IDX 42 47 61 48 43 49 46 50 60 51 79 52 44 53 45 54 59 56 80 57
REMARK SMILES IDX 47 58 31 59 32 60 40 61 33 62 35 63 41 64 34 65 36 66 37 67
REMARK SMILES IDX 38 68 39 69 63 70 64 71 72 72 65 73 67 74 73 75 66 76 68 77
REMARK SMILES IDX 69 78 70 79 71 80 48 81 49 82 57 83 50 84 52 85 58 86 51 87
REMARK SMILES IDX 53 88 54 89 55 90 56 91
REMARK H PARENT 14 7 19 25 78 44 46 55
REMARK Flexibility Score: inf
ROOT
ATOM      1  C   UNL A   1      36.097  22.596  26.136  1.00  0.00     0.023 C 
ENDROOT
BRANCH   1   2
ATOM      2  C   UNL A   1      34.916  23.326  25.484  1.00  0.00     0.023 C 
BRANCH   2   3
ATOM      3  C   UNL A   1      33.728  22.408  25.183  1.00  0.00     0.116 C 
BRANCH   3   4
ATOM      4  N   UNL A   1      32.778  22.442  26.272  1.00  0.00    -0.352 N 
ATOM      5  C   UNL A   1      31.834  23.360  26.643  1.00  0.00     0.251 C 
ATOM      6  O   UNL A   1      31.140  23.087  27.624  1.00  0.00    -0.269 OA
ATOM      7  H   UNL A   1      32.817  21.653  26.860  1.00  0.00     0.163 HD
BRANCH   5   8
ATOM      8  C   UNL A   1      31.550  24.612  25.881  1.00  0.00     0.042 A 
ATOM      9  N   UNL A   1      30.674  28.405  24.432  1.00  0.00    -0.292 N 
ATOM     10  C   UNL A   1      31.402  29.196  25.346  1.00  0.00     0.329 A 
ATOM     11  C   UNL A   1      30.893  27.056  24.734  1.00  0.00     0.069 A 
ATOM     12  O   UNL A   1      31.454  30.424  25.376  1.00  0.00    -0.248 OA
ATOM     13  N   UNL A   1      32.060  28.302  26.215  1.00  0.00    -0.292 N 
ATOM     14  C   UNL A   1      31.711  26.994  25.859  1.00  0.00     0.070 A 
ATOM     15  C   UNL A   1      30.456  25.913  24.104  1.00  0.00     0.029 A 
ATOM     16  C   UNL A   1      32.043  25.795  26.454  1.00  0.00     0.042 A 
ATOM     17  C   UNL A   1      30.835  24.686  24.666  1.00  0.00     0.016 A 
BRANCH   9  18
ATOM     18  C   UNL A   1      29.794  28.913  23.410  1.00  0.00     0.124 C 
ATOM     19  C   UNL A   1      30.545  29.394  22.181  1.00  0.00     0.028 C 
ENDBRANCH   9  18
BRANCH  13  20
ATOM     20  C   UNL A   1      32.992  28.669  27.250  1.00  0.00     0.124 C 
ATOM     21  C   UNL A   1      34.402  28.890  26.732  1.00  0.00     0.028 C 
ENDBRANCH  13  20
ENDBRANCH   5   8
ENDBRANCH   3   4
ENDBRANCH   2   3
ENDBRANCH   1   2
BRANCH   1  22
ATOM     22  C   UNL A   1      37.455  23.027  25.583  1.00  0.00     0.116 C 
BRANCH  22  23
ATOM     23  N   UNL A   1      38.576  22.316  26.173  1.00  0.00    -0.352 N 
ATOM     24  C   UNL A   1      39.650  22.660  26.947  1.00  0.00     0.251 C 
ATOM     25  H   UNL A   1      38.557  21.354  25.967  1.00  0.00     0.163 HD
ATOM     26  O   UNL A   1      40.362  21.730  27.334  1.00  0.00    -0.269 OA
BRANCH  24  27
ATOM     27  C   UNL A   1      40.057  24.055  27.229  1.00  0.00     0.039 A 
ATOM     28  C   UNL A   1      41.274  24.419  27.797  1.00  0.00     0.014 A 
ATOM     29  C   UNL A   1      39.086  25.047  27.007  1.00  0.00     0.014 A 
ATOM     30  C   UNL A   1      41.425  25.657  28.378  1.00  0.00     0.010 A 
ATOM     31  C   UNL A   1      39.268  26.325  27.507  1.00  0.00     0.010 A 
ATOM     32  C   UNL A   1      40.390  26.581  28.286  1.00  0.00    -0.014 A 
BRANCH  32  33
ATOM     33  C   UNL A   1      40.569  27.823  29.014  1.00  0.00     0.031 A 
ATOM     34  C   UNL A   1      41.629  28.721  28.472  1.00  0.00     0.074 A 
ATOM     35  C   UNL A   1      39.793  28.124  30.071  1.00  0.00     0.049 A 
ATOM     36  N   UNL A   1      42.686  29.173  29.069  1.00  0.00    -0.248 NA
ATOM     37  C   UNL A   1      41.574  29.029  27.034  1.00  0.00     0.031 C 
ATOM     38  C   UNL A   1      38.594  27.432  30.553  1.00  0.00     0.029 A 
ATOM     39  N   UNL A   1      39.842  29.232  30.852  1.00  0.00    -0.354 N 
ATOM     40  C   UNL A   1      43.333  29.975  28.130  1.00  0.00     0.074 A 
ATOM     41  C   UNL A   1      42.685  29.741  26.866  1.00  0.00     0.031 C 
ATOM     42  C   UNL A   1      37.881  28.281  31.327  1.00  0.00     0.029 A 
ATOM     43  C   UNL A   1      38.642  29.504  31.499  1.00  0.00     0.049 A 
ATOM     44  H   UNL A   1      40.648  29.788  30.952  1.00  0.00     0.167 HD
ATOM     45  C   UNL A   1      44.249  30.923  28.467  1.00  0.00     0.034 A 
ATOM     46  C   UNL A   1      38.281  30.706  32.007  1.00  0.00     0.034 A 
ATOM     47  C   UNL A   1      44.767  30.750  29.792  1.00  0.00     0.049 A 
ATOM     48  C   UNL A   1      39.536  31.466  32.236  1.00  0.00     0.074 A 
ATOM     49  C   UNL A   1      45.539  29.787  30.412  1.00  0.00     0.029 A 
ATOM     50  N   UNL A   1      44.177  31.466  30.804  1.00  0.00    -0.354 N 
ATOM     51  N   UNL A   1      40.456  31.095  33.085  1.00  0.00    -0.248 NA
ATOM     52  C   UNL A   1      39.978  32.382  31.196  1.00  0.00     0.031 C 
ATOM     53  C   UNL A   1      44.982  29.660  31.719  1.00  0.00     0.029 A 
ATOM     54  C   UNL A   1      43.942  30.586  31.831  1.00  0.00     0.049 A 
ATOM     55  H   UNL A   1      43.963  32.427  30.795  1.00  0.00     0.167 HD
ATOM     56  C   UNL A   1      41.657  31.373  32.445  1.00  0.00     0.074 A 
ATOM     57  C   UNL A   1      41.301  32.248  31.330  1.00  0.00     0.031 C 
ATOM     58  C   UNL A   1      42.784  30.641  32.695  1.00  0.00     0.034 A 
BRANCH  45  59
ATOM     59  C   UNL A   1      44.467  32.174  27.666  1.00  0.00     0.023 A 
ATOM     60  C   UNL A   1      45.538  32.233  26.754  1.00  0.00     0.012 A 
ATOM     61  C   UNL A   1      43.782  33.379  27.948  1.00  0.00     0.148 A 
ATOM     62  C   UNL A   1      45.901  33.438  26.141  1.00  0.00     0.002 A 
ATOM     63  C   UNL A   1      44.101  34.557  27.288  1.00  0.00     0.091 A 
ATOM     64  F   UNL A   1      42.891  33.408  28.948  1.00  0.00    -0.205 F 
ATOM     65  C   UNL A   1      45.173  34.596  26.395  1.00  0.00     0.022 A 
BRANCH  63  66
ATOM     66  S   UNL A   1      43.170  36.068  27.558  1.00  0.00     0.127 S 
ATOM     67  O   UNL A   1      43.785  36.969  26.588  1.00  0.00    -0.237 OA
ATOM     68  O   UNL A   1      41.807  35.643  27.233  1.00  0.00    -0.237 OA
ATOM     69  O   UNL A   1      43.370  36.400  28.962  1.00  0.00    -0.744 OA
ENDBRANCH  63  66
ENDBRANCH  45  59
BRANCH  46  70
ATOM     70  C   UNL A   1      36.948  31.358  31.933  1.00  0.00     0.023 A 
ATOM     71  C   UNL A   1      36.351  31.839  33.116  1.00  0.00     0.012 A 
ATOM     72  C   UNL A   1      36.381  31.756  30.699  1.00  0.00     0.148 A 
ATOM     73  C   UNL A   1      35.256  32.711  33.070  1.00  0.00     0.002 A 
ATOM     74  C   UNL A   1      35.279  32.604  30.658  1.00  0.00     0.091 A 
ATOM     75  F   UNL A   1      36.977  31.389  29.557  1.00  0.00    -0.205 F 
ATOM     76  C   UNL A   1      34.723  33.098  31.843  1.00  0.00     0.022 A 
BRANCH  74  77
ATOM     77  S   UNL A   1      34.547  33.135  29.104  1.00  0.00     0.127 S 
ATOM     78  O   UNL A   1      35.677  33.789  28.442  1.00  0.00    -0.237 OA
ATOM     79  O   UNL A   1      34.140  31.866  28.511  1.00  0.00    -0.237 OA
ATOM     80  O   UNL A   1      33.466  34.044  29.468  1.00  0.00    -0.744 OA
ENDBRANCH  74  77
ENDBRANCH  46  70
BRANCH  58  81
ATOM     81  C   UNL A   1      42.716  29.597  33.787  1.00  0.00     0.023 A 
ATOM     82  C   UNL A   1      42.129  28.332  33.562  1.00  0.00     0.012 A 
ATOM     83  C   UNL A   1      43.417  29.811  34.983  1.00  0.00     0.148 A 
ATOM     84  C   UNL A   1      42.218  27.313  34.513  1.00  0.00     0.002 A 
ATOM     85  C   UNL A   1      43.534  28.783  35.914  1.00  0.00     0.091 A 
ATOM     86  F   UNL A   1      43.994  31.007  35.172  1.00  0.00    -0.205 F 
ATOM     87  C   UNL A   1      42.931  27.534  35.686  1.00  0.00     0.022 A 
BRANCH  85  88
ATOM     88  S   UNL A   1      44.526  28.956  37.400  1.00  0.00     0.127 S 
ATOM     89  O   UNL A   1      43.923  30.127  38.034  1.00  0.00    -0.237 OA
ATOM     90  O   UNL A   1      44.275  27.689  38.090  1.00  0.00    -0.237 OA
ATOM     91  O   UNL A   1      45.901  29.129  36.950  1.00  0.00    -0.744 OA
ENDBRANCH  85  88
ENDBRANCH  58  81
ENDBRANCH  32  33
ENDBRANCH  24  27
ENDBRANCH  22  23
ENDBRANCH   1  22
TORSDOF 16
ENDMDL
