MODEL 1
REMARK VINA RESULT:     -11.6      0.000      0.000
REMARK SMILES CC(C)C[C@H](CNC(=O)c1ccc(O)cc1O)C(=O)NCCCCNC(=O)c1ccc(-c2c3nc(c(-c4cccc(S(=O)(=O)[O-])c4F)c4ccc([nH]4)c(-c4cccc(S(=O)(=O)[O-])c4F)c4nc(c(-c5cccc(S(=O)(=O)[O-])c5F)c5ccc2[nH]5)C=C4)C=C3)cc1
REMARK SMILES IDX 22 1 21 2 20 3 18 4 19 5 5 7 4 8 2 9 1 10 3 11 6 12 7 13
REMARK SMILES IDX 8 14 9 16 10 17 11 18 16 19 12 20 15 21 13 22 17 23 14 25
REMARK SMILES IDX 23 27 24 28 25 29 26 30 27 32 28 33 29 34 90 35 30 36 89 37
REMARK SMILES IDX 31 38 32 39 33 40 83 41 34 42 88 43 82 44 84 45 35 46 87 47
REMARK SMILES IDX 81 48 80 49 36 51 68 52 48 53 67 54 49 55 52 56 66 57 85 58
REMARK SMILES IDX 50 59 51 60 65 62 86 63 53 64 37 65 38 66 46 67 39 68 41 69
REMARK SMILES IDX 47 70 40 71 42 72 43 73 44 74 45 75 69 76 70 77 78 78 71 79
REMARK SMILES IDX 73 80 79 81 72 82 74 83 75 84 76 85 77 86 54 87 55 88 63 89
REMARK SMILES IDX 56 90 58 91 64 92 57 93 59 94 60 95 61 96 62 97
REMARK H PARENT 20 6 7 15 17 24 14 26 25 31 84 50 52 61
REMARK Flexibility Score: inf
ROOT
ATOM      1  C   UNL A   1      30.962  29.380  24.036  1.00  0.00     0.023 C 
ENDROOT
BRANCH   1   2
ATOM      2  C   UNL A   1      30.209  28.088  23.722  1.00  0.00     0.116 C 
BRANCH   2   3
ATOM      3  N   UNL A   1      30.715  27.441  22.523  1.00  0.00    -0.356 N 
ATOM      4  C   UNL A   1      31.435  26.297  22.361  1.00  0.00     0.224 C 
ATOM      5  O   UNL A   1      31.777  25.982  21.221  1.00  0.00    -0.275 OA
ATOM      6  H   UNL A   1      30.499  27.910  21.684  1.00  0.00     0.163 HD
BRANCH   4   7
ATOM      7  C   UNL A   1      31.802  25.410  23.546  1.00  0.00     0.098 C 
BRANCH   7   8
ATOM      8  C   UNL A   1      33.294  25.014  23.525  1.00  0.00     0.018 C 
BRANCH   8   9
ATOM      9  C   UNL A   1      34.095  25.501  24.755  1.00  0.00    -0.017 C 
ATOM     10  C   UNL A   1      33.182  25.801  25.948  1.00  0.00     0.007 C 
ATOM     11  C   UNL A   1      35.120  24.434  25.153  1.00  0.00     0.007 C 
ENDBRANCH   8   9
ENDBRANCH   7   8
BRANCH   7  12
ATOM     12  C   UNL A   1      30.774  24.270  23.669  1.00  0.00     0.129 C 
BRANCH  12  13
ATOM     13  N   UNL A   1      30.293  24.047  25.025  1.00  0.00    -0.351 N 
ATOM     14  C   UNL A   1      30.631  23.054  25.903  1.00  0.00     0.255 C 
ATOM     15  H   UNL A   1      29.633  24.699  25.354  1.00  0.00     0.163 HD
ATOM     16  O   UNL A   1      29.901  22.790  26.856  1.00  0.00    -0.269 OA
BRANCH  14  17
ATOM     17  C   UNL A   1      31.851  22.250  25.697  1.00  0.00     0.081 A 
ATOM     18  C   UNL A   1      32.155  21.722  24.434  1.00  0.00     0.021 A 
ATOM     19  C   UNL A   1      32.736  22.059  26.763  1.00  0.00     0.132 A 
ATOM     20  C   UNL A   1      33.298  20.941  24.262  1.00  0.00     0.047 A 
ATOM     21  C   UNL A   1      33.873  21.276  26.595  1.00  0.00     0.093 A 
ATOM     22  C   UNL A   1      34.141  20.717  25.349  1.00  0.00     0.119 A 
BRANCH  19  23
ATOM     23  O   UNL A   1      32.538  22.620  27.998  1.00  0.00    -0.507 OA
ATOM     24  H   UNL A   1      31.704  22.982  28.219  1.00  0.00     0.293 HD
ENDBRANCH  19  23
BRANCH  22  25
ATOM     25  O   UNL A   1      35.263  19.952  25.221  1.00  0.00    -0.508 OA
ATOM     26  H   UNL A   1      35.587  19.734  24.370  1.00  0.00     0.293 HD
ENDBRANCH  22  25
ENDBRANCH  14  17
ENDBRANCH  12  13
ENDBRANCH   7  12
ENDBRANCH   4   7
ENDBRANCH   2   3
ENDBRANCH   1   2
BRANCH   1  27
ATOM     27  C   UNL A   1      32.295  29.182  24.754  1.00  0.00     0.023 C 
BRANCH  27  28
ATOM     28  C   UNL A   1      32.297  29.582  26.223  1.00  0.00     0.116 C 
BRANCH  28  29
ATOM     29  N   UNL A   1      32.017  30.997  26.429  1.00  0.00    -0.352 N 
ATOM     30  C   UNL A   1      32.745  31.922  27.137  1.00  0.00     0.251 C 
ATOM     31  H   UNL A   1      31.195  31.335  26.003  1.00  0.00     0.163 HD
ATOM     32  O   UNL A   1      32.297  33.049  27.324  1.00  0.00    -0.269 OA
BRANCH  30  33
ATOM     33  C   UNL A   1      34.055  31.531  27.696  1.00  0.00     0.039 A 
ATOM     34  C   UNL A   1      34.995  32.524  27.977  1.00  0.00     0.014 A 
ATOM     35  C   UNL A   1      34.326  30.193  27.990  1.00  0.00     0.014 A 
ATOM     36  C   UNL A   1      36.185  32.180  28.620  1.00  0.00     0.010 A 
ATOM     37  C   UNL A   1      35.472  29.866  28.706  1.00  0.00     0.010 A 
ATOM     38  C   UNL A   1      36.416  30.854  29.024  1.00  0.00    -0.014 A 
BRANCH  38  39
ATOM     39  C   UNL A   1      37.631  30.480  29.792  1.00  0.00     0.031 A 
ATOM     40  C   UNL A   1      38.628  29.519  29.206  1.00  0.00     0.074 A 
ATOM     41  C   UNL A   1      37.788  30.933  31.052  1.00  0.00     0.049 A 
ATOM     42  N   UNL A   1      39.713  29.027  29.745  1.00  0.00    -0.248 NA
ATOM     43  C   UNL A   1      38.356  29.020  27.846  1.00  0.00     0.031 C 
ATOM     44  C   UNL A   1      36.848  31.799  31.764  1.00  0.00     0.029 A 
ATOM     45  N   UNL A   1      38.784  30.702  31.968  1.00  0.00    -0.354 N 
ATOM     46  C   UNL A   1      40.231  28.139  28.810  1.00  0.00     0.074 A 
ATOM     47  C   UNL A   1      39.321  28.127  27.687  1.00  0.00     0.031 C 
ATOM     48  C   UNL A   1      37.312  32.030  33.003  1.00  0.00     0.029 A 
ATOM     49  C   UNL A   1      38.566  31.306  33.185  1.00  0.00     0.049 A 
ATOM     50  H   UNL A   1      39.580  30.156  31.774  1.00  0.00     0.167 HD
ATOM     51  C   UNL A   1      41.378  27.421  28.866  1.00  0.00     0.034 A 
ATOM     52  C   UNL A   1      39.288  31.272  34.321  1.00  0.00     0.034 A 
ATOM     53  C   UNL A   1      42.301  27.466  29.967  1.00  0.00     0.049 A 
ATOM     54  C   UNL A   1      40.580  30.501  34.344  1.00  0.00     0.074 A 
ATOM     55  C   UNL A   1      43.533  26.846  30.082  1.00  0.00     0.029 A 
ATOM     56  N   UNL A   1      42.091  28.161  31.148  1.00  0.00    -0.354 N 
ATOM     57  N   UNL A   1      41.136  29.795  33.389  1.00  0.00    -0.248 NA
ATOM     58  C   UNL A   1      41.363  30.551  35.586  1.00  0.00     0.031 C 
ATOM     59  C   UNL A   1      44.057  27.148  31.344  1.00  0.00     0.029 A 
ATOM     60  C   UNL A   1      43.165  27.980  32.002  1.00  0.00     0.049 A 
ATOM     61  H   UNL A   1      41.295  28.704  31.349  1.00  0.00     0.167 HD
ATOM     62  C   UNL A   1      42.349  29.348  33.900  1.00  0.00     0.074 A 
ATOM     63  C   UNL A   1      42.455  29.880  35.243  1.00  0.00     0.031 C 
ATOM     64  C   UNL A   1      43.283  28.557  33.317  1.00  0.00     0.034 A 
BRANCH  51  65
ATOM     65  C   UNL A   1      41.724  26.565  27.674  1.00  0.00     0.023 A 
ATOM     66  C   UNL A   1      42.375  27.146  26.566  1.00  0.00     0.012 A 
ATOM     67  C   UNL A   1      41.453  25.184  27.669  1.00  0.00     0.148 A 
ATOM     68  C   UNL A   1      42.714  26.376  25.455  1.00  0.00     0.002 A 
ATOM     69  C   UNL A   1      41.836  24.413  26.576  1.00  0.00     0.091 A 
ATOM     70  F   UNL A   1      40.814  24.652  28.720  1.00  0.00    -0.205 F 
ATOM     71  C   UNL A   1      42.453  25.009  25.465  1.00  0.00     0.022 A 
BRANCH  69  72
ATOM     72  S   UNL A   1      41.619  22.630  26.526  1.00  0.00     0.127 S 
ATOM     73  O   UNL A   1      42.245  22.223  27.783  1.00  0.00    -0.237 OA
ATOM     74  O   UNL A   1      40.163  22.498  26.500  1.00  0.00    -0.237 OA
ATOM     75  O   UNL A   1      42.293  22.178  25.318  1.00  0.00    -0.744 OA
ENDBRANCH  69  72
ENDBRANCH  51  65
BRANCH  52  76
ATOM     76  C   UNL A   1      38.836  32.046  35.512  1.00  0.00     0.023 A 
ATOM     77  C   UNL A   1      38.976  33.448  35.522  1.00  0.00     0.012 A 
ATOM     78  C   UNL A   1      38.240  31.408  36.618  1.00  0.00     0.148 A 
ATOM     79  C   UNL A   1      38.562  34.196  36.625  1.00  0.00     0.002 A 
ATOM     80  C   UNL A   1      37.778  32.165  37.688  1.00  0.00     0.091 A 
ATOM     81  F   UNL A   1      38.124  30.073  36.593  1.00  0.00    -0.205 F 
ATOM     82  C   UNL A   1      37.954  33.558  37.701  1.00  0.00     0.022 A 
BRANCH  80  83
ATOM     83  S   UNL A   1      36.861  31.444  39.054  1.00  0.00     0.127 S 
ATOM     84  O   UNL A   1      35.707  32.333  39.143  1.00  0.00    -0.237 OA
ATOM     85  O   UNL A   1      36.570  30.103  38.546  1.00  0.00    -0.237 OA
ATOM     86  O   UNL A   1      37.768  31.469  40.193  1.00  0.00    -0.744 OA
ENDBRANCH  80  83
ENDBRANCH  52  76
BRANCH  64  87
ATOM     87  C   UNL A   1      44.526  28.243  34.106  1.00  0.00     0.023 A 
ATOM     88  C   UNL A   1      45.637  29.107  34.042  1.00  0.00     0.012 A 
ATOM     89  C   UNL A   1      44.564  27.131  34.971  1.00  0.00     0.148 A 
ATOM     90  C   UNL A   1      46.779  28.852  34.800  1.00  0.00     0.002 A 
ATOM     91  C   UNL A   1      45.684  26.912  35.763  1.00  0.00     0.091 A 
ATOM     92  F   UNL A   1      43.504  26.311  35.004  1.00  0.00    -0.205 F 
ATOM     93  C   UNL A   1      46.797  27.764  35.669  1.00  0.00     0.022 A 
BRANCH  91  94
ATOM     94  S   UNL A   1      45.760  25.594  36.981  1.00  0.00     0.127 S 
ATOM     95  O   UNL A   1      45.659  24.403  36.139  1.00  0.00    -0.237 OA
ATOM     96  O   UNL A   1      47.076  25.805  37.584  1.00  0.00    -0.237 OA
ATOM     97  O   UNL A   1      44.638  25.817  37.883  1.00  0.00    -0.744 OA
ENDBRANCH  91  94
ENDBRANCH  64  87
ENDBRANCH  38  39
ENDBRANCH  30  33
ENDBRANCH  28  29
ENDBRANCH  27  28
ENDBRANCH   1  27
TORSDOF 21
ENDMDL
MODEL 2
REMARK VINA RESULT:     -11.4      2.873      8.064
REMARK SMILES CC(C)C[C@H](CNC(=O)c1ccc(O)cc1O)C(=O)NCCCCNC(=O)c1ccc(-c2c3nc(c(-c4cccc(S(=O)(=O)[O-])c4F)c4ccc([nH]4)c(-c4cccc(S(=O)(=O)[O-])c4F)c4nc(c(-c5cccc(S(=O)(=O)[O-])c5F)c5ccc2[nH]5)C=C4)C=C3)cc1
REMARK SMILES IDX 22 1 21 2 20 3 18 4 19 5 5 7 4 8 2 9 1 10 3 11 6 12 7 13
REMARK SMILES IDX 8 14 9 16 10 17 11 18 16 19 12 20 15 21 13 22 17 23 14 25
REMARK SMILES IDX 23 27 24 28 25 29 26 30 27 32 28 33 29 34 90 35 30 36 89 37
REMARK SMILES IDX 31 38 32 39 33 40 83 41 34 42 88 43 82 44 84 45 35 46 87 47
REMARK SMILES IDX 81 48 80 49 36 51 68 52 48 53 67 54 49 55 52 56 66 57 85 58
REMARK SMILES IDX 50 59 51 60 65 62 86 63 53 64 37 65 38 66 46 67 39 68 41 69
REMARK SMILES IDX 47 70 40 71 42 72 43 73 44 74 45 75 69 76 70 77 78 78 71 79
REMARK SMILES IDX 73 80 79 81 72 82 74 83 75 84 76 85 77 86 54 87 55 88 63 89
REMARK SMILES IDX 56 90 58 91 64 92 57 93 59 94 60 95 61 96 62 97
REMARK H PARENT 20 6 7 15 17 24 14 26 25 31 84 50 52 61
REMARK Flexibility Score: inf
ROOT
ATOM      1  C   UNL A   1      32.503  28.048  24.692  1.00  0.00     0.023 C 
ENDROOT
BRANCH   1   2
ATOM      2  C   UNL A   1      31.837  26.790  24.136  1.00  0.00     0.116 C 
BRANCH   2   3
ATOM      3  N   UNL A   1      32.451  26.354  22.892  1.00  0.00    -0.356 N 
ATOM      4  C   UNL A   1      33.196  25.252  22.602  1.00  0.00     0.224 C 
ATOM      5  O   UNL A   1      33.637  25.134  21.459  1.00  0.00    -0.275 OA
ATOM      6  H   UNL A   1      32.302  26.958  22.129  1.00  0.00     0.163 HD
BRANCH   4   7
ATOM      7  C   UNL A   1      33.472  24.176  23.648  1.00  0.00     0.098 C 
BRANCH   7   8
ATOM      8  C   UNL A   1      34.510  24.643  24.691  1.00  0.00     0.018 C 
BRANCH   8   9
ATOM      9  C   UNL A   1      34.190  24.211  26.140  1.00  0.00    -0.017 C 
ATOM     10  C   UNL A   1      32.693  23.957  26.342  1.00  0.00     0.007 C 
ATOM     11  C   UNL A   1      34.973  22.938  26.479  1.00  0.00     0.007 C 
ENDBRANCH   8   9
ENDBRANCH   7   8
BRANCH   7  12
ATOM     12  C   UNL A   1      33.739  22.834  22.942  1.00  0.00     0.129 C 
BRANCH  12  13
ATOM     13  N   UNL A   1      32.611  22.333  22.170  1.00  0.00    -0.351 N 
ATOM     14  C   UNL A   1      32.062  21.080  22.168  1.00  0.00     0.255 C 
ATOM     15  H   UNL A   1      32.186  22.984  21.567  1.00  0.00     0.163 HD
ATOM     16  O   UNL A   1      31.359  20.710  21.229  1.00  0.00    -0.269 OA
BRANCH  14  17
ATOM     17  C   UNL A   1      32.340  20.133  23.265  1.00  0.00     0.081 A 
ATOM     18  C   UNL A   1      32.528  20.593  24.576  1.00  0.00     0.021 A 
ATOM     19  C   UNL A   1      32.363  18.760  22.997  1.00  0.00     0.132 A 
ATOM     20  C   UNL A   1      32.817  19.688  25.597  1.00  0.00     0.047 A 
ATOM     21  C   UNL A   1      32.657  17.857  24.013  1.00  0.00     0.093 A 
ATOM     22  C   UNL A   1      32.890  18.327  25.302  1.00  0.00     0.119 A 
BRANCH  19  23
ATOM     23  O   UNL A   1      32.102  18.245  21.755  1.00  0.00    -0.507 OA
ATOM     24  H   UNL A   1      31.314  17.762  21.605  1.00  0.00     0.293 HD
ENDBRANCH  19  23
BRANCH  22  25
ATOM     25  O   UNL A   1      33.178  17.413  26.272  1.00  0.00    -0.508 OA
ATOM     26  H   UNL A   1      33.398  16.533  26.037  1.00  0.00     0.293 HD
ENDBRANCH  22  25
ENDBRANCH  14  17
ENDBRANCH  12  13
ENDBRANCH   7  12
ENDBRANCH   4   7
ENDBRANCH   2   3
ENDBRANCH   1   2
BRANCH   1  27
ATOM     27  C   UNL A   1      33.068  27.899  26.102  1.00  0.00     0.023 C 
BRANCH  27  28
ATOM     28  C   UNL A   1      34.261  28.794  26.412  1.00  0.00     0.116 C 
BRANCH  28  29
ATOM     29  N   UNL A   1      33.876  30.155  26.763  1.00  0.00    -0.352 N 
ATOM     30  C   UNL A   1      34.477  31.015  27.650  1.00  0.00     0.251 C 
ATOM     31  H   UNL A   1      33.078  30.504  26.304  1.00  0.00     0.163 HD
ATOM     32  O   UNL A   1      33.946  32.085  27.930  1.00  0.00    -0.269 OA
BRANCH  30  33
ATOM     33  C   UNL A   1      35.752  30.620  28.282  1.00  0.00     0.039 A 
ATOM     34  C   UNL A   1      35.722  29.811  29.420  1.00  0.00     0.014 A 
ATOM     35  C   UNL A   1      36.970  31.005  27.717  1.00  0.00     0.014 A 
ATOM     36  C   UNL A   1      36.920  29.329  29.950  1.00  0.00     0.010 A 
ATOM     37  C   UNL A   1      38.153  30.456  28.196  1.00  0.00     0.010 A 
ATOM     38  C   UNL A   1      38.143  29.616  29.320  1.00  0.00    -0.014 A 
BRANCH  38  39
ATOM     39  C   UNL A   1      39.420  29.040  29.812  1.00  0.00     0.031 A 
ATOM     40  C   UNL A   1      40.158  29.698  30.945  1.00  0.00     0.074 A 
ATOM     41  C   UNL A   1      39.960  27.980  29.177  1.00  0.00     0.049 A 
ATOM     42  N   UNL A   1      41.313  29.380  31.470  1.00  0.00    -0.248 NA
ATOM     43  C   UNL A   1      39.533  30.888  31.548  1.00  0.00     0.031 C 
ATOM     44  C   UNL A   1      39.385  27.307  28.011  1.00  0.00     0.029 A 
ATOM     45  N   UNL A   1      41.131  27.302  29.407  1.00  0.00    -0.354 N 
ATOM     46  C   UNL A   1      41.568  30.345  32.436  1.00  0.00     0.074 A 
ATOM     47  C   UNL A   1      40.469  31.285  32.396  1.00  0.00     0.031 C 
ATOM     48  C   UNL A   1      40.201  26.311  27.631  1.00  0.00     0.029 A 
ATOM     49  C   UNL A   1      41.370  26.292  28.503  1.00  0.00     0.049 A 
ATOM     50  H   UNL A   1      41.742  27.516  30.148  1.00  0.00     0.167 HD
ATOM     51  C   UNL A   1      42.607  30.427  33.301  1.00  0.00     0.034 A 
ATOM     52  C   UNL A   1      42.417  25.452  28.384  1.00  0.00     0.034 A 
ATOM     53  C   UNL A   1      43.677  29.470  33.364  1.00  0.00     0.049 A 
ATOM     54  C   UNL A   1      43.538  25.537  29.384  1.00  0.00     0.074 A 
ATOM     55  C   UNL A   1      44.728  29.413  34.262  1.00  0.00     0.029 A 
ATOM     56  N   UNL A   1      43.839  28.405  32.491  1.00  0.00    -0.354 N 
ATOM     57  N   UNL A   1      43.682  26.359  30.395  1.00  0.00    -0.248 NA
ATOM     58  C   UNL A   1      44.624  24.555  29.251  1.00  0.00     0.031 C 
ATOM     59  C   UNL A   1      45.540  28.328  33.916  1.00  0.00     0.029 A 
ATOM     60  C   UNL A   1      44.977  27.691  32.820  1.00  0.00     0.049 A 
ATOM     61  H   UNL A   1      43.233  28.190  31.745  1.00  0.00     0.167 HD
ATOM     62  C   UNL A   1      44.851  25.973  31.039  1.00  0.00     0.074 A 
ATOM     63  C   UNL A   1      45.366  24.829  30.316  1.00  0.00     0.031 C 
ATOM     64  C   UNL A   1      45.452  26.523  32.123  1.00  0.00     0.034 A 
BRANCH  51  65
ATOM     65  C   UNL A   1      42.605  31.568  34.287  1.00  0.00     0.023 A 
ATOM     66  C   UNL A   1      43.328  32.742  33.993  1.00  0.00     0.012 A 
ATOM     67  C   UNL A   1      41.855  31.498  35.476  1.00  0.00     0.148 A 
ATOM     68  C   UNL A   1      43.337  33.815  34.884  1.00  0.00     0.002 A 
ATOM     69  C   UNL A   1      41.831  32.590  36.338  1.00  0.00     0.091 A 
ATOM     70  F   UNL A   1      41.192  30.366  35.751  1.00  0.00    -0.205 F 
ATOM     71  C   UNL A   1      42.581  33.742  36.050  1.00  0.00     0.022 A 
BRANCH  69  72
ATOM     72  S   UNL A   1      40.823  32.628  37.825  1.00  0.00     0.127 S 
ATOM     73  O   UNL A   1      40.679  34.066  38.045  1.00  0.00    -0.237 OA
ATOM     74  O   UNL A   1      39.603  31.953  37.386  1.00  0.00    -0.237 OA
ATOM     75  O   UNL A   1      41.581  31.913  38.841  1.00  0.00    -0.744 OA
ENDBRANCH  69  72
ENDBRANCH  51  65
BRANCH  52  76
ATOM     76  C   UNL A   1      42.420  24.416  27.314  1.00  0.00     0.023 A 
ATOM     77  C   UNL A   1      43.276  24.568  26.204  1.00  0.00     0.012 A 
ATOM     78  C   UNL A   1      41.609  23.268  27.402  1.00  0.00     0.148 A 
ATOM     79  C   UNL A   1      43.299  23.613  25.187  1.00  0.00     0.002 A 
ATOM     80  C   UNL A   1      41.679  22.293  26.414  1.00  0.00     0.091 A 
ATOM     81  F   UNL A   1      40.795  23.146  28.460  1.00  0.00    -0.205 F 
ATOM     82  C   UNL A   1      42.510  22.472  25.296  1.00  0.00     0.022 A 
BRANCH  80  83
ATOM     83  S   UNL A   1      40.803  20.730  26.538  1.00  0.00     0.127 S 
ATOM     84  O   UNL A   1      39.470  21.096  26.069  1.00  0.00    -0.237 OA
ATOM     85  O   UNL A   1      41.569  19.881  25.624  1.00  0.00    -0.237 OA
ATOM     86  O   UNL A   1      40.896  20.338  27.938  1.00  0.00    -0.744 OA
ENDBRANCH  80  83
ENDBRANCH  52  76
BRANCH  64  87
ATOM     87  C   UNL A   1      46.717  25.878  32.625  1.00  0.00     0.023 A 
ATOM     88  C   UNL A   1      46.664  24.960  33.692  1.00  0.00     0.012 A 
ATOM     89  C   UNL A   1      47.949  26.128  31.988  1.00  0.00     0.148 A 
ATOM     90  C   UNL A   1      47.821  24.323  34.138  1.00  0.00     0.002 A 
ATOM     91  C   UNL A   1      49.089  25.451  32.403  1.00  0.00     0.091 A 
ATOM     92  F   UNL A   1      47.982  27.019  30.987  1.00  0.00    -0.205 F 
ATOM     93  C   UNL A   1      49.029  24.559  33.486  1.00  0.00     0.022 A 
BRANCH  91  94
ATOM     94  S   UNL A   1      50.668  25.616  31.563  1.00  0.00     0.127 S 
ATOM     95  O   UNL A   1      50.903  27.056  31.650  1.00  0.00    -0.237 OA
ATOM     96  O   UNL A   1      51.551  24.802  32.398  1.00  0.00    -0.237 OA
ATOM     97  O   UNL A   1      50.462  25.098  30.217  1.00  0.00    -0.744 OA
ENDBRANCH  91  94
ENDBRANCH  64  87
ENDBRANCH  38  39
ENDBRANCH  30  33
ENDBRANCH  28  29
ENDBRANCH  27  28
ENDBRANCH   1  27
TORSDOF 21
ENDMDL
MODEL 3
REMARK VINA RESULT:     -11.3      5.694     10.796
REMARK SMILES CC(C)C[C@H](CNC(=O)c1ccc(O)cc1O)C(=O)NCCCCNC(=O)c1ccc(-c2c3nc(c(-c4cccc(S(=O)(=O)[O-])c4F)c4ccc([nH]4)c(-c4cccc(S(=O)(=O)[O-])c4F)c4nc(c(-c5cccc(S(=O)(=O)[O-])c5F)c5ccc2[nH]5)C=C4)C=C3)cc1
REMARK SMILES IDX 22 1 21 2 20 3 18 4 19 5 5 7 4 8 2 9 1 10 3 11 6 12 7 13
REMARK SMILES IDX 8 14 9 16 10 17 11 18 16 19 12 20 15 21 13 22 17 23 14 25
REMARK SMILES IDX 23 27 24 28 25 29 26 30 27 32 28 33 29 34 90 35 30 36 89 37
REMARK SMILES IDX 31 38 32 39 33 40 83 41 34 42 88 43 82 44 84 45 35 46 87 47
REMARK SMILES IDX 81 48 80 49 36 51 68 52 48 53 67 54 49 55 52 56 66 57 85 58
REMARK SMILES IDX 50 59 51 60 65 62 86 63 53 64 37 65 38 66 46 67 39 68 41 69
REMARK SMILES IDX 47 70 40 71 42 72 43 73 44 74 45 75 69 76 70 77 78 78 71 79
REMARK SMILES IDX 73 80 79 81 72 82 74 83 75 84 76 85 77 86 54 87 55 88 63 89
REMARK SMILES IDX 56 90 58 91 64 92 57 93 59 94 60 95 61 96 62 97
REMARK H PARENT 20 6 7 15 17 24 14 26 25 31 84 50 52 61
REMARK Flexibility Score: inf
ROOT
ATOM      1  C   UNL A   1      36.463  21.165  25.129  1.00  0.00     0.023 C 
ENDROOT
BRANCH   1   2
ATOM      2  C   UNL A   1      36.587  22.579  24.565  1.00  0.00     0.116 C 
BRANCH   2   3
ATOM      3  N   UNL A   1      35.808  22.750  23.350  1.00  0.00    -0.356 N 
ATOM      4  C   UNL A   1      34.614  23.370  23.135  1.00  0.00     0.224 C 
ATOM      5  O   UNL A   1      34.142  23.341  21.998  1.00  0.00    -0.275 OA
ATOM      6  H   UNL A   1      36.212  22.351  22.546  1.00  0.00     0.163 HD
BRANCH   4   7
ATOM      7  C   UNL A   1      33.878  24.097  24.255  1.00  0.00     0.098 C 
BRANCH   7   8
ATOM      8  C   UNL A   1      32.930  23.154  25.025  1.00  0.00     0.018 C 
BRANCH   8   9
ATOM      9  C   UNL A   1      33.072  23.231  26.563  1.00  0.00    -0.017 C 
ATOM     10  C   UNL A   1      31.763  23.651  27.237  1.00  0.00     0.007 C 
ATOM     11  C   UNL A   1      33.510  21.867  27.105  1.00  0.00     0.007 C 
ENDBRANCH   8   9
ENDBRANCH   7   8
BRANCH   7  12
ATOM     12  C   UNL A   1      33.277  25.405  23.706  1.00  0.00     0.129 C 
BRANCH  12  13
ATOM     13  N   UNL A   1      31.824  25.409  23.634  1.00  0.00    -0.351 N 
ATOM     14  C   UNL A   1      30.930  26.125  24.382  1.00  0.00     0.255 C 
ATOM     15  H   UNL A   1      31.430  24.814  22.956  1.00  0.00     0.163 HD
ATOM     16  O   UNL A   1      29.754  25.772  24.453  1.00  0.00    -0.269 OA
BRANCH  14  17
ATOM     17  C   UNL A   1      31.366  27.304  25.153  1.00  0.00     0.081 A 
ATOM     18  C   UNL A   1      31.556  27.221  26.540  1.00  0.00     0.021 A 
ATOM     19  C   UNL A   1      31.643  28.501  24.483  1.00  0.00     0.132 A 
ATOM     20  C   UNL A   1      31.944  28.352  27.259  1.00  0.00     0.047 A 
ATOM     21  C   UNL A   1      32.023  29.630  25.199  1.00  0.00     0.093 A 
ATOM     22  C   UNL A   1      32.163  29.550  26.581  1.00  0.00     0.119 A 
BRANCH  19  23
ATOM     23  O   UNL A   1      31.559  28.620  23.120  1.00  0.00    -0.507 OA
ATOM     24  H   UNL A   1      31.377  27.867  22.594  1.00  0.00     0.293 HD
ENDBRANCH  19  23
BRANCH  22  25
ATOM     25  O   UNL A   1      32.534  30.678  27.251  1.00  0.00    -0.508 OA
ATOM     26  H   UNL A   1      33.437  30.828  27.452  1.00  0.00     0.293 HD
ENDBRANCH  22  25
ENDBRANCH  14  17
ENDBRANCH  12  13
ENDBRANCH   7  12
ENDBRANCH   4   7
ENDBRANCH   2   3
ENDBRANCH   1   2
BRANCH   1  27
ATOM     27  C   UNL A   1      37.688  20.280  24.907  1.00  0.00     0.023 C 
BRANCH  27  28
ATOM     28  C   UNL A   1      38.895  20.630  25.767  1.00  0.00     0.116 C 
BRANCH  28  29
ATOM     29  N   UNL A   1      39.826  19.519  25.920  1.00  0.00    -0.352 N 
ATOM     30  C   UNL A   1      41.176  19.560  26.169  1.00  0.00     0.251 C 
ATOM     31  H   UNL A   1      39.434  18.620  25.833  1.00  0.00     0.163 HD
ATOM     32  O   UNL A   1      41.842  18.530  26.137  1.00  0.00    -0.269 OA
BRANCH  30  33
ATOM     33  C   UNL A   1      41.818  20.862  26.443  1.00  0.00     0.039 A 
ATOM     34  C   UNL A   1      42.159  21.688  25.369  1.00  0.00     0.014 A 
ATOM     35  C   UNL A   1      42.030  21.283  27.757  1.00  0.00     0.014 A 
ATOM     36  C   UNL A   1      42.649  22.970  25.620  1.00  0.00     0.010 A 
ATOM     37  C   UNL A   1      42.437  22.588  28.003  1.00  0.00     0.010 A 
ATOM     38  C   UNL A   1      42.756  23.445  26.939  1.00  0.00    -0.014 A 
BRANCH  38  39
ATOM     39  C   UNL A   1      43.187  24.836  27.227  1.00  0.00     0.031 A 
ATOM     40  C   UNL A   1      42.237  25.801  27.881  1.00  0.00     0.074 A 
ATOM     41  C   UNL A   1      44.401  25.256  26.816  1.00  0.00     0.049 A 
ATOM     42  N   UNL A   1      42.408  27.068  28.156  1.00  0.00    -0.248 NA
ATOM     43  C   UNL A   1      40.907  25.284  28.247  1.00  0.00     0.031 C 
ATOM     44  C   UNL A   1      45.379  24.442  26.094  1.00  0.00     0.029 A 
ATOM     45  N   UNL A   1      45.005  26.484  26.921  1.00  0.00    -0.354 N 
ATOM     46  C   UNL A   1      41.203  27.505  28.691  1.00  0.00     0.074 A 
ATOM     47  C   UNL A   1      40.294  26.381  28.664  1.00  0.00     0.031 C 
ATOM     48  C   UNL A   1      46.462  25.189  25.825  1.00  0.00     0.029 A 
ATOM     49  C   UNL A   1      46.245  26.542  26.327  1.00  0.00     0.049 A 
ATOM     50  H   UNL A   1      44.592  27.252  27.380  1.00  0.00     0.167 HD
ATOM     51  C   UNL A   1      40.888  28.724  29.190  1.00  0.00     0.034 A 
ATOM     52  C   UNL A   1      47.105  27.570  26.193  1.00  0.00     0.034 A 
ATOM     53  C   UNL A   1      41.807  29.828  29.252  1.00  0.00     0.049 A 
ATOM     54  C   UNL A   1      46.749  28.903  26.793  1.00  0.00     0.074 A 
ATOM     55  C   UNL A   1      41.615  31.076  29.819  1.00  0.00     0.029 A 
ATOM     56  N   UNL A   1      43.088  29.823  28.721  1.00  0.00    -0.354 N 
ATOM     57  N   UNL A   1      45.665  29.253  27.441  1.00  0.00    -0.248 NA
ATOM     58  C   UNL A   1      47.750  29.973  26.677  1.00  0.00     0.031 C 
ATOM     59  C   UNL A   1      42.772  31.833  29.609  1.00  0.00     0.029 A 
ATOM     60  C   UNL A   1      43.695  31.047  28.938  1.00  0.00     0.049 A 
ATOM     61  H   UNL A   1      43.503  29.060  28.258  1.00  0.00     0.167 HD
ATOM     62  C   UNL A   1      45.866  30.569  27.842  1.00  0.00     0.074 A 
ATOM     63  C   UNL A   1      47.186  30.946  27.381  1.00  0.00     0.031 C 
ATOM     64  C   UNL A   1      45.029  31.394  28.518  1.00  0.00     0.034 A 
BRANCH  51  65
ATOM     65  C   UNL A   1      39.505  28.910  29.760  1.00  0.00     0.023 A 
ATOM     66  C   UNL A   1      39.223  28.452  31.064  1.00  0.00     0.012 A 
ATOM     67  C   UNL A   1      38.502  29.576  29.030  1.00  0.00     0.148 A 
ATOM     68  C   UNL A   1      37.954  28.618  31.618  1.00  0.00     0.002 A 
ATOM     69  C   UNL A   1      37.253  29.779  29.607  1.00  0.00     0.091 A 
ATOM     70  F   UNL A   1      38.780  29.985  27.785  1.00  0.00    -0.205 F 
ATOM     71  C   UNL A   1      36.974  29.290  30.894  1.00  0.00     0.022 A 
BRANCH  69  72
ATOM     72  S   UNL A   1      35.948  30.705  28.790  1.00  0.00     0.127 S 
ATOM     73  O   UNL A   1      35.280  29.655  28.023  1.00  0.00    -0.237 OA
ATOM     74  O   UNL A   1      35.178  31.216  29.924  1.00  0.00    -0.237 OA
ATOM     75  O   UNL A   1      36.617  31.728  27.999  1.00  0.00    -0.744 OA
ENDBRANCH  69  72
ENDBRANCH  51  65
BRANCH  52  76
ATOM     76  C   UNL A   1      48.415  27.359  25.514  1.00  0.00     0.023 A 
ATOM     77  C   UNL A   1      49.531  26.953  26.272  1.00  0.00     0.012 A 
ATOM     78  C   UNL A   1      48.554  27.526  24.122  1.00  0.00     0.148 A 
ATOM     79  C   UNL A   1      50.769  26.750  25.662  1.00  0.00     0.002 A 
ATOM     80  C   UNL A   1      49.776  27.266  23.513  1.00  0.00     0.091 A 
ATOM     81  F   UNL A   1      47.483  27.921  23.420  1.00  0.00    -0.205 F 
ATOM     82  C   UNL A   1      50.890  26.895  24.283  1.00  0.00     0.022 A 
BRANCH  80  83
ATOM     83  S   UNL A   1      49.989  27.295  21.729  1.00  0.00     0.127 S 
ATOM     84  O   UNL A   1      51.368  26.840  21.585  1.00  0.00    -0.237 OA
ATOM     85  O   UNL A   1      48.973  26.338  21.289  1.00  0.00    -0.237 OA
ATOM     86  O   UNL A   1      49.730  28.670  21.325  1.00  0.00    -0.744 OA
ENDBRANCH  80  83
ENDBRANCH  52  76
BRANCH  64  87
ATOM     87  C   UNL A   1      45.522  32.781  28.839  1.00  0.00     0.023 A 
ATOM     88  C   UNL A   1      46.229  33.017  30.035  1.00  0.00     0.012 A 
ATOM     89  C   UNL A   1      45.349  33.833  27.918  1.00  0.00     0.148 A 
ATOM     90  C   UNL A   1      46.728  34.286  30.324  1.00  0.00     0.002 A 
ATOM     91  C   UNL A   1      45.893  35.082  28.189  1.00  0.00     0.091 A 
ATOM     92  F   UNL A   1      44.657  33.592  26.795  1.00  0.00    -0.205 F 
ATOM     93  C   UNL A   1      46.572  35.313  29.396  1.00  0.00     0.022 A 
BRANCH  91  94
ATOM     94  S   UNL A   1      45.828  36.438  27.012  1.00  0.00     0.127 S 
ATOM     95  O   UNL A   1      46.652  37.447  27.674  1.00  0.00    -0.237 OA
ATOM     96  O   UNL A   1      46.432  35.843  25.820  1.00  0.00    -0.237 OA
ATOM     97  O   UNL A   1      44.419  36.778  26.871  1.00  0.00    -0.744 OA
ENDBRANCH  91  94
ENDBRANCH  64  87
ENDBRANCH  38  39
ENDBRANCH  30  33
ENDBRANCH  28  29
ENDBRANCH  27  28
ENDBRANCH   1  27
TORSDOF 21
ENDMDL
