MODEL 1
REMARK VINA RESULT:     -11.9      0.000      0.000
REMARK SMILES Cc1cc(SCC(=O)NCCCCNC(=O)c2ccc(-c3c4nc(c(-c5cccc(S(=O)(=O)[O-])c5F)c5ccc([nH]5)c(-c5cccc(S(=O)(=O)[O-])c5F)c5nc(c(-c6cccc(S(=O)(=O)[O-])c6F)c6ccc3[nH]6)C=C5)C=C4)cc2)c2cc(I)ccc2n1
REMARK SMILES IDX 12 1 11 2 10 3 9 4 7 5 8 6 6 8 5 9 4 10 1 11 2 12 3 13 87 14
REMARK SMILES IDX 86 15 80 16 85 17 81 18 84 19 82 20 83 21 13 22 14 23 15 24
REMARK SMILES IDX 16 26 17 27 18 28 79 29 19 30 78 31 20 32 21 33 22 34 72 35
REMARK SMILES IDX 23 36 77 37 71 38 73 39 24 40 76 41 70 42 69 43 25 45 57 46
REMARK SMILES IDX 37 47 56 48 38 49 41 50 55 51 74 52 39 53 40 54 54 56 75 57
REMARK SMILES IDX 42 58 26 59 27 60 35 61 28 62 30 63 36 64 29 65 31 66 32 67
REMARK SMILES IDX 33 68 34 69 58 70 59 71 67 72 60 73 62 74 68 75 61 76 63 77
REMARK SMILES IDX 64 78 65 79 66 80 43 81 44 82 52 83 45 84 47 85 53 86 46 87
REMARK SMILES IDX 48 88 49 89 50 90 51 91
REMARK H PARENT 9 7 14 25 73 44 41 55
REMARK Flexibility Score: inf
ROOT
ATOM      1  C   UNL A   1      31.659  28.808  26.442  1.00  0.00     0.023 C 
ENDROOT
BRANCH   1   2
ATOM      2  C   UNL A   1      31.398  27.629  25.499  1.00  0.00     0.023 C 
BRANCH   2   3
ATOM      3  C   UNL A   1      31.925  26.280  25.988  1.00  0.00     0.116 C 
BRANCH   3   4
ATOM      4  N   UNL A   1      30.861  25.440  26.501  1.00  0.00    -0.355 N 
ATOM      5  C   UNL A   1      30.882  24.127  26.858  1.00  0.00     0.230 C 
ATOM      6  O   UNL A   1      29.829  23.617  27.251  1.00  0.00    -0.274 OA
ATOM      7  H   UNL A   1      29.992  25.887  26.608  1.00  0.00     0.163 HD
BRANCH   5   8
ATOM      8  C   UNL A   1      32.171  23.328  26.865  1.00  0.00     0.174 C 
BRANCH   8   9
ATOM      9  S   UNL A   1      32.670  22.643  25.253  1.00  0.00    -0.115 SA
BRANCH   9  10
ATOM     10  C   UNL A   1      34.441  22.314  25.373  1.00  0.00     0.019 A 
ATOM     11  C   UNL A   1      37.701  24.079  26.125  1.00  0.00     0.067 C 
ATOM     12  C   UNL A   1      36.699  23.022  25.768  1.00  0.00     0.039 A 
ATOM     13  C   UNL A   1      35.353  23.331  25.658  1.00  0.00     0.039 A 
ATOM     14  N   UNL A   1      37.182  21.785  25.529  1.00  0.00    -0.253 NA
ATOM     15  C   UNL A   1      36.327  20.805  25.214  1.00  0.00     0.072 A 
ATOM     16  C   UNL A   1      34.931  20.997  25.127  1.00  0.00     0.015 A 
ATOM     17  C   UNL A   1      36.861  19.548  24.963  1.00  0.00     0.030 A 
ATOM     18  C   UNL A   1      34.124  19.872  24.794  1.00  0.00     0.026 A 
ATOM     19  C   UNL A   1      36.062  18.454  24.627  1.00  0.00     0.017 A 
ATOM     20  C   UNL A   1      34.689  18.621  24.548  1.00  0.00     0.014 A 
ATOM     21  I   UNL A   1      33.473  17.012  24.055  1.00  0.00    -0.044 I 
ENDBRANCH   9  10
ENDBRANCH   8   9
ENDBRANCH   5   8
ENDBRANCH   3   4
ENDBRANCH   2   3
ENDBRANCH   1   2
BRANCH   1  22
ATOM     22  C   UNL A   1      32.651  29.852  25.939  1.00  0.00     0.116 C 
BRANCH  22  23
ATOM     23  N   UNL A   1      32.365  31.197  26.413  1.00  0.00    -0.352 N 
ATOM     24  C   UNL A   1      33.120  31.998  27.240  1.00  0.00     0.251 C 
ATOM     25  H   UNL A   1      31.517  31.588  26.099  1.00  0.00     0.163 HD
ATOM     26  O   UNL A   1      32.673  33.078  27.620  1.00  0.00    -0.269 OA
BRANCH  24  27
ATOM     27  C   UNL A   1      34.446  31.530  27.703  1.00  0.00     0.039 A 
ATOM     28  C   UNL A   1      34.678  30.175  27.948  1.00  0.00     0.014 A 
ATOM     29  C   UNL A   1      35.454  32.468  27.938  1.00  0.00     0.014 A 
ATOM     30  C   UNL A   1      35.854  29.782  28.581  1.00  0.00     0.010 A 
ATOM     31  C   UNL A   1      36.663  32.061  28.511  1.00  0.00     0.010 A 
ATOM     32  C   UNL A   1      36.852  30.722  28.888  1.00  0.00    -0.014 A 
BRANCH  32  33
ATOM     33  C   UNL A   1      38.068  30.288  29.628  1.00  0.00     0.031 A 
ATOM     34  C   UNL A   1      38.304  30.737  31.049  1.00  0.00     0.074 A 
ATOM     35  C   UNL A   1      38.934  29.441  29.040  1.00  0.00     0.049 A 
ATOM     36  N   UNL A   1      39.287  30.424  31.854  1.00  0.00    -0.248 NA
ATOM     37  C   UNL A   1      37.316  31.653  31.645  1.00  0.00     0.031 C 
ATOM     38  C   UNL A   1      38.823  28.936  27.670  1.00  0.00     0.029 A 
ATOM     39  N   UNL A   1      40.068  28.837  29.525  1.00  0.00    -0.354 N 
ATOM     40  C   UNL A   1      39.058  31.127  33.032  1.00  0.00     0.074 A 
ATOM     41  C   UNL A   1      37.844  31.888  32.840  1.00  0.00     0.031 C 
ATOM     42  C   UNL A   1      39.816  28.063  27.440  1.00  0.00     0.029 A 
ATOM     43  C   UNL A   1      40.660  27.976  28.628  1.00  0.00     0.049 A 
ATOM     44  H   UNL A   1      40.424  29.004  30.426  1.00  0.00     0.167 HD
ATOM     45  C   UNL A   1      39.781  31.121  34.176  1.00  0.00     0.034 A 
ATOM     46  C   UNL A   1      41.754  27.200  28.749  1.00  0.00     0.034 A 
ATOM     47  C   UNL A   1      40.951  30.316  34.396  1.00  0.00     0.049 A 
ATOM     48  C   UNL A   1      42.527  27.209  30.036  1.00  0.00     0.074 A 
ATOM     49  C   UNL A   1      41.720  30.222  35.543  1.00  0.00     0.029 A 
ATOM     50  N   UNL A   1      41.511  29.460  33.465  1.00  0.00    -0.354 N 
ATOM     51  N   UNL A   1      42.252  27.829  31.157  1.00  0.00    -0.248 NA
ATOM     52  C   UNL A   1      43.757  26.402  30.080  1.00  0.00     0.031 C 
ATOM     53  C   UNL A   1      42.744  29.301  35.307  1.00  0.00     0.029 A 
ATOM     54  C   UNL A   1      42.614  28.829  34.011  1.00  0.00     0.049 A 
ATOM     55  H   UNL A   1      41.176  29.321  32.550  1.00  0.00     0.167 HD
ATOM     56  C   UNL A   1      43.262  27.477  32.043  1.00  0.00     0.074 A 
ATOM     57  C   UNL A   1      44.147  26.573  31.338  1.00  0.00     0.031 C 
ATOM     58  C   UNL A   1      43.451  27.887  33.319  1.00  0.00     0.034 A 
BRANCH  45  59
ATOM     59  C   UNL A   1      39.304  31.960  35.328  1.00  0.00     0.023 A 
ATOM     60  C   UNL A   1      38.496  31.365  36.316  1.00  0.00     0.012 A 
ATOM     61  C   UNL A   1      39.770  33.277  35.508  1.00  0.00     0.148 A 
ATOM     62  C   UNL A   1      38.159  32.069  37.471  1.00  0.00     0.002 A 
ATOM     63  C   UNL A   1      39.449  33.964  36.673  1.00  0.00     0.091 A 
ATOM     64  F   UNL A   1      40.536  33.818  34.550  1.00  0.00    -0.205 F 
ATOM     65  C   UNL A   1      38.643  33.363  37.653  1.00  0.00     0.022 A 
BRANCH  63  66
ATOM     66  S   UNL A   1      40.061  35.613  37.035  1.00  0.00     0.127 S 
ATOM     67  O   UNL A   1      39.388  35.907  38.301  1.00  0.00    -0.237 OA
ATOM     68  O   UNL A   1      41.501  35.386  37.149  1.00  0.00    -0.237 OA
ATOM     69  O   UNL A   1      39.653  36.453  35.917  1.00  0.00    -0.744 OA
ENDBRANCH  63  66
ENDBRANCH  45  59
BRANCH  46  70
ATOM     70  C   UNL A   1      42.142  26.295  27.635  1.00  0.00     0.023 A 
ATOM     71  C   UNL A   1      42.931  26.803  26.585  1.00  0.00     0.012 A 
ATOM     72  C   UNL A   1      41.777  24.935  27.629  1.00  0.00     0.148 A 
ATOM     73  C   UNL A   1      43.340  25.974  25.541  1.00  0.00     0.002 A 
ATOM     74  C   UNL A   1      42.225  24.105  26.608  1.00  0.00     0.091 A 
ATOM     75  F   UNL A   1      41.008  24.480  28.628  1.00  0.00    -0.205 F 
ATOM     76  C   UNL A   1      42.998  24.624  25.559  1.00  0.00     0.022 A 
BRANCH  74  77
ATOM     77  S   UNL A   1      41.925  22.334  26.615  1.00  0.00     0.127 S 
ATOM     78  O   UNL A   1      42.573  21.917  25.376  1.00  0.00    -0.237 OA
ATOM     79  O   UNL A   1      42.606  21.913  27.840  1.00  0.00    -0.237 OA
ATOM     80  O   UNL A   1      40.475  22.187  26.659  1.00  0.00    -0.744 OA
ENDBRANCH  74  77
ENDBRANCH  46  70
BRANCH  58  81
ATOM     81  C   UNL A   1      44.651  27.368  34.058  1.00  0.00     0.023 A 
ATOM     82  C   UNL A   1      45.836  28.127  34.055  1.00  0.00     0.012 A 
ATOM     83  C   UNL A   1      44.568  26.204  34.847  1.00  0.00     0.148 A 
ATOM     84  C   UNL A   1      46.928  27.732  34.825  1.00  0.00     0.002 A 
ATOM     85  C   UNL A   1      45.649  25.833  35.635  1.00  0.00     0.091 A 
ATOM     86  F   UNL A   1      43.429  25.496  34.820  1.00  0.00    -0.205 F 
ATOM     87  C   UNL A   1      46.831  26.594  35.623  1.00  0.00     0.022 A 
BRANCH  85  88
ATOM     88  S   UNL A   1      45.598  24.425  36.749  1.00  0.00     0.127 S 
ATOM     89  O   UNL A   1      46.979  24.370  37.223  1.00  0.00    -0.237 OA
ATOM     90  O   UNL A   1      44.625  24.858  37.751  1.00  0.00    -0.237 OA
ATOM     91  O   UNL A   1      45.172  23.289  35.942  1.00  0.00    -0.744 OA
ENDBRANCH  85  88
ENDBRANCH  58  81
ENDBRANCH  32  33
ENDBRANCH  24  27
ENDBRANCH  22  23
ENDBRANCH   1  22
TORSDOF 16
ENDMDL
MODEL 2
REMARK VINA RESULT:     -11.7      1.703      2.232
REMARK SMILES Cc1cc(SCC(=O)NCCCCNC(=O)c2ccc(-c3c4nc(c(-c5cccc(S(=O)(=O)[O-])c5F)c5ccc([nH]5)c(-c5cccc(S(=O)(=O)[O-])c5F)c5nc(c(-c6cccc(S(=O)(=O)[O-])c6F)c6ccc3[nH]6)C=C5)C=C4)cc2)c2cc(I)ccc2n1
REMARK SMILES IDX 12 1 11 2 10 3 9 4 7 5 8 6 6 8 5 9 4 10 1 11 2 12 3 13 87 14
REMARK SMILES IDX 86 15 80 16 85 17 81 18 84 19 82 20 83 21 13 22 14 23 15 24
REMARK SMILES IDX 16 26 17 27 18 28 79 29 19 30 78 31 20 32 21 33 22 34 72 35
REMARK SMILES IDX 23 36 77 37 71 38 73 39 24 40 76 41 70 42 69 43 25 45 57 46
REMARK SMILES IDX 37 47 56 48 38 49 41 50 55 51 74 52 39 53 40 54 54 56 75 57
REMARK SMILES IDX 42 58 26 59 27 60 35 61 28 62 30 63 36 64 29 65 31 66 32 67
REMARK SMILES IDX 33 68 34 69 58 70 59 71 67 72 60 73 62 74 68 75 61 76 63 77
REMARK SMILES IDX 64 78 65 79 66 80 43 81 44 82 52 83 45 84 47 85 53 86 46 87
REMARK SMILES IDX 48 88 49 89 50 90 51 91
REMARK H PARENT 9 7 14 25 73 44 41 55
REMARK Flexibility Score: inf
ROOT
ATOM      1  C   UNL A   1      31.732  28.698  26.658  1.00  0.00     0.023 C 
ENDROOT
BRANCH   1   2
ATOM      2  C   UNL A   1      32.033  27.224  26.365  1.00  0.00     0.023 C 
BRANCH   2   3
ATOM      3  C   UNL A   1      30.955  26.491  25.566  1.00  0.00     0.116 C 
BRANCH   3   4
ATOM      4  N   UNL A   1      30.273  25.495  26.369  1.00  0.00    -0.355 N 
ATOM      5  C   UNL A   1      30.547  24.173  26.535  1.00  0.00     0.230 C 
ATOM      6  O   UNL A   1      29.798  23.514  27.263  1.00  0.00    -0.274 OA
ATOM      7  H   UNL A   1      29.494  25.826  26.871  1.00  0.00     0.163 HD
BRANCH   5   8
ATOM      8  C   UNL A   1      31.781  23.536  25.927  1.00  0.00     0.174 C 
BRANCH   8   9
ATOM      9  S   UNL A   1      32.831  22.608  27.090  1.00  0.00    -0.115 SA
BRANCH   9  10
ATOM     10  C   UNL A   1      33.644  21.321  26.119  1.00  0.00     0.019 A 
ATOM     11  C   UNL A   1      32.894  18.028  24.417  1.00  0.00     0.067 C 
ATOM     12  C   UNL A   1      33.615  19.237  24.931  1.00  0.00     0.039 A 
ATOM     13  C   UNL A   1      32.955  20.182  25.699  1.00  0.00     0.039 A 
ATOM     14  N   UNL A   1      34.929  19.329  24.637  1.00  0.00    -0.253 NA
ATOM     15  C   UNL A   1      35.616  20.394  25.066  1.00  0.00     0.072 A 
ATOM     16  C   UNL A   1      35.031  21.443  25.810  1.00  0.00     0.015 A 
ATOM     17  C   UNL A   1      36.968  20.450  24.756  1.00  0.00     0.030 A 
ATOM     18  C   UNL A   1      35.865  22.528  26.199  1.00  0.00     0.026 A 
ATOM     19  C   UNL A   1      37.779  21.514  25.152  1.00  0.00     0.017 A 
ATOM     20  C   UNL A   1      37.220  22.557  25.872  1.00  0.00     0.014 A 
ATOM     21  I   UNL A   1      38.400  24.157  26.473  1.00  0.00    -0.044 I 
ENDBRANCH   9  10
ENDBRANCH   8   9
ENDBRANCH   5   8
ENDBRANCH   3   4
ENDBRANCH   2   3
ENDBRANCH   1   2
BRANCH   1  22
ATOM     22  C   UNL A   1      32.750  29.701  26.124  1.00  0.00     0.116 C 
BRANCH  22  23
ATOM     23  N   UNL A   1      32.495  31.067  26.555  1.00  0.00    -0.352 N 
ATOM     24  C   UNL A   1      33.290  31.891  27.320  1.00  0.00     0.251 C 
ATOM     25  H   UNL A   1      31.640  31.455  26.259  1.00  0.00     0.163 HD
ATOM     26  O   UNL A   1      32.870  32.990  27.673  1.00  0.00    -0.269 OA
BRANCH  24  27
ATOM     27  C   UNL A   1      34.628  31.425  27.750  1.00  0.00     0.039 A 
ATOM     28  C   UNL A   1      34.844  30.087  28.086  1.00  0.00     0.014 A 
ATOM     29  C   UNL A   1      35.667  32.353  27.862  1.00  0.00     0.014 A 
ATOM     30  C   UNL A   1      36.043  29.713  28.687  1.00  0.00     0.010 A 
ATOM     31  C   UNL A   1      36.896  31.960  28.403  1.00  0.00     0.010 A 
ATOM     32  C   UNL A   1      37.075  30.649  28.871  1.00  0.00    -0.014 A 
BRANCH  32  33
ATOM     33  C   UNL A   1      38.318  30.241  29.580  1.00  0.00     0.031 A 
ATOM     34  C   UNL A   1      38.597  30.723  30.982  1.00  0.00     0.074 A 
ATOM     35  C   UNL A   1      39.173  29.388  28.982  1.00  0.00     0.049 A 
ATOM     36  N   UNL A   1      39.608  30.435  31.761  1.00  0.00    -0.248 NA
ATOM     37  C   UNL A   1      37.621  31.643  31.591  1.00  0.00     0.031 C 
ATOM     38  C   UNL A   1      39.021  28.852  27.628  1.00  0.00     0.029 A 
ATOM     39  N   UNL A   1      40.327  28.804  29.442  1.00  0.00    -0.354 N 
ATOM     40  C   UNL A   1      39.411  31.162  32.930  1.00  0.00     0.074 A 
ATOM     41  C   UNL A   1      38.185  31.908  32.762  1.00  0.00     0.031 C 
ATOM     42  C   UNL A   1      40.014  27.983  27.384  1.00  0.00     0.029 A 
ATOM     43  C   UNL A   1      40.896  27.929  28.546  1.00  0.00     0.049 A 
ATOM     44  H   UNL A   1      40.711  28.994  30.328  1.00  0.00     0.167 HD
ATOM     45  C   UNL A   1      40.171  31.187  34.050  1.00  0.00     0.034 A 
ATOM     46  C   UNL A   1      42.001  27.165  28.647  1.00  0.00     0.034 A 
ATOM     47  C   UNL A   1      41.355  30.396  34.249  1.00  0.00     0.049 A 
ATOM     48  C   UNL A   1      42.816  27.207  29.908  1.00  0.00     0.074 A 
ATOM     49  C   UNL A   1      42.161  30.334  35.372  1.00  0.00     0.029 A 
ATOM     50  N   UNL A   1      41.892  29.525  33.318  1.00  0.00    -0.354 N 
ATOM     51  N   UNL A   1      42.571  27.850  31.023  1.00  0.00    -0.248 NA
ATOM     52  C   UNL A   1      44.054  26.412  29.929  1.00  0.00     0.031 C 
ATOM     53  C   UNL A   1      43.186  29.417  35.122  1.00  0.00     0.029 A 
ATOM     54  C   UNL A   1      43.018  28.915  33.842  1.00  0.00     0.049 A 
ATOM     55  H   UNL A   1      41.528  29.363  32.418  1.00  0.00     0.167 HD
ATOM     56  C   UNL A   1      43.613  27.525  31.883  1.00  0.00     0.074 A 
ATOM     57  C   UNL A   1      44.482  26.613  31.170  1.00  0.00     0.031 C 
ATOM     58  C   UNL A   1      43.840  27.965  33.143  1.00  0.00     0.034 A 
BRANCH  45  59
ATOM     59  C   UNL A   1      39.725  32.047  35.199  1.00  0.00     0.023 A 
ATOM     60  C   UNL A   1      39.974  33.432  35.150  1.00  0.00     0.012 A 
ATOM     61  C   UNL A   1      38.939  31.516  36.240  1.00  0.00     0.148 A 
ATOM     62  C   UNL A   1      39.446  34.280  36.122  1.00  0.00     0.002 A 
ATOM     63  C   UNL A   1      38.396  32.371  37.193  1.00  0.00     0.091 A 
ATOM     64  F   UNL A   1      38.719  30.194  36.261  1.00  0.00    -0.205 F 
ATOM     65  C   UNL A   1      38.650  33.751  37.136  1.00  0.00     0.022 A 
BRANCH  63  66
ATOM     66  S   UNL A   1      37.314  31.805  38.510  1.00  0.00     0.127 S 
ATOM     67  O   UNL A   1      37.044  30.427  38.099  1.00  0.00    -0.237 OA
ATOM     68  O   UNL A   1      38.173  31.934  39.686  1.00  0.00    -0.237 OA
ATOM     69  O   UNL A   1      36.154  32.687  38.490  1.00  0.00    -0.744 OA
ENDBRANCH  63  66
ENDBRANCH  45  59
BRANCH  46  70
ATOM     70  C   UNL A   1      42.361  26.238  27.541  1.00  0.00     0.023 A 
ATOM     71  C   UNL A   1      42.977  26.759  26.387  1.00  0.00     0.012 A 
ATOM     72  C   UNL A   1      42.139  24.852  27.640  1.00  0.00     0.148 A 
ATOM     73  C   UNL A   1      43.357  25.914  25.344  1.00  0.00     0.002 A 
ATOM     74  C   UNL A   1      42.560  24.011  26.616  1.00  0.00     0.091 A 
ATOM     75  F   UNL A   1      41.531  24.383  28.738  1.00  0.00    -0.205 F 
ATOM     76  C   UNL A   1      43.160  24.541  25.463  1.00  0.00     0.022 A 
BRANCH  74  77
ATOM     77  S   UNL A   1      42.446  22.223  26.739  1.00  0.00     0.127 S 
ATOM     78  O   UNL A   1      43.516  21.793  25.844  1.00  0.00    -0.237 OA
ATOM     79  O   UNL A   1      42.704  21.998  28.162  1.00  0.00    -0.237 OA
ATOM     80  O   UNL A   1      41.091  21.890  26.319  1.00  0.00    -0.744 OA
ENDBRANCH  74  77
ENDBRANCH  46  70
BRANCH  58  81
ATOM     81  C   UNL A   1      45.068  27.472  33.853  1.00  0.00     0.023 A 
ATOM     82  C   UNL A   1      46.245  28.242  33.798  1.00  0.00     0.012 A 
ATOM     83  C   UNL A   1      45.022  26.324  34.668  1.00  0.00     0.148 A 
ATOM     84  C   UNL A   1      47.364  27.873  34.540  1.00  0.00     0.002 A 
ATOM     85  C   UNL A   1      46.131  25.979  35.428  1.00  0.00     0.091 A 
ATOM     86  F   UNL A   1      43.890  25.604  34.692  1.00  0.00    -0.205 F 
ATOM     87  C   UNL A   1      47.304  26.750  35.363  1.00  0.00     0.022 A 
BRANCH  85  88
ATOM     88  S   UNL A   1      46.129  24.593  36.571  1.00  0.00     0.127 S 
ATOM     89  O   UNL A   1      47.320  24.867  37.373  1.00  0.00    -0.237 OA
ATOM     90  O   UNL A   1      44.862  24.776  37.278  1.00  0.00    -0.237 OA
ATOM     91  O   UNL A   1      46.196  23.393  35.748  1.00  0.00    -0.744 OA
ENDBRANCH  85  88
ENDBRANCH  58  81
ENDBRANCH  32  33
ENDBRANCH  24  27
ENDBRANCH  22  23
ENDBRANCH   1  22
TORSDOF 16
ENDMDL
MODEL 3
REMARK VINA RESULT:     -11.6      5.426     10.581
REMARK SMILES Cc1cc(SCC(=O)NCCCCNC(=O)c2ccc(-c3c4nc(c(-c5cccc(S(=O)(=O)[O-])c5F)c5ccc([nH]5)c(-c5cccc(S(=O)(=O)[O-])c5F)c5nc(c(-c6cccc(S(=O)(=O)[O-])c6F)c6ccc3[nH]6)C=C5)C=C4)cc2)c2cc(I)ccc2n1
REMARK SMILES IDX 12 1 11 2 10 3 9 4 7 5 8 6 6 8 5 9 4 10 1 11 2 12 3 13 87 14
REMARK SMILES IDX 86 15 80 16 85 17 81 18 84 19 82 20 83 21 13 22 14 23 15 24
REMARK SMILES IDX 16 26 17 27 18 28 79 29 19 30 78 31 20 32 21 33 22 34 72 35
REMARK SMILES IDX 23 36 77 37 71 38 73 39 24 40 76 41 70 42 69 43 25 45 57 46
REMARK SMILES IDX 37 47 56 48 38 49 41 50 55 51 74 52 39 53 40 54 54 56 75 57
REMARK SMILES IDX 42 58 26 59 27 60 35 61 28 62 30 63 36 64 29 65 31 66 32 67
REMARK SMILES IDX 33 68 34 69 58 70 59 71 67 72 60 73 62 74 68 75 61 76 63 77
REMARK SMILES IDX 64 78 65 79 66 80 43 81 44 82 52 83 45 84 47 85 53 86 46 87
REMARK SMILES IDX 48 88 49 89 50 90 51 91
REMARK H PARENT 9 7 14 25 73 44 41 55
REMARK Flexibility Score: inf
ROOT
ATOM      1  C   UNL A   1      35.328  20.663  25.054  1.00  0.00     0.023 C 
ENDROOT
BRANCH   1   2
ATOM      2  C   UNL A   1      34.101  21.442  25.540  1.00  0.00     0.023 C 
BRANCH   2   3
ATOM      3  C   UNL A   1      34.001  22.878  25.022  1.00  0.00     0.116 C 
BRANCH   3   4
ATOM      4  N   UNL A   1      33.859  22.921  23.581  1.00  0.00    -0.355 N 
ATOM      5  C   UNL A   1      33.682  23.988  22.754  1.00  0.00     0.230 C 
ATOM      6  O   UNL A   1      33.563  23.769  21.545  1.00  0.00    -0.274 OA
ATOM      7  H   UNL A   1      33.897  22.047  23.131  1.00  0.00     0.163 HD
BRANCH   5   8
ATOM      8  C   UNL A   1      33.722  25.410  23.276  1.00  0.00     0.174 C 
BRANCH   8   9
ATOM      9  S   UNL A   1      32.103  26.127  23.702  1.00  0.00    -0.115 SA
BRANCH   9  10
ATOM     10  C   UNL A   1      32.448  27.599  24.690  1.00  0.00     0.019 A 
ATOM     11  C   UNL A   1      34.910  28.891  27.254  1.00  0.00     0.067 C 
ATOM     12  C   UNL A   1      33.749  28.798  26.310  1.00  0.00     0.039 A 
ATOM     13  C   UNL A   1      33.508  27.635  25.597  1.00  0.00     0.039 A 
ATOM     14  N   UNL A   1      32.948  29.881  26.225  1.00  0.00    -0.253 NA
ATOM     15  C   UNL A   1      31.903  29.850  25.391  1.00  0.00     0.072 A 
ATOM     16  C   UNL A   1      31.595  28.737  24.578  1.00  0.00     0.015 A 
ATOM     17  C   UNL A   1      31.094  30.978  25.339  1.00  0.00     0.030 A 
ATOM     18  C   UNL A   1      30.462  28.832  23.722  1.00  0.00     0.026 A 
ATOM     19  C   UNL A   1      29.979  31.055  24.504  1.00  0.00     0.017 A 
ATOM     20  C   UNL A   1      29.668  29.977  23.691  1.00  0.00     0.014 A 
ATOM     21  I   UNL A   1      28.017  30.064  22.434  1.00  0.00    -0.044 I 
ENDBRANCH   9  10
ENDBRANCH   8   9
ENDBRANCH   5   8
ENDBRANCH   3   4
ENDBRANCH   2   3
ENDBRANCH   1   2
BRANCH   1  22
ATOM     22  C   UNL A   1      36.682  21.277  25.397  1.00  0.00     0.116 C 
BRANCH  22  23
ATOM     23  N   UNL A   1      37.774  20.316  25.376  1.00  0.00    -0.352 N 
ATOM     24  C   UNL A   1      39.081  20.488  25.773  1.00  0.00     0.251 C 
ATOM     25  H   UNL A   1      37.547  19.421  25.032  1.00  0.00     0.163 HD
ATOM     26  O   UNL A   1      39.899  19.590  25.591  1.00  0.00    -0.269 OA
BRANCH  24  27
ATOM     27  C   UNL A   1      39.500  21.775  26.373  1.00  0.00     0.039 A 
ATOM     28  C   UNL A   1      38.990  22.985  25.896  1.00  0.00     0.014 A 
ATOM     29  C   UNL A   1      40.452  21.769  27.396  1.00  0.00     0.014 A 
ATOM     30  C   UNL A   1      39.552  24.185  26.326  1.00  0.00     0.010 A 
ATOM     31  C   UNL A   1      40.965  22.979  27.876  1.00  0.00     0.010 A 
ATOM     32  C   UNL A   1      40.559  24.195  27.305  1.00  0.00    -0.014 A 
BRANCH  32  33
ATOM     33  C   UNL A   1      41.191  25.485  27.695  1.00  0.00     0.031 A 
ATOM     34  C   UNL A   1      42.579  25.835  27.220  1.00  0.00     0.074 A 
ATOM     35  C   UNL A   1      40.492  26.370  28.432  1.00  0.00     0.049 A 
ATOM     36  N   UNL A   1      43.266  26.929  27.430  1.00  0.00    -0.248 NA
ATOM     37  C   UNL A   1      43.291  24.835  26.405  1.00  0.00     0.031 C 
ATOM     38  C   UNL A   1      39.143  26.151  28.958  1.00  0.00     0.029 A 
ATOM     39  N   UNL A   1      40.809  27.639  28.849  1.00  0.00    -0.354 N 
ATOM     40  C   UNL A   1      44.495  26.737  26.810  1.00  0.00     0.074 A 
ATOM     41  C   UNL A   1      44.466  25.419  26.215  1.00  0.00     0.031 C 
ATOM     42  C   UNL A   1      38.729  27.263  29.585  1.00  0.00     0.029 A 
ATOM     43  C   UNL A   1      39.795  28.260  29.543  1.00  0.00     0.049 A 
ATOM     44  H   UNL A   1      41.678  28.064  28.670  1.00  0.00     0.167 HD
ATOM     45  C   UNL A   1      45.543  27.589  26.724  1.00  0.00     0.034 A 
ATOM     46  C   UNL A   1      39.727  29.493  30.081  1.00  0.00     0.034 A 
ATOM     47  C   UNL A   1      45.553  28.924  27.255  1.00  0.00     0.049 A 
ATOM     48  C   UNL A   1      40.904  30.418  29.958  1.00  0.00     0.074 A 
ATOM     49  C   UNL A   1      46.562  29.868  27.177  1.00  0.00     0.029 A 
ATOM     50  N   UNL A   1      44.507  29.510  27.947  1.00  0.00    -0.354 N 
ATOM     51  N   UNL A   1      42.027  30.237  29.309  1.00  0.00    -0.248 NA
ATOM     52  C   UNL A   1      40.800  31.721  30.634  1.00  0.00     0.031 C 
ATOM     53  C   UNL A   1      46.123  31.030  27.817  1.00  0.00     0.029 A 
ATOM     54  C   UNL A   1      44.844  30.805  28.297  1.00  0.00     0.049 A 
ATOM     55  H   UNL A   1      43.651  29.072  28.157  1.00  0.00     0.167 HD
ATOM     56  C   UNL A   1      42.757  31.406  29.483  1.00  0.00     0.074 A 
ATOM     57  C   UNL A   1      41.943  32.298  30.282  1.00  0.00     0.031 C 
ATOM     58  C   UNL A   1      44.001  31.702  29.040  1.00  0.00     0.034 A 
BRANCH  45  59
ATOM     59  C   UNL A   1      46.765  27.146  25.969  1.00  0.00     0.023 A 
ATOM     60  C   UNL A   1      47.598  26.162  26.536  1.00  0.00     0.012 A 
ATOM     61  C   UNL A   1      47.005  27.590  24.654  1.00  0.00     0.148 A 
ATOM     62  C   UNL A   1      48.652  25.622  25.804  1.00  0.00     0.002 A 
ATOM     63  C   UNL A   1      48.045  27.029  23.921  1.00  0.00     0.091 A 
ATOM     64  F   UNL A   1      46.197  28.529  24.141  1.00  0.00    -0.205 F 
ATOM     65  C   UNL A   1      48.869  26.047  24.494  1.00  0.00     0.022 A 
BRANCH  63  66
ATOM     66  S   UNL A   1      48.381  27.464  22.211  1.00  0.00     0.127 S 
ATOM     67  O   UNL A   1      49.561  28.319  22.350  1.00  0.00    -0.237 OA
ATOM     68  O   UNL A   1      48.642  26.157  21.610  1.00  0.00    -0.237 OA
ATOM     69  O   UNL A   1      47.188  28.143  21.723  1.00  0.00    -0.744 OA
ENDBRANCH  63  66
ENDBRANCH  45  59
BRANCH  46  70
ATOM     70  C   UNL A   1      38.466  29.947  30.726  1.00  0.00     0.023 A 
ATOM     71  C   UNL A   1      38.192  29.547  32.047  1.00  0.00     0.012 A 
ATOM     72  C   UNL A   1      37.566  30.803  30.062  1.00  0.00     0.148 A 
ATOM     73  C   UNL A   1      37.035  29.980  32.694  1.00  0.00     0.002 A 
ATOM     74  C   UNL A   1      36.438  31.266  30.728  1.00  0.00     0.091 A 
ATOM     75  F   UNL A   1      37.838  31.153  28.797  1.00  0.00    -0.205 F 
ATOM     76  C   UNL A   1      36.165  30.849  32.040  1.00  0.00     0.022 A 
BRANCH  74  77
ATOM     77  S   UNL A   1      35.327  32.475  29.999  1.00  0.00     0.127 S 
ATOM     78  O   UNL A   1      34.771  31.729  28.874  1.00  0.00    -0.237 OA
ATOM     79  O   UNL A   1      34.390  32.729  31.095  1.00  0.00    -0.237 OA
ATOM     80  O   UNL A   1      36.166  33.616  29.656  1.00  0.00    -0.744 OA
ENDBRANCH  74  77
ENDBRANCH  46  70
BRANCH  58  81
ATOM     81  C   UNL A   1      44.576  33.044  29.392  1.00  0.00     0.023 A 
ATOM     82  C   UNL A   1      45.328  33.177  30.574  1.00  0.00     0.012 A 
ATOM     83  C   UNL A   1      44.477  34.131  28.501  1.00  0.00     0.148 A 
ATOM     84  C   UNL A   1      45.971  34.377  30.870  1.00  0.00     0.002 A 
ATOM     85  C   UNL A   1      45.146  35.314  28.787  1.00  0.00     0.091 A 
ATOM     86  F   UNL A   1      43.745  33.978  27.388  1.00  0.00    -0.205 F 
ATOM     87  C   UNL A   1      45.891  35.439  29.972  1.00  0.00     0.022 A 
BRANCH  85  88
ATOM     88  S   UNL A   1      45.161  36.714  27.662  1.00  0.00     0.127 S 
ATOM     89  O   UNL A   1      43.740  37.046  27.582  1.00  0.00    -0.237 OA
ATOM     90  O   UNL A   1      45.976  37.687  28.388  1.00  0.00    -0.237 OA
ATOM     91  O   UNL A   1      45.756  36.229  26.423  1.00  0.00    -0.744 OA
ENDBRANCH  85  88
ENDBRANCH  58  81
ENDBRANCH  32  33
ENDBRANCH  24  27
ENDBRANCH  22  23
ENDBRANCH   1  22
TORSDOF 16
ENDMDL
