MODEL 1
REMARK VINA RESULT:     -11.7      0.000      0.000
REMARK SMILES CC(=O)c1ccc(NC(=O)C[C@H](C(=O)NCCCCNC(=O)c2ccc(-c3c4nc(c(-c5cccc(S(=O)(=O)[O-])c5F)c5ccc([nH]5)c(-c5cccc(S(=O)(=O)[O-])c5F)c5nc(c(-c6cccc(S(=O)(=O)[O-])c6F)c6ccc3[nH]6)C=C5)C=C4)cc2)[NH+](C)C)cc1
REMARK SMILES IDX 17 1 16 2 15 3 13 4 14 5 12 7 11 8 9 9 8 10 10 12 7 13 4 14
REMARK SMILES IDX 5 15 90 16 6 17 89 18 2 19 1 20 3 21 86 22 87 23 88 24 18 26
REMARK SMILES IDX 19 27 20 28 21 29 22 31 23 32 24 33 85 34 25 35 84 36 26 37
REMARK SMILES IDX 27 38 28 39 78 40 29 41 83 42 77 43 79 44 30 45 82 46 76 47
REMARK SMILES IDX 75 48 31 50 63 51 43 52 62 53 44 54 47 55 61 56 80 57 45 58
REMARK SMILES IDX 46 59 60 61 81 62 48 63 32 64 33 65 41 66 34 67 36 68 42 69
REMARK SMILES IDX 35 70 37 71 38 72 39 73 40 74 64 75 65 76 73 77 66 78 68 79
REMARK SMILES IDX 74 80 67 81 69 82 70 83 71 84 72 85 49 86 50 87 58 88 51 89
REMARK SMILES IDX 53 90 59 91 52 92 54 93 55 94 56 95 57 96
REMARK H PARENT 15 6 8 11 86 25 20 30 79 49 47 60
REMARK Flexibility Score: inf
ROOT
ATOM      1  C   UNL A   1      31.630  30.231  25.756  1.00  0.00     0.023 C 
ENDROOT
BRANCH   1   2
ATOM      2  C   UNL A   1      33.029  29.621  25.769  1.00  0.00     0.116 C 
BRANCH   2   3
ATOM      3  N   UNL A   1      33.567  29.478  24.435  1.00  0.00    -0.351 N 
ATOM      4  C   UNL A   1      33.574  28.459  23.544  1.00  0.00     0.278 C 
ATOM      5  O   UNL A   1      34.026  28.753  22.424  1.00  0.00    -0.268 OA
ATOM      6  H   UNL A   1      34.022  30.288  24.107  1.00  0.00     0.163 HD
BRANCH   4   7
ATOM      7  C   UNL A   1      33.025  27.022  23.755  1.00  0.00     0.283 C 
BRANCH   7   8
ATOM      8  C   UNL A   1      31.853  26.722  22.784  1.00  0.00     0.175 C 
BRANCH   8   9
ATOM      9  C   UNL A   1      30.514  26.294  23.349  1.00  0.00     0.230 C 
ATOM     10  N   UNL A   1      29.400  27.077  23.388  1.00  0.00    -0.326 N 
ATOM     11  H   UNL A   1      28.597  26.591  23.686  1.00  0.00     0.169 HD
ATOM     12  O   UNL A   1      30.382  25.131  23.755  1.00  0.00    -0.274 OA
BRANCH  10  13
ATOM     13  C   UNL A   1      29.152  28.426  23.096  1.00  0.00     0.041 A 
ATOM     14  C   UNL A   1      28.451  31.022  22.265  1.00  0.00     0.017 A 
ATOM     15  C   UNL A   1      29.790  30.629  22.335  1.00  0.00     0.014 A 
ATOM     16  C   UNL A   1      27.461  30.145  22.709  1.00  0.00     0.014 A 
ATOM     17  C   UNL A   1      30.137  29.348  22.777  1.00  0.00     0.027 A 
ATOM     18  C   UNL A   1      27.816  28.854  23.128  1.00  0.00     0.027 A 
BRANCH  14  19
ATOM     19  C   UNL A   1      28.139  32.313  21.594  1.00  0.00     0.159 C 
ATOM     20  C   UNL A   1      27.813  32.322  20.127  1.00  0.00     0.093 C 
ATOM     21  O   UNL A   1      28.197  33.347  22.258  1.00  0.00    -0.295 OA
ENDBRANCH  14  19
ENDBRANCH  10  13
ENDBRANCH   8   9
ENDBRANCH   7   8
BRANCH   7  22
ATOM     22  N   UNL A   1      33.999  25.969  24.131  1.00  0.00    -0.329 N 
ATOM     23  C   UNL A   1      33.897  25.617  25.551  1.00  0.00     0.333 C 
ATOM     24  C   UNL A   1      33.974  24.743  23.345  1.00  0.00     0.333 C 
ATOM     25  H   UNL A   1      34.893  26.413  23.921  1.00  0.00     0.348 HD
ENDBRANCH   7  22
ENDBRANCH   4   7
ENDBRANCH   2   3
ENDBRANCH   1   2
BRANCH   1  26
ATOM     26  C   UNL A   1      31.467  31.464  26.633  1.00  0.00     0.023 C 
BRANCH  26  27
ATOM     27  C   UNL A   1      32.753  32.179  26.991  1.00  0.00     0.116 C 
BRANCH  27  28
ATOM     28  N   UNL A   1      32.534  33.557  27.401  1.00  0.00    -0.352 N 
ATOM     29  C   UNL A   1      33.163  34.279  28.388  1.00  0.00     0.251 C 
ATOM     30  H   UNL A   1      31.837  34.041  26.903  1.00  0.00     0.163 HD
ATOM     31  O   UNL A   1      32.735  35.382  28.702  1.00  0.00    -0.269 OA
BRANCH  29  32
ATOM     32  C   UNL A   1      34.333  33.700  29.085  1.00  0.00     0.039 A 
ATOM     33  C   UNL A   1      34.143  32.591  29.911  1.00  0.00     0.014 A 
ATOM     34  C   UNL A   1      35.614  34.230  28.907  1.00  0.00     0.014 A 
ATOM     35  C   UNL A   1      35.248  31.986  30.511  1.00  0.00     0.010 A 
ATOM     36  C   UNL A   1      36.720  33.556  29.406  1.00  0.00     0.010 A 
ATOM     37  C   UNL A   1      36.549  32.441  30.235  1.00  0.00    -0.014 A 
BRANCH  37  38
ATOM     38  C   UNL A   1      37.733  31.766  30.820  1.00  0.00     0.031 A 
ATOM     39  C   UNL A   1      38.148  32.052  32.239  1.00  0.00     0.074 A 
ATOM     40  C   UNL A   1      38.463  30.931  30.053  1.00  0.00     0.049 A 
ATOM     41  N   UNL A   1      39.134  31.537  32.926  1.00  0.00    -0.248 NA
ATOM     42  C   UNL A   1      37.374  33.065  32.978  1.00  0.00     0.031 C 
ATOM     43  C   UNL A   1      38.218  30.653  28.635  1.00  0.00     0.029 A 
ATOM     44  N   UNL A   1      39.563  30.170  30.353  1.00  0.00    -0.354 N 
ATOM     45  C   UNL A   1      39.116  32.181  34.158  1.00  0.00     0.074 A 
ATOM     46  C   UNL A   1      38.054  33.159  34.111  1.00  0.00     0.031 C 
ATOM     47  C   UNL A   1      39.123  29.764  28.197  1.00  0.00     0.029 A 
ATOM     48  C   UNL A   1      40.031  29.431  29.290  1.00  0.00     0.049 A 
ATOM     49  H   UNL A   1      39.980  30.154  31.245  1.00  0.00     0.167 HD
ATOM     50  C   UNL A   1      39.888  31.953  35.247  1.00  0.00     0.034 A 
ATOM     51  C   UNL A   1      41.072  28.582  29.209  1.00  0.00     0.034 A 
ATOM     52  C   UNL A   1      40.919  30.953  35.300  1.00  0.00     0.049 A 
ATOM     53  C   UNL A   1      41.884  28.315  30.447  1.00  0.00     0.074 A 
ATOM     54  C   UNL A   1      41.702  30.580  36.377  1.00  0.00     0.029 A 
ATOM     55  N   UNL A   1      41.317  30.172  34.226  1.00  0.00    -0.354 N 
ATOM     56  N   UNL A   1      41.739  28.808  31.653  1.00  0.00    -0.248 NA
ATOM     57  C   UNL A   1      42.978  27.341  30.323  1.00  0.00     0.031 C 
ATOM     58  C   UNL A   1      42.596  29.596  35.946  1.00  0.00     0.029 A 
ATOM     59  C   UNL A   1      42.345  29.327  34.609  1.00  0.00     0.049 A 
ATOM     60  H   UNL A   1      40.927  30.212  33.322  1.00  0.00     0.167 HD
ATOM     61  C   UNL A   1      42.702  28.184  32.439  1.00  0.00     0.074 A 
ATOM     62  C   UNL A   1      43.398  27.251  31.577  1.00  0.00     0.031 C 
ATOM     63  C   UNL A   1      42.998  28.378  33.747  1.00  0.00     0.034 A 
BRANCH  50  64
ATOM     64  C   UNL A   1      39.611  32.764  36.487  1.00  0.00     0.023 A 
ATOM     65  C   UNL A   1      40.242  34.013  36.659  1.00  0.00     0.012 A 
ATOM     66  C   UNL A   1      38.682  32.323  37.450  1.00  0.00     0.148 A 
ATOM     67  C   UNL A   1      39.980  34.795  37.783  1.00  0.00     0.002 A 
ATOM     68  C   UNL A   1      38.389  33.130  38.543  1.00  0.00     0.091 A 
ATOM     69  F   UNL A   1      38.107  31.124  37.280  1.00  0.00    -0.205 F 
ATOM     70  C   UNL A   1      39.045  34.360  38.717  1.00  0.00     0.022 A 
BRANCH  68  71
ATOM     71  S   UNL A   1      37.141  32.702  39.762  1.00  0.00     0.127 S 
ATOM     72  O   UNL A   1      37.256  33.814  40.704  1.00  0.00    -0.237 OA
ATOM     73  O   UNL A   1      35.918  32.705  38.961  1.00  0.00    -0.237 OA
ATOM     74  O   UNL A   1      37.522  31.398  40.290  1.00  0.00    -0.744 OA
ENDBRANCH  68  71
ENDBRANCH  50  64
BRANCH  51  75
ATOM     75  C   UNL A   1      41.369  27.877  27.929  1.00  0.00     0.023 A 
ATOM     76  C   UNL A   1      41.826  28.613  26.818  1.00  0.00     0.012 A 
ATOM     77  C   UNL A   1      41.215  26.483  27.809  1.00  0.00     0.148 A 
ATOM     78  C   UNL A   1      42.079  27.981  25.600  1.00  0.00     0.002 A 
ATOM     79  C   UNL A   1      41.529  25.851  26.612  1.00  0.00     0.091 A 
ATOM     80  F   UNL A   1      40.770  25.799  28.873  1.00  0.00    -0.205 F 
ATOM     81  C   UNL A   1      41.941  26.599  25.500  1.00  0.00     0.022 A 
BRANCH  79  82
ATOM     82  S   UNL A   1      41.520  24.062  26.442  1.00  0.00     0.127 S 
ATOM     83  O   UNL A   1      42.263  23.876  25.199  1.00  0.00    -0.237 OA
ATOM     84  O   UNL A   1      42.225  23.639  27.652  1.00  0.00    -0.237 OA
ATOM     85  O   UNL A   1      40.115  23.679  26.408  1.00  0.00    -0.744 OA
ENDBRANCH  79  82
ENDBRANCH  51  75
BRANCH  63  86
ATOM     86  C   UNL A   1      44.106  27.543  34.335  1.00  0.00     0.023 A 
ATOM     87  C   UNL A   1      45.424  28.040  34.357  1.00  0.00     0.012 A 
ATOM     88  C   UNL A   1      43.832  26.284  34.903  1.00  0.00     0.148 A 
ATOM     89  C   UNL A   1      46.461  27.277  34.892  1.00  0.00     0.002 A 
ATOM     90  C   UNL A   1      44.861  25.552  35.484  1.00  0.00     0.091 A 
ATOM     91  F   UNL A   1      42.575  25.820  34.859  1.00  0.00    -0.205 F 
ATOM     92  C   UNL A   1      46.178  26.039  35.464  1.00  0.00     0.022 A 
BRANCH  90  93
ATOM     93  S   UNL A   1      44.574  23.995  36.333  1.00  0.00     0.127 S 
ATOM     94  O   UNL A   1      44.107  24.452  37.641  1.00  0.00    -0.237 OA
ATOM     95  O   UNL A   1      43.544  23.374  35.499  1.00  0.00    -0.237 OA
ATOM     96  O   UNL A   1      45.852  23.297  36.333  1.00  0.00    -0.744 OA
ENDBRANCH  90  93
ENDBRANCH  63  86
ENDBRANCH  37  38
ENDBRANCH  29  32
ENDBRANCH  27  28
ENDBRANCH  26  27
ENDBRANCH   1  26
TORSDOF 19
ENDMDL
MODEL 2
REMARK VINA RESULT:     -11.7      1.819      7.802
REMARK SMILES CC(=O)c1ccc(NC(=O)C[C@H](C(=O)NCCCCNC(=O)c2ccc(-c3c4nc(c(-c5cccc(S(=O)(=O)[O-])c5F)c5ccc([nH]5)c(-c5cccc(S(=O)(=O)[O-])c5F)c5nc(c(-c6cccc(S(=O)(=O)[O-])c6F)c6ccc3[nH]6)C=C5)C=C4)cc2)[NH+](C)C)cc1
REMARK SMILES IDX 17 1 16 2 15 3 13 4 14 5 12 7 11 8 9 9 8 10 10 12 7 13 4 14
REMARK SMILES IDX 5 15 90 16 6 17 89 18 2 19 1 20 3 21 86 22 87 23 88 24 18 26
REMARK SMILES IDX 19 27 20 28 21 29 22 31 23 32 24 33 85 34 25 35 84 36 26 37
REMARK SMILES IDX 27 38 28 39 78 40 29 41 83 42 77 43 79 44 30 45 82 46 76 47
REMARK SMILES IDX 75 48 31 50 63 51 43 52 62 53 44 54 47 55 61 56 80 57 45 58
REMARK SMILES IDX 46 59 60 61 81 62 48 63 32 64 33 65 41 66 34 67 36 68 42 69
REMARK SMILES IDX 35 70 37 71 38 72 39 73 40 74 64 75 65 76 73 77 66 78 68 79
REMARK SMILES IDX 74 80 67 81 69 82 70 83 71 84 72 85 49 86 50 87 58 88 51 89
REMARK SMILES IDX 53 90 59 91 52 92 54 93 55 94 56 95 57 96
REMARK H PARENT 15 6 8 11 86 25 20 30 79 49 47 60
REMARK Flexibility Score: inf
ROOT
ATOM      1  C   UNL A   1      31.326  30.920  26.078  1.00  0.00     0.023 C 
ENDROOT
BRANCH   1   2
ATOM      2  C   UNL A   1      32.649  30.166  26.175  1.00  0.00     0.116 C 
BRANCH   2   3
ATOM      3  N   UNL A   1      33.216  29.902  24.871  1.00  0.00    -0.351 N 
ATOM      4  C   UNL A   1      33.181  28.829  24.047  1.00  0.00     0.278 C 
ATOM      5  O   UNL A   1      33.684  29.020  22.926  1.00  0.00    -0.268 OA
ATOM      6  H   UNL A   1      33.732  30.658  24.508  1.00  0.00     0.163 HD
BRANCH   4   7
ATOM      7  C   UNL A   1      32.533  27.447  24.330  1.00  0.00     0.283 C 
BRANCH   7   8
ATOM      8  C   UNL A   1      31.569  27.035  23.186  1.00  0.00     0.175 C 
BRANCH   8   9
ATOM      9  C   UNL A   1      30.177  26.548  23.529  1.00  0.00     0.230 C 
ATOM     10  N   UNL A   1      29.034  27.267  23.349  1.00  0.00    -0.326 N 
ATOM     11  H   UNL A   1      28.218  26.744  23.523  1.00  0.00     0.169 HD
ATOM     12  O   UNL A   1      30.037  25.390  23.950  1.00  0.00    -0.274 OA
BRANCH  10  13
ATOM     13  C   UNL A   1      28.772  28.590  22.969  1.00  0.00     0.041 A 
ATOM     14  C   UNL A   1      28.534  31.328  22.360  1.00  0.00     0.017 A 
ATOM     15  C   UNL A   1      27.510  30.650  23.025  1.00  0.00     0.014 A 
ATOM     16  C   UNL A   1      29.642  30.611  21.908  1.00  0.00     0.014 A 
ATOM     17  C   UNL A   1      27.617  29.283  23.299  1.00  0.00     0.027 A 
ATOM     18  C   UNL A   1      29.753  29.245  22.208  1.00  0.00     0.027 A 
BRANCH  14  19
ATOM     19  C   UNL A   1      28.452  32.813  22.285  1.00  0.00     0.159 C 
ATOM     20  C   UNL A   1      29.243  33.645  23.255  1.00  0.00     0.093 C 
ATOM     21  O   UNL A   1      27.703  33.315  21.449  1.00  0.00    -0.295 OA
ENDBRANCH  14  19
ENDBRANCH  10  13
ENDBRANCH   8   9
ENDBRANCH   7   8
BRANCH   7  22
ATOM     22  N   UNL A   1      33.360  26.438  25.038  1.00  0.00    -0.329 N 
ATOM     23  C   UNL A   1      32.681  25.920  26.230  1.00  0.00     0.333 C 
ATOM     24  C   UNL A   1      33.837  25.312  24.248  1.00  0.00     0.333 C 
ATOM     25  H   UNL A   1      34.191  26.974  25.287  1.00  0.00     0.348 HD
ENDBRANCH   7  22
ENDBRANCH   4   7
ENDBRANCH   2   3
ENDBRANCH   1   2
BRANCH   1  26
ATOM     26  C   UNL A   1      31.385  32.368  26.542  1.00  0.00     0.023 C 
BRANCH  26  27
ATOM     27  C   UNL A   1      32.697  32.795  27.165  1.00  0.00     0.116 C 
BRANCH  27  28
ATOM     28  N   UNL A   1      32.651  34.146  27.702  1.00  0.00    -0.352 N 
ATOM     29  C   UNL A   1      33.370  34.694  28.738  1.00  0.00     0.251 C 
ATOM     30  H   UNL A   1      32.013  34.754  27.262  1.00  0.00     0.163 HD
ATOM     31  O   UNL A   1      33.082  35.807  29.157  1.00  0.00    -0.269 OA
BRANCH  29  32
ATOM     32  C   UNL A   1      34.467  33.917  29.357  1.00  0.00     0.039 A 
ATOM     33  C   UNL A   1      35.786  34.305  29.115  1.00  0.00     0.014 A 
ATOM     34  C   UNL A   1      34.198  32.828  30.190  1.00  0.00     0.014 A 
ATOM     35  C   UNL A   1      36.827  33.632  29.756  1.00  0.00     0.010 A 
ATOM     36  C   UNL A   1      35.225  32.240  30.917  1.00  0.00     0.010 A 
ATOM     37  C   UNL A   1      36.554  32.618  30.689  1.00  0.00    -0.014 A 
BRANCH  37  38
ATOM     38  C   UNL A   1      37.651  31.938  31.420  1.00  0.00     0.031 A 
ATOM     39  C   UNL A   1      38.427  30.826  30.764  1.00  0.00     0.074 A 
ATOM     40  C   UNL A   1      37.914  32.292  32.694  1.00  0.00     0.049 A 
ATOM     41  N   UNL A   1      39.435  30.139  31.236  1.00  0.00    -0.248 NA
ATOM     42  C   UNL A   1      38.005  30.412  29.414  1.00  0.00     0.031 C 
ATOM     43  C   UNL A   1      37.163  33.284  33.469  1.00  0.00     0.029 A 
ATOM     44  N   UNL A   1      38.876  31.852  33.566  1.00  0.00    -0.354 N 
ATOM     45  C   UNL A   1      39.744  29.199  30.259  1.00  0.00     0.074 A 
ATOM     46  C   UNL A   1      38.790  29.369  29.188  1.00  0.00     0.031 C 
ATOM     47  C   UNL A   1      37.711  33.397  34.689  1.00  0.00     0.029 A 
ATOM     48  C   UNL A   1      38.829  32.466  34.797  1.00  0.00     0.049 A 
ATOM     49  H   UNL A   1      39.539  31.162  33.333  1.00  0.00     0.167 HD
ATOM     50  C   UNL A   1      40.756  28.300  30.236  1.00  0.00     0.034 A 
ATOM     51  C   UNL A   1      39.602  32.295  35.886  1.00  0.00     0.034 A 
ATOM     52  C   UNL A   1      41.725  28.161  31.289  1.00  0.00     0.049 A 
ATOM     53  C   UNL A   1      40.746  31.322  35.816  1.00  0.00     0.074 A 
ATOM     54  C   UNL A   1      42.840  27.343  31.330  1.00  0.00     0.029 A 
ATOM     55  N   UNL A   1      41.689  28.850  32.491  1.00  0.00    -0.354 N 
ATOM     56  N   UNL A   1      41.128  30.567  34.815  1.00  0.00    -0.248 NA
ATOM     57  C   UNL A   1      41.593  31.209  37.011  1.00  0.00     0.031 C 
ATOM     58  C   UNL A   1      43.460  27.515  32.571  1.00  0.00     0.029 A 
ATOM     59  C   UNL A   1      42.754  28.468  33.289  1.00  0.00     0.049 A 
ATOM     60  H   UNL A   1      41.006  29.515  32.741  1.00  0.00     0.167 HD
ATOM     61  C   UNL A   1      42.275  29.911  35.247  1.00  0.00     0.074 A 
ATOM     62  C   UNL A   1      42.544  30.388  36.588  1.00  0.00     0.031 C 
ATOM     63  C   UNL A   1      43.027  28.984  34.604  1.00  0.00     0.034 A 
BRANCH  50  64
ATOM     64  C   UNL A   1      40.900  27.435  29.011  1.00  0.00     0.023 A 
ATOM     65  C   UNL A   1      40.088  26.289  28.868  1.00  0.00     0.012 A 
ATOM     66  C   UNL A   1      41.786  27.785  27.974  1.00  0.00     0.148 A 
ATOM     67  C   UNL A   1      40.181  25.489  27.730  1.00  0.00     0.002 A 
ATOM     68  C   UNL A   1      41.838  27.010  26.822  1.00  0.00     0.091 A 
ATOM     69  F   UNL A   1      42.564  28.865  28.136  1.00  0.00    -0.205 F 
ATOM     70  C   UNL A   1      41.046  25.856  26.703  1.00  0.00     0.022 A 
BRANCH  68  71
ATOM     71  S   UNL A   1      42.856  27.438  25.405  1.00  0.00     0.127 S 
ATOM     72  O   UNL A   1      42.804  26.205  24.621  1.00  0.00    -0.237 OA
ATOM     73  O   UNL A   1      42.117  28.560  24.827  1.00  0.00    -0.237 OA
ATOM     74  O   UNL A   1      44.168  27.780  25.938  1.00  0.00    -0.744 OA
ENDBRANCH  68  71
ENDBRANCH  50  64
BRANCH  51  75
ATOM     75  C   UNL A   1      39.358  33.106  37.114  1.00  0.00     0.023 A 
ATOM     76  C   UNL A   1      38.363  32.705  38.028  1.00  0.00     0.012 A 
ATOM     77  C   UNL A   1      40.113  34.262  37.389  1.00  0.00     0.148 A 
ATOM     78  C   UNL A   1      38.094  33.465  39.167  1.00  0.00     0.002 A 
ATOM     79  C   UNL A   1      39.883  34.980  38.556  1.00  0.00     0.091 A 
ATOM     80  F   UNL A   1      41.049  34.635  36.504  1.00  0.00    -0.205 F 
ATOM     81  C   UNL A   1      38.860  34.596  39.436  1.00  0.00     0.022 A 
BRANCH  79  82
ATOM     82  S   UNL A   1      40.919  36.361  39.052  1.00  0.00     0.127 S 
ATOM     83  O   UNL A   1      40.604  37.354  38.028  1.00  0.00    -0.237 OA
ATOM     84  O   UNL A   1      40.401  36.665  40.387  1.00  0.00    -0.237 OA
ATOM     85  O   UNL A   1      42.283  35.850  39.046  1.00  0.00    -0.744 OA
ENDBRANCH  79  82
ENDBRANCH  51  75
BRANCH  63  86
ATOM     86  C   UNL A   1      44.231  28.446  35.333  1.00  0.00     0.023 A 
ATOM     87  C   UNL A   1      45.508  28.984  35.075  1.00  0.00     0.012 A 
ATOM     88  C   UNL A   1      44.089  27.436  36.304  1.00  0.00     0.148 A 
ATOM     89  C   UNL A   1      46.631  28.492  35.737  1.00  0.00     0.002 A 
ATOM     90  C   UNL A   1      45.206  26.989  37.000  1.00  0.00     0.091 A 
ATOM     91  F   UNL A   1      42.870  26.925  36.525  1.00  0.00    -0.205 F 
ATOM     92  C   UNL A   1      46.479  27.503  36.706  1.00  0.00     0.022 A 
BRANCH  90  93
ATOM     93  S   UNL A   1      45.092  25.791  38.334  1.00  0.00     0.127 S 
ATOM     94  O   UNL A   1      44.146  26.443  39.238  1.00  0.00    -0.237 OA
ATOM     95  O   UNL A   1      44.566  24.612  37.647  1.00  0.00    -0.237 OA
ATOM     96  O   UNL A   1      46.445  25.635  38.849  1.00  0.00    -0.744 OA
ENDBRANCH  90  93
ENDBRANCH  63  86
ENDBRANCH  37  38
ENDBRANCH  29  32
ENDBRANCH  27  28
ENDBRANCH  26  27
ENDBRANCH   1  26
TORSDOF 19
ENDMDL
MODEL 3
REMARK VINA RESULT:     -11.6      3.112      5.334
REMARK SMILES CC(=O)c1ccc(NC(=O)C[C@H](C(=O)NCCCCNC(=O)c2ccc(-c3c4nc(c(-c5cccc(S(=O)(=O)[O-])c5F)c5ccc([nH]5)c(-c5cccc(S(=O)(=O)[O-])c5F)c5nc(c(-c6cccc(S(=O)(=O)[O-])c6F)c6ccc3[nH]6)C=C5)C=C4)cc2)[NH+](C)C)cc1
REMARK SMILES IDX 17 1 16 2 15 3 13 4 14 5 12 7 11 8 9 9 8 10 10 12 7 13 4 14
REMARK SMILES IDX 5 15 90 16 6 17 89 18 2 19 1 20 3 21 86 22 87 23 88 24 18 26
REMARK SMILES IDX 19 27 20 28 21 29 22 31 23 32 24 33 85 34 25 35 84 36 26 37
REMARK SMILES IDX 27 38 28 39 78 40 29 41 83 42 77 43 79 44 30 45 82 46 76 47
REMARK SMILES IDX 75 48 31 50 63 51 43 52 62 53 44 54 47 55 61 56 80 57 45 58
REMARK SMILES IDX 46 59 60 61 81 62 48 63 32 64 33 65 41 66 34 67 36 68 42 69
REMARK SMILES IDX 35 70 37 71 38 72 39 73 40 74 64 75 65 76 73 77 66 78 68 79
REMARK SMILES IDX 74 80 67 81 69 82 70 83 71 84 72 85 49 86 50 87 58 88 51 89
REMARK SMILES IDX 53 90 59 91 52 92 54 93 55 94 56 95 57 96
REMARK H PARENT 15 6 8 11 86 25 20 30 79 49 47 60
REMARK Flexibility Score: inf
ROOT
ATOM      1  C   UNL A   1      31.392  27.249  26.076  1.00  0.00     0.023 C 
ENDROOT
BRANCH   1   2
ATOM      2  C   UNL A   1      32.155  25.929  26.145  1.00  0.00     0.116 C 
BRANCH   2   3
ATOM      3  N   UNL A   1      33.080  25.783  25.043  1.00  0.00    -0.351 N 
ATOM      4  C   UNL A   1      33.774  24.731  24.551  1.00  0.00     0.278 C 
ATOM      5  O   UNL A   1      34.380  24.960  23.490  1.00  0.00    -0.268 OA
ATOM      6  H   UNL A   1      33.237  26.621  24.550  1.00  0.00     0.163 HD
BRANCH   4   7
ATOM      7  C   UNL A   1      33.828  23.289  25.125  1.00  0.00     0.283 C 
BRANCH   7   8
ATOM      8  C   UNL A   1      33.933  22.237  23.991  1.00  0.00     0.175 C 
BRANCH   8   9
ATOM      9  C   UNL A   1      32.706  21.914  23.165  1.00  0.00     0.230 C 
ATOM     10  N   UNL A   1      32.121  20.685  23.086  1.00  0.00    -0.326 N 
ATOM     11  H   UNL A   1      31.269  20.694  22.592  1.00  0.00     0.169 HD
ATOM     12  O   UNL A   1      32.138  22.832  22.555  1.00  0.00    -0.274 OA
BRANCH  10  13
ATOM     13  C   UNL A   1      32.473  19.413  23.557  1.00  0.00     0.041 A 
ATOM     14  C   UNL A   1      33.432  17.010  24.667  1.00  0.00     0.017 A 
ATOM     15  C   UNL A   1      33.267  17.146  23.286  1.00  0.00     0.014 A 
ATOM     16  C   UNL A   1      33.021  18.047  25.506  1.00  0.00     0.014 A 
ATOM     17  C   UNL A   1      32.761  18.330  22.740  1.00  0.00     0.027 A 
ATOM     18  C   UNL A   1      32.538  19.240  24.948  1.00  0.00     0.027 A 
BRANCH  14  19
ATOM     19  C   UNL A   1      34.164  15.814  25.166  1.00  0.00     0.159 C 
ATOM     20  C   UNL A   1      35.650  15.893  25.376  1.00  0.00     0.093 C 
ATOM     21  O   UNL A   1      33.531  14.777  25.355  1.00  0.00    -0.295 OA
ENDBRANCH  14  19
ENDBRANCH  10  13
ENDBRANCH   8   9
ENDBRANCH   7   8
BRANCH   7  22
ATOM     22  N   UNL A   1      34.532  23.097  26.418  1.00  0.00    -0.329 N 
ATOM     23  C   UNL A   1      33.983  21.965  27.171  1.00  0.00     0.333 C 
ATOM     24  C   UNL A   1      35.980  22.959  26.361  1.00  0.00     0.333 C 
ATOM     25  H   UNL A   1      34.357  23.981  26.895  1.00  0.00     0.348 HD
ENDBRANCH   7  22
ENDBRANCH   4   7
ENDBRANCH   2   3
ENDBRANCH   1   2
BRANCH   1  26
ATOM     26  C   UNL A   1      31.982  28.368  26.922  1.00  0.00     0.023 C 
BRANCH  26  27
ATOM     27  C   UNL A   1      32.946  29.286  26.200  1.00  0.00     0.116 C 
BRANCH  27  28
ATOM     28  N   UNL A   1      32.737  30.688  26.526  1.00  0.00    -0.352 N 
ATOM     29  C   UNL A   1      33.481  31.510  27.340  1.00  0.00     0.251 C 
ATOM     30  H   UNL A   1      31.952  31.108  26.107  1.00  0.00     0.163 HD
ATOM     31  O   UNL A   1      33.063  32.624  27.626  1.00  0.00    -0.269 OA
BRANCH  29  32
ATOM     32  C   UNL A   1      34.768  31.026  27.888  1.00  0.00     0.039 A 
ATOM     33  C   UNL A   1      35.835  31.920  27.988  1.00  0.00     0.014 A 
ATOM     34  C   UNL A   1      34.916  29.706  28.322  1.00  0.00     0.014 A 
ATOM     35  C   UNL A   1      37.029  31.500  28.577  1.00  0.00     0.010 A 
ATOM     36  C   UNL A   1      36.059  29.327  29.013  1.00  0.00     0.010 A 
ATOM     37  C   UNL A   1      37.139  30.211  29.126  1.00  0.00    -0.014 A 
BRANCH  37  38
ATOM     38  C   UNL A   1      38.382  29.776  29.807  1.00  0.00     0.031 A 
ATOM     39  C   UNL A   1      38.727  30.310  31.173  1.00  0.00     0.074 A 
ATOM     40  C   UNL A   1      39.224  28.936  29.172  1.00  0.00     0.049 A 
ATOM     41  N   UNL A   1      39.753  30.022  31.932  1.00  0.00    -0.248 NA
ATOM     42  C   UNL A   1      37.821  31.316  31.754  1.00  0.00     0.031 C 
ATOM     43  C   UNL A   1      39.046  28.432  27.807  1.00  0.00     0.029 A 
ATOM     44  N   UNL A   1      40.401  28.366  29.584  1.00  0.00    -0.354 N 
ATOM     45  C   UNL A   1      39.630  30.828  33.058  1.00  0.00     0.074 A 
ATOM     46  C   UNL A   1      38.459  31.652  32.865  1.00  0.00     0.031 C 
ATOM     47  C   UNL A   1      40.062  27.607  27.507  1.00  0.00     0.029 A 
ATOM     48  C   UNL A   1      40.978  27.547  28.641  1.00  0.00     0.049 A 
ATOM     49  H   UNL A   1      40.796  28.528  30.471  1.00  0.00     0.167 HD
ATOM     50  C   UNL A   1      40.399  30.854  34.172  1.00  0.00     0.034 A 
ATOM     51  C   UNL A   1      42.116  26.828  28.689  1.00  0.00     0.034 A 
ATOM     52  C   UNL A   1      41.542  30.004  34.373  1.00  0.00     0.049 A 
ATOM     53  C   UNL A   1      42.926  26.841  29.956  1.00  0.00     0.074 A 
ATOM     54  C   UNL A   1      42.339  29.888  35.497  1.00  0.00     0.029 A 
ATOM     55  N   UNL A   1      42.055  29.134  33.425  1.00  0.00    -0.354 N 
ATOM     56  N   UNL A   1      42.695  27.479  31.078  1.00  0.00    -0.248 NA
ATOM     57  C   UNL A   1      44.131  26.001  29.979  1.00  0.00     0.031 C 
ATOM     58  C   UNL A   1      43.355  28.969  35.217  1.00  0.00     0.029 A 
ATOM     59  C   UNL A   1      43.167  28.484  33.931  1.00  0.00     0.049 A 
ATOM     60  H   UNL A   1      41.682  28.997  32.523  1.00  0.00     0.167 HD
ATOM     61  C   UNL A   1      43.708  27.096  31.949  1.00  0.00     0.074 A 
ATOM     62  C   UNL A   1      44.531  26.142  31.235  1.00  0.00     0.031 C 
ATOM     63  C   UNL A   1      43.949  27.508  33.218  1.00  0.00     0.034 A 
BRANCH  50  64
ATOM     64  C   UNL A   1      39.999  31.792  35.281  1.00  0.00     0.023 A 
ATOM     65  C   UNL A   1      40.516  33.104  35.305  1.00  0.00     0.012 A 
ATOM     66  C   UNL A   1      39.065  31.402  36.261  1.00  0.00     0.148 A 
ATOM     67  C   UNL A   1      40.139  34.001  36.304  1.00  0.00     0.002 A 
ATOM     68  C   UNL A   1      38.656  32.317  37.224  1.00  0.00     0.091 A 
ATOM     69  F   UNL A   1      38.599  30.145  36.234  1.00  0.00    -0.205 F 
ATOM     70  C   UNL A   1      39.200  33.611  37.255  1.00  0.00     0.022 A 
BRANCH  68  71
ATOM     71  S   UNL A   1      37.391  31.944  38.445  1.00  0.00     0.127 S 
ATOM     72  O   UNL A   1      36.367  32.935  38.119  1.00  0.00    -0.237 OA
ATOM     73  O   UNL A   1      37.037  30.567  38.107  1.00  0.00    -0.237 OA
ATOM     74  O   UNL A   1      38.025  32.111  39.746  1.00  0.00    -0.744 OA
ENDBRANCH  68  71
ENDBRANCH  50  64
BRANCH  51  75
ATOM     75  C   UNL A   1      42.524  25.990  27.524  1.00  0.00     0.023 A 
ATOM     76  C   UNL A   1      43.362  26.536  26.532  1.00  0.00     0.012 A 
ATOM     77  C   UNL A   1      42.099  24.653  27.401  1.00  0.00     0.148 A 
ATOM     78  C   UNL A   1      43.731  25.782  25.417  1.00  0.00     0.002 A 
ATOM     79  C   UNL A   1      42.521  23.888  26.321  1.00  0.00     0.091 A 
ATOM     80  F   UNL A   1      41.294  24.152  28.350  1.00  0.00    -0.205 F 
ATOM     81  C   UNL A   1      43.319  24.456  25.316  1.00  0.00     0.022 A 
BRANCH  79  82
ATOM     82  S   UNL A   1      42.159  22.133  26.189  1.00  0.00     0.127 S 
ATOM     83  O   UNL A   1      42.944  21.753  25.018  1.00  0.00    -0.237 OA
ATOM     84  O   UNL A   1      42.665  21.623  27.464  1.00  0.00    -0.237 OA
ATOM     85  O   UNL A   1      40.713  22.041  26.044  1.00  0.00    -0.744 OA
ENDBRANCH  79  82
ENDBRANCH  51  75
BRANCH  63  86
ATOM     86  C   UNL A   1      45.136  26.907  33.926  1.00  0.00     0.023 A 
ATOM     87  C   UNL A   1      46.410  27.494  33.783  1.00  0.00     0.012 A 
ATOM     88  C   UNL A   1      44.980  25.787  34.765  1.00  0.00     0.148 A 
ATOM     89  C   UNL A   1      47.518  26.946  34.426  1.00  0.00     0.002 A 
ATOM     90  C   UNL A   1      46.080  25.280  35.446  1.00  0.00     0.091 A 
ATOM     91  F   UNL A   1      43.765  25.233  34.875  1.00  0.00    -0.205 F 
ATOM     92  C   UNL A   1      47.352  25.847  35.265  1.00  0.00     0.022 A 
BRANCH  90  93
ATOM     93  S   UNL A   1      45.942  23.931  36.624  1.00  0.00     0.127 S 
ATOM     94  O   UNL A   1      44.976  24.469  37.580  1.00  0.00    -0.237 OA
ATOM     95  O   UNL A   1      45.433  22.842  35.790  1.00  0.00    -0.237 OA
ATOM     96  O   UNL A   1      47.285  23.714  37.144  1.00  0.00    -0.744 OA
ENDBRANCH  90  93
ENDBRANCH  63  86
ENDBRANCH  37  38
ENDBRANCH  29  32
ENDBRANCH  27  28
ENDBRANCH  26  27
ENDBRANCH   1  26
TORSDOF 19
ENDMDL
