MODEL 1
REMARK VINA RESULT:     -12.5      0.000      0.000
REMARK SMILES O=C(Cn1cnc(-c2ccccc2)c1-c1ccccc1)NCCCCNC(=O)c1ccc(-c2c3nc(c(-c4cccc(S(=O)(=O)[O-])c4F)c4ccc([nH]4)c(-c4cccc(S(=O)(=O)[O-])c4F)c4nc(c(-c5cccc(S(=O)(=O)[O-])c5F)c5ccc2[nH]5)C=C4)C=C3)cc1
REMARK SMILES IDX 24 1 23 2 22 3 21 4 1 5 2 6 3 8 4 9 5 10 14 11 6 12 7 13
REMARK SMILES IDX 15 14 16 15 20 16 17 17 19 18 18 19 8 20 9 21 13 22 10 23
REMARK SMILES IDX 12 24 11 25 25 26 26 27 27 28 28 30 29 31 30 32 91 33 31 34
REMARK SMILES IDX 90 35 32 36 33 37 34 38 84 39 35 40 89 41 83 42 85 43 36 44
REMARK SMILES IDX 88 45 82 46 81 47 37 49 69 50 49 51 68 52 50 53 53 54 67 55
REMARK SMILES IDX 86 56 51 57 52 58 66 60 87 61 54 62 38 63 39 64 47 65 40 66
REMARK SMILES IDX 42 67 48 68 41 69 43 70 44 71 45 72 46 73 70 74 71 75 79 76
REMARK SMILES IDX 72 77 74 78 80 79 73 80 75 81 76 82 77 83 78 84 55 85 56 86
REMARK SMILES IDX 64 87 57 88 59 89 65 90 58 91 60 92 61 93 62 94 63 95
REMARK H PARENT 21 7 26 29 85 48 53 59
REMARK Flexibility Score: inf
ROOT
ATOM      1  C   UNL A   1      37.623  19.825  24.919  1.00  0.00     0.023 C 
ENDROOT
BRANCH   1   2
ATOM      2  C   UNL A   1      36.435  20.778  25.162  1.00  0.00     0.023 C 
BRANCH   2   3
ATOM      3  C   UNL A   1      35.006  20.216  25.018  1.00  0.00     0.116 C 
BRANCH   3   4
ATOM      4  N   UNL A   1      33.991  21.174  24.591  1.00  0.00    -0.355 N 
ATOM      5  O   UNL A   1      32.215  19.807  25.100  1.00  0.00    -0.273 OA
ATOM      6  C   UNL A   1      32.633  20.917  24.773  1.00  0.00     0.239 C 
ATOM      7  H   UNL A   1      34.272  22.017  24.166  1.00  0.00     0.163 HD
BRANCH   6   8
ATOM      8  C   UNL A   1      31.672  22.067  24.472  1.00  0.00     0.223 C 
BRANCH   8   9
ATOM      9  N   UNL A   1      31.740  23.171  25.416  1.00  0.00    -0.321 N 
ATOM     10  C   UNL A   1      31.644  23.089  26.780  1.00  0.00     0.201 A 
ATOM     11  C   UNL A   1      31.813  24.501  25.103  1.00  0.00     0.076 A 
ATOM     12  N   UNL A   1      31.721  24.273  27.349  1.00  0.00    -0.236 NA
ATOM     13  C   UNL A   1      31.864  25.163  26.320  1.00  0.00     0.096 A 
BRANCH  11  14
ATOM     14  C   UNL A   1      32.039  25.062  23.795  1.00  0.00     0.000 A 
ATOM     15  C   UNL A   1      33.341  25.029  23.306  1.00  0.00     0.010 A 
ATOM     16  C   UNL A   1      31.048  25.809  23.153  1.00  0.00     0.010 A 
ATOM     17  C   UNL A   1      33.663  25.835  22.237  1.00  0.00     0.001 A 
ATOM     18  C   UNL A   1      31.383  26.587  22.049  1.00  0.00     0.001 A 
ATOM     19  C   UNL A   1      32.701  26.625  21.615  1.00  0.00     0.000 A 
ENDBRANCH  11  14
BRANCH  13  20
ATOM     20  C   UNL A   1      32.213  26.577  26.419  1.00  0.00     0.002 A 
ATOM     21  C   UNL A   1      31.286  27.469  26.945  1.00  0.00     0.010 A 
ATOM     22  C   UNL A   1      33.539  27.014  26.240  1.00  0.00     0.010 A 
ATOM     23  C   UNL A   1      31.701  28.746  27.328  1.00  0.00     0.001 A 
ATOM     24  C   UNL A   1      33.940  28.298  26.624  1.00  0.00     0.001 A 
ATOM     25  C   UNL A   1      33.018  29.164  27.184  1.00  0.00     0.000 A 
ENDBRANCH  13  20
ENDBRANCH   8   9
ENDBRANCH   6   8
ENDBRANCH   3   4
ENDBRANCH   2   3
ENDBRANCH   1   2
BRANCH   1  26
ATOM     26  C   UNL A   1      38.942  20.213  25.598  1.00  0.00     0.116 C 
BRANCH  26  27
ATOM     27  N   UNL A   1      39.977  19.192  25.705  1.00  0.00    -0.352 N 
ATOM     28  C   UNL A   1      41.336  19.395  25.974  1.00  0.00     0.251 C 
ATOM     29  H   UNL A   1      39.690  18.259  25.574  1.00  0.00     0.163 HD
ATOM     30  O   UNL A   1      42.143  18.512  25.728  1.00  0.00    -0.269 OA
BRANCH  28  31
ATOM     31  C   UNL A   1      41.809  20.689  26.559  1.00  0.00     0.039 A 
ATOM     32  C   UNL A   1      42.219  21.765  25.760  1.00  0.00     0.014 A 
ATOM     33  C   UNL A   1      41.863  20.832  27.939  1.00  0.00     0.014 A 
ATOM     34  C   UNL A   1      42.550  23.000  26.357  1.00  0.00     0.010 A 
ATOM     35  C   UNL A   1      42.095  22.070  28.516  1.00  0.00     0.010 A 
ATOM     36  C   UNL A   1      42.441  23.176  27.750  1.00  0.00    -0.014 A 
BRANCH  36  37
ATOM     37  C   UNL A   1      42.469  24.515  28.393  1.00  0.00     0.031 A 
ATOM     38  C   UNL A   1      41.218  25.303  28.161  1.00  0.00     0.074 A 
ATOM     39  C   UNL A   1      43.380  24.935  29.318  1.00  0.00     0.049 A 
ATOM     40  N   UNL A   1      41.068  26.346  27.413  1.00  0.00    -0.248 NA
ATOM     41  C   UNL A   1      39.946  24.777  28.685  1.00  0.00     0.031 C 
ATOM     42  C   UNL A   1      44.473  24.144  29.901  1.00  0.00     0.029 A 
ATOM     43  N   UNL A   1      43.470  26.104  30.043  1.00  0.00    -0.354 N 
ATOM     44  C   UNL A   1      39.752  26.771  27.622  1.00  0.00     0.074 A 
ATOM     45  C   UNL A   1      39.062  25.651  28.196  1.00  0.00     0.031 C 
ATOM     46  C   UNL A   1      44.924  24.727  31.034  1.00  0.00     0.029 A 
ATOM     47  C   UNL A   1      44.315  26.034  31.168  1.00  0.00     0.049 A 
ATOM     48  H   UNL A   1      42.982  26.922  29.794  1.00  0.00     0.167 HD
ATOM     49  C   UNL A   1      39.448  28.100  27.613  1.00  0.00     0.034 A 
ATOM     50  C   UNL A   1      44.499  26.965  32.150  1.00  0.00     0.034 A 
ATOM     51  C   UNL A   1      40.572  28.862  27.132  1.00  0.00     0.049 A 
ATOM     52  C   UNL A   1      44.072  28.253  31.563  1.00  0.00     0.074 A 
ATOM     53  C   UNL A   1      41.202  29.092  25.932  1.00  0.00     0.029 A 
ATOM     54  N   UNL A   1      41.434  29.222  28.134  1.00  0.00    -0.354 N 
ATOM     55  N   UNL A   1      44.736  28.852  30.617  1.00  0.00    -0.248 NA
ATOM     56  C   UNL A   1      42.744  28.792  31.835  1.00  0.00     0.031 C 
ATOM     57  C   UNL A   1      42.545  29.441  26.257  1.00  0.00     0.029 A 
ATOM     58  C   UNL A   1      42.683  29.475  27.643  1.00  0.00     0.049 A 
ATOM     59  H   UNL A   1      41.186  29.290  29.084  1.00  0.00     0.167 HD
ATOM     60  C   UNL A   1      43.752  29.474  29.878  1.00  0.00     0.074 A 
ATOM     61  C   UNL A   1      42.610  29.589  30.771  1.00  0.00     0.031 C 
ATOM     62  C   UNL A   1      43.833  29.500  28.519  1.00  0.00     0.034 A 
BRANCH  49  63
ATOM     63  C   UNL A   1      38.396  28.809  28.458  1.00  0.00     0.023 A 
ATOM     64  C   UNL A   1      37.551  29.727  27.784  1.00  0.00     0.012 A 
ATOM     65  C   UNL A   1      38.389  28.871  29.868  1.00  0.00     0.148 A 
ATOM     66  C   UNL A   1      36.802  30.692  28.469  1.00  0.00     0.002 A 
ATOM     67  C   UNL A   1      37.594  29.790  30.550  1.00  0.00     0.091 A 
ATOM     68  F   UNL A   1      39.242  28.127  30.574  1.00  0.00    -0.205 F 
ATOM     69  C   UNL A   1      36.822  30.725  29.855  1.00  0.00     0.022 A 
BRANCH  67  70
ATOM     70  S   UNL A   1      37.558  29.862  32.347  1.00  0.00     0.127 S 
ATOM     71  O   UNL A   1      36.484  30.823  32.578  1.00  0.00    -0.237 OA
ATOM     72  O   UNL A   1      37.239  28.476  32.692  1.00  0.00    -0.237 OA
ATOM     73  O   UNL A   1      38.894  30.286  32.748  1.00  0.00    -0.744 OA
ENDBRANCH  67  70
ENDBRANCH  49  63
BRANCH  50  74
ATOM     74  C   UNL A   1      44.942  26.930  33.588  1.00  0.00     0.023 A 
ATOM     75  C   UNL A   1      46.026  27.758  33.970  1.00  0.00     0.012 A 
ATOM     76  C   UNL A   1      44.150  26.400  34.631  1.00  0.00     0.148 A 
ATOM     77  C   UNL A   1      46.225  28.158  35.298  1.00  0.00     0.002 A 
ATOM     78  C   UNL A   1      44.321  26.841  35.949  1.00  0.00     0.091 A 
ATOM     79  F   UNL A   1      43.170  25.539  34.328  1.00  0.00    -0.205 F 
ATOM     80  C   UNL A   1      45.346  27.732  36.282  1.00  0.00     0.022 A 
BRANCH  78  81
ATOM     81  S   UNL A   1      43.162  26.417  37.262  1.00  0.00     0.127 S 
ATOM     82  O   UNL A   1      43.832  26.941  38.453  1.00  0.00    -0.237 OA
ATOM     83  O   UNL A   1      41.976  27.160  36.854  1.00  0.00    -0.237 OA
ATOM     84  O   UNL A   1      43.058  24.964  37.223  1.00  0.00    -0.744 OA
ENDBRANCH  78  81
ENDBRANCH  50  74
BRANCH  62  85
ATOM     85  C   UNL A   1      45.196  29.396  27.906  1.00  0.00     0.023 A 
ATOM     86  C   UNL A   1      46.113  30.464  27.846  1.00  0.00     0.012 A 
ATOM     87  C   UNL A   1      45.579  28.137  27.420  1.00  0.00     0.148 A 
ATOM     88  C   UNL A   1      47.379  30.280  27.282  1.00  0.00     0.002 A 
ATOM     89  C   UNL A   1      46.852  27.945  26.909  1.00  0.00     0.091 A 
ATOM     90  F   UNL A   1      44.683  27.140  27.466  1.00  0.00    -0.205 F 
ATOM     91  C   UNL A   1      47.754  29.017  26.826  1.00  0.00     0.022 A 
BRANCH  89  92
ATOM     92  S   UNL A   1      47.404  26.313  26.418  1.00  0.00     0.127 S 
ATOM     93  O   UNL A   1      47.168  25.534  27.631  1.00  0.00    -0.237 OA
ATOM     94  O   UNL A   1      46.510  26.000  25.303  1.00  0.00    -0.237 OA
ATOM     95  O   UNL A   1      48.800  26.470  26.028  1.00  0.00    -0.744 OA
ENDBRANCH  89  92
ENDBRANCH  62  85
ENDBRANCH  36  37
ENDBRANCH  28  31
ENDBRANCH  26  27
ENDBRANCH   1  26
TORSDOF 17
ENDMDL
MODEL 2
REMARK VINA RESULT:     -12.5      1.107      2.233
REMARK SMILES O=C(Cn1cnc(-c2ccccc2)c1-c1ccccc1)NCCCCNC(=O)c1ccc(-c2c3nc(c(-c4cccc(S(=O)(=O)[O-])c4F)c4ccc([nH]4)c(-c4cccc(S(=O)(=O)[O-])c4F)c4nc(c(-c5cccc(S(=O)(=O)[O-])c5F)c5ccc2[nH]5)C=C4)C=C3)cc1
REMARK SMILES IDX 24 1 23 2 22 3 21 4 1 5 2 6 3 8 4 9 5 10 14 11 6 12 7 13
REMARK SMILES IDX 15 14 16 15 20 16 17 17 19 18 18 19 8 20 9 21 13 22 10 23
REMARK SMILES IDX 12 24 11 25 25 26 26 27 27 28 28 30 29 31 30 32 91 33 31 34
REMARK SMILES IDX 90 35 32 36 33 37 34 38 84 39 35 40 89 41 83 42 85 43 36 44
REMARK SMILES IDX 88 45 82 46 81 47 37 49 69 50 49 51 68 52 50 53 53 54 67 55
REMARK SMILES IDX 86 56 51 57 52 58 66 60 87 61 54 62 38 63 39 64 47 65 40 66
REMARK SMILES IDX 42 67 48 68 41 69 43 70 44 71 45 72 46 73 70 74 71 75 79 76
REMARK SMILES IDX 72 77 74 78 80 79 73 80 75 81 76 82 77 83 78 84 55 85 56 86
REMARK SMILES IDX 64 87 57 88 59 89 65 90 58 91 60 92 61 93 62 94 63 95
REMARK H PARENT 21 7 26 29 85 48 53 59
REMARK Flexibility Score: inf
ROOT
ATOM      1  C   UNL A   1      37.989  19.931  24.668  1.00  0.00     0.023 C 
ENDROOT
BRANCH   1   2
ATOM      2  C   UNL A   1      36.588  20.440  25.062  1.00  0.00     0.023 C 
BRANCH   2   3
ATOM      3  C   UNL A   1      36.425  21.932  25.416  1.00  0.00     0.116 C 
BRANCH   3   4
ATOM      4  N   UNL A   1      35.118  22.319  25.937  1.00  0.00    -0.355 N 
ATOM      5  O   UNL A   1      35.367  24.548  25.438  1.00  0.00    -0.273 OA
ATOM      6  C   UNL A   1      34.643  23.623  25.803  1.00  0.00     0.239 C 
ATOM      7  H   UNL A   1      34.561  21.645  26.391  1.00  0.00     0.163 HD
BRANCH   6   8
ATOM      8  C   UNL A   1      33.189  23.867  26.206  1.00  0.00     0.223 C 
BRANCH   8   9
ATOM      9  N   UNL A   1      32.374  24.487  25.173  1.00  0.00    -0.321 N 
ATOM     10  C   UNL A   1      31.773  23.857  24.116  1.00  0.00     0.201 A 
ATOM     11  C   UNL A   1      32.146  25.828  25.019  1.00  0.00     0.076 A 
ATOM     12  N   UNL A   1      31.123  24.704  23.345  1.00  0.00    -0.236 NA
ATOM     13  C   UNL A   1      31.315  25.934  23.914  1.00  0.00     0.096 A 
BRANCH  11  14
ATOM     14  C   UNL A   1      32.493  26.869  25.951  1.00  0.00     0.000 A 
ATOM     15  C   UNL A   1      31.514  27.262  26.858  1.00  0.00     0.010 A 
ATOM     16  C   UNL A   1      33.670  27.606  25.799  1.00  0.00     0.010 A 
ATOM     17  C   UNL A   1      31.677  28.454  27.528  1.00  0.00     0.001 A 
ATOM     18  C   UNL A   1      33.835  28.789  26.514  1.00  0.00     0.001 A 
ATOM     19  C   UNL A   1      32.820  29.228  27.352  1.00  0.00     0.000 A 
ENDBRANCH  11  14
BRANCH  13  20
ATOM     20  C   UNL A   1      30.627  27.177  23.578  1.00  0.00     0.002 A 
ATOM     21  C   UNL A   1      31.333  28.193  22.945  1.00  0.00     0.010 A 
ATOM     22  C   UNL A   1      29.224  27.272  23.642  1.00  0.00     0.010 A 
ATOM     23  C   UNL A   1      30.637  29.246  22.351  1.00  0.00     0.001 A 
ATOM     24  C   UNL A   1      28.539  28.337  23.045  1.00  0.00     0.001 A 
ATOM     25  C   UNL A   1      29.250  29.322  22.383  1.00  0.00     0.000 A 
ENDBRANCH  13  20
ENDBRANCH   8   9
ENDBRANCH   6   8
ENDBRANCH   3   4
ENDBRANCH   2   3
ENDBRANCH   1   2
BRANCH   1  26
ATOM     26  C   UNL A   1      39.085  20.099  25.727  1.00  0.00     0.116 C 
BRANCH  26  27
ATOM     27  N   UNL A   1      40.177  19.132  25.734  1.00  0.00    -0.352 N 
ATOM     28  C   UNL A   1      41.536  19.399  25.936  1.00  0.00     0.251 C 
ATOM     29  H   UNL A   1      39.932  18.191  25.580  1.00  0.00     0.163 HD
ATOM     30  O   UNL A   1      42.373  18.571  25.609  1.00  0.00    -0.269 OA
BRANCH  28  31
ATOM     31  C   UNL A   1      41.974  20.693  26.547  1.00  0.00     0.039 A 
ATOM     32  C   UNL A   1      42.422  21.772  25.773  1.00  0.00     0.014 A 
ATOM     33  C   UNL A   1      41.954  20.833  27.928  1.00  0.00     0.014 A 
ATOM     34  C   UNL A   1      42.717  23.007  26.388  1.00  0.00     0.010 A 
ATOM     35  C   UNL A   1      42.151  22.072  28.519  1.00  0.00     0.010 A 
ATOM     36  C   UNL A   1      42.535  23.179  27.774  1.00  0.00    -0.014 A 
BRANCH  36  37
ATOM     37  C   UNL A   1      42.525  24.518  28.420  1.00  0.00     0.031 A 
ATOM     38  C   UNL A   1      41.267  25.285  28.158  1.00  0.00     0.074 A 
ATOM     39  C   UNL A   1      43.405  24.951  29.368  1.00  0.00     0.049 A 
ATOM     40  N   UNL A   1      41.119  26.328  27.408  1.00  0.00    -0.248 NA
ATOM     41  C   UNL A   1      39.991  24.738  28.650  1.00  0.00     0.031 C 
ATOM     42  C   UNL A   1      44.496  24.176  29.977  1.00  0.00     0.029 A 
ATOM     43  N   UNL A   1      43.458  26.119  30.097  1.00  0.00    -0.354 N 
ATOM     44  C   UNL A   1      39.791  26.731  27.586  1.00  0.00     0.074 A 
ATOM     45  C   UNL A   1      39.105  25.598  28.140  1.00  0.00     0.031 C 
ATOM     46  C   UNL A   1      44.909  24.764  31.122  1.00  0.00     0.029 A 
ATOM     47  C   UNL A   1      44.276  26.061  31.243  1.00  0.00     0.049 A 
ATOM     48  H   UNL A   1      42.963  26.929  29.838  1.00  0.00     0.167 HD
ATOM     49  C   UNL A   1      39.465  28.055  27.571  1.00  0.00     0.034 A 
ATOM     50  C   UNL A   1      44.420  26.992  32.231  1.00  0.00     0.034 A 
ATOM     51  C   UNL A   1      40.589  28.835  27.120  1.00  0.00     0.049 A 
ATOM     52  C   UNL A   1      43.986  28.275  31.636  1.00  0.00     0.074 A 
ATOM     53  C   UNL A   1      41.245  29.078  25.936  1.00  0.00     0.029 A 
ATOM     54  N   UNL A   1      41.419  29.207  28.143  1.00  0.00    -0.354 N 
ATOM     55  N   UNL A   1      44.664  28.886  30.708  1.00  0.00    -0.248 NA
ATOM     56  C   UNL A   1      42.643  28.791  31.875  1.00  0.00     0.031 C 
ATOM     57  C   UNL A   1      42.573  29.449  26.296  1.00  0.00     0.029 A 
ATOM     58  C   UNL A   1      42.675  29.481  27.685  1.00  0.00     0.049 A 
ATOM     59  H   UNL A   1      41.147  29.269  29.087  1.00  0.00     0.167 HD
ATOM     60  C   UNL A   1      43.689  29.493  29.945  1.00  0.00     0.074 A 
ATOM     61  C   UNL A   1      42.523  29.588  30.810  1.00  0.00     0.031 C 
ATOM     62  C   UNL A   1      43.802  29.524  28.588  1.00  0.00     0.034 A 
BRANCH  49  63
ATOM     63  C   UNL A   1      38.381  28.744  28.391  1.00  0.00     0.023 A 
ATOM     64  C   UNL A   1      37.515  29.622  27.691  1.00  0.00     0.012 A 
ATOM     65  C   UNL A   1      38.355  28.831  29.800  1.00  0.00     0.148 A 
ATOM     66  C   UNL A   1      36.727  30.574  28.349  1.00  0.00     0.002 A 
ATOM     67  C   UNL A   1      37.523  29.737  30.455  1.00  0.00     0.091 A 
ATOM     68  F   UNL A   1      39.223  28.128  30.528  1.00  0.00    -0.205 F 
ATOM     69  C   UNL A   1      36.730  30.633  29.735  1.00  0.00     0.022 A 
BRANCH  67  70
ATOM     70  S   UNL A   1      37.463  29.840  32.250  1.00  0.00     0.127 S 
ATOM     71  O   UNL A   1      36.391  30.809  32.450  1.00  0.00    -0.237 OA
ATOM     72  O   UNL A   1      37.135  28.462  32.614  1.00  0.00    -0.237 OA
ATOM     73  O   UNL A   1      38.796  30.265  32.662  1.00  0.00    -0.744 OA
ENDBRANCH  67  70
ENDBRANCH  49  63
BRANCH  50  74
ATOM     74  C   UNL A   1      44.827  26.961  33.679  1.00  0.00     0.023 A 
ATOM     75  C   UNL A   1      45.860  27.836  34.099  1.00  0.00     0.012 A 
ATOM     76  C   UNL A   1      44.036  26.382  34.696  1.00  0.00     0.148 A 
ATOM     77  C   UNL A   1      46.006  28.229  35.435  1.00  0.00     0.002 A 
ATOM     78  C   UNL A   1      44.151  26.815  36.022  1.00  0.00     0.091 A 
ATOM     79  F   UNL A   1      43.107  25.478  34.358  1.00  0.00    -0.205 F 
ATOM     80  C   UNL A   1      45.123  27.750  36.391  1.00  0.00     0.022 A 
BRANCH  78  81
ATOM     81  S   UNL A   1      42.981  26.320  37.301  1.00  0.00     0.127 S 
ATOM     82  O   UNL A   1      42.884  24.874  37.094  1.00  0.00    -0.237 OA
ATOM     83  O   UNL A   1      43.690  26.716  38.512  1.00  0.00    -0.237 OA
ATOM     84  O   UNL A   1      41.758  27.052  37.000  1.00  0.00    -0.744 OA
ENDBRANCH  78  81
ENDBRANCH  50  74
BRANCH  62  85
ATOM     85  C   UNL A   1      45.183  29.444  28.010  1.00  0.00     0.023 A 
ATOM     86  C   UNL A   1      46.087  30.523  27.985  1.00  0.00     0.012 A 
ATOM     87  C   UNL A   1      45.594  28.195  27.520  1.00  0.00     0.148 A 
ATOM     88  C   UNL A   1      47.369  30.361  27.452  1.00  0.00     0.002 A 
ATOM     89  C   UNL A   1      46.882  28.024  27.040  1.00  0.00     0.091 A 
ATOM     90  F   UNL A   1      44.709  27.186  27.533  1.00  0.00    -0.205 F 
ATOM     91  C   UNL A   1      47.772  29.108  26.992  1.00  0.00     0.022 A 
BRANCH  89  92
ATOM     92  S   UNL A   1      47.466  26.405  26.546  1.00  0.00     0.127 S 
ATOM     93  O   UNL A   1      46.989  26.315  25.168  1.00  0.00    -0.237 OA
ATOM     94  O   UNL A   1      48.917  26.536  26.686  1.00  0.00    -0.237 OA
ATOM     95  O   UNL A   1      46.866  25.466  27.485  1.00  0.00    -0.744 OA
ENDBRANCH  89  92
ENDBRANCH  62  85
ENDBRANCH  36  37
ENDBRANCH  28  31
ENDBRANCH  26  27
ENDBRANCH   1  26
TORSDOF 17
ENDMDL
MODEL 3
REMARK VINA RESULT:     -12.0      3.882      9.279
REMARK SMILES O=C(Cn1cnc(-c2ccccc2)c1-c1ccccc1)NCCCCNC(=O)c1ccc(-c2c3nc(c(-c4cccc(S(=O)(=O)[O-])c4F)c4ccc([nH]4)c(-c4cccc(S(=O)(=O)[O-])c4F)c4nc(c(-c5cccc(S(=O)(=O)[O-])c5F)c5ccc2[nH]5)C=C4)C=C3)cc1
REMARK SMILES IDX 24 1 23 2 22 3 21 4 1 5 2 6 3 8 4 9 5 10 14 11 6 12 7 13
REMARK SMILES IDX 15 14 16 15 20 16 17 17 19 18 18 19 8 20 9 21 13 22 10 23
REMARK SMILES IDX 12 24 11 25 25 26 26 27 27 28 28 30 29 31 30 32 91 33 31 34
REMARK SMILES IDX 90 35 32 36 33 37 34 38 84 39 35 40 89 41 83 42 85 43 36 44
REMARK SMILES IDX 88 45 82 46 81 47 37 49 69 50 49 51 68 52 50 53 53 54 67 55
REMARK SMILES IDX 86 56 51 57 52 58 66 60 87 61 54 62 38 63 39 64 47 65 40 66
REMARK SMILES IDX 42 67 48 68 41 69 43 70 44 71 45 72 46 73 70 74 71 75 79 76
REMARK SMILES IDX 72 77 74 78 80 79 73 80 75 81 76 82 77 83 78 84 55 85 56 86
REMARK SMILES IDX 64 87 57 88 59 89 65 90 58 91 60 92 61 93 62 94 63 95
REMARK H PARENT 21 7 26 29 85 48 53 59
REMARK Flexibility Score: inf
ROOT
ATOM      1  C   UNL A   1      31.389  31.706  26.505  1.00  0.00     0.023 C 
ENDROOT
BRANCH   1   2
ATOM      2  C   UNL A   1      31.653  30.218  26.205  1.00  0.00     0.023 C 
BRANCH   2   3
ATOM      3  C   UNL A   1      32.427  29.856  24.921  1.00  0.00     0.116 C 
BRANCH   3   4
ATOM      4  N   UNL A   1      31.702  29.036  23.956  1.00  0.00    -0.355 N 
ATOM      5  O   UNL A   1      33.462  28.873  22.487  1.00  0.00    -0.273 OA
ATOM      6  C   UNL A   1      32.338  28.510  22.832  1.00  0.00     0.239 C 
ATOM      7  H   UNL A   1      30.746  28.851  24.101  1.00  0.00     0.163 HD
BRANCH   6   8
ATOM      8  C   UNL A   1      31.539  27.508  21.999  1.00  0.00     0.223 C 
BRANCH   8   9
ATOM      9  N   UNL A   1      32.191  26.221  21.817  1.00  0.00    -0.321 N 
ATOM     10  C   UNL A   1      32.589  25.665  20.630  1.00  0.00     0.201 A 
ATOM     11  C   UNL A   1      32.434  25.292  22.792  1.00  0.00     0.076 A 
ATOM     12  N   UNL A   1      33.129  24.477  20.801  1.00  0.00    -0.236 NA
ATOM     13  C   UNL A   1      33.074  24.243  22.149  1.00  0.00     0.096 A 
BRANCH  11  14
ATOM     14  C   UNL A   1      32.279  25.479  24.212  1.00  0.00     0.000 A 
ATOM     15  C   UNL A   1      30.994  25.366  24.731  1.00  0.00     0.010 A 
ATOM     16  C   UNL A   1      33.328  25.980  24.989  1.00  0.00     0.010 A 
ATOM     17  C   UNL A   1      30.748  25.858  25.993  1.00  0.00     0.001 A 
ATOM     18  C   UNL A   1      33.068  26.436  26.277  1.00  0.00     0.001 A 
ATOM     19  C   UNL A   1      31.769  26.407  26.764  1.00  0.00     0.000 A 
ENDBRANCH  11  14
BRANCH  13  20
ATOM     20  C   UNL A   1      33.737  23.172  22.885  1.00  0.00     0.002 A 
ATOM     21  C   UNL A   1      35.068  23.326  23.257  1.00  0.00     0.010 A 
ATOM     22  C   UNL A   1      33.002  22.112  23.448  1.00  0.00     0.010 A 
ATOM     23  C   UNL A   1      35.620  22.467  24.207  1.00  0.00     0.001 A 
ATOM     24  C   UNL A   1      33.570  21.255  24.397  1.00  0.00     0.001 A 
ATOM     25  C   UNL A   1      34.883  21.444  24.790  1.00  0.00     0.000 A 
ENDBRANCH  13  20
ENDBRANCH   8   9
ENDBRANCH   6   8
ENDBRANCH   3   4
ENDBRANCH   2   3
ENDBRANCH   1   2
BRANCH   1  26
ATOM     26  C   UNL A   1      32.555  32.480  27.132  1.00  0.00     0.116 C 
BRANCH  26  27
ATOM     27  N   UNL A   1      32.298  33.837  27.598  1.00  0.00    -0.352 N 
ATOM     28  C   UNL A   1      32.974  34.520  28.617  1.00  0.00     0.251 C 
ATOM     29  H   UNL A   1      31.570  34.326  27.150  1.00  0.00     0.163 HD
ATOM     30  O   UNL A   1      32.470  35.511  29.121  1.00  0.00    -0.269 OA
BRANCH  28  31
ATOM     31  C   UNL A   1      34.310  34.043  29.093  1.00  0.00     0.039 A 
ATOM     32  C   UNL A   1      34.445  33.135  30.153  1.00  0.00     0.014 A 
ATOM     33  C   UNL A   1      35.461  34.523  28.483  1.00  0.00     0.014 A 
ATOM     34  C   UNL A   1      35.719  32.631  30.492  1.00  0.00     0.010 A 
ATOM     35  C   UNL A   1      36.697  33.956  28.752  1.00  0.00     0.010 A 
ATOM     36  C   UNL A   1      36.858  33.006  29.753  1.00  0.00    -0.014 A 
BRANCH  36  37
ATOM     37  C   UNL A   1      38.152  32.282  29.855  1.00  0.00     0.031 A 
ATOM     38  C   UNL A   1      38.095  30.898  29.289  1.00  0.00     0.074 A 
ATOM     39  C   UNL A   1      39.355  32.843  30.169  1.00  0.00     0.049 A 
ATOM     40  N   UNL A   1      38.123  29.779  29.936  1.00  0.00    -0.248 NA
ATOM     41  C   UNL A   1      37.804  30.732  27.855  1.00  0.00     0.031 C 
ATOM     42  C   UNL A   1      39.626  34.266  30.416  1.00  0.00     0.029 A 
ATOM     43  N   UNL A   1      40.625  32.309  30.216  1.00  0.00    -0.354 N 
ATOM     44  C   UNL A   1      38.158  28.781  28.957  1.00  0.00     0.074 A 
ATOM     45  C   UNL A   1      37.712  29.404  27.742  1.00  0.00     0.031 C 
ATOM     46  C   UNL A   1      40.951  34.518  30.318  1.00  0.00     0.029 A 
ATOM     47  C   UNL A   1      41.664  33.262  30.208  1.00  0.00     0.049 A 
ATOM     48  H   UNL A   1      40.792  31.341  30.252  1.00  0.00     0.167 HD
ATOM     49  C   UNL A   1      38.864  27.634  29.166  1.00  0.00     0.034 A 
ATOM     50  C   UNL A   1      43.008  33.051  30.105  1.00  0.00     0.034 A 
ATOM     51  C   UNL A   1      39.288  27.558  30.541  1.00  0.00     0.049 A 
ATOM     52  C   UNL A   1      43.225  31.651  30.530  1.00  0.00     0.074 A 
ATOM     53  C   UNL A   1      38.713  27.319  31.767  1.00  0.00     0.029 A 
ATOM     54  N   UNL A   1      40.498  28.162  30.756  1.00  0.00    -0.354 N 
ATOM     55  N   UNL A   1      43.071  31.256  31.761  1.00  0.00    -0.248 NA
ATOM     56  C   UNL A   1      43.371  30.586  29.544  1.00  0.00     0.031 C 
ATOM     57  C   UNL A   1      39.551  27.964  32.722  1.00  0.00     0.029 A 
ATOM     58  C   UNL A   1      40.643  28.525  32.064  1.00  0.00     0.049 A 
ATOM     59  H   UNL A   1      41.175  28.315  30.058  1.00  0.00     0.167 HD
ATOM     60  C   UNL A   1      42.613  29.962  31.629  1.00  0.00     0.074 A 
ATOM     61  C   UNL A   1      43.021  29.541  30.298  1.00  0.00     0.031 C 
ATOM     62  C   UNL A   1      41.640  29.494  32.459  1.00  0.00     0.034 A 
BRANCH  49  63
ATOM     63  C   UNL A   1      39.619  26.815  28.125  1.00  0.00     0.023 A 
ATOM     64  C   UNL A   1      39.449  25.408  28.176  1.00  0.00     0.012 A 
ATOM     65  C   UNL A   1      40.689  27.288  27.335  1.00  0.00     0.148 A 
ATOM     66  C   UNL A   1      40.330  24.527  27.539  1.00  0.00     0.002 A 
ATOM     67  C   UNL A   1      41.528  26.410  26.650  1.00  0.00     0.091 A 
ATOM     68  F   UNL A   1      40.993  28.587  27.329  1.00  0.00    -0.205 F 
ATOM     69  C   UNL A   1      41.373  25.028  26.774  1.00  0.00     0.022 A 
BRANCH  67  70
ATOM     70  S   UNL A   1      42.880  27.002  25.621  1.00  0.00     0.127 S 
ATOM     71  O   UNL A   1      42.198  27.984  24.783  1.00  0.00    -0.237 OA
ATOM     72  O   UNL A   1      43.790  27.559  26.621  1.00  0.00    -0.237 OA
ATOM     73  O   UNL A   1      43.394  25.822  24.936  1.00  0.00    -0.744 OA
ENDBRANCH  67  70
ENDBRANCH  49  63
BRANCH  50  74
ATOM     74  C   UNL A   1      44.185  33.857  29.627  1.00  0.00     0.023 A 
ATOM     75  C   UNL A   1      45.104  34.331  30.596  1.00  0.00     0.012 A 
ATOM     76  C   UNL A   1      44.613  33.883  28.282  1.00  0.00     0.148 A 
ATOM     77  C   UNL A   1      46.423  34.671  30.268  1.00  0.00     0.002 A 
ATOM     78  C   UNL A   1      45.945  34.175  27.963  1.00  0.00     0.091 A 
ATOM     79  F   UNL A   1      43.750  33.533  27.320  1.00  0.00    -0.205 F 
ATOM     80  C   UNL A   1      46.855  34.553  28.956  1.00  0.00     0.022 A 
BRANCH  78  81
ATOM     81  S   UNL A   1      46.610  33.947  26.304  1.00  0.00     0.127 S 
ATOM     82  O   UNL A   1      48.049  34.106  26.517  1.00  0.00    -0.237 OA
ATOM     83  O   UNL A   1      46.184  32.584  26.006  1.00  0.00    -0.237 OA
ATOM     84  O   UNL A   1      46.002  35.002  25.502  1.00  0.00    -0.744 OA
ENDBRANCH  78  81
ENDBRANCH  50  74
BRANCH  62  85
ATOM     85  C   UNL A   1      41.512  30.139  33.805  1.00  0.00     0.023 A 
ATOM     86  C   UNL A   1      42.379  29.879  34.885  1.00  0.00     0.012 A 
ATOM     87  C   UNL A   1      40.495  31.092  33.958  1.00  0.00     0.148 A 
ATOM     88  C   UNL A   1      42.211  30.543  36.104  1.00  0.00     0.002 A 
ATOM     89  C   UNL A   1      40.363  31.785  35.150  1.00  0.00     0.091 A 
ATOM     90  F   UNL A   1      39.666  31.307  32.925  1.00  0.00    -0.205 F 
ATOM     91  C   UNL A   1      41.211  31.506  36.233  1.00  0.00     0.022 A 
BRANCH  89  92
ATOM     92  S   UNL A   1      39.163  33.106  35.313  1.00  0.00     0.127 S 
ATOM     93  O   UNL A   1      38.043  32.423  35.957  1.00  0.00    -0.237 OA
ATOM     94  O   UNL A   1      39.865  34.068  36.162  1.00  0.00    -0.237 OA
ATOM     95  O   UNL A   1      38.917  33.583  33.958  1.00  0.00    -0.744 OA
ENDBRANCH  89  92
ENDBRANCH  62  85
ENDBRANCH  36  37
ENDBRANCH  28  31
ENDBRANCH  26  27
ENDBRANCH   1  26
TORSDOF 17
ENDMDL
