MODEL 1
REMARK VINA RESULT:     -13.4      0.000      0.000
REMARK SMILES Cc1ccc(Oc2cc(C(=O)NCCCCNC(=O)c3ccc(-c4c5nc(c(-c6cccc(S(=O)(=O)[O-])c6F)c6ccc([nH]6)c(-c6cccc(S(=O)(=O)[O-])c6F)c6nc(c(-c7cccc(S(=O)(=O)[O-])c7F)c7ccc4[nH]7)C=C6)C=C5)cc3)nc3ccccc23)cc1
REMARK SMILES IDX 15 1 14 2 13 3 12 4 10 5 11 6 9 8 7 9 8 10 89 11 84 12 88 13
REMARK SMILES IDX 83 14 85 15 87 16 86 17 6 18 5 19 1 20 2 21 3 22 91 23 4 24
REMARK SMILES IDX 90 25 16 26 17 27 18 28 19 30 20 31 21 32 82 33 22 34 81 35
REMARK SMILES IDX 23 36 24 37 25 38 75 39 26 40 80 41 74 42 76 43 27 44 79 45
REMARK SMILES IDX 73 46 72 47 28 49 60 50 40 51 59 52 41 53 44 54 58 55 77 56
REMARK SMILES IDX 42 57 43 58 57 60 78 61 45 62 29 63 30 64 38 65 31 66 33 67
REMARK SMILES IDX 39 68 32 69 34 70 35 71 36 72 37 73 61 74 62 75 70 76 63 77
REMARK SMILES IDX 65 78 71 79 64 80 66 81 67 82 68 83 69 84 46 85 47 86 55 87
REMARK SMILES IDX 48 88 50 89 56 90 49 91 51 92 52 93 53 94 54 95
REMARK H PARENT 12 7 17 29 76 48 44 59
REMARK Flexibility Score: inf
ROOT
ATOM      1  C   UNL A   1      33.557  29.477  26.594  1.00  0.00     0.023 C 
ENDROOT
BRANCH   1   2
ATOM      2  C   UNL A   1      33.097  28.089  27.056  1.00  0.00     0.023 C 
BRANCH   2   3
ATOM      3  C   UNL A   1      32.368  27.267  25.983  1.00  0.00     0.116 C 
BRANCH   3   4
ATOM      4  N   UNL A   1      31.450  26.297  26.565  1.00  0.00    -0.351 N 
ATOM      5  C   UNL A   1      31.429  24.921  26.503  1.00  0.00     0.270 C 
ATOM      6  O   UNL A   1      30.510  24.326  27.067  1.00  0.00    -0.268 OA
ATOM      7  H   UNL A   1      30.718  26.693  27.091  1.00  0.00     0.163 HD
BRANCH   5   8
ATOM      8  C   UNL A   1      32.486  24.128  25.791  1.00  0.00     0.132 A 
ATOM      9  C   UNL A   1      33.106  22.345  24.348  1.00  0.00     0.139 A 
ATOM     10  C   UNL A   1      32.103  23.102  24.948  1.00  0.00     0.082 A 
ATOM     11  C   UNL A   1      34.471  22.651  24.557  1.00  0.00     0.043 A 
ATOM     12  C   UNL A   1      34.741  23.699  25.453  1.00  0.00     0.075 A 
ATOM     13  C   UNL A   1      35.564  21.971  23.964  1.00  0.00     0.014 A 
ATOM     14  N   UNL A   1      33.782  24.429  26.029  1.00  0.00    -0.242 NA
ATOM     15  C   UNL A   1      36.055  23.989  25.787  1.00  0.00     0.029 A 
ATOM     16  C   UNL A   1      36.878  22.274  24.318  1.00  0.00     0.001 A 
ATOM     17  C   UNL A   1      37.124  23.277  25.244  1.00  0.00     0.002 A 
BRANCH   9  18
ATOM     18  O   UNL A   1      32.675  21.323  23.530  1.00  0.00    -0.457 OA
BRANCH  18  19
ATOM     19  C   UNL A   1      32.673  20.033  24.020  1.00  0.00     0.127 A 
ATOM     20  C   UNL A   1      32.955  15.878  25.127  1.00  0.00     0.044 C 
ATOM     21  C   UNL A   1      32.825  17.324  24.750  1.00  0.00    -0.051 A 
ATOM     22  C   UNL A   1      32.607  17.686  23.416  1.00  0.00     0.007 A 
ATOM     23  C   UNL A   1      32.908  18.327  25.722  1.00  0.00     0.007 A 
ATOM     24  C   UNL A   1      32.534  19.032  23.054  1.00  0.00     0.047 A 
ATOM     25  C   UNL A   1      32.815  19.674  25.362  1.00  0.00     0.047 A 
ENDBRANCH  18  19
ENDBRANCH   9  18
ENDBRANCH   5   8
ENDBRANCH   3   4
ENDBRANCH   2   3
ENDBRANCH   1   2
BRANCH   1  26
ATOM     26  C   UNL A   1      33.312  30.584  27.610  1.00  0.00     0.116 C 
BRANCH  26  27
ATOM     27  N   UNL A   1      34.296  31.648  27.587  1.00  0.00    -0.352 N 
ATOM     28  C   UNL A   1      35.590  31.662  28.077  1.00  0.00     0.251 C 
ATOM     29  H   UNL A   1      34.000  32.484  27.159  1.00  0.00     0.163 HD
ATOM     30  O   UNL A   1      36.120  32.759  28.260  1.00  0.00    -0.269 OA
BRANCH  28  31
ATOM     31  C   UNL A   1      36.380  30.404  28.205  1.00  0.00     0.039 A 
ATOM     32  C   UNL A   1      36.539  29.878  29.497  1.00  0.00     0.014 A 
ATOM     33  C   UNL A   1      37.184  29.931  27.176  1.00  0.00     0.014 A 
ATOM     34  C   UNL A   1      37.684  29.151  29.815  1.00  0.00     0.010 A 
ATOM     35  C   UNL A   1      38.367  29.308  27.500  1.00  0.00     0.010 A 
ATOM     36  C   UNL A   1      38.653  29.008  28.835  1.00  0.00    -0.014 A 
BRANCH  36  37
ATOM     37  C   UNL A   1      40.021  28.576  29.053  1.00  0.00     0.031 A 
ATOM     38  C   UNL A   1      40.362  27.157  28.890  1.00  0.00     0.074 A 
ATOM     39  C   UNL A   1      40.975  29.534  29.013  1.00  0.00     0.049 A 
ATOM     40  N   UNL A   1      41.542  26.676  29.061  1.00  0.00    -0.248 NA
ATOM     41  C   UNL A   1      39.367  26.153  28.536  1.00  0.00     0.031 C 
ATOM     42  C   UNL A   1      42.366  29.382  28.607  1.00  0.00     0.029 A 
ATOM     43  N   UNL A   1      40.911  30.838  29.515  1.00  0.00    -0.354 N 
ATOM     44  C   UNL A   1      41.542  25.408  28.524  1.00  0.00     0.074 A 
ATOM     45  C   UNL A   1      40.147  25.083  28.361  1.00  0.00     0.031 C 
ATOM     46  C   UNL A   1      43.075  30.404  29.107  1.00  0.00     0.029 A 
ATOM     47  C   UNL A   1      42.198  31.121  30.014  1.00  0.00     0.049 A 
ATOM     48  H   UNL A   1      40.128  31.435  29.519  1.00  0.00     0.167 HD
ATOM     49  C   UNL A   1      42.737  24.874  28.142  1.00  0.00     0.034 A 
ATOM     50  C   UNL A   1      42.448  31.333  31.341  1.00  0.00     0.034 A 
ATOM     51  C   UNL A   1      43.857  25.692  28.654  1.00  0.00     0.049 A 
ATOM     52  C   UNL A   1      43.364  30.277  31.957  1.00  0.00     0.074 A 
ATOM     53  C   UNL A   1      44.753  26.596  28.108  1.00  0.00     0.029 A 
ATOM     54  N   UNL A   1      43.981  25.829  30.027  1.00  0.00    -0.354 N 
ATOM     55  N   UNL A   1      43.983  29.336  31.296  1.00  0.00    -0.248 NA
ATOM     56  C   UNL A   1      43.570  30.158  33.401  1.00  0.00     0.031 C 
ATOM     57  C   UNL A   1      45.353  27.329  29.184  1.00  0.00     0.029 A 
ATOM     58  C   UNL A   1      44.853  26.843  30.380  1.00  0.00     0.049 A 
ATOM     59  H   UNL A   1      43.502  25.266  30.678  1.00  0.00     0.167 HD
ATOM     60  C   UNL A   1      44.477  28.406  32.178  1.00  0.00     0.074 A 
ATOM     61  C   UNL A   1      44.239  28.996  33.486  1.00  0.00     0.031 C 
ATOM     62  C   UNL A   1      44.976  27.187  31.796  1.00  0.00     0.034 A 
BRANCH  49  63
ATOM     63  C   UNL A   1      42.936  23.731  27.151  1.00  0.00     0.023 A 
ATOM     64  C   UNL A   1      43.646  24.032  25.965  1.00  0.00     0.012 A 
ATOM     65  C   UNL A   1      42.417  22.414  27.231  1.00  0.00     0.148 A 
ATOM     66  C   UNL A   1      43.785  23.117  24.912  1.00  0.00     0.002 A 
ATOM     67  C   UNL A   1      42.559  21.496  26.185  1.00  0.00     0.091 A 
ATOM     68  F   UNL A   1      41.756  22.011  28.310  1.00  0.00    -0.205 F 
ATOM     69  C   UNL A   1      43.235  21.849  25.017  1.00  0.00     0.022 A 
BRANCH  67  70
ATOM     70  S   UNL A   1      41.859  19.831  26.247  1.00  0.00     0.127 S 
ATOM     71  O   UNL A   1      40.424  20.103  26.158  1.00  0.00    -0.237 OA
ATOM     72  O   UNL A   1      42.435  19.207  25.057  1.00  0.00    -0.237 OA
ATOM     73  O   UNL A   1      42.286  19.245  27.512  1.00  0.00    -0.744 OA
ENDBRANCH  67  70
ENDBRANCH  49  63
BRANCH  50  74
ATOM     74  C   UNL A   1      41.309  32.002  32.041  1.00  0.00     0.023 A 
ATOM     75  C   UNL A   1      40.990  33.317  31.626  1.00  0.00     0.012 A 
ATOM     76  C   UNL A   1      40.338  31.250  32.726  1.00  0.00     0.148 A 
ATOM     77  C   UNL A   1      39.690  33.810  31.753  1.00  0.00     0.002 A 
ATOM     78  C   UNL A   1      39.042  31.747  32.843  1.00  0.00     0.091 A 
ATOM     79  F   UNL A   1      40.663  30.024  33.155  1.00  0.00    -0.205 F 
ATOM     80  C   UNL A   1      38.708  33.008  32.322  1.00  0.00     0.022 A 
BRANCH  78  81
ATOM     81  S   UNL A   1      37.710  30.747  33.518  1.00  0.00     0.127 S 
ATOM     82  O   UNL A   1      37.770  31.099  34.933  1.00  0.00    -0.237 OA
ATOM     83  O   UNL A   1      36.543  31.259  32.803  1.00  0.00    -0.237 OA
ATOM     84  O   UNL A   1      38.062  29.376  33.180  1.00  0.00    -0.744 OA
ENDBRANCH  78  81
ENDBRANCH  50  74
BRANCH  62  85
ATOM     85  C   UNL A   1      45.606  26.205  32.775  1.00  0.00     0.023 A 
ATOM     86  C   UNL A   1      47.004  26.014  32.786  1.00  0.00     0.012 A 
ATOM     87  C   UNL A   1      44.842  25.342  33.604  1.00  0.00     0.148 A 
ATOM     88  C   UNL A   1      47.618  25.079  33.629  1.00  0.00     0.002 A 
ATOM     89  C   UNL A   1      45.449  24.343  34.361  1.00  0.00     0.091 A 
ATOM     90  F   UNL A   1      43.520  25.507  33.702  1.00  0.00    -0.205 F 
ATOM     91  C   UNL A   1      46.839  24.232  34.404  1.00  0.00     0.022 A 
BRANCH  89  92
ATOM     92  S   UNL A   1      44.503  23.078  35.224  1.00  0.00     0.127 S 
ATOM     93  O   UNL A   1      44.108  22.200  34.120  1.00  0.00    -0.237 OA
ATOM     94  O   UNL A   1      45.506  22.512  36.123  1.00  0.00    -0.237 OA
ATOM     95  O   UNL A   1      43.394  23.768  35.868  1.00  0.00    -0.744 OA
ENDBRANCH  89  92
ENDBRANCH  62  85
ENDBRANCH  36  37
ENDBRANCH  28  31
ENDBRANCH  26  27
ENDBRANCH   1  26
TORSDOF 16
ENDMDL
MODEL 2
REMARK VINA RESULT:     -12.8      1.715      2.511
REMARK SMILES Cc1ccc(Oc2cc(C(=O)NCCCCNC(=O)c3ccc(-c4c5nc(c(-c6cccc(S(=O)(=O)[O-])c6F)c6ccc([nH]6)c(-c6cccc(S(=O)(=O)[O-])c6F)c6nc(c(-c7cccc(S(=O)(=O)[O-])c7F)c7ccc4[nH]7)C=C6)C=C5)cc3)nc3ccccc23)cc1
REMARK SMILES IDX 15 1 14 2 13 3 12 4 10 5 11 6 9 8 7 9 8 10 89 11 84 12 88 13
REMARK SMILES IDX 83 14 85 15 87 16 86 17 6 18 5 19 1 20 2 21 3 22 91 23 4 24
REMARK SMILES IDX 90 25 16 26 17 27 18 28 19 30 20 31 21 32 82 33 22 34 81 35
REMARK SMILES IDX 23 36 24 37 25 38 75 39 26 40 80 41 74 42 76 43 27 44 79 45
REMARK SMILES IDX 73 46 72 47 28 49 60 50 40 51 59 52 41 53 44 54 58 55 77 56
REMARK SMILES IDX 42 57 43 58 57 60 78 61 45 62 29 63 30 64 38 65 31 66 33 67
REMARK SMILES IDX 39 68 32 69 34 70 35 71 36 72 37 73 61 74 62 75 70 76 63 77
REMARK SMILES IDX 65 78 71 79 64 80 66 81 67 82 68 83 69 84 46 85 47 86 55 87
REMARK SMILES IDX 48 88 50 89 56 90 49 91 51 92 52 93 53 94 54 95
REMARK H PARENT 12 7 17 29 76 48 44 59
REMARK Flexibility Score: inf
ROOT
ATOM      1  C   UNL A   1      33.473  29.473  26.419  1.00  0.00     0.023 C 
ENDROOT
BRANCH   1   2
ATOM      2  C   UNL A   1      32.806  29.962  25.127  1.00  0.00     0.023 C 
BRANCH   2   3
ATOM      3  C   UNL A   1      31.343  29.527  24.958  1.00  0.00     0.116 C 
BRANCH   3   4
ATOM      4  N   UNL A   1      31.113  28.858  23.685  1.00  0.00    -0.351 N 
ATOM      5  C   UNL A   1      31.344  27.558  23.292  1.00  0.00     0.270 C 
ATOM      6  O   UNL A   1      31.087  27.246  22.128  1.00  0.00    -0.268 OA
ATOM      7  H   UNL A   1      30.728  29.433  22.985  1.00  0.00     0.163 HD
BRANCH   5   8
ATOM      8  C   UNL A   1      31.880  26.514  24.227  1.00  0.00     0.132 A 
ATOM      9  C   UNL A   1      33.719  25.390  25.230  1.00  0.00     0.139 A 
ATOM     10  C   UNL A   1      33.247  26.406  24.403  1.00  0.00     0.082 A 
ATOM     11  C   UNL A   1      32.822  24.529  25.906  1.00  0.00     0.043 A 
ATOM     12  C   UNL A   1      31.457  24.716  25.632  1.00  0.00     0.075 A 
ATOM     13  C   UNL A   1      33.196  23.494  26.799  1.00  0.00     0.014 A 
ATOM     14  N   UNL A   1      31.001  25.691  24.841  1.00  0.00    -0.242 NA
ATOM     15  C   UNL A   1      30.526  23.845  26.177  1.00  0.00     0.029 A 
ATOM     16  C   UNL A   1      32.245  22.624  27.332  1.00  0.00     0.001 A 
ATOM     17  C   UNL A   1      30.907  22.792  27.008  1.00  0.00     0.002 A 
BRANCH   9  18
ATOM     18  O   UNL A   1      35.088  25.312  25.361  1.00  0.00    -0.457 OA
BRANCH  18  19
ATOM     19  C   UNL A   1      35.719  24.120  25.068  1.00  0.00     0.127 A 
ATOM     20  C   UNL A   1      37.672  20.300  24.671  1.00  0.00     0.044 C 
ATOM     21  C   UNL A   1      37.013  21.642  24.788  1.00  0.00    -0.051 A 
ATOM     22  C   UNL A   1      37.349  22.501  25.840  1.00  0.00     0.007 A 
ATOM     23  C   UNL A   1      36.067  22.060  23.845  1.00  0.00     0.007 A 
ATOM     24  C   UNL A   1      36.703  23.731  25.980  1.00  0.00     0.047 A 
ATOM     25  C   UNL A   1      35.436  23.300  23.974  1.00  0.00     0.047 A 
ENDBRANCH  18  19
ENDBRANCH   9  18
ENDBRANCH   5   8
ENDBRANCH   3   4
ENDBRANCH   2   3
ENDBRANCH   1   2
BRANCH   1  26
ATOM     26  C   UNL A   1      33.308  30.419  27.601  1.00  0.00     0.116 C 
BRANCH  26  27
ATOM     27  N   UNL A   1      34.266  31.505  27.637  1.00  0.00    -0.352 N 
ATOM     28  C   UNL A   1      35.539  31.538  28.181  1.00  0.00     0.251 C 
ATOM     29  H   UNL A   1      33.969  32.342  27.213  1.00  0.00     0.163 HD
ATOM     30  O   UNL A   1      36.036  32.642  28.406  1.00  0.00    -0.269 OA
BRANCH  28  31
ATOM     31  C   UNL A   1      36.352  30.296  28.318  1.00  0.00     0.039 A 
ATOM     32  C   UNL A   1      36.550  29.802  29.617  1.00  0.00     0.014 A 
ATOM     33  C   UNL A   1      37.139  29.812  27.281  1.00  0.00     0.014 A 
ATOM     34  C   UNL A   1      37.715  29.101  29.923  1.00  0.00     0.010 A 
ATOM     35  C   UNL A   1      38.339  29.215  27.590  1.00  0.00     0.010 A 
ATOM     36  C   UNL A   1      38.661  28.950  28.924  1.00  0.00    -0.014 A 
BRANCH  36  37
ATOM     37  C   UNL A   1      40.041  28.545  29.118  1.00  0.00     0.031 A 
ATOM     38  C   UNL A   1      40.406  27.132  28.952  1.00  0.00     0.074 A 
ATOM     39  C   UNL A   1      40.976  29.520  29.060  1.00  0.00     0.049 A 
ATOM     40  N   UNL A   1      41.598  26.673  29.103  1.00  0.00    -0.248 NA
ATOM     41  C   UNL A   1      39.424  26.108  28.618  1.00  0.00     0.031 C 
ATOM     42  C   UNL A   1      42.362  29.394  28.629  1.00  0.00     0.029 A 
ATOM     43  N   UNL A   1      40.896  30.824  29.560  1.00  0.00    -0.354 N 
ATOM     44  C   UNL A   1      41.613  25.405  28.568  1.00  0.00     0.074 A 
ATOM     45  C   UNL A   1      40.222  25.053  28.430  1.00  0.00     0.031 C 
ATOM     46  C   UNL A   1      43.061  30.430  29.115  1.00  0.00     0.029 A 
ATOM     47  C   UNL A   1      42.186  31.132  30.035  1.00  0.00     0.049 A 
ATOM     48  H   UNL A   1      40.102  31.406  29.577  1.00  0.00     0.167 HD
ATOM     49  C   UNL A   1      42.811  24.893  28.166  1.00  0.00     0.034 A 
ATOM     50  C   UNL A   1      42.455  31.352  31.358  1.00  0.00     0.034 A 
ATOM     51  C   UNL A   1      43.924  25.733  28.656  1.00  0.00     0.049 A 
ATOM     52  C   UNL A   1      43.402  30.316  31.960  1.00  0.00     0.074 A 
ATOM     53  C   UNL A   1      44.793  26.653  28.093  1.00  0.00     0.029 A 
ATOM     54  N   UNL A   1      44.069  25.875  30.027  1.00  0.00    -0.354 N 
ATOM     55  N   UNL A   1      44.027  29.385  31.289  1.00  0.00    -0.248 NA
ATOM     56  C   UNL A   1      43.637  30.204  33.399  1.00  0.00     0.031 C 
ATOM     57  C   UNL A   1      45.397  27.399  29.157  1.00  0.00     0.029 A 
ATOM     58  C   UNL A   1      44.928  26.907  30.363  1.00  0.00     0.049 A 
ATOM     59  H   UNL A   1      43.613  25.305  30.688  1.00  0.00     0.167 HD
ATOM     60  C   UNL A   1      44.555  28.466  32.164  1.00  0.00     0.074 A 
ATOM     61  C   UNL A   1      44.329  29.055  33.475  1.00  0.00     0.031 C 
ATOM     62  C   UNL A   1      45.070  27.256  31.775  1.00  0.00     0.034 A 
BRANCH  49  63
ATOM     63  C   UNL A   1      43.014  23.752  27.174  1.00  0.00     0.023 A 
ATOM     64  C   UNL A   1      43.695  24.063  25.974  1.00  0.00     0.012 A 
ATOM     65  C   UNL A   1      42.522  22.425  27.266  1.00  0.00     0.148 A 
ATOM     66  C   UNL A   1      43.833  23.149  24.921  1.00  0.00     0.002 A 
ATOM     67  C   UNL A   1      42.663  21.507  26.220  1.00  0.00     0.091 A 
ATOM     68  F   UNL A   1      41.890  22.012  28.359  1.00  0.00    -0.205 F 
ATOM     69  C   UNL A   1      43.310  21.871  25.039  1.00  0.00     0.022 A 
BRANCH  67  70
ATOM     70  S   UNL A   1      41.997  19.829  26.299  1.00  0.00     0.127 S 
ATOM     71  O   UNL A   1      40.556  20.072  26.234  1.00  0.00    -0.237 OA
ATOM     72  O   UNL A   1      42.564  19.213  25.100  1.00  0.00    -0.237 OA
ATOM     73  O   UNL A   1      42.458  19.255  27.557  1.00  0.00    -0.744 OA
ENDBRANCH  67  70
ENDBRANCH  49  63
BRANCH  50  74
ATOM     74  C   UNL A   1      41.317  32.001  32.076  1.00  0.00     0.023 A 
ATOM     75  C   UNL A   1      40.947  33.297  31.644  1.00  0.00     0.012 A 
ATOM     76  C   UNL A   1      40.389  31.235  32.804  1.00  0.00     0.148 A 
ATOM     77  C   UNL A   1      39.636  33.753  31.799  1.00  0.00     0.002 A 
ATOM     78  C   UNL A   1      39.083  31.695  32.948  1.00  0.00     0.091 A 
ATOM     79  F   UNL A   1      40.763  30.029  33.248  1.00  0.00    -0.205 F 
ATOM     80  C   UNL A   1      38.695  32.934  32.411  1.00  0.00     0.022 A 
BRANCH  78  81
ATOM     81  S   UNL A   1      37.801  30.669  33.681  1.00  0.00     0.127 S 
ATOM     82  O   UNL A   1      36.615  31.128  32.964  1.00  0.00    -0.237 OA
ATOM     83  O   UNL A   1      38.247  29.321  33.337  1.00  0.00    -0.237 OA
ATOM     84  O   UNL A   1      37.848  30.968  35.104  1.00  0.00    -0.744 OA
ENDBRANCH  78  81
ENDBRANCH  50  74
BRANCH  62  85
ATOM     85  C   UNL A   1      45.736  26.288  32.745  1.00  0.00     0.023 A 
ATOM     86  C   UNL A   1      47.131  26.084  32.696  1.00  0.00     0.012 A 
ATOM     87  C   UNL A   1      45.004  25.450  33.626  1.00  0.00     0.148 A 
ATOM     88  C   UNL A   1      47.775  25.160  33.529  1.00  0.00     0.002 A 
ATOM     89  C   UNL A   1      45.635  24.462  34.376  1.00  0.00     0.091 A 
ATOM     90  F   UNL A   1      43.688  25.631  33.782  1.00  0.00    -0.205 F 
ATOM     91  C   UNL A   1      47.025  24.338  34.357  1.00  0.00     0.022 A 
BRANCH  89  92
ATOM     92  S   UNL A   1      44.719  23.224  35.308  1.00  0.00     0.127 S 
ATOM     93  O   UNL A   1      45.795  22.339  35.761  1.00  0.00    -0.237 OA
ATOM     94  O   UNL A   1      44.111  24.031  36.364  1.00  0.00    -0.237 OA
ATOM     95  O   UNL A   1      43.793  22.611  34.368  1.00  0.00    -0.744 OA
ENDBRANCH  89  92
ENDBRANCH  62  85
ENDBRANCH  36  37
ENDBRANCH  28  31
ENDBRANCH  26  27
ENDBRANCH   1  26
TORSDOF 16
ENDMDL
MODEL 3
REMARK VINA RESULT:     -12.8      2.426      3.297
REMARK SMILES Cc1ccc(Oc2cc(C(=O)NCCCCNC(=O)c3ccc(-c4c5nc(c(-c6cccc(S(=O)(=O)[O-])c6F)c6ccc([nH]6)c(-c6cccc(S(=O)(=O)[O-])c6F)c6nc(c(-c7cccc(S(=O)(=O)[O-])c7F)c7ccc4[nH]7)C=C6)C=C5)cc3)nc3ccccc23)cc1
REMARK SMILES IDX 15 1 14 2 13 3 12 4 10 5 11 6 9 8 7 9 8 10 89 11 84 12 88 13
REMARK SMILES IDX 83 14 85 15 87 16 86 17 6 18 5 19 1 20 2 21 3 22 91 23 4 24
REMARK SMILES IDX 90 25 16 26 17 27 18 28 19 30 20 31 21 32 82 33 22 34 81 35
REMARK SMILES IDX 23 36 24 37 25 38 75 39 26 40 80 41 74 42 76 43 27 44 79 45
REMARK SMILES IDX 73 46 72 47 28 49 60 50 40 51 59 52 41 53 44 54 58 55 77 56
REMARK SMILES IDX 42 57 43 58 57 60 78 61 45 62 29 63 30 64 38 65 31 66 33 67
REMARK SMILES IDX 39 68 32 69 34 70 35 71 36 72 37 73 61 74 62 75 70 76 63 77
REMARK SMILES IDX 65 78 71 79 64 80 66 81 67 82 68 83 69 84 46 85 47 86 55 87
REMARK SMILES IDX 48 88 50 89 56 90 49 91 51 92 52 93 53 94 54 95
REMARK H PARENT 12 7 17 29 76 48 44 59
REMARK Flexibility Score: inf
ROOT
ATOM      1  C   UNL A   1      32.644  31.147  27.219  1.00  0.00     0.023 C 
ENDROOT
BRANCH   1   2
ATOM      2  C   UNL A   1      31.755  30.664  26.066  1.00  0.00     0.023 C 
BRANCH   2   3
ATOM      3  C   UNL A   1      32.416  29.634  25.137  1.00  0.00     0.116 C 
BRANCH   3   4
ATOM      4  N   UNL A   1      31.665  29.448  23.903  1.00  0.00    -0.351 N 
ATOM      5  C   UNL A   1      31.295  28.302  23.234  1.00  0.00     0.270 C 
ATOM      6  O   UNL A   1      30.678  28.419  22.174  1.00  0.00    -0.268 OA
ATOM      7  H   UNL A   1      31.373  30.284  23.472  1.00  0.00     0.163 HD
BRANCH   5   8
ATOM      8  C   UNL A   1      31.601  26.928  23.754  1.00  0.00     0.132 A 
ATOM      9  C   UNL A   1      32.874  24.923  23.662  1.00  0.00     0.139 A 
ATOM     10  C   UNL A   1      32.651  26.218  23.202  1.00  0.00     0.082 A 
ATOM     11  C   UNL A   1      32.081  24.374  24.697  1.00  0.00     0.043 A 
ATOM     12  C   UNL A   1      31.028  25.177  25.164  1.00  0.00     0.075 A 
ATOM     13  C   UNL A   1      32.252  23.086  25.264  1.00  0.00     0.014 A 
ATOM     14  N   UNL A   1      30.812  26.420  24.726  1.00  0.00    -0.242 NA
ATOM     15  C   UNL A   1      30.146  24.665  26.104  1.00  0.00     0.029 A 
ATOM     16  C   UNL A   1      31.350  22.588  26.204  1.00  0.00     0.001 A 
ATOM     17  C   UNL A   1      30.285  23.375  26.614  1.00  0.00     0.002 A 
BRANCH   9  18
ATOM     18  O   UNL A   1      33.921  24.250  23.071  1.00  0.00    -0.457 OA
BRANCH  18  19
ATOM     19  C   UNL A   1      34.970  23.823  23.860  1.00  0.00     0.127 A 
ATOM     20  C   UNL A   1      38.496  22.383  25.875  1.00  0.00     0.044 C 
ATOM     21  C   UNL A   1      37.250  22.868  25.195  1.00  0.00    -0.051 A 
ATOM     22  C   UNL A   1      36.760  22.203  24.066  1.00  0.00     0.007 A 
ATOM     23  C   UNL A   1      36.555  23.980  25.684  1.00  0.00     0.007 A 
ATOM     24  C   UNL A   1      35.628  22.679  23.402  1.00  0.00     0.047 A 
ATOM     25  C   UNL A   1      35.410  24.445  25.030  1.00  0.00     0.047 A 
ENDBRANCH  18  19
ENDBRANCH   9  18
ENDBRANCH   5   8
ENDBRANCH   3   4
ENDBRANCH   2   3
ENDBRANCH   1   2
BRANCH   1  26
ATOM     26  C   UNL A   1      34.064  30.597  27.182  1.00  0.00     0.116 C 
BRANCH  26  27
ATOM     27  N   UNL A   1      35.093  31.574  27.476  1.00  0.00    -0.352 N 
ATOM     28  C   UNL A   1      36.297  31.413  28.139  1.00  0.00     0.251 C 
ATOM     29  H   UNL A   1      34.908  32.487  27.157  1.00  0.00     0.163 HD
ATOM     30  O   UNL A   1      36.849  32.423  28.577  1.00  0.00    -0.269 OA
BRANCH  28  31
ATOM     31  C   UNL A   1      36.993  30.095  28.164  1.00  0.00     0.039 A 
ATOM     32  C   UNL A   1      36.862  29.325  29.331  1.00  0.00     0.014 A 
ATOM     33  C   UNL A   1      37.972  29.760  27.237  1.00  0.00     0.014 A 
ATOM     34  C   UNL A   1      37.888  28.463  29.713  1.00  0.00     0.010 A 
ATOM     35  C   UNL A   1      39.037  28.996  27.653  1.00  0.00     0.010 A 
ATOM     36  C   UNL A   1      39.031  28.430  28.931  1.00  0.00    -0.014 A 
BRANCH  36  37
ATOM     37  C   UNL A   1      40.306  27.858  29.319  1.00  0.00     0.031 A 
ATOM     38  C   UNL A   1      40.643  26.494  28.891  1.00  0.00     0.074 A 
ATOM     39  C   UNL A   1      41.267  28.724  29.713  1.00  0.00     0.049 A 
ATOM     40  N   UNL A   1      41.745  25.898  29.184  1.00  0.00    -0.248 NA
ATOM     41  C   UNL A   1      39.729  25.676  28.104  1.00  0.00     0.031 C 
ATOM     42  C   UNL A   1      42.710  28.567  29.583  1.00  0.00     0.029 A 
ATOM     43  N   UNL A   1      41.123  29.877  30.492  1.00  0.00    -0.354 N 
ATOM     44  C   UNL A   1      41.836  24.794  28.367  1.00  0.00     0.074 A 
ATOM     45  C   UNL A   1      40.505  24.621  27.841  1.00  0.00     0.031 C 
ATOM     46  C   UNL A   1      43.313  29.388  30.453  1.00  0.00     0.029 A 
ATOM     47  C   UNL A   1      42.274  29.939  31.302  1.00  0.00     0.049 A 
ATOM     48  H   UNL A   1      40.372  30.514  30.476  1.00  0.00     0.167 HD
ATOM     49  C   UNL A   1      43.073  24.275  28.126  1.00  0.00     0.034 A 
ATOM     50  C   UNL A   1      42.229  29.818  32.664  1.00  0.00     0.034 A 
ATOM     51  C   UNL A   1      44.070  24.865  29.043  1.00  0.00     0.049 A 
ATOM     52  C   UNL A   1      42.962  28.583  33.183  1.00  0.00     0.074 A 
ATOM     53  C   UNL A   1      45.085  25.802  28.934  1.00  0.00     0.029 A 
ATOM     54  N   UNL A   1      43.890  24.670  30.404  1.00  0.00    -0.354 N 
ATOM     55  N   UNL A   1      43.690  27.777  32.457  1.00  0.00    -0.248 NA
ATOM     56  C   UNL A   1      42.841  28.117  34.564  1.00  0.00     0.031 C 
ATOM     57  C   UNL A   1      45.448  26.218  30.256  1.00  0.00     0.029 A 
ATOM     58  C   UNL A   1      44.685  25.507  31.167  1.00  0.00     0.049 A 
ATOM     59  H   UNL A   1      43.267  24.010  30.784  1.00  0.00     0.167 HD
ATOM     60  C   UNL A   1      43.957  26.633  33.170  1.00  0.00     0.074 A 
ATOM     61  C   UNL A   1      43.448  26.920  34.503  1.00  0.00     0.031 C 
ATOM     62  C   UNL A   1      44.500  25.503  32.617  1.00  0.00     0.034 A 
BRANCH  49  63
ATOM     63  C   UNL A   1      43.461  23.381  26.952  1.00  0.00     0.023 A 
ATOM     64  C   UNL A   1      44.060  24.015  25.838  1.00  0.00     0.012 A 
ATOM     65  C   UNL A   1      43.212  21.994  26.799  1.00  0.00     0.148 A 
ATOM     66  C   UNL A   1      44.343  23.341  24.643  1.00  0.00     0.002 A 
ATOM     67  C   UNL A   1      43.498  21.315  25.609  1.00  0.00     0.091 A 
ATOM     68  F   UNL A   1      42.677  21.289  27.789  1.00  0.00    -0.205 F 
ATOM     69  C   UNL A   1      44.054  21.990  24.523  1.00  0.00     0.022 A 
BRANCH  67  70
ATOM     70  S   UNL A   1      43.139  19.559  25.378  1.00  0.00     0.127 S 
ATOM     71  O   UNL A   1      41.676  19.547  25.374  1.00  0.00    -0.237 OA
ATOM     72  O   UNL A   1      43.752  19.285  24.079  1.00  0.00    -0.237 OA
ATOM     73  O   UNL A   1      43.746  18.857  26.501  1.00  0.00    -0.744 OA
ENDBRANCH  67  70
ENDBRANCH  49  63
BRANCH  50  74
ATOM     74  C   UNL A   1      40.979  30.390  33.250  1.00  0.00     0.023 A 
ATOM     75  C   UNL A   1      39.778  29.682  33.006  1.00  0.00     0.012 A 
ATOM     76  C   UNL A   1      41.032  31.289  34.331  1.00  0.00     0.148 A 
ATOM     77  C   UNL A   1      38.713  29.752  33.906  1.00  0.00     0.002 A 
ATOM     78  C   UNL A   1      39.967  31.348  35.226  1.00  0.00     0.091 A 
ATOM     79  F   UNL A   1      42.156  31.989  34.527  1.00  0.00    -0.205 F 
ATOM     80  C   UNL A   1      38.826  30.551  35.038  1.00  0.00     0.022 A 
BRANCH  78  81
ATOM     81  S   UNL A   1      40.064  32.316  36.737  1.00  0.00     0.127 S 
ATOM     82  O   UNL A   1      41.258  31.759  37.365  1.00  0.00    -0.237 OA
ATOM     83  O   UNL A   1      40.213  33.677  36.226  1.00  0.00    -0.237 OA
ATOM     84  O   UNL A   1      38.803  32.071  37.422  1.00  0.00    -0.744 OA
ENDBRANCH  78  81
ENDBRANCH  50  74
BRANCH  62  85
ATOM     85  C   UNL A   1      44.876  24.276  33.438  1.00  0.00     0.023 A 
ATOM     86  C   UNL A   1      43.882  23.357  33.834  1.00  0.00     0.012 A 
ATOM     87  C   UNL A   1      46.178  24.066  33.963  1.00  0.00     0.148 A 
ATOM     88  C   UNL A   1      44.175  22.248  34.638  1.00  0.00     0.002 A 
ATOM     89  C   UNL A   1      46.442  23.022  34.846  1.00  0.00     0.091 A 
ATOM     90  F   UNL A   1      47.189  24.852  33.578  1.00  0.00    -0.205 F 
ATOM     91  C   UNL A   1      45.452  22.090  35.157  1.00  0.00     0.022 A 
BRANCH  89  92
ATOM     92  S   UNL A   1      48.008  22.872  35.722  1.00  0.00     0.127 S 
ATOM     93  O   UNL A   1      48.101  24.175  36.385  1.00  0.00    -0.237 OA
ATOM     94  O   UNL A   1      47.745  21.750  36.620  1.00  0.00    -0.237 OA
ATOM     95  O   UNL A   1      49.023  22.644  34.703  1.00  0.00    -0.744 OA
ENDBRANCH  89  92
ENDBRANCH  62  85
ENDBRANCH  36  37
ENDBRANCH  28  31
ENDBRANCH  26  27
ENDBRANCH   1  26
TORSDOF 16
ENDMDL
