MODEL 1
REMARK VINA RESULT:     -11.9      0.000      0.000
REMARK SMILES CC(C)(C)OC(=O)NC[C@H]1CC[C@@H](C(=O)NCCCCNC(=O)c2ccc(-c3c4nc(c(-c5cccc(S(=O)(=O)[O-])c5F)c5ccc([nH]5)c(-c5cccc(S(=O)(=O)[O-])c5F)c5nc(c(-c6cccc(S(=O)(=O)[O-])c6F)c6ccc3[nH]6)C=C5)C=C4)cc2)CC1
REMARK SMILES IDX 18 1 17 2 16 3 14 4 15 5 13 7 10 8 11 9 88 10 12 11 87 12
REMARK SMILES IDX 9 13 8 14 6 15 7 16 5 18 2 19 1 20 3 21 4 22 19 23 20 24
REMARK SMILES IDX 21 25 22 26 23 28 24 29 25 30 86 31 26 32 85 33 27 34 28 35
REMARK SMILES IDX 29 36 79 37 30 38 84 39 78 40 80 41 31 42 83 43 77 44 76 45
REMARK SMILES IDX 32 47 64 48 44 49 63 50 45 51 48 52 62 53 81 54 46 55 47 56
REMARK SMILES IDX 61 58 82 59 49 60 33 61 34 62 42 63 35 64 37 65 43 66 36 67
REMARK SMILES IDX 38 68 39 69 40 70 41 71 65 72 66 73 74 74 67 75 69 76 75 77
REMARK SMILES IDX 68 78 70 79 71 80 72 81 73 82 50 83 51 84 59 85 52 86 54 87
REMARK SMILES IDX 60 88 53 89 55 90 56 91 57 92 58 93
REMARK H PARENT 16 6 8 17 21 27 80 46 48 57
REMARK Flexibility Score: inf
ROOT
ATOM      1  C   UNL A   1      35.201  22.124  26.358  1.00  0.00     0.023 C 
ENDROOT
BRANCH   1   2
ATOM      2  C   UNL A   1      35.362  23.613  26.072  1.00  0.00     0.116 C 
BRANCH   2   3
ATOM      3  N   UNL A   1      34.231  24.418  26.440  1.00  0.00    -0.356 N 
ATOM      4  C   UNL A   1      33.024  24.577  25.839  1.00  0.00     0.223 C 
ATOM      5  O   UNL A   1      32.163  25.177  26.492  1.00  0.00    -0.275 OA
ATOM      6  H   UNL A   1      34.349  24.942  27.266  1.00  0.00     0.163 HD
BRANCH   4   7
ATOM      7  C   UNL A   1      32.673  24.073  24.425  1.00  0.00     0.078 C 
ATOM      8  C   UNL A   1      31.441  25.864  22.311  1.00  0.00     0.008 C 
ATOM      9  C   UNL A   1      32.965  25.837  22.552  1.00  0.00     0.006 C 
ATOM     10  C   UNL A   1      30.569  25.137  23.355  1.00  0.00     0.006 C 
ATOM     11  C   UNL A   1      33.508  24.609  23.265  1.00  0.00     0.014 C 
ATOM     12  C   UNL A   1      31.192  23.957  24.086  1.00  0.00     0.014 C 
BRANCH   8  13
ATOM     13  C   UNL A   1      30.922  27.318  22.184  1.00  0.00     0.123 C 
BRANCH  13  14
ATOM     14  N   UNL A   1      31.040  28.083  23.402  1.00  0.00    -0.321 N 
ATOM     15  C   UNL A   1      30.529  29.325  23.616  1.00  0.00     0.407 C 
ATOM     16  O   UNL A   1      30.659  29.881  24.699  1.00  0.00    -0.225 OA
ATOM     17  H   UNL A   1      31.535  27.669  24.145  1.00  0.00     0.167 HD
BRANCH  15  18
ATOM     18  O   UNL A   1      29.929  29.833  22.518  1.00  0.00    -0.444 OA
BRANCH  18  19
ATOM     19  C   UNL A   1      28.516  30.135  22.520  1.00  0.00     0.106 C 
ATOM     20  C   UNL A   1      28.370  31.307  23.501  1.00  0.00     0.056 C 
ATOM     21  C   UNL A   1      27.724  28.940  23.061  1.00  0.00     0.056 C 
ATOM     22  C   UNL A   1      28.027  30.586  21.141  1.00  0.00     0.056 C 
ENDBRANCH  18  19
ENDBRANCH  15  18
ENDBRANCH  13  14
ENDBRANCH   8  13
ENDBRANCH   4   7
ENDBRANCH   2   3
ENDBRANCH   1   2
BRANCH   1  23
ATOM     23  C   UNL A   1      35.910  21.210  25.372  1.00  0.00     0.023 C 
BRANCH  23  24
ATOM     24  C   UNL A   1      37.341  21.603  25.025  1.00  0.00     0.116 C 
BRANCH  24  25
ATOM     25  N   UNL A   1      38.346  20.578  25.291  1.00  0.00    -0.352 N 
ATOM     26  C   UNL A   1      39.504  20.715  26.031  1.00  0.00     0.251 C 
ATOM     27  H   UNL A   1      38.179  19.690  24.901  1.00  0.00     0.163 HD
ATOM     28  O   UNL A   1      40.302  19.790  26.134  1.00  0.00    -0.269 OA
BRANCH  26  29
ATOM     29  C   UNL A   1      39.784  22.029  26.648  1.00  0.00     0.039 A 
ATOM     30  C   UNL A   1      40.762  22.117  27.639  1.00  0.00     0.014 A 
ATOM     31  C   UNL A   1      39.197  23.181  26.120  1.00  0.00     0.014 A 
ATOM     32  C   UNL A   1      41.226  23.375  28.029  1.00  0.00     0.010 A 
ATOM     33  C   UNL A   1      39.742  24.421  26.427  1.00  0.00     0.010 A 
ATOM     34  C   UNL A   1      40.763  24.534  27.384  1.00  0.00    -0.014 A 
BRANCH  34  35
ATOM     35  C   UNL A   1      41.335  25.874  27.688  1.00  0.00     0.031 A 
ATOM     36  C   UNL A   1      42.739  26.205  27.258  1.00  0.00     0.074 A 
ATOM     37  C   UNL A   1      40.625  26.762  28.417  1.00  0.00     0.049 A 
ATOM     38  N   UNL A   1      43.433  27.291  27.474  1.00  0.00    -0.248 NA
ATOM     39  C   UNL A   1      43.473  25.166  26.514  1.00  0.00     0.031 C 
ATOM     40  C   UNL A   1      39.285  26.535  28.964  1.00  0.00     0.029 A 
ATOM     41  N   UNL A   1      40.941  28.030  28.839  1.00  0.00    -0.354 N 
ATOM     42  C   UNL A   1      44.686  27.056  26.920  1.00  0.00     0.074 A 
ATOM     43  C   UNL A   1      44.678  25.703  26.411  1.00  0.00     0.031 C 
ATOM     44  C   UNL A   1      38.887  27.633  29.628  1.00  0.00     0.029 A 
ATOM     45  C   UNL A   1      39.954  28.627  29.591  1.00  0.00     0.049 A 
ATOM     46  H   UNL A   1      41.795  28.471  28.624  1.00  0.00     0.167 HD
ATOM     47  C   UNL A   1      45.739  27.899  26.808  1.00  0.00     0.034 A 
ATOM     48  C   UNL A   1      39.916  29.836  30.186  1.00  0.00     0.034 A 
ATOM     49  C   UNL A   1      45.734  29.255  27.283  1.00  0.00     0.049 A 
ATOM     50  C   UNL A   1      41.098  30.759  30.037  1.00  0.00     0.074 A 
ATOM     51  C   UNL A   1      46.724  30.213  27.158  1.00  0.00     0.029 A 
ATOM     52  N   UNL A   1      44.692  29.844  27.980  1.00  0.00    -0.354 N 
ATOM     53  N   UNL A   1      42.218  30.568  29.384  1.00  0.00    -0.248 NA
ATOM     54  C   UNL A   1      40.996  32.078  30.679  1.00  0.00     0.031 C 
ATOM     55  C   UNL A   1      46.293  31.372  27.810  1.00  0.00     0.029 A 
ATOM     56  C   UNL A   1      45.018  31.150  28.302  1.00  0.00     0.049 A 
ATOM     57  H   UNL A   1      43.845  29.399  28.214  1.00  0.00     0.167 HD
ATOM     58  C   UNL A   1      42.933  31.755  29.496  1.00  0.00     0.074 A 
ATOM     59  C   UNL A   1      42.109  32.666  30.265  1.00  0.00     0.031 C 
ATOM     60  C   UNL A   1      44.163  32.062  29.019  1.00  0.00     0.034 A 
BRANCH  47  61
ATOM     61  C   UNL A   1      46.965  27.393  26.093  1.00  0.00     0.023 A 
ATOM     62  C   UNL A   1      47.868  26.548  26.772  1.00  0.00     0.012 A 
ATOM     63  C   UNL A   1      47.200  27.711  24.741  1.00  0.00     0.148 A 
ATOM     64  C   UNL A   1      49.005  26.060  26.131  1.00  0.00     0.002 A 
ATOM     65  C   UNL A   1      48.309  27.179  24.094  1.00  0.00     0.091 A 
ATOM     66  F   UNL A   1      46.342  28.531  24.118  1.00  0.00    -0.205 F 
ATOM     67  C   UNL A   1      49.220  26.366  24.790  1.00  0.00     0.022 A 
BRANCH  65  68
ATOM     68  S   UNL A   1      48.633  27.443  22.348  1.00  0.00     0.127 S 
ATOM     69  O   UNL A   1      48.674  26.070  21.845  1.00  0.00    -0.237 OA
ATOM     70  O   UNL A   1      47.460  28.211  21.933  1.00  0.00    -0.237 OA
ATOM     71  O   UNL A   1      49.894  28.167  22.277  1.00  0.00    -0.744 OA
ENDBRANCH  65  68
ENDBRANCH  47  61
BRANCH  48  72
ATOM     72  C   UNL A   1      38.702  30.276  30.932  1.00  0.00     0.023 A 
ATOM     73  C   UNL A   1      38.551  29.918  32.287  1.00  0.00     0.012 A 
ATOM     74  C   UNL A   1      37.692  31.035  30.311  1.00  0.00     0.148 A 
ATOM     75  C   UNL A   1      37.399  30.266  32.994  1.00  0.00     0.002 A 
ATOM     76  C   UNL A   1      36.574  31.429  31.037  1.00  0.00     0.091 A 
ATOM     77  F   UNL A   1      37.847  31.360  29.020  1.00  0.00    -0.205 F 
ATOM     78  C   UNL A   1      36.414  31.028  32.372  1.00  0.00     0.022 A 
BRANCH  76  79
ATOM     79  S   UNL A   1      35.316  32.516  30.356  1.00  0.00     0.127 S 
ATOM     80  O   UNL A   1      34.883  31.771  29.177  1.00  0.00    -0.237 OA
ATOM     81  O   UNL A   1      34.341  32.567  31.446  1.00  0.00    -0.237 OA
ATOM     82  O   UNL A   1      35.989  33.781  30.093  1.00  0.00    -0.744 OA
ENDBRANCH  76  79
ENDBRANCH  48  72
BRANCH  60  83
ATOM     83  C   UNL A   1      44.680  33.457  29.257  1.00  0.00     0.023 A 
ATOM     84  C   UNL A   1      45.335  33.774  30.463  1.00  0.00     0.012 A 
ATOM     85  C   UNL A   1      44.579  34.435  28.247  1.00  0.00     0.148 A 
ATOM     86  C   UNL A   1      45.846  35.054  30.676  1.00  0.00     0.002 A 
ATOM     87  C   UNL A   1      45.139  35.690  28.444  1.00  0.00     0.091 A 
ATOM     88  F   UNL A   1      43.939  34.117  27.112  1.00  0.00    -0.205 F 
ATOM     89  C   UNL A   1      45.760  36.007  29.663  1.00  0.00     0.022 A 
BRANCH  87  90
ATOM     90  S   UNL A   1      45.168  36.947  27.160  1.00  0.00     0.127 S 
ATOM     91  O   UNL A   1      43.743  37.113  26.876  1.00  0.00    -0.237 OA
ATOM     92  O   UNL A   1      45.789  38.077  27.850  1.00  0.00    -0.237 OA
ATOM     93  O   UNL A   1      45.960  36.392  26.070  1.00  0.00    -0.744 OA
ENDBRANCH  87  90
ENDBRANCH  60  83
ENDBRANCH  34  35
ENDBRANCH  26  29
ENDBRANCH  24  25
ENDBRANCH  23  24
ENDBRANCH   1  23
TORSDOF 18
ENDMDL
MODEL 2
REMARK VINA RESULT:     -11.9      1.607      2.050
REMARK SMILES CC(C)(C)OC(=O)NC[C@H]1CC[C@@H](C(=O)NCCCCNC(=O)c2ccc(-c3c4nc(c(-c5cccc(S(=O)(=O)[O-])c5F)c5ccc([nH]5)c(-c5cccc(S(=O)(=O)[O-])c5F)c5nc(c(-c6cccc(S(=O)(=O)[O-])c6F)c6ccc3[nH]6)C=C5)C=C4)cc2)CC1
REMARK SMILES IDX 18 1 17 2 16 3 14 4 15 5 13 7 10 8 11 9 88 10 12 11 87 12
REMARK SMILES IDX 9 13 8 14 6 15 7 16 5 18 2 19 1 20 3 21 4 22 19 23 20 24
REMARK SMILES IDX 21 25 22 26 23 28 24 29 25 30 86 31 26 32 85 33 27 34 28 35
REMARK SMILES IDX 29 36 79 37 30 38 84 39 78 40 80 41 31 42 83 43 77 44 76 45
REMARK SMILES IDX 32 47 64 48 44 49 63 50 45 51 48 52 62 53 81 54 46 55 47 56
REMARK SMILES IDX 61 58 82 59 49 60 33 61 34 62 42 63 35 64 37 65 43 66 36 67
REMARK SMILES IDX 38 68 39 69 40 70 41 71 65 72 66 73 74 74 67 75 69 76 75 77
REMARK SMILES IDX 68 78 70 79 71 80 72 81 73 82 50 83 51 84 59 85 52 86 54 87
REMARK SMILES IDX 60 88 53 89 55 90 56 91 57 92 58 93
REMARK H PARENT 16 6 8 17 21 27 80 46 48 57
REMARK Flexibility Score: inf
ROOT
ATOM      1  C   UNL A   1      35.372  22.642  26.533  1.00  0.00     0.023 C 
ENDROOT
BRANCH   1   2
ATOM      2  C   UNL A   1      33.944  23.100  26.262  1.00  0.00     0.116 C 
BRANCH   2   3
ATOM      3  N   UNL A   1      33.639  23.319  24.874  1.00  0.00    -0.356 N 
ATOM      4  C   UNL A   1      33.413  24.468  24.189  1.00  0.00     0.223 C 
ATOM      5  O   UNL A   1      33.378  24.371  22.956  1.00  0.00    -0.275 OA
ATOM      6  H   UNL A   1      33.587  22.499  24.330  1.00  0.00     0.163 HD
BRANCH   4   7
ATOM      7  C   UNL A   1      33.195  25.850  24.836  1.00  0.00     0.078 C 
ATOM      8  C   UNL A   1      31.127  27.821  23.821  1.00  0.00     0.008 C 
ATOM      9  C   UNL A   1      30.744  26.683  24.789  1.00  0.00     0.006 C 
ATOM     10  C   UNL A   1      32.540  27.751  23.206  1.00  0.00     0.006 C 
ATOM     11  C   UNL A   1      31.885  26.071  25.586  1.00  0.00     0.014 C 
ATOM     12  C   UNL A   1      33.624  27.064  24.021  1.00  0.00     0.014 C 
BRANCH   8  13
ATOM     13  C   UNL A   1      30.106  27.935  22.662  1.00  0.00     0.123 C 
BRANCH  13  14
ATOM     14  N   UNL A   1      28.731  27.920  23.098  1.00  0.00    -0.321 N 
ATOM     15  C   UNL A   1      27.825  28.918  22.918  1.00  0.00     0.407 C 
ATOM     16  O   UNL A   1      26.669  28.796  23.302  1.00  0.00    -0.225 OA
ATOM     17  H   UNL A   1      28.419  27.113  23.570  1.00  0.00     0.167 HD
BRANCH  15  18
ATOM     18  O   UNL A   1      28.365  30.003  22.324  1.00  0.00    -0.444 OA
BRANCH  18  19
ATOM     19  C   UNL A   1      28.447  31.265  23.023  1.00  0.00     0.106 C 
ATOM     20  C   UNL A   1      29.647  31.108  23.969  1.00  0.00     0.056 C 
ATOM     21  C   UNL A   1      27.184  31.482  23.864  1.00  0.00     0.056 C 
ATOM     22  C   UNL A   1      28.724  32.430  22.069  1.00  0.00     0.056 C 
ENDBRANCH  18  19
ENDBRANCH  15  18
ENDBRANCH  13  14
ENDBRANCH   8  13
ENDBRANCH   4   7
ENDBRANCH   2   3
ENDBRANCH   1   2
BRANCH   1  23
ATOM     23  C   UNL A   1      35.873  21.548  25.604  1.00  0.00     0.023 C 
BRANCH  23  24
ATOM     24  C   UNL A   1      37.260  21.772  25.014  1.00  0.00     0.116 C 
BRANCH  24  25
ATOM     25  N   UNL A   1      38.231  20.720  25.297  1.00  0.00    -0.352 N 
ATOM     26  C   UNL A   1      39.381  20.825  26.056  1.00  0.00     0.251 C 
ATOM     27  H   UNL A   1      38.045  19.837  24.905  1.00  0.00     0.163 HD
ATOM     28  O   UNL A   1      40.150  19.878  26.172  1.00  0.00    -0.269 OA
BRANCH  26  29
ATOM     29  C   UNL A   1      39.688  22.131  26.675  1.00  0.00     0.039 A 
ATOM     30  C   UNL A   1      40.677  22.198  27.657  1.00  0.00     0.014 A 
ATOM     31  C   UNL A   1      39.114  23.295  26.159  1.00  0.00     0.014 A 
ATOM     32  C   UNL A   1      41.165  23.447  28.048  1.00  0.00     0.010 A 
ATOM     33  C   UNL A   1      39.682  24.524  26.466  1.00  0.00     0.010 A 
ATOM     34  C   UNL A   1      40.714  24.617  27.413  1.00  0.00    -0.014 A 
BRANCH  34  35
ATOM     35  C   UNL A   1      41.310  25.946  27.718  1.00  0.00     0.031 A 
ATOM     36  C   UNL A   1      42.725  26.246  27.300  1.00  0.00     0.074 A 
ATOM     37  C   UNL A   1      40.612  26.851  28.436  1.00  0.00     0.049 A 
ATOM     38  N   UNL A   1      43.439  27.319  27.518  1.00  0.00    -0.248 NA
ATOM     39  C   UNL A   1      43.445  25.189  26.567  1.00  0.00     0.031 C 
ATOM     40  C   UNL A   1      39.262  26.654  28.971  1.00  0.00     0.029 A 
ATOM     41  N   UNL A   1      40.950  28.114  28.857  1.00  0.00    -0.354 N 
ATOM     42  C   UNL A   1      44.692  27.056  26.978  1.00  0.00     0.074 A 
ATOM     43  C   UNL A   1      44.662  25.701  26.474  1.00  0.00     0.031 C 
ATOM     44  C   UNL A   1      38.880  27.762  29.627  1.00  0.00     0.029 A 
ATOM     45  C   UNL A   1      39.968  28.734  29.597  1.00  0.00     0.049 A 
ATOM     46  H   UNL A   1      41.814  28.536  28.649  1.00  0.00     0.167 HD
ATOM     47  C   UNL A   1      45.763  27.877  26.872  1.00  0.00     0.034 A 
ATOM     48  C   UNL A   1      39.949  29.946  30.187  1.00  0.00     0.034 A 
ATOM     49  C   UNL A   1      45.782  29.235  27.342  1.00  0.00     0.049 A 
ATOM     50  C   UNL A   1      41.151  30.844  30.045  1.00  0.00     0.074 A 
ATOM     51  C   UNL A   1      46.792  30.172  27.223  1.00  0.00     0.029 A 
ATOM     52  N   UNL A   1      44.745  29.848  28.027  1.00  0.00    -0.354 N 
ATOM     53  N   UNL A   1      42.274  30.628  29.404  1.00  0.00    -0.248 NA
ATOM     54  C   UNL A   1      41.070  32.167  30.681  1.00  0.00     0.031 C 
ATOM     55  C   UNL A   1      46.379  31.342  27.866  1.00  0.00     0.029 A 
ATOM     56  C   UNL A   1      45.094  31.148  28.348  1.00  0.00     0.049 A 
ATOM     57  H   UNL A   1      43.887  29.421  28.255  1.00  0.00     0.167 HD
ATOM     58  C   UNL A   1      43.011  31.801  29.519  1.00  0.00     0.074 A 
ATOM     59  C   UNL A   1      42.199  32.731  30.276  1.00  0.00     0.031 C 
ATOM     60  C   UNL A   1      44.252  32.080  29.052  1.00  0.00     0.034 A 
BRANCH  47  61
ATOM     61  C   UNL A   1      46.986  27.343  26.171  1.00  0.00     0.023 A 
ATOM     62  C   UNL A   1      47.146  27.561  24.787  1.00  0.00     0.012 A 
ATOM     63  C   UNL A   1      47.996  26.671  26.886  1.00  0.00     0.148 A 
ATOM     64  C   UNL A   1      48.271  27.084  24.117  1.00  0.00     0.002 A 
ATOM     65  C   UNL A   1      49.139  26.243  26.220  1.00  0.00     0.091 A 
ATOM     66  F   UNL A   1      47.817  26.455  28.197  1.00  0.00    -0.205 F 
ATOM     67  C   UNL A   1      49.272  26.435  24.835  1.00  0.00     0.022 A 
BRANCH  65  68
ATOM     68  S   UNL A   1      50.523  25.472  27.065  1.00  0.00     0.127 S 
ATOM     69  O   UNL A   1      50.907  26.515  28.014  1.00  0.00    -0.237 OA
ATOM     70  O   UNL A   1      49.894  24.297  27.670  1.00  0.00    -0.237 OA
ATOM     71  O   UNL A   1      51.508  25.175  26.036  1.00  0.00    -0.744 OA
ENDBRANCH  65  68
ENDBRANCH  47  61
BRANCH  48  72
ATOM     72  C   UNL A   1      38.737  30.414  30.920  1.00  0.00     0.023 A 
ATOM     73  C   UNL A   1      38.623  30.169  32.303  1.00  0.00     0.012 A 
ATOM     74  C   UNL A   1      37.693  31.089  30.258  1.00  0.00     0.148 A 
ATOM     75  C   UNL A   1      37.476  30.543  33.003  1.00  0.00     0.002 A 
ATOM     76  C   UNL A   1      36.578  31.511  30.973  1.00  0.00     0.091 A 
ATOM     77  F   UNL A   1      37.812  31.306  28.941  1.00  0.00    -0.205 F 
ATOM     78  C   UNL A   1      36.456  31.221  32.341  1.00  0.00     0.022 A 
BRANCH  76  79
ATOM     79  S   UNL A   1      35.275  32.500  30.230  1.00  0.00     0.127 S 
ATOM     80  O   UNL A   1      34.323  32.617  31.331  1.00  0.00    -0.237 OA
ATOM     81  O   UNL A   1      35.987  33.734  29.896  1.00  0.00    -0.237 OA
ATOM     82  O   UNL A   1      34.816  31.741  29.075  1.00  0.00    -0.744 OA
ENDBRANCH  76  79
ENDBRANCH  48  72
BRANCH  60  83
ATOM     83  C   UNL A   1      44.795  33.465  29.290  1.00  0.00     0.023 A 
ATOM     84  C   UNL A   1      45.470  33.766  30.489  1.00  0.00     0.012 A 
ATOM     85  C   UNL A   1      44.698  34.450  28.285  1.00  0.00     0.148 A 
ATOM     86  C   UNL A   1      46.005  35.036  30.702  1.00  0.00     0.002 A 
ATOM     87  C   UNL A   1      45.282  35.694  28.481  1.00  0.00     0.091 A 
ATOM     88  F   UNL A   1      44.039  34.148  27.157  1.00  0.00    -0.205 F 
ATOM     89  C   UNL A   1      45.923  35.994  29.694  1.00  0.00     0.022 A 
BRANCH  87  90
ATOM     90  S   UNL A   1      45.316  36.956  27.203  1.00  0.00     0.127 S 
ATOM     91  O   UNL A   1      46.033  36.271  26.129  1.00  0.00    -0.237 OA
ATOM     92  O   UNL A   1      43.892  37.172  26.945  1.00  0.00    -0.237 OA
ATOM     93  O   UNL A   1      46.007  38.099  27.783  1.00  0.00    -0.744 OA
ENDBRANCH  87  90
ENDBRANCH  60  83
ENDBRANCH  34  35
ENDBRANCH  26  29
ENDBRANCH  24  25
ENDBRANCH  23  24
ENDBRANCH   1  23
TORSDOF 18
ENDMDL
MODEL 3
REMARK VINA RESULT:     -11.8      5.277     10.713
REMARK SMILES CC(C)(C)OC(=O)NC[C@H]1CC[C@@H](C(=O)NCCCCNC(=O)c2ccc(-c3c4nc(c(-c5cccc(S(=O)(=O)[O-])c5F)c5ccc([nH]5)c(-c5cccc(S(=O)(=O)[O-])c5F)c5nc(c(-c6cccc(S(=O)(=O)[O-])c6F)c6ccc3[nH]6)C=C5)C=C4)cc2)CC1
REMARK SMILES IDX 18 1 17 2 16 3 14 4 15 5 13 7 10 8 11 9 88 10 12 11 87 12
REMARK SMILES IDX 9 13 8 14 6 15 7 16 5 18 2 19 1 20 3 21 4 22 19 23 20 24
REMARK SMILES IDX 21 25 22 26 23 28 24 29 25 30 86 31 26 32 85 33 27 34 28 35
REMARK SMILES IDX 29 36 79 37 30 38 84 39 78 40 80 41 31 42 83 43 77 44 76 45
REMARK SMILES IDX 32 47 64 48 44 49 63 50 45 51 48 52 62 53 81 54 46 55 47 56
REMARK SMILES IDX 61 58 82 59 49 60 33 61 34 62 42 63 35 64 37 65 43 66 36 67
REMARK SMILES IDX 38 68 39 69 40 70 41 71 65 72 66 73 74 74 67 75 69 76 75 77
REMARK SMILES IDX 68 78 70 79 71 80 72 81 73 82 50 83 51 84 59 85 52 86 54 87
REMARK SMILES IDX 60 88 53 89 55 90 56 91 57 92 58 93
REMARK H PARENT 16 6 8 17 21 27 80 46 48 57
REMARK Flexibility Score: inf
ROOT
ATOM      1  C   UNL A   1      32.903  28.556  24.047  1.00  0.00     0.023 C 
ENDROOT
BRANCH   1   2
ATOM      2  C   UNL A   1      32.059  27.386  23.554  1.00  0.00     0.116 C 
BRANCH   2   3
ATOM      3  N   UNL A   1      32.808  26.331  22.929  1.00  0.00    -0.356 N 
ATOM      4  C   UNL A   1      33.524  25.313  23.471  1.00  0.00     0.223 C 
ATOM      5  O   UNL A   1      33.896  24.430  22.689  1.00  0.00    -0.275 OA
ATOM      6  H   UNL A   1      32.800  26.348  21.944  1.00  0.00     0.163 HD
BRANCH   4   7
ATOM      7  C   UNL A   1      33.898  25.197  24.961  1.00  0.00     0.078 C 
ATOM      8  C   UNL A   1      34.277  22.527  26.348  1.00  0.00     0.008 C 
ATOM      9  C   UNL A   1      35.415  23.178  25.534  1.00  0.00     0.006 C 
ATOM     10  C   UNL A   1      32.882  23.169  26.210  1.00  0.00     0.006 C 
ATOM     11  C   UNL A   1      35.293  24.674  25.293  1.00  0.00     0.014 C 
ATOM     12  C   UNL A   1      32.824  24.657  25.899  1.00  0.00     0.014 C 
BRANCH   8  13
ATOM     13  C   UNL A   1      34.145  21.020  26.015  1.00  0.00     0.123 C 
BRANCH  13  14
ATOM     14  N   UNL A   1      33.245  20.745  24.922  1.00  0.00    -0.321 N 
ATOM     15  C   UNL A   1      33.228  19.614  24.168  1.00  0.00     0.407 C 
ATOM     16  O   UNL A   1      32.402  19.463  23.276  1.00  0.00    -0.225 OA
ATOM     17  H   UNL A   1      32.582  21.439  24.701  1.00  0.00     0.167 HD
BRANCH  15  18
ATOM     18  O   UNL A   1      34.215  18.755  24.502  1.00  0.00    -0.444 OA
BRANCH  18  19
ATOM     19  C   UNL A   1      33.953  17.340  24.625  1.00  0.00     0.106 C 
ATOM     20  C   UNL A   1      33.686  16.867  23.189  1.00  0.00     0.056 C 
ATOM     21  C   UNL A   1      32.691  17.110  25.462  1.00  0.00     0.056 C 
ATOM     22  C   UNL A   1      35.166  16.582  25.173  1.00  0.00     0.056 C 
ENDBRANCH  18  19
ENDBRANCH  15  18
ENDBRANCH  13  14
ENDBRANCH   8  13
ENDBRANCH   4   7
ENDBRANCH   2   3
ENDBRANCH   1   2
BRANCH   1  23
ATOM     23  C   UNL A   1      32.148  29.566  24.897  1.00  0.00     0.023 C 
BRANCH  23  24
ATOM     24  C   UNL A   1      32.792  29.908  26.235  1.00  0.00     0.116 C 
BRANCH  24  25
ATOM     25  N   UNL A   1      32.602  31.286  26.679  1.00  0.00    -0.352 N 
ATOM     26  C   UNL A   1      33.495  32.068  27.386  1.00  0.00     0.251 C 
ATOM     27  H   UNL A   1      31.742  31.705  26.448  1.00  0.00     0.163 HD
ATOM     28  O   UNL A   1      33.193  33.197  27.753  1.00  0.00    -0.269 OA
BRANCH  26  29
ATOM     29  C   UNL A   1      34.804  31.480  27.740  1.00  0.00     0.039 A 
ATOM     30  C   UNL A   1      35.908  32.323  27.880  1.00  0.00     0.014 A 
ATOM     31  C   UNL A   1      34.886  30.132  28.094  1.00  0.00     0.014 A 
ATOM     32  C   UNL A   1      37.071  31.829  28.475  1.00  0.00     0.010 A 
ATOM     33  C   UNL A   1      36.001  29.679  28.787  1.00  0.00     0.010 A 
ATOM     34  C   UNL A   1      37.106  30.521  28.987  1.00  0.00    -0.014 A 
BRANCH  34  35
ATOM     35  C   UNL A   1      38.285  30.013  29.741  1.00  0.00     0.031 A 
ATOM     36  C   UNL A   1      38.545  30.499  31.142  1.00  0.00     0.074 A 
ATOM     37  C   UNL A   1      39.163  29.180  29.142  1.00  0.00     0.049 A 
ATOM     38  N   UNL A   1      39.541  30.220  31.940  1.00  0.00    -0.248 NA
ATOM     39  C   UNL A   1      37.574  31.450  31.711  1.00  0.00     0.031 C 
ATOM     40  C   UNL A   1      39.071  28.698  27.761  1.00  0.00     0.029 A 
ATOM     41  N   UNL A   1      40.318  28.605  29.614  1.00  0.00    -0.354 N 
ATOM     42  C   UNL A   1      39.333  30.977  33.086  1.00  0.00     0.074 A 
ATOM     43  C   UNL A   1      38.148  31.774  32.859  1.00  0.00     0.031 C 
ATOM     44  C   UNL A   1      40.110  27.885  27.507  1.00  0.00     0.029 A 
ATOM     45  C   UNL A   1      40.964  27.817  28.688  1.00  0.00     0.049 A 
ATOM     46  H   UNL A   1      40.652  28.744  30.529  1.00  0.00     0.167 HD
ATOM     47  C   UNL A   1      40.037  30.984  34.242  1.00  0.00     0.034 A 
ATOM     48  C   UNL A   1      42.116  27.124  28.779  1.00  0.00     0.034 A 
ATOM     49  C   UNL A   1      41.194  30.166  34.481  1.00  0.00     0.049 A 
ATOM     50  C   UNL A   1      42.875  27.141  30.080  1.00  0.00     0.074 A 
ATOM     51  C   UNL A   1      41.939  30.049  35.640  1.00  0.00     0.029 A 
ATOM     52  N   UNL A   1      41.779  29.333  33.542  1.00  0.00    -0.354 N 
ATOM     53  N   UNL A   1      42.580  27.753  31.202  1.00  0.00    -0.248 NA
ATOM     54  C   UNL A   1      44.110  26.345  30.140  1.00  0.00     0.031 C 
ATOM     55  C   UNL A   1      42.995  29.167  35.391  1.00  0.00     0.029 A 
ATOM     56  C   UNL A   1      42.883  28.703  34.091  1.00  0.00     0.049 A 
ATOM     57  H   UNL A   1      41.459  29.207  32.619  1.00  0.00     0.167 HD
ATOM     58  C   UNL A   1      43.563  27.379  32.111  1.00  0.00     0.074 A 
ATOM     59  C   UNL A   1      44.452  26.473  31.414  1.00  0.00     0.031 C 
ATOM     60  C   UNL A   1      43.725  27.760  33.402  1.00  0.00     0.034 A 
BRANCH  47  61
ATOM     61  C   UNL A   1      39.539  31.866  35.358  1.00  0.00     0.023 A 
ATOM     62  C   UNL A   1      38.662  31.336  36.327  1.00  0.00     0.012 A 
ATOM     63  C   UNL A   1      39.973  33.201  35.476  1.00  0.00     0.148 A 
ATOM     64  C   UNL A   1      38.193  32.129  37.372  1.00  0.00     0.002 A 
ATOM     65  C   UNL A   1      39.542  33.970  36.550  1.00  0.00     0.091 A 
ATOM     66  F   UNL A   1      40.791  33.694  34.535  1.00  0.00    -0.205 F 
ATOM     67  C   UNL A   1      38.641  33.442  37.490  1.00  0.00     0.022 A 
BRANCH  65  68
ATOM     68  S   UNL A   1      40.123  35.644  36.841  1.00  0.00     0.127 S 
ATOM     69  O   UNL A   1      41.573  35.470  36.768  1.00  0.00    -0.237 OA
ATOM     70  O   UNL A   1      39.537  36.370  35.714  1.00  0.00    -0.237 OA
ATOM     71  O   UNL A   1      39.609  36.028  38.148  1.00  0.00    -0.744 OA
ENDBRANCH  65  68
ENDBRANCH  47  61
BRANCH  48  72
ATOM     72  C   UNL A   1      42.603  26.306  27.630  1.00  0.00     0.023 A 
ATOM     73  C   UNL A   1      43.451  26.894  26.669  1.00  0.00     0.012 A 
ATOM     74  C   UNL A   1      42.226  24.959  27.475  1.00  0.00     0.148 A 
ATOM     75  C   UNL A   1      43.874  26.171  25.553  1.00  0.00     0.002 A 
ATOM     76  C   UNL A   1      42.699  24.227  26.392  1.00  0.00     0.091 A 
ATOM     77  F   UNL A   1      41.413  24.418  28.392  1.00  0.00    -0.205 F 
ATOM     78  C   UNL A   1      43.505  24.836  25.418  1.00  0.00     0.022 A 
BRANCH  76  79
ATOM     79  S   UNL A   1      42.379  22.469  26.203  1.00  0.00     0.127 S 
ATOM     80  O   UNL A   1      40.921  22.436  26.134  1.00  0.00    -0.237 OA
ATOM     81  O   UNL A   1      43.064  22.173  24.944  1.00  0.00    -0.237 OA
ATOM     82  O   UNL A   1      42.971  21.833  27.372  1.00  0.00    -0.744 OA
ENDBRANCH  76  79
ENDBRANCH  48  72
BRANCH  60  83
ATOM     83  C   UNL A   1      44.870  27.157  34.173  1.00  0.00     0.023 A 
ATOM     84  C   UNL A   1      46.124  27.799  34.196  1.00  0.00     0.012 A 
ATOM     85  C   UNL A   1      44.677  25.988  34.936  1.00  0.00     0.148 A 
ATOM     86  C   UNL A   1      47.179  27.265  34.936  1.00  0.00     0.002 A 
ATOM     87  C   UNL A   1      45.715  25.493  35.714  1.00  0.00     0.091 A 
ATOM     88  F   UNL A   1      43.480  25.384  34.887  1.00  0.00    -0.205 F 
ATOM     89  C   UNL A   1      46.971  26.121  35.703  1.00  0.00     0.022 A 
BRANCH  87  90
ATOM     90  S   UNL A   1      45.512  24.087  36.813  1.00  0.00     0.127 S 
ATOM     91  O   UNL A   1      46.891  23.833  37.227  1.00  0.00    -0.237 OA
ATOM     92  O   UNL A   1      44.650  24.636  37.860  1.00  0.00    -0.237 OA
ATOM     93  O   UNL A   1      44.899  23.035  36.012  1.00  0.00    -0.744 OA
ENDBRANCH  87  90
ENDBRANCH  60  83
ENDBRANCH  34  35
ENDBRANCH  26  29
ENDBRANCH  24  25
ENDBRANCH  23  24
ENDBRANCH   1  23
TORSDOF 18
ENDMDL
