MODEL 1
REMARK VINA RESULT:     -10.4      0.000      0.000
REMARK SMILES COC(=O)c1ccccc1N1C(=O)/C(=C\c2ccc(-c3ccc(Cl)c(C(=O)NCCCCNC(=O)c4ccc(-c5c6nc(c(-c7cccc(S(=O)(=O)[O-])c7F)c7ccc([nH]7)c(-c7cccc(S(=O)(=O)[O-])c7F)c7nc(c(-c8cccc(S(=O)(=O)[O-])c8F)c8ccc5[nH]8)C=C7)C=C6)cc4)c3)o2)SC1=S
REMARK SMILES IDX 29 1 28 2 26 3 27 4 25 6 20 7 21 8 99 9 22 10 23 11 24 12
REMARK SMILES IDX 19 13 16 14 17 15 100 16 18 17 15 18 11 19 12 20 102 21
REMARK SMILES IDX 13 22 14 23 101 24 103 25 10 26 5 27 6 28 7 29 9 30 8 31
REMARK SMILES IDX 3 32 4 33 2 34 1 35 30 36 31 37 32 38 33 39 34 40 35 42
REMARK SMILES IDX 36 43 37 44 98 45 38 46 97 47 39 48 40 49 41 50 91 51 42 52
REMARK SMILES IDX 96 53 90 54 92 55 43 56 95 57 89 58 88 59 44 61 76 62 56 63
REMARK SMILES IDX 75 64 57 65 60 66 74 67 93 68 58 69 59 70 73 72 94 73 61 74
REMARK SMILES IDX 45 75 46 76 54 77 47 78 49 79 55 80 48 81 50 82 51 83 52 84
REMARK SMILES IDX 53 85 77 86 78 87 86 88 79 89 81 90 87 91 80 92 82 93 83 94
REMARK SMILES IDX 84 95 85 96 62 97 63 98 71 99 64 100 66 101 72 102 65 103
REMARK SMILES IDX 67 104 68 105 69 106 70 107
REMARK H PARENT 28 5 33 41 92 60 60 71
REMARK Flexibility Score: inf
ROOT
ATOM      1  C   UNL A   1      37.627  28.972  30.858  1.00  0.00     0.116 C 
ENDROOT
BRANCH   1   2
ATOM      2  N   UNL A   1      38.150  28.965  29.497  1.00  0.00    -0.352 N 
ATOM      3  C   UNL A   1      37.799  29.697  28.373  1.00  0.00     0.252 C 
ATOM      4  O   UNL A   1      38.502  29.604  27.371  1.00  0.00    -0.269 OA
ATOM      5  H   UNL A   1      38.884  28.326  29.349  1.00  0.00     0.163 HD
BRANCH   3   6
ATOM      6  C   UNL A   1      36.595  30.575  28.361  1.00  0.00     0.059 A 
ATOM      7  C   UNL A   1      34.341  30.889  27.497  1.00  0.00     0.018 A 
ATOM      8  C   UNL A   1      34.391  32.236  27.856  1.00  0.00     0.013 A 
ATOM      9  C   UNL A   1      35.391  30.051  27.883  1.00  0.00     0.027 A 
ATOM     10  C   UNL A   1      35.512  32.737  28.525  1.00  0.00     0.022 A 
ATOM     11  C   UNL A   1      36.634  31.923  28.741  1.00  0.00     0.053 A 
ATOM     12  Cl  UNL A   1      38.021  32.691  29.425  1.00  0.00    -0.083 Cl
BRANCH   7  13
ATOM     13  C   UNL A   1      33.338  30.354  26.587  1.00  0.00     0.134 A 
ATOM     14  C   UNL A   1      32.736  29.069  24.880  1.00  0.00     0.128 A 
ATOM     15  C   UNL A   1      31.584  29.420  25.571  1.00  0.00     0.051 A 
ATOM     16  O   UNL A   1      33.808  29.632  25.529  1.00  0.00    -0.457 OA
ATOM     17  C   UNL A   1      31.964  30.265  26.636  1.00  0.00     0.051 A 
BRANCH  14  18
ATOM     18  C   UNL A   1      32.863  28.313  23.689  1.00  0.00     0.068 C 
ATOM     19  N   UNL A   1      33.313  24.809  24.602  1.00  0.00    -0.260 N 
ATOM     20  C   UNL A   1      33.177  26.146  24.949  1.00  0.00     0.270 C 
ATOM     21  C   UNL A   1      33.315  24.510  23.251  1.00  0.00     0.152 C 
ATOM     22  O   UNL A   1      33.160  26.582  26.092  1.00  0.00    -0.268 OA
ATOM     23  C   UNL A   1      33.072  26.990  23.725  1.00  0.00     0.084 C 
ATOM     24  S   UNL A   1      33.229  26.007  22.318  1.00  0.00    -0.054 SA
ATOM     25  S   UNL A   1      33.285  23.014  22.504  1.00  0.00    -0.051 S 
BRANCH  19  26
ATOM     26  C   UNL A   1      33.419  23.859  25.659  1.00  0.00     0.065 A 
ATOM     27  C   UNL A   1      34.617  23.219  26.029  1.00  0.00     0.084 A 
ATOM     28  C   UNL A   1      34.614  22.331  27.122  1.00  0.00     0.018 A 
ATOM     29  C   UNL A   1      33.448  22.098  27.856  1.00  0.00     0.001 A 
ATOM     30  C   UNL A   1      32.257  23.617  26.420  1.00  0.00     0.028 A 
ATOM     31  C   UNL A   1      32.270  22.743  27.505  1.00  0.00     0.002 A 
BRANCH  27  32
ATOM     32  C   UNL A   1      35.950  23.459  25.408  1.00  0.00     0.339 C 
ATOM     33  O   UNL A   1      36.629  24.434  25.646  1.00  0.00    -0.246 OA
BRANCH  32  34
ATOM     34  O   UNL A   1      36.251  22.477  24.514  1.00  0.00    -0.465 OA
ATOM     35  C   UNL A   1      37.414  21.723  24.860  1.00  0.00     0.282 C 
ENDBRANCH  32  34
ENDBRANCH  27  32
ENDBRANCH  19  26
ENDBRANCH  14  18
ENDBRANCH   7  13
ENDBRANCH   3   6
ENDBRANCH   1   2
BRANCH   1  36
ATOM     36  C   UNL A   1      38.508  29.645  31.903  1.00  0.00     0.023 C 
BRANCH  36  37
ATOM     37  C   UNL A   1      37.896  30.808  32.672  1.00  0.00     0.023 C 
BRANCH  37  38
ATOM     38  C   UNL A   1      38.690  31.327  33.866  1.00  0.00     0.116 C 
BRANCH  38  39
ATOM     39  N   UNL A   1      39.025  32.743  33.789  1.00  0.00    -0.352 N 
ATOM     40  C   UNL A   1      40.068  33.362  33.137  1.00  0.00     0.251 C 
ATOM     41  H   UNL A   1      38.416  33.346  34.273  1.00  0.00     0.163 HD
ATOM     42  O   UNL A   1      40.221  34.576  33.245  1.00  0.00    -0.269 OA
BRANCH  40  43
ATOM     43  C   UNL A   1      41.029  32.561  32.343  1.00  0.00     0.039 A 
ATOM     44  C   UNL A   1      40.912  32.549  30.950  1.00  0.00     0.014 A 
ATOM     45  C   UNL A   1      42.063  31.857  32.963  1.00  0.00     0.014 A 
ATOM     46  C   UNL A   1      41.886  31.911  30.177  1.00  0.00     0.010 A 
ATOM     47  C   UNL A   1      43.076  31.294  32.190  1.00  0.00     0.010 A 
ATOM     48  C   UNL A   1      43.003  31.318  30.788  1.00  0.00    -0.014 A 
BRANCH  48  49
ATOM     49  C   UNL A   1      44.118  30.748  29.985  1.00  0.00     0.031 A 
ATOM     50  C   UNL A   1      44.114  29.288  29.609  1.00  0.00     0.074 A 
ATOM     51  C   UNL A   1      45.189  31.514  29.690  1.00  0.00     0.049 A 
ATOM     52  N   UNL A   1      45.033  28.598  28.985  1.00  0.00    -0.248 NA
ATOM     53  C   UNL A   1      42.943  28.494  30.012  1.00  0.00     0.031 C 
ATOM     54  C   UNL A   1      45.362  32.916  30.080  1.00  0.00     0.029 A 
ATOM     55  N   UNL A   1      46.353  31.214  29.025  1.00  0.00    -0.354 N 
ATOM     56  C   UNL A   1      44.576  27.285  28.965  1.00  0.00     0.074 A 
ATOM     57  C   UNL A   1      43.307  27.269  29.657  1.00  0.00     0.031 C 
ATOM     58  C   UNL A   1      46.560  33.348  29.656  1.00  0.00     0.029 A 
ATOM     59  C   UNL A   1      47.256  32.253  28.989  1.00  0.00     0.049 A 
ATOM     60  H   UNL A   1      46.527  30.336  28.612  1.00  0.00     0.167 HD
ATOM     61  C   UNL A   1      45.148  26.196  28.402  1.00  0.00     0.034 A 
ATOM     62  C   UNL A   1      48.506  32.314  28.489  1.00  0.00     0.034 A 
ATOM     63  C   UNL A   1      46.378  26.225  27.657  1.00  0.00     0.049 A 
ATOM     64  C   UNL A   1      49.082  31.103  27.804  1.00  0.00     0.074 A 
ATOM     65  C   UNL A   1      46.970  25.199  26.940  1.00  0.00     0.029 A 
ATOM     66  N   UNL A   1      47.206  27.328  27.537  1.00  0.00    -0.354 N 
ATOM     67  N   UNL A   1      48.543  29.922  27.626  1.00  0.00    -0.248 NA
ATOM     68  C   UNL A   1      50.422  31.244  27.214  1.00  0.00     0.031 C 
ATOM     69  C   UNL A   1      48.172  25.675  26.410  1.00  0.00     0.029 A 
ATOM     70  C   UNL A   1      48.312  27.004  26.771  1.00  0.00     0.049 A 
ATOM     71  H   UNL A   1      47.034  28.210  27.937  1.00  0.00     0.167 HD
ATOM     72  C   UNL A   1      49.458  29.194  26.873  1.00  0.00     0.074 A 
ATOM     73  C   UNL A   1      50.576  30.076  26.607  1.00  0.00     0.031 C 
ATOM     74  C   UNL A   1      49.387  27.908  26.454  1.00  0.00     0.034 A 
BRANCH  61  75
ATOM     75  C   UNL A   1      44.433  24.877  28.513  1.00  0.00     0.023 A 
ATOM     76  C   UNL A   1      44.609  24.083  29.664  1.00  0.00     0.012 A 
ATOM     77  C   UNL A   1      43.504  24.477  27.531  1.00  0.00     0.148 A 
ATOM     78  C   UNL A   1      43.887  22.901  29.828  1.00  0.00     0.002 A 
ATOM     79  C   UNL A   1      42.756  23.322  27.722  1.00  0.00     0.091 A 
ATOM     80  F   UNL A   1      43.365  25.239  26.436  1.00  0.00    -0.205 F 
ATOM     81  C   UNL A   1      42.953  22.528  28.865  1.00  0.00     0.022 A 
BRANCH  79  82
ATOM     82  S   UNL A   1      41.468  22.798  26.586  1.00  0.00     0.127 S 
ATOM     83  O   UNL A   1      42.250  22.412  25.412  1.00  0.00    -0.237 OA
ATOM     84  O   UNL A   1      40.860  21.680  27.308  1.00  0.00    -0.237 OA
ATOM     85  O   UNL A   1      40.599  23.951  26.400  1.00  0.00    -0.744 OA
ENDBRANCH  79  82
ENDBRANCH  61  75
BRANCH  62  86
ATOM     86  C   UNL A   1      49.291  33.581  28.572  1.00  0.00     0.023 A 
ATOM     87  C   UNL A   1      50.099  33.825  29.701  1.00  0.00     0.012 A 
ATOM     88  C   UNL A   1      49.236  34.545  27.549  1.00  0.00     0.148 A 
ATOM     89  C   UNL A   1      50.798  35.026  29.831  1.00  0.00     0.002 A 
ATOM     90  C   UNL A   1      49.983  35.714  27.657  1.00  0.00     0.091 A 
ATOM     91  F   UNL A   1      48.452  34.306  26.489  1.00  0.00    -0.205 F 
ATOM     92  C   UNL A   1      50.748  35.966  28.805  1.00  0.00     0.022 A 
BRANCH  90  93
ATOM     93  S   UNL A   1      50.079  36.910  26.321  1.00  0.00     0.127 S 
ATOM     94  O   UNL A   1      51.015  37.891  26.862  1.00  0.00    -0.237 OA
ATOM     95  O   UNL A   1      50.604  36.101  25.220  1.00  0.00    -0.237 OA
ATOM     96  O   UNL A   1      48.712  37.374  26.119  1.00  0.00    -0.744 OA
ENDBRANCH  90  93
ENDBRANCH  62  86
BRANCH  74  97
ATOM     97  C   UNL A   1      50.521  27.375  25.620  1.00  0.00     0.023 A 
ATOM     98  C   UNL A   1      51.553  26.632  26.228  1.00  0.00     0.012 A 
ATOM     99  C   UNL A   1      50.519  27.541  24.221  1.00  0.00     0.148 A 
ATOM    100  C   UNL A   1      52.582  26.091  25.459  1.00  0.00     0.002 A 
ATOM    101  C   UNL A   1      51.520  26.956  23.456  1.00  0.00     0.091 A 
ATOM    102  F   UNL A   1      49.538  28.267  23.664  1.00  0.00    -0.205 F 
ATOM    103  C   UNL A   1      52.559  26.241  24.073  1.00  0.00     0.022 A 
BRANCH 101 104
ATOM    104  S   UNL A   1      51.515  27.013  21.660  1.00  0.00     0.127 S 
ATOM    105  O   UNL A   1      50.183  26.498  21.350  1.00  0.00    -0.237 OA
ATOM    106  O   UNL A   1      51.694  28.441  21.395  1.00  0.00    -0.237 OA
ATOM    107  O   UNL A   1      52.627  26.176  21.230  1.00  0.00    -0.744 OA
ENDBRANCH 101 104
ENDBRANCH  74  97
ENDBRANCH  48  49
ENDBRANCH  40  43
ENDBRANCH  38  39
ENDBRANCH  37  38
ENDBRANCH  36  37
ENDBRANCH   1  36
TORSDOF 19
ENDMDL
MODEL 2
REMARK VINA RESULT:     -10.3      5.238     10.747
REMARK SMILES COC(=O)c1ccccc1N1C(=O)/C(=C\c2ccc(-c3ccc(Cl)c(C(=O)NCCCCNC(=O)c4ccc(-c5c6nc(c(-c7cccc(S(=O)(=O)[O-])c7F)c7ccc([nH]7)c(-c7cccc(S(=O)(=O)[O-])c7F)c7nc(c(-c8cccc(S(=O)(=O)[O-])c8F)c8ccc5[nH]8)C=C7)C=C6)cc4)c3)o2)SC1=S
REMARK SMILES IDX 29 1 28 2 26 3 27 4 25 6 20 7 21 8 99 9 22 10 23 11 24 12
REMARK SMILES IDX 19 13 16 14 17 15 100 16 18 17 15 18 11 19 12 20 102 21
REMARK SMILES IDX 13 22 14 23 101 24 103 25 10 26 5 27 6 28 7 29 9 30 8 31
REMARK SMILES IDX 3 32 4 33 2 34 1 35 30 36 31 37 32 38 33 39 34 40 35 42
REMARK SMILES IDX 36 43 37 44 98 45 38 46 97 47 39 48 40 49 41 50 91 51 42 52
REMARK SMILES IDX 96 53 90 54 92 55 43 56 95 57 89 58 88 59 44 61 76 62 56 63
REMARK SMILES IDX 75 64 57 65 60 66 74 67 93 68 58 69 59 70 73 72 94 73 61 74
REMARK SMILES IDX 45 75 46 76 54 77 47 78 49 79 55 80 48 81 50 82 51 83 52 84
REMARK SMILES IDX 53 85 77 86 78 87 86 88 79 89 81 90 87 91 80 92 82 93 83 94
REMARK SMILES IDX 84 95 85 96 62 97 63 98 71 99 64 100 66 101 72 102 65 103
REMARK SMILES IDX 67 104 68 105 69 106 70 107
REMARK H PARENT 28 5 33 41 92 60 60 71
REMARK Flexibility Score: inf
ROOT
ATOM      1  C   UNL A   1      42.777  23.348  25.054  1.00  0.00     0.116 C 
ENDROOT
BRANCH   1   2
ATOM      2  N   UNL A   1      41.966  22.454  25.872  1.00  0.00    -0.352 N 
ATOM      3  C   UNL A   1      41.363  22.630  27.108  1.00  0.00     0.252 C 
ATOM      4  O   UNL A   1      40.603  21.758  27.518  1.00  0.00    -0.269 OA
ATOM      5  H   UNL A   1      41.821  21.565  25.475  1.00  0.00     0.163 HD
BRANCH   3   6
ATOM      6  C   UNL A   1      41.627  23.840  27.936  1.00  0.00     0.059 A 
ATOM      7  C   UNL A   1      41.155  26.208  28.250  1.00  0.00     0.018 A 
ATOM      8  C   UNL A   1      42.272  26.321  29.078  1.00  0.00     0.013 A 
ATOM      9  C   UNL A   1      40.772  24.938  27.806  1.00  0.00     0.027 A 
ATOM     10  C   UNL A   1      43.026  25.185  29.389  1.00  0.00     0.022 A 
ATOM     11  C   UNL A   1      42.735  23.951  28.786  1.00  0.00     0.053 A 
ATOM     12  Cl  UNL A   1      43.832  22.659  29.113  1.00  0.00    -0.083 Cl
BRANCH   7  13
ATOM     13  C   UNL A   1      40.477  27.363  27.681  1.00  0.00     0.134 A 
ATOM     14  C   UNL A   1      38.811  28.829  27.647  1.00  0.00     0.128 A 
ATOM     15  C   UNL A   1      39.836  29.338  26.862  1.00  0.00     0.051 A 
ATOM     16  O   UNL A   1      39.227  27.625  28.162  1.00  0.00    -0.457 OA
ATOM     17  C   UNL A   1      40.882  28.389  26.855  1.00  0.00     0.051 A 
BRANCH  14  18
ATOM     18  C   UNL A   1      37.522  29.368  27.885  1.00  0.00     0.068 C 
ATOM     19  N   UNL A   1      37.817  31.941  30.456  1.00  0.00    -0.260 N 
ATOM     20  C   UNL A   1      38.372  30.938  29.673  1.00  0.00     0.270 C 
ATOM     21  C   UNL A   1      36.465  32.183  30.297  1.00  0.00     0.152 C 
ATOM     22  O   UNL A   1      39.546  30.594  29.691  1.00  0.00    -0.268 OA
ATOM     23  C   UNL A   1      37.327  30.316  28.811  1.00  0.00     0.084 C 
ATOM     24  S   UNL A   1      35.791  31.022  29.150  1.00  0.00    -0.054 SA
ATOM     25  S   UNL A   1      35.532  33.413  30.942  1.00  0.00    -0.051 S 
BRANCH  19  26
ATOM     26  C   UNL A   1      38.685  32.647  31.338  1.00  0.00     0.065 A 
ATOM     27  C   UNL A   1      38.758  32.419  32.725  1.00  0.00     0.084 A 
ATOM     28  C   UNL A   1      39.688  33.145  33.494  1.00  0.00     0.018 A 
ATOM     29  C   UNL A   1      40.552  34.065  32.897  1.00  0.00     0.001 A 
ATOM     30  C   UNL A   1      39.575  33.573  30.755  1.00  0.00     0.028 A 
ATOM     31  C   UNL A   1      40.497  34.277  31.526  1.00  0.00     0.002 A 
BRANCH  27  32
ATOM     32  C   UNL A   1      37.978  31.394  33.473  1.00  0.00     0.339 C 
ATOM     33  O   UNL A   1      37.003  31.658  34.144  1.00  0.00    -0.246 OA
BRANCH  32  34
ATOM     34  O   UNL A   1      38.545  30.163  33.342  1.00  0.00    -0.465 OA
ATOM     35  C   UNL A   1      37.663  29.180  32.798  1.00  0.00     0.282 C 
ENDBRANCH  32  34
ENDBRANCH  27  32
ENDBRANCH  19  26
ENDBRANCH  14  18
ENDBRANCH   7  13
ENDBRANCH   3   6
ENDBRANCH   1   2
BRANCH   1  36
ATOM     36  C   UNL A   1      44.237  23.483  25.470  1.00  0.00     0.023 C 
BRANCH  36  37
ATOM     37  C   UNL A   1      44.732  24.885  25.797  1.00  0.00     0.023 C 
BRANCH  37  38
ATOM     38  C   UNL A   1      46.208  25.164  25.535  1.00  0.00     0.116 C 
BRANCH  38  39
ATOM     39  N   UNL A   1      46.452  26.285  24.635  1.00  0.00    -0.352 N 
ATOM     40  C   UNL A   1      46.365  27.638  24.878  1.00  0.00     0.251 C 
ATOM     41  H   UNL A   1      46.718  26.039  23.720  1.00  0.00     0.163 HD
ATOM     42  O   UNL A   1      46.548  28.435  23.962  1.00  0.00    -0.269 OA
BRANCH  40  43
ATOM     43  C   UNL A   1      46.010  28.129  26.229  1.00  0.00     0.039 A 
ATOM     44  C   UNL A   1      47.029  28.332  27.165  1.00  0.00     0.014 A 
ATOM     45  C   UNL A   1      44.687  28.426  26.562  1.00  0.00     0.014 A 
ATOM     46  C   UNL A   1      46.732  28.921  28.398  1.00  0.00     0.010 A 
ATOM     47  C   UNL A   1      44.406  29.088  27.755  1.00  0.00     0.010 A 
ATOM     48  C   UNL A   1      45.425  29.348  28.685  1.00  0.00    -0.014 A 
BRANCH  48  49
ATOM     49  C   UNL A   1      45.107  30.095  29.932  1.00  0.00     0.031 A 
ATOM     50  C   UNL A   1      44.673  29.354  31.171  1.00  0.00     0.074 A 
ATOM     51  C   UNL A   1      45.098  31.444  29.920  1.00  0.00     0.049 A 
ATOM     52  N   UNL A   1      44.280  29.835  32.322  1.00  0.00    -0.248 NA
ATOM     53  C   UNL A   1      44.648  27.884  31.100  1.00  0.00     0.031 C 
ATOM     54  C   UNL A   1      45.403  32.283  28.758  1.00  0.00     0.029 A 
ATOM     55  N   UNL A   1      44.787  32.350  30.905  1.00  0.00    -0.354 N 
ATOM     56  C   UNL A   1      43.914  28.737  33.091  1.00  0.00     0.074 A 
ATOM     57  C   UNL A   1      44.113  27.563  32.271  1.00  0.00     0.031 C 
ATOM     58  C   UNL A   1      45.256  33.575  29.094  1.00  0.00     0.029 A 
ATOM     59  C   UNL A   1      44.820  33.661  30.484  1.00  0.00     0.049 A 
ATOM     60  H   UNL A   1      44.560  32.087  31.827  1.00  0.00     0.167 HD
ATOM     61  C   UNL A   1      43.476  28.705  34.371  1.00  0.00     0.034 A 
ATOM     62  C   UNL A   1      44.520  34.802  31.137  1.00  0.00     0.034 A 
ATOM     63  C   UNL A   1      43.342  29.866  35.207  1.00  0.00     0.049 A 
ATOM     64  C   UNL A   1      44.106  34.731  32.583  1.00  0.00     0.074 A 
ATOM     65  C   UNL A   1      43.029  29.922  36.554  1.00  0.00     0.029 A 
ATOM     66  N   UNL A   1      43.503  31.173  34.779  1.00  0.00    -0.354 N 
ATOM     67  N   UNL A   1      43.957  33.678  33.348  1.00  0.00    -0.248 NA
ATOM     68  C   UNL A   1      43.858  36.008  33.269  1.00  0.00     0.031 C 
ATOM     69  C   UNL A   1      42.974  31.265  36.935  1.00  0.00     0.029 A 
ATOM     70  C   UNL A   1      43.283  32.044  35.832  1.00  0.00     0.049 A 
ATOM     71  H   UNL A   1      43.740  31.443  33.863  1.00  0.00     0.167 HD
ATOM     72  C   UNL A   1      43.638  34.165  34.611  1.00  0.00     0.074 A 
ATOM     73  C   UNL A   1      43.639  35.610  34.514  1.00  0.00     0.031 C 
ATOM     74  C   UNL A   1      43.353  33.478  35.743  1.00  0.00     0.034 A 
BRANCH  61  75
ATOM     75  C   UNL A   1      43.156  27.367  34.982  1.00  0.00     0.023 A 
ATOM     76  C   UNL A   1      41.835  26.878  34.936  1.00  0.00     0.012 A 
ATOM     77  C   UNL A   1      44.181  26.549  35.498  1.00  0.00     0.148 A 
ATOM     78  C   UNL A   1      41.534  25.604  35.415  1.00  0.00     0.002 A 
ATOM     79  C   UNL A   1      43.881  25.264  35.933  1.00  0.00     0.091 A 
ATOM     80  F   UNL A   1      45.427  27.041  35.548  1.00  0.00    -0.205 F 
ATOM     81  C   UNL A   1      42.557  24.793  35.901  1.00  0.00     0.022 A 
BRANCH  79  82
ATOM     82  S   UNL A   1      45.136  24.109  36.496  1.00  0.00     0.127 S 
ATOM     83  O   UNL A   1      44.624  22.842  35.977  1.00  0.00    -0.237 OA
ATOM     84  O   UNL A   1      46.334  24.606  35.819  1.00  0.00    -0.237 OA
ATOM     85  O   UNL A   1      45.164  24.219  37.947  1.00  0.00    -0.744 OA
ENDBRANCH  79  82
ENDBRANCH  61  75
BRANCH  62  86
ATOM     86  C   UNL A   1      44.643  36.120  30.448  1.00  0.00     0.023 A 
ATOM     87  C   UNL A   1      45.792  36.909  30.660  1.00  0.00     0.012 A 
ATOM     88  C   UNL A   1      43.631  36.600  29.597  1.00  0.00     0.148 A 
ATOM     89  C   UNL A   1      45.907  38.171  30.073  1.00  0.00     0.002 A 
ATOM     90  C   UNL A   1      43.779  37.831  28.968  1.00  0.00     0.091 A 
ATOM     91  F   UNL A   1      42.538  35.845  29.418  1.00  0.00    -0.205 F 
ATOM     92  C   UNL A   1      44.906  38.628  29.221  1.00  0.00     0.022 A 
BRANCH  90  93
ATOM     93  S   UNL A   1      42.601  38.429  27.752  1.00  0.00     0.127 S 
ATOM     94  O   UNL A   1      41.813  39.376  28.536  1.00  0.00    -0.237 OA
ATOM     95  O   UNL A   1      43.476  39.039  26.750  1.00  0.00    -0.237 OA
ATOM     96  O   UNL A   1      41.895  37.243  27.283  1.00  0.00    -0.744 OA
ENDBRANCH  90  93
ENDBRANCH  62  86
BRANCH  74  97
ATOM     97  C   UNL A   1      43.064  34.269  36.992  1.00  0.00     0.023 A 
ATOM     98  C   UNL A   1      44.106  34.570  37.891  1.00  0.00     0.012 A 
ATOM     99  C   UNL A   1      41.774  34.783  37.229  1.00  0.00     0.148 A 
ATOM    100  C   UNL A   1      43.860  35.344  39.024  1.00  0.00     0.002 A 
ATOM    101  C   UNL A   1      41.548  35.596  38.333  1.00  0.00     0.091 A 
ATOM    102  F   UNL A   1      40.791  34.470  36.370  1.00  0.00    -0.205 F 
ATOM    103  C   UNL A   1      42.586  35.867  39.238  1.00  0.00     0.022 A 
BRANCH 101 104
ATOM    104  S   UNL A   1      39.966  36.393  38.632  1.00  0.00     0.127 S 
ATOM    105  O   UNL A   1      40.344  37.472  39.544  1.00  0.00    -0.237 OA
ATOM    106  O   UNL A   1      39.582  36.835  37.290  1.00  0.00    -0.237 OA
ATOM    107  O   UNL A   1      39.101  35.368  39.198  1.00  0.00    -0.744 OA
ENDBRANCH 101 104
ENDBRANCH  74  97
ENDBRANCH  48  49
ENDBRANCH  40  43
ENDBRANCH  38  39
ENDBRANCH  37  38
ENDBRANCH  36  37
ENDBRANCH   1  36
TORSDOF 19
ENDMDL
MODEL 3
REMARK VINA RESULT:     -10.1      3.764      8.742
REMARK SMILES COC(=O)c1ccccc1N1C(=O)/C(=C\c2ccc(-c3ccc(Cl)c(C(=O)NCCCCNC(=O)c4ccc(-c5c6nc(c(-c7cccc(S(=O)(=O)[O-])c7F)c7ccc([nH]7)c(-c7cccc(S(=O)(=O)[O-])c7F)c7nc(c(-c8cccc(S(=O)(=O)[O-])c8F)c8ccc5[nH]8)C=C7)C=C6)cc4)c3)o2)SC1=S
REMARK SMILES IDX 29 1 28 2 26 3 27 4 25 6 20 7 21 8 99 9 22 10 23 11 24 12
REMARK SMILES IDX 19 13 16 14 17 15 100 16 18 17 15 18 11 19 12 20 102 21
REMARK SMILES IDX 13 22 14 23 101 24 103 25 10 26 5 27 6 28 7 29 9 30 8 31
REMARK SMILES IDX 3 32 4 33 2 34 1 35 30 36 31 37 32 38 33 39 34 40 35 42
REMARK SMILES IDX 36 43 37 44 98 45 38 46 97 47 39 48 40 49 41 50 91 51 42 52
REMARK SMILES IDX 96 53 90 54 92 55 43 56 95 57 89 58 88 59 44 61 76 62 56 63
REMARK SMILES IDX 75 64 57 65 60 66 74 67 93 68 58 69 59 70 73 72 94 73 61 74
REMARK SMILES IDX 45 75 46 76 54 77 47 78 49 79 55 80 48 81 50 82 51 83 52 84
REMARK SMILES IDX 53 85 77 86 78 87 86 88 79 89 81 90 87 91 80 92 82 93 83 94
REMARK SMILES IDX 84 95 85 96 62 97 63 98 71 99 64 100 66 101 72 102 65 103
REMARK SMILES IDX 67 104 68 105 69 106 70 107
REMARK H PARENT 28 5 33 41 92 60 60 71
REMARK Flexibility Score: inf
ROOT
ATOM      1  C   UNL A   1      37.829  29.135  30.905  1.00  0.00     0.116 C 
ENDROOT
BRANCH   1   2
ATOM      2  N   UNL A   1      38.232  28.977  29.512  1.00  0.00    -0.352 N 
ATOM      3  C   UNL A   1      37.824  29.626  28.357  1.00  0.00     0.252 C 
ATOM      4  O   UNL A   1      38.432  29.403  27.314  1.00  0.00    -0.269 OA
ATOM      5  H   UNL A   1      38.916  28.285  29.366  1.00  0.00     0.163 HD
BRANCH   3   6
ATOM      6  C   UNL A   1      36.670  30.569  28.361  1.00  0.00     0.059 A 
ATOM      7  C   UNL A   1      34.417  30.997  27.544  1.00  0.00     0.018 A 
ATOM      8  C   UNL A   1      34.550  32.344  27.883  1.00  0.00     0.013 A 
ATOM      9  C   UNL A   1      35.428  30.107  27.918  1.00  0.00     0.027 A 
ATOM     10  C   UNL A   1      35.712  32.790  28.519  1.00  0.00     0.022 A 
ATOM     11  C   UNL A   1      36.792  31.918  28.721  1.00  0.00     0.053 A 
ATOM     12  Cl  UNL A   1      38.235  32.616  29.362  1.00  0.00    -0.083 Cl
BRANCH   7  13
ATOM     13  C   UNL A   1      33.365  30.507  26.666  1.00  0.00     0.134 A 
ATOM     14  C   UNL A   1      32.663  29.285  24.951  1.00  0.00     0.128 A 
ATOM     15  C   UNL A   1      31.550  29.635  25.703  1.00  0.00     0.051 A 
ATOM     16  O   UNL A   1      33.773  29.809  25.568  1.00  0.00    -0.457 OA
ATOM     17  C   UNL A   1      31.992  30.442  26.774  1.00  0.00     0.051 A 
BRANCH  14  18
ATOM     18  C   UNL A   1      32.722  28.562  23.734  1.00  0.00     0.068 C 
ATOM     19  N   UNL A   1      33.430  25.068  24.513  1.00  0.00    -0.260 N 
ATOM     20  C   UNL A   1      33.257  26.388  24.906  1.00  0.00     0.270 C 
ATOM     21  C   UNL A   1      33.328  24.799  23.160  1.00  0.00     0.152 C 
ATOM     22  O   UNL A   1      33.319  26.798  26.057  1.00  0.00    -0.268 OA
ATOM     23  C   UNL A   1      33.001  27.252  23.718  1.00  0.00     0.084 C 
ATOM     24  S   UNL A   1      33.083  26.308  22.277  1.00  0.00    -0.054 SA
ATOM     25  S   UNL A   1      33.308  23.320  22.380  1.00  0.00    -0.051 S 
BRANCH  19  26
ATOM     26  C   UNL A   1      33.678  24.103  25.532  1.00  0.00     0.065 A 
ATOM     27  C   UNL A   1      32.669  23.448  26.263  1.00  0.00     0.084 A 
ATOM     28  C   UNL A   1      33.031  22.476  27.215  1.00  0.00     0.018 A 
ATOM     29  C   UNL A   1      34.369  22.136  27.424  1.00  0.00     0.001 A 
ATOM     30  C   UNL A   1      35.022  23.737  25.751  1.00  0.00     0.028 A 
ATOM     31  C   UNL A   1      35.365  22.766  26.690  1.00  0.00     0.002 A 
BRANCH  27  32
ATOM     32  C   UNL A   1      31.204  23.631  26.065  1.00  0.00     0.339 C 
ATOM     33  O   UNL A   1      30.545  22.950  25.308  1.00  0.00    -0.246 OA
BRANCH  32  34
ATOM     34  O   UNL A   1      30.745  24.686  26.792  1.00  0.00    -0.465 OA
ATOM     35  C   UNL A   1      29.930  25.588  26.043  1.00  0.00     0.282 C 
ENDBRANCH  32  34
ENDBRANCH  27  32
ENDBRANCH  19  26
ENDBRANCH  14  18
ENDBRANCH   7  13
ENDBRANCH   3   6
ENDBRANCH   1   2
BRANCH   1  36
ATOM     36  C   UNL A   1      38.632  30.144  31.716  1.00  0.00     0.023 C 
BRANCH  36  37
ATOM     37  C   UNL A   1      37.860  30.991  32.718  1.00  0.00     0.023 C 
BRANCH  37  38
ATOM     38  C   UNL A   1      38.663  31.580  33.873  1.00  0.00     0.116 C 
BRANCH  38  39
ATOM     39  N   UNL A   1      38.300  32.950  34.214  1.00  0.00    -0.352 N 
ATOM     40  C   UNL A   1      38.952  34.128  33.923  1.00  0.00     0.251 C 
ATOM     41  H   UNL A   1      37.466  33.048  34.727  1.00  0.00     0.163 HD
ATOM     42  O   UNL A   1      38.517  35.190  34.359  1.00  0.00    -0.269 OA
BRANCH  40  43
ATOM     43  C   UNL A   1      40.199  34.109  33.124  1.00  0.00     0.039 A 
ATOM     44  C   UNL A   1      40.111  34.191  31.731  1.00  0.00     0.014 A 
ATOM     45  C   UNL A   1      41.450  34.050  33.742  1.00  0.00     0.014 A 
ATOM     46  C   UNL A   1      41.277  34.310  30.967  1.00  0.00     0.010 A 
ATOM     47  C   UNL A   1      42.603  34.252  32.989  1.00  0.00     0.010 A 
ATOM     48  C   UNL A   1      42.531  34.390  31.594  1.00  0.00    -0.014 A 
BRANCH  48  49
ATOM     49  C   UNL A   1      43.774  34.648  30.816  1.00  0.00     0.031 A 
ATOM     50  C   UNL A   1      44.217  36.062  30.539  1.00  0.00     0.074 A 
ATOM     51  C   UNL A   1      44.443  33.615  30.263  1.00  0.00     0.049 A 
ATOM     52  N   UNL A   1      45.222  36.482  29.816  1.00  0.00    -0.248 NA
ATOM     53  C   UNL A   1      43.409  37.145  31.123  1.00  0.00     0.031 C 
ATOM     54  C   UNL A   1      44.064  32.204  30.372  1.00  0.00     0.029 A 
ATOM     55  N   UNL A   1      45.562  33.592  29.467  1.00  0.00    -0.354 N 
ATOM     56  C   UNL A   1      45.139  37.869  29.816  1.00  0.00     0.074 A 
ATOM     57  C   UNL A   1      43.974  38.223  30.595  1.00  0.00     0.031 C 
ATOM     58  C   UNL A   1      44.927  31.457  29.666  1.00  0.00     0.029 A 
ATOM     59  C   UNL A   1      45.905  32.333  29.028  1.00  0.00     0.049 A 
ATOM     60  H   UNL A   1      46.071  34.401  29.230  1.00  0.00     0.167 HD
ATOM     61  C   UNL A   1      45.971  38.769  29.241  1.00  0.00     0.034 A 
ATOM     62  C   UNL A   1      46.886  31.928  28.196  1.00  0.00     0.034 A 
ATOM     63  C   UNL A   1      47.166  38.418  28.523  1.00  0.00     0.049 A 
ATOM     64  C   UNL A   1      47.838  32.951  27.634  1.00  0.00     0.074 A 
ATOM     65  C   UNL A   1      48.140  39.262  28.015  1.00  0.00     0.029 A 
ATOM     66  N   UNL A   1      47.549  37.127  28.202  1.00  0.00    -0.354 N 
ATOM     67  N   UNL A   1      47.853  34.249  27.812  1.00  0.00    -0.248 NA
ATOM     68  C   UNL A   1      48.933  32.451  26.789  1.00  0.00     0.031 C 
ATOM     69  C   UNL A   1      49.098  38.481  27.364  1.00  0.00     0.029 A 
ATOM     70  C   UNL A   1      48.736  37.150  27.492  1.00  0.00     0.049 A 
ATOM     71  H   UNL A   1      47.051  36.314  28.445  1.00  0.00     0.167 HD
ATOM     72  C   UNL A   1      48.976  34.714  27.136  1.00  0.00     0.074 A 
ATOM     73  C   UNL A   1      49.630  33.555  26.565  1.00  0.00     0.031 C 
ATOM     74  C   UNL A   1      49.416  35.987  26.987  1.00  0.00     0.034 A 
BRANCH  61  75
ATOM     75  C   UNL A   1      45.660  40.232  29.403  1.00  0.00     0.023 A 
ATOM     76  C   UNL A   1      44.989  40.920  28.373  1.00  0.00     0.012 A 
ATOM     77  C   UNL A   1      45.933  40.895  30.616  1.00  0.00     0.148 A 
ATOM     78  C   UNL A   1      44.611  42.252  28.539  1.00  0.00     0.002 A 
ATOM     79  C   UNL A   1      45.515  42.209  30.791  1.00  0.00     0.091 A 
ATOM     80  F   UNL A   1      46.589  40.226  31.576  1.00  0.00    -0.205 F 
ATOM     81  C   UNL A   1      44.862  42.892  29.750  1.00  0.00     0.022 A 
BRANCH  79  82
ATOM     82  S   UNL A   1      45.712  43.095  32.340  1.00  0.00     0.127 S 
ATOM     83  O   UNL A   1      47.165  43.253  32.406  1.00  0.00    -0.237 OA
ATOM     84  O   UNL A   1      44.975  44.332  32.081  1.00  0.00    -0.237 OA
ATOM     85  O   UNL A   1      45.135  42.243  33.370  1.00  0.00    -0.744 OA
ENDBRANCH  79  82
ENDBRANCH  61  75
BRANCH  62  86
ATOM     86  C   UNL A   1      47.056  30.481  27.876  1.00  0.00     0.023 A 
ATOM     87  C   UNL A   1      47.703  29.636  28.801  1.00  0.00     0.012 A 
ATOM     88  C   UNL A   1      46.591  29.938  26.664  1.00  0.00     0.148 A 
ATOM     89  C   UNL A   1      47.925  28.291  28.503  1.00  0.00     0.002 A 
ATOM     90  C   UNL A   1      46.762  28.584  26.399  1.00  0.00     0.091 A 
ATOM     91  F   UNL A   1      45.991  30.757  25.788  1.00  0.00    -0.205 F 
ATOM     92  C   UNL A   1      47.447  27.763  27.307  1.00  0.00     0.022 A 
BRANCH  90  93
ATOM     93  S   UNL A   1      46.056  27.800  24.945  1.00  0.00     0.127 S 
ATOM     94  O   UNL A   1      44.633  28.076  25.116  1.00  0.00    -0.237 OA
ATOM     95  O   UNL A   1      46.700  28.535  23.857  1.00  0.00    -0.237 OA
ATOM     96  O   UNL A   1      46.451  26.400  25.033  1.00  0.00    -0.744 OA
ENDBRANCH  90  93
ENDBRANCH  62  86
BRANCH  74  97
ATOM     97  C   UNL A   1      50.692  36.205  26.217  1.00  0.00     0.023 A 
ATOM     98  C   UNL A   1      50.646  36.420  24.825  1.00  0.00     0.012 A 
ATOM     99  C   UNL A   1      51.927  36.279  26.889  1.00  0.00     0.148 A 
ATOM    100  C   UNL A   1      51.815  36.673  24.110  1.00  0.00     0.002 A 
ATOM    101  C   UNL A   1      53.082  36.583  26.178  1.00  0.00     0.091 A 
ATOM    102  F   UNL A   1      51.952  36.054  28.212  1.00  0.00    -0.205 F 
ATOM    103  C   UNL A   1      53.030  36.768  24.787  1.00  0.00     0.022 A 
BRANCH 101 104
ATOM    104  S   UNL A   1      54.671  36.824  26.982  1.00  0.00     0.127 S 
ATOM    105  O   UNL A   1      54.929  35.494  27.533  1.00  0.00    -0.237 OA
ATOM    106  O   UNL A   1      55.533  37.197  25.859  1.00  0.00    -0.237 OA
ATOM    107  O   UNL A   1      54.468  37.881  27.963  1.00  0.00    -0.744 OA
ENDBRANCH 101 104
ENDBRANCH  74  97
ENDBRANCH  48  49
ENDBRANCH  40  43
ENDBRANCH  38  39
ENDBRANCH  37  38
ENDBRANCH  36  37
ENDBRANCH   1  36
TORSDOF 19
ENDMDL
