MODEL 1
REMARK VINA RESULT:     -12.4      0.000      0.000
REMARK SMILES C[C@]12CCC(=O)N1[C@@H](C(=O)N1C[C@H](O)C[C@@H]1C(=O)NCCCCNC(=O)c1ccc(-c3c4nc(c(-c5cccc(S(=O)(=O)[O-])c5F)c5ccc([nH]5)c(-c5cccc(S(=O)(=O)[O-])c5F)c5nc(c(-c6cccc(S(=O)(=O)[O-])c6F)c6ccc3[nH]6)C=C5)C=C4)cc1)CS2
REMARK SMILES IDX 22 1 21 2 20 3 19 4 17 5 18 6 16 8 11 9 12 10 13 11 15 12
REMARK SMILES IDX 9 13 10 14 8 15 1 16 2 17 3 18 7 19 91 20 4 21 5 22 90 23
REMARK SMILES IDX 6 24 14 25 23 27 24 28 25 29 26 31 27 32 28 33 89 34 29 35
REMARK SMILES IDX 88 36 30 37 31 38 32 39 82 40 33 41 87 42 81 43 83 44 34 45
REMARK SMILES IDX 86 46 80 47 79 48 35 50 67 51 47 52 66 53 48 54 51 55 65 56
REMARK SMILES IDX 84 57 49 58 50 59 64 61 85 62 52 63 36 64 37 65 45 66 38 67
REMARK SMILES IDX 40 68 46 69 39 70 41 71 42 72 43 73 44 74 68 75 69 76 77 77
REMARK SMILES IDX 70 78 72 79 78 80 71 81 73 82 74 83 75 84 76 85 53 86 54 87
REMARK SMILES IDX 62 88 55 89 57 90 63 91 56 92 58 93 59 94 60 95 61 96
REMARK H PARENT 19 7 14 26 24 30 83 49 51 60
REMARK Flexibility Score: inf
ROOT
ATOM      1  C   UNL A   1      31.360  32.072  26.770  1.00  0.00     0.023 C 
ENDROOT
BRANCH   1   2
ATOM      2  C   UNL A   1      31.488  30.856  25.852  1.00  0.00     0.023 C 
BRANCH   2   3
ATOM      3  C   UNL A   1      32.718  29.966  26.019  1.00  0.00     0.116 C 
BRANCH   3   4
ATOM      4  N   UNL A   1      33.404  29.637  24.785  1.00  0.00    -0.354 N 
ATOM      5  C   UNL A   1      33.031  28.774  23.795  1.00  0.00     0.242 C 
ATOM      6  O   UNL A   1      33.617  28.866  22.712  1.00  0.00    -0.273 OA
ATOM      7  H   UNL A   1      34.260  30.103  24.640  1.00  0.00     0.163 HD
BRANCH   5   8
ATOM      8  C   UNL A   1      31.980  27.662  24.053  1.00  0.00     0.177 C 
ATOM      9  N   UNL A   1      32.092  26.602  23.023  1.00  0.00    -0.326 N 
ATOM     10  C   UNL A   1      31.000  26.698  22.060  1.00  0.00     0.152 C 
ATOM     11  C   UNL A   1      30.282  27.997  22.393  1.00  0.00     0.136 C 
ATOM     12  C   UNL A   1      30.546  28.175  23.883  1.00  0.00     0.069 C 
BRANCH   9  13
ATOM     13  C   UNL A   1      32.917  25.500  22.938  1.00  0.00     0.247 C 
ATOM     14  O   UNL A   1      33.940  25.546  22.238  1.00  0.00    -0.272 OA
BRANCH  13  15
ATOM     15  C   UNL A   1      32.518  24.137  23.543  1.00  0.00     0.186 C 
ATOM     16  C   UNL A   1      31.160  22.302  25.741  1.00  0.00     0.047 C 
ATOM     17  C   UNL A   1      32.631  22.583  25.430  1.00  0.00     0.087 C 
ATOM     18  C   UNL A   1      33.498  22.440  26.675  1.00  0.00     0.049 C 
ATOM     19  N   UNL A   1      32.865  23.924  24.959  1.00  0.00    -0.315 N 
ATOM     20  S   UNL A   1      33.161  21.556  24.020  1.00  0.00    -0.131 SA
ATOM     21  C   UNL A   1      34.520  23.556  26.583  1.00  0.00     0.103 C 
ATOM     22  C   UNL A   1      33.921  24.532  25.612  1.00  0.00     0.224 C 
ATOM     23  C   UNL A   1      32.822  22.855  22.769  1.00  0.00     0.107 C 
ATOM     24  O   UNL A   1      34.393  25.638  25.403  1.00  0.00    -0.275 OA
ENDBRANCH  13  15
ENDBRANCH   9  13
BRANCH  11  25
ATOM     25  O   UNL A   1      30.828  29.104  21.678  1.00  0.00    -0.391 OA
ATOM     26  H   UNL A   1      31.391  29.626  22.270  1.00  0.00     0.211 HD
ENDBRANCH  11  25
ENDBRANCH   5   8
ENDBRANCH   3   4
ENDBRANCH   2   3
ENDBRANCH   1   2
BRANCH   1  27
ATOM     27  C   UNL A   1      32.648  32.763  27.210  1.00  0.00     0.116 C 
BRANCH  27  28
ATOM     28  N   UNL A   1      32.463  34.137  27.644  1.00  0.00    -0.352 N 
ATOM     29  C   UNL A   1      33.141  34.881  28.582  1.00  0.00     0.251 C 
ATOM     30  H   UNL A   1      31.730  34.615  27.192  1.00  0.00     0.163 HD
ATOM     31  O   UNL A   1      32.752  36.023  28.820  1.00  0.00    -0.269 OA
BRANCH  29  32
ATOM     32  C   UNL A   1      34.297  34.329  29.335  1.00  0.00     0.039 A 
ATOM     33  C   UNL A   1      34.037  33.590  30.495  1.00  0.00     0.014 A 
ATOM     34  C   UNL A   1      35.620  34.551  28.948  1.00  0.00     0.014 A 
ATOM     35  C   UNL A   1      35.089  33.018  31.219  1.00  0.00     0.010 A 
ATOM     36  C   UNL A   1      36.666  33.921  29.629  1.00  0.00     0.010 A 
ATOM     37  C   UNL A   1      36.414  33.150  30.775  1.00  0.00    -0.014 A 
BRANCH  37  38
ATOM     38  C   UNL A   1      37.534  32.477  31.488  1.00  0.00     0.031 A 
ATOM     39  C   UNL A   1      38.274  31.329  30.853  1.00  0.00     0.074 A 
ATOM     40  C   UNL A   1      37.843  32.852  32.746  1.00  0.00     0.049 A 
ATOM     41  N   UNL A   1      39.264  30.620  31.335  1.00  0.00    -0.248 NA
ATOM     42  C   UNL A   1      37.830  30.903  29.517  1.00  0.00     0.031 C 
ATOM     43  C   UNL A   1      37.147  33.883  33.516  1.00  0.00     0.029 A 
ATOM     44  N   UNL A   1      38.810  32.392  33.607  1.00  0.00    -0.354 N 
ATOM     45  C   UNL A   1      39.535  29.645  30.382  1.00  0.00     0.074 A 
ATOM     46  C   UNL A   1      38.586  29.834  29.306  1.00  0.00     0.031 C 
ATOM     47  C   UNL A   1      37.713  33.984  34.730  1.00  0.00     0.029 A 
ATOM     48  C   UNL A   1      38.804  33.019  34.831  1.00  0.00     0.049 A 
ATOM     49  H   UNL A   1      39.447  31.680  33.370  1.00  0.00     0.167 HD
ATOM     50  C   UNL A   1      40.506  28.700  30.381  1.00  0.00     0.034 A 
ATOM     51  C   UNL A   1      39.594  32.848  35.910  1.00  0.00     0.034 A 
ATOM     52  C   UNL A   1      41.494  28.551  31.414  1.00  0.00     0.049 A 
ATOM     53  C   UNL A   1      40.723  31.856  35.846  1.00  0.00     0.074 A 
ATOM     54  C   UNL A   1      42.576  27.688  31.456  1.00  0.00     0.029 A 
ATOM     55  N   UNL A   1      41.528  29.287  32.588  1.00  0.00    -0.354 N 
ATOM     56  N   UNL A   1      41.072  31.067  34.859  1.00  0.00    -0.248 NA
ATOM     57  C   UNL A   1      41.596  31.763  37.026  1.00  0.00     0.031 C 
ATOM     58  C   UNL A   1      43.266  27.906  32.654  1.00  0.00     0.029 A 
ATOM     59  C   UNL A   1      42.612  28.904  33.359  1.00  0.00     0.049 A 
ATOM     60  H   UNL A   1      40.875  29.981  32.838  1.00  0.00     0.167 HD
ATOM     61  C   UNL A   1      42.218  30.406  35.287  1.00  0.00     0.074 A 
ATOM     62  C   UNL A   1      42.521  30.907  36.612  1.00  0.00     0.031 C 
ATOM     63  C   UNL A   1      42.941  29.453  34.648  1.00  0.00     0.034 A 
BRANCH  50  64
ATOM     64  C   UNL A   1      40.597  27.800  29.176  1.00  0.00     0.023 A 
ATOM     65  C   UNL A   1      39.753  26.674  29.098  1.00  0.00     0.012 A 
ATOM     66  C   UNL A   1      41.468  28.087  28.108  1.00  0.00     0.148 A 
ATOM     67  C   UNL A   1      39.795  25.829  27.991  1.00  0.00     0.002 A 
ATOM     68  C   UNL A   1      41.479  27.259  26.990  1.00  0.00     0.091 A 
ATOM     69  F   UNL A   1      42.283  29.147  28.210  1.00  0.00    -0.205 F 
ATOM     70  C   UNL A   1      40.651  26.126  26.934  1.00  0.00     0.022 A 
BRANCH  68  71
ATOM     71  S   UNL A   1      42.501  27.604  25.552  1.00  0.00     0.127 S 
ATOM     72  O   UNL A   1      43.838  27.634  26.140  1.00  0.00    -0.237 OA
ATOM     73  O   UNL A   1      42.237  26.446  24.695  1.00  0.00    -0.237 OA
ATOM     74  O   UNL A   1      42.014  28.869  25.019  1.00  0.00    -0.744 OA
ENDBRANCH  68  71
ENDBRANCH  50  64
BRANCH  51  75
ATOM     75  C   UNL A   1      39.409  33.717  37.107  1.00  0.00     0.023 A 
ATOM     76  C   UNL A   1      39.847  35.054  37.054  1.00  0.00     0.012 A 
ATOM     77  C   UNL A   1      38.771  33.249  38.271  1.00  0.00     0.148 A 
ATOM     78  C   UNL A   1      39.677  35.904  38.147  1.00  0.00     0.002 A 
ATOM     79  C   UNL A   1      38.561  34.114  39.340  1.00  0.00     0.091 A 
ATOM     80  F   UNL A   1      38.378  31.968  38.312  1.00  0.00    -0.205 F 
ATOM     81  C   UNL A   1      39.025  35.438  39.286  1.00  0.00     0.022 A 
BRANCH  79  82
ATOM     82  S   UNL A   1      37.611  33.625  40.785  1.00  0.00     0.127 S 
ATOM     83  O   UNL A   1      38.504  32.658  41.417  1.00  0.00    -0.237 OA
ATOM     84  O   UNL A   1      37.465  34.891  41.504  1.00  0.00    -0.237 OA
ATOM     85  O   UNL A   1      36.361  33.095  40.258  1.00  0.00    -0.744 OA
ENDBRANCH  79  82
ENDBRANCH  51  75
BRANCH  63  86
ATOM     86  C   UNL A   1      44.142  28.895  35.363  1.00  0.00     0.023 A 
ATOM     87  C   UNL A   1      45.406  29.480  35.151  1.00  0.00     0.012 A 
ATOM     88  C   UNL A   1      44.015  27.840  36.287  1.00  0.00     0.148 A 
ATOM     89  C   UNL A   1      46.529  29.006  35.828  1.00  0.00     0.002 A 
ATOM     90  C   UNL A   1      45.133  27.399  36.988  1.00  0.00     0.091 A 
ATOM     91  F   UNL A   1      42.811  27.275  36.461  1.00  0.00    -0.205 F 
ATOM     92  C   UNL A   1      46.392  27.975  36.754  1.00  0.00     0.022 A 
BRANCH  90  93
ATOM     93  S   UNL A   1      45.005  26.131  38.254  1.00  0.00     0.127 S 
ATOM     94  O   UNL A   1      44.559  24.975  37.480  1.00  0.00    -0.237 OA
ATOM     95  O   UNL A   1      46.378  26.034  38.754  1.00  0.00    -0.237 OA
ATOM     96  O   UNL A   1      44.055  26.655  39.226  1.00  0.00    -0.744 OA
ENDBRANCH  90  93
ENDBRANCH  63  86
ENDBRANCH  37  38
ENDBRANCH  29  32
ENDBRANCH  27  28
ENDBRANCH   1  27
TORSDOF 17
ENDMDL
MODEL 2
REMARK VINA RESULT:     -12.1      5.532      8.935
REMARK SMILES C[C@]12CCC(=O)N1[C@@H](C(=O)N1C[C@H](O)C[C@@H]1C(=O)NCCCCNC(=O)c1ccc(-c3c4nc(c(-c5cccc(S(=O)(=O)[O-])c5F)c5ccc([nH]5)c(-c5cccc(S(=O)(=O)[O-])c5F)c5nc(c(-c6cccc(S(=O)(=O)[O-])c6F)c6ccc3[nH]6)C=C5)C=C4)cc1)CS2
REMARK SMILES IDX 22 1 21 2 20 3 19 4 17 5 18 6 16 8 11 9 12 10 13 11 15 12
REMARK SMILES IDX 9 13 10 14 8 15 1 16 2 17 3 18 7 19 91 20 4 21 5 22 90 23
REMARK SMILES IDX 6 24 14 25 23 27 24 28 25 29 26 31 27 32 28 33 89 34 29 35
REMARK SMILES IDX 88 36 30 37 31 38 32 39 82 40 33 41 87 42 81 43 83 44 34 45
REMARK SMILES IDX 86 46 80 47 79 48 35 50 67 51 47 52 66 53 48 54 51 55 65 56
REMARK SMILES IDX 84 57 49 58 50 59 64 61 85 62 52 63 36 64 37 65 45 66 38 67
REMARK SMILES IDX 40 68 46 69 39 70 41 71 42 72 43 73 44 74 68 75 69 76 77 77
REMARK SMILES IDX 70 78 72 79 78 80 71 81 73 82 74 83 75 84 76 85 53 86 54 87
REMARK SMILES IDX 62 88 55 89 57 90 63 91 56 92 58 93 59 94 60 95 61 96
REMARK H PARENT 19 7 14 26 24 30 83 49 51 60
REMARK Flexibility Score: inf
ROOT
ATOM      1  C   UNL A   1      36.096  21.716  24.163  1.00  0.00     0.023 C 
ENDROOT
BRANCH   1   2
ATOM      2  C   UNL A   1      36.251  23.010  23.363  1.00  0.00     0.023 C 
BRANCH   2   3
ATOM      3  C   UNL A   1      35.047  23.948  23.291  1.00  0.00     0.116 C 
BRANCH   3   4
ATOM      4  N   UNL A   1      34.688  24.576  24.546  1.00  0.00    -0.354 N 
ATOM      5  C   UNL A   1      33.533  24.464  25.267  1.00  0.00     0.242 C 
ATOM      6  O   UNL A   1      33.556  24.855  26.439  1.00  0.00    -0.273 OA
ATOM      7  H   UNL A   1      35.374  25.167  24.935  1.00  0.00     0.163 HD
BRANCH   5   8
ATOM      8  C   UNL A   1      32.222  23.956  24.611  1.00  0.00     0.177 C 
ATOM      9  N   UNL A   1      31.046  24.437  25.373  1.00  0.00    -0.326 N 
ATOM     10  C   UNL A   1      30.465  23.358  26.164  1.00  0.00     0.152 C 
ATOM     11  C   UNL A   1      31.440  22.196  26.039  1.00  0.00     0.136 C 
ATOM     12  C   UNL A   1      32.096  22.430  24.685  1.00  0.00     0.069 C 
BRANCH   9  13
ATOM     13  C   UNL A   1      30.353  25.629  25.321  1.00  0.00     0.247 C 
ATOM     14  O   UNL A   1      29.200  25.694  25.772  1.00  0.00    -0.272 OA
BRANCH  13  15
ATOM     15  C   UNL A   1      30.897  26.852  24.552  1.00  0.00     0.186 C 
ATOM     16  C   UNL A   1      33.206  28.802  23.601  1.00  0.00     0.047 C 
ATOM     17  C   UNL A   1      32.076  28.994  24.613  1.00  0.00     0.087 C 
ATOM     18  C   UNL A   1      32.465  29.995  25.694  1.00  0.00     0.049 C 
ATOM     19  N   UNL A   1      31.736  27.787  25.320  1.00  0.00    -0.315 N 
ATOM     20  S   UNL A   1      30.532  29.400  23.731  1.00  0.00    -0.131 SA
ATOM     21  C   UNL A   1      31.890  29.438  26.983  1.00  0.00     0.103 C 
ATOM     22  C   UNL A   1      31.647  27.986  26.685  1.00  0.00     0.224 C 
ATOM     23  C   UNL A   1      29.952  27.661  23.665  1.00  0.00     0.107 C 
ATOM     24  O   UNL A   1      31.328  27.176  27.541  1.00  0.00    -0.275 OA
ENDBRANCH  13  15
ENDBRANCH   9  13
BRANCH  11  25
ATOM     25  O   UNL A   1      32.433  22.225  27.061  1.00  0.00    -0.391 OA
ATOM     26  H   UNL A   1      32.684  23.144  27.243  1.00  0.00     0.211 HD
ENDBRANCH  11  25
ENDBRANCH   5   8
ENDBRANCH   3   4
ENDBRANCH   2   3
ENDBRANCH   1   2
BRANCH   1  27
ATOM     27  C   UNL A   1      36.708  21.671  25.560  1.00  0.00     0.116 C 
BRANCH  27  28
ATOM     28  N   UNL A   1      37.807  20.730  25.694  1.00  0.00    -0.352 N 
ATOM     29  C   UNL A   1      39.109  20.923  26.095  1.00  0.00     0.251 C 
ATOM     30  H   UNL A   1      37.583  19.801  25.457  1.00  0.00     0.163 HD
ATOM     31  O   UNL A   1      39.880  19.966  26.067  1.00  0.00    -0.269 OA
BRANCH  29  32
ATOM     32  C   UNL A   1      39.611  22.256  26.520  1.00  0.00     0.039 A 
ATOM     33  C   UNL A   1      40.613  22.303  27.496  1.00  0.00     0.014 A 
ATOM     34  C   UNL A   1      39.097  23.449  26.010  1.00  0.00     0.014 A 
ATOM     35  C   UNL A   1      41.145  23.531  27.903  1.00  0.00     0.010 A 
ATOM     36  C   UNL A   1      39.677  24.671  26.363  1.00  0.00     0.010 A 
ATOM     37  C   UNL A   1      40.706  24.728  27.316  1.00  0.00    -0.014 A 
BRANCH  37  38
ATOM     38  C   UNL A   1      41.321  26.034  27.679  1.00  0.00     0.031 A 
ATOM     39  C   UNL A   1      42.742  26.351  27.292  1.00  0.00     0.074 A 
ATOM     40  C   UNL A   1      40.624  26.914  28.425  1.00  0.00     0.049 A 
ATOM     41  N   UNL A   1      43.441  27.431  27.537  1.00  0.00    -0.248 NA
ATOM     42  C   UNL A   1      43.484  25.312  26.561  1.00  0.00     0.031 C 
ATOM     43  C   UNL A   1      39.275  26.697  28.949  1.00  0.00     0.029 A 
ATOM     44  N   UNL A   1      40.963  28.162  28.892  1.00  0.00    -0.354 N 
ATOM     45  C   UNL A   1      44.711  27.189  27.026  1.00  0.00     0.074 A 
ATOM     46  C   UNL A   1      44.695  25.848  26.482  1.00  0.00     0.031 C 
ATOM     47  C   UNL A   1      38.897  27.775  29.656  1.00  0.00     0.029 A 
ATOM     48  C   UNL A   1      39.979  28.756  29.647  1.00  0.00     0.049 A 
ATOM     49  H   UNL A   1      41.829  28.589  28.703  1.00  0.00     0.167 HD
ATOM     50  C   UNL A   1      45.783  28.016  26.977  1.00  0.00     0.034 A 
ATOM     51  C   UNL A   1      39.943  29.959  30.254  1.00  0.00     0.034 A 
ATOM     52  C   UNL A   1      45.783  29.372  27.453  1.00  0.00     0.049 A 
ATOM     53  C   UNL A   1      41.112  30.893  30.105  1.00  0.00     0.074 A 
ATOM     54  C   UNL A   1      46.788  30.319  27.360  1.00  0.00     0.029 A 
ATOM     55  N   UNL A   1      44.724  29.980  28.108  1.00  0.00    -0.354 N 
ATOM     56  N   UNL A   1      42.239  30.709  29.459  1.00  0.00    -0.248 NA
ATOM     57  C   UNL A   1      40.989  32.220  30.728  1.00  0.00     0.031 C 
ATOM     58  C   UNL A   1      46.335  31.502  27.955  1.00  0.00     0.029 A 
ATOM     59  C   UNL A   1      45.047  31.290  28.420  1.00  0.00     0.049 A 
ATOM     60  H   UNL A   1      43.866  29.545  28.320  1.00  0.00     0.167 HD
ATOM     61  C   UNL A   1      42.943  31.902  29.574  1.00  0.00     0.074 A 
ATOM     62  C   UNL A   1      42.106  32.813  30.328  1.00  0.00     0.031 C 
ATOM     63  C   UNL A   1      44.182  32.207  29.115  1.00  0.00     0.034 A 
BRANCH  50  64
ATOM     64  C   UNL A   1      47.029  27.498  26.307  1.00  0.00     0.023 A 
ATOM     65  C   UNL A   1      47.249  27.799  24.948  1.00  0.00     0.012 A 
ATOM     66  C   UNL A   1      47.997  26.767  27.020  1.00  0.00     0.148 A 
ATOM     67  C   UNL A   1      48.399  27.353  24.298  1.00  0.00     0.002 A 
ATOM     68  C   UNL A   1      49.159  26.355  26.374  1.00  0.00     0.091 A 
ATOM     69  F   UNL A   1      47.760  26.467  28.305  1.00  0.00    -0.205 F 
ATOM     70  C   UNL A   1      49.357  26.640  25.013  1.00  0.00     0.022 A 
BRANCH  68  71
ATOM     71  S   UNL A   1      50.479  25.491  27.235  1.00  0.00     0.127 S 
ATOM     72  O   UNL A   1      51.465  25.320  26.170  1.00  0.00    -0.237 OA
ATOM     73  O   UNL A   1      50.861  26.452  28.270  1.00  0.00    -0.237 OA
ATOM     74  O   UNL A   1      49.878  24.266  27.745  1.00  0.00    -0.744 OA
ENDBRANCH  68  71
ENDBRANCH  50  64
BRANCH  51  75
ATOM     75  C   UNL A   1      38.709  30.390  30.969  1.00  0.00     0.023 A 
ATOM     76  C   UNL A   1      38.607  30.158  32.355  1.00  0.00     0.012 A 
ATOM     77  C   UNL A   1      37.663  31.059  30.306  1.00  0.00     0.148 A 
ATOM     78  C   UNL A   1      37.474  30.561  33.063  1.00  0.00     0.002 A 
ATOM     79  C   UNL A   1      36.559  31.502  31.026  1.00  0.00     0.091 A 
ATOM     80  F   UNL A   1      37.768  31.254  28.984  1.00  0.00    -0.205 F 
ATOM     81  C   UNL A   1      36.456  31.242  32.402  1.00  0.00     0.022 A 
BRANCH  79  82
ATOM     82  S   UNL A   1      35.272  32.502  30.270  1.00  0.00     0.127 S 
ATOM     83  O   UNL A   1      34.324  32.652  31.371  1.00  0.00    -0.237 OA
ATOM     84  O   UNL A   1      35.996  33.722  29.910  1.00  0.00    -0.237 OA
ATOM     85  O   UNL A   1      34.809  31.728  29.126  1.00  0.00    -0.744 OA
ENDBRANCH  79  82
ENDBRANCH  51  75
BRANCH  63  86
ATOM     86  C   UNL A   1      44.709  33.588  29.401  1.00  0.00     0.023 A 
ATOM     87  C   UNL A   1      45.364  33.838  30.623  1.00  0.00     0.012 A 
ATOM     88  C   UNL A   1      44.616  34.616  28.443  1.00  0.00     0.148 A 
ATOM     89  C   UNL A   1      45.894  35.099  30.898  1.00  0.00     0.002 A 
ATOM     90  C   UNL A   1      45.181  35.860  28.710  1.00  0.00     0.091 A 
ATOM     91  F   UNL A   1      43.968  34.372  27.295  1.00  0.00    -0.205 F 
ATOM     92  C   UNL A   1      45.813  36.105  29.939  1.00  0.00     0.022 A 
BRANCH  90  93
ATOM     93  S   UNL A   1      45.183  37.170  27.481  1.00  0.00     0.127 S 
ATOM     94  O   UNL A   1      43.754  37.386  27.266  1.00  0.00    -0.237 OA
ATOM     95  O   UNL A   1      45.865  38.264  28.177  1.00  0.00    -0.237 OA
ATOM     96  O   UNL A   1      45.925  36.633  26.349  1.00  0.00    -0.744 OA
ENDBRANCH  90  93
ENDBRANCH  63  86
ENDBRANCH  37  38
ENDBRANCH  29  32
ENDBRANCH  27  28
ENDBRANCH   1  27
TORSDOF 17
ENDMDL
MODEL 3
REMARK VINA RESULT:     -12.0      5.802     11.824
REMARK SMILES C[C@]12CCC(=O)N1[C@@H](C(=O)N1C[C@H](O)C[C@@H]1C(=O)NCCCCNC(=O)c1ccc(-c3c4nc(c(-c5cccc(S(=O)(=O)[O-])c5F)c5ccc([nH]5)c(-c5cccc(S(=O)(=O)[O-])c5F)c5nc(c(-c6cccc(S(=O)(=O)[O-])c6F)c6ccc3[nH]6)C=C5)C=C4)cc1)CS2
REMARK SMILES IDX 22 1 21 2 20 3 19 4 17 5 18 6 16 8 11 9 12 10 13 11 15 12
REMARK SMILES IDX 9 13 10 14 8 15 1 16 2 17 3 18 7 19 91 20 4 21 5 22 90 23
REMARK SMILES IDX 6 24 14 25 23 27 24 28 25 29 26 31 27 32 28 33 89 34 29 35
REMARK SMILES IDX 88 36 30 37 31 38 32 39 82 40 33 41 87 42 81 43 83 44 34 45
REMARK SMILES IDX 86 46 80 47 79 48 35 50 67 51 47 52 66 53 48 54 51 55 65 56
REMARK SMILES IDX 84 57 49 58 50 59 64 61 85 62 52 63 36 64 37 65 45 66 38 67
REMARK SMILES IDX 40 68 46 69 39 70 41 71 42 72 43 73 44 74 68 75 69 76 77 77
REMARK SMILES IDX 70 78 72 79 78 80 71 81 73 82 74 83 75 84 76 85 53 86 54 87
REMARK SMILES IDX 62 88 55 89 57 90 63 91 56 92 58 93 59 94 60 95 61 96
REMARK H PARENT 19 7 14 26 24 30 83 49 51 60
REMARK Flexibility Score: inf
ROOT
ATOM      1  C   UNL A   1      38.000  19.670  24.940  1.00  0.00     0.023 C 
ENDROOT
BRANCH   1   2
ATOM      2  C   UNL A   1      36.821  20.625  24.750  1.00  0.00     0.023 C 
BRANCH   2   3
ATOM      3  C   UNL A   1      36.827  21.927  25.550  1.00  0.00     0.116 C 
BRANCH   3   4
ATOM      4  N   UNL A   1      35.878  21.973  26.645  1.00  0.00    -0.354 N 
ATOM      5  C   UNL A   1      34.513  21.944  26.604  1.00  0.00     0.242 C 
ATOM      6  O   UNL A   1      33.919  21.704  27.661  1.00  0.00    -0.273 OA
ATOM      7  H   UNL A   1      36.273  22.033  27.545  1.00  0.00     0.163 HD
BRANCH   5   8
ATOM      8  C   UNL A   1      33.740  22.293  25.305  1.00  0.00     0.177 C 
ATOM      9  N   UNL A   1      32.355  22.709  25.628  1.00  0.00    -0.326 N 
ATOM     10  C   UNL A   1      31.406  21.651  25.299  1.00  0.00     0.152 C 
ATOM     11  C   UNL A   1      32.258  20.444  24.934  1.00  0.00     0.136 C 
ATOM     12  C   UNL A   1      33.544  21.067  24.406  1.00  0.00     0.069 C 
BRANCH   9  13
ATOM     13  C   UNL A   1      31.837  23.931  26.005  1.00  0.00     0.247 C 
ATOM     14  O   UNL A   1      31.600  24.159  27.201  1.00  0.00    -0.272 OA
BRANCH  13  15
ATOM     15  C   UNL A   1      31.366  24.970  24.965  1.00  0.00     0.186 C 
ATOM     16  C   UNL A   1      31.529  26.455  22.171  1.00  0.00     0.047 C 
ATOM     17  C   UNL A   1      31.893  26.918  23.582  1.00  0.00     0.087 C 
ATOM     18  C   UNL A   1      32.995  27.969  23.554  1.00  0.00     0.049 C 
ATOM     19  N   UNL A   1      32.403  25.858  24.413  1.00  0.00    -0.315 N 
ATOM     20  S   UNL A   1      30.381  27.435  24.461  1.00  0.00    -0.131 SA
ATOM     21  C   UNL A   1      33.888  27.648  24.737  1.00  0.00     0.103 C 
ATOM     22  C   UNL A   1      33.562  26.221  25.073  1.00  0.00     0.224 C 
ATOM     23  C   UNL A   1      30.114  25.799  25.247  1.00  0.00     0.107 C 
ATOM     24  O   UNL A   1      34.199  25.565  25.882  1.00  0.00    -0.275 OA
ENDBRANCH  13  15
ENDBRANCH   9  13
BRANCH  11  25
ATOM     25  O   UNL A   1      32.552  19.638  26.073  1.00  0.00    -0.391 OA
ATOM     26  H   UNL A   1      31.941  19.860  26.793  1.00  0.00     0.211 HD
ENDBRANCH  11  25
ENDBRANCH   5   8
ENDBRANCH   3   4
ENDBRANCH   2   3
ENDBRANCH   1   2
BRANCH   1  27
ATOM     27  C   UNL A   1      39.188  20.168  25.758  1.00  0.00     0.116 C 
BRANCH  27  28
ATOM     28  N   UNL A   1      40.263  19.200  25.887  1.00  0.00    -0.352 N 
ATOM     29  C   UNL A   1      41.598  19.374  26.172  1.00  0.00     0.251 C 
ATOM     30  H   UNL A   1      39.992  18.263  25.747  1.00  0.00     0.163 HD
ATOM     31  O   UNL A   1      42.334  18.389  26.167  1.00  0.00    -0.269 OA
BRANCH  29  32
ATOM     32  C   UNL A   1      42.174  20.717  26.445  1.00  0.00     0.039 A 
ATOM     33  C   UNL A   1      42.427  21.561  25.357  1.00  0.00     0.014 A 
ATOM     34  C   UNL A   1      42.499  21.147  27.733  1.00  0.00     0.014 A 
ATOM     35  C   UNL A   1      42.934  22.848  25.564  1.00  0.00     0.010 A 
ATOM     36  C   UNL A   1      42.936  22.458  27.946  1.00  0.00     0.010 A 
ATOM     37  C   UNL A   1      43.162  23.323  26.865  1.00  0.00    -0.014 A 
BRANCH  37  38
ATOM     38  C   UNL A   1      43.621  24.719  27.104  1.00  0.00     0.031 A 
ATOM     39  C   UNL A   1      42.674  25.762  27.636  1.00  0.00     0.074 A 
ATOM     40  C   UNL A   1      44.880  25.072  26.772  1.00  0.00     0.049 A 
ATOM     41  N   UNL A   1      42.900  27.027  27.890  1.00  0.00    -0.248 NA
ATOM     42  C   UNL A   1      41.288  25.340  27.889  1.00  0.00     0.031 C 
ATOM     43  C   UNL A   1      45.873  24.188  26.161  1.00  0.00     0.029 A 
ATOM     44  N   UNL A   1      45.533  26.276  26.884  1.00  0.00    -0.354 N 
ATOM     45  C   UNL A   1      41.682  27.559  28.296  1.00  0.00     0.074 A 
ATOM     46  C   UNL A   1      40.712  26.486  28.226  1.00  0.00     0.031 C 
ATOM     47  C   UNL A   1      47.010  24.875  25.958  1.00  0.00     0.029 A 
ATOM     48  C   UNL A   1      46.826  26.249  26.414  1.00  0.00     0.049 A 
ATOM     49  H   UNL A   1      45.115  27.082  27.264  1.00  0.00     0.167 HD
ATOM     50  C   UNL A   1      41.398  28.813  28.723  1.00  0.00     0.034 A 
ATOM     51  C   UNL A   1      47.763  27.217  26.367  1.00  0.00     0.034 A 
ATOM     52  C   UNL A   1      42.371  29.862  28.860  1.00  0.00     0.049 A 
ATOM     53  C   UNL A   1      47.450  28.574  26.934  1.00  0.00     0.074 A 
ATOM     54  C   UNL A   1      42.199  31.135  29.376  1.00  0.00     0.029 A 
ATOM     55  N   UNL A   1      43.701  29.761  28.485  1.00  0.00    -0.354 N 
ATOM     56  N   UNL A   1      46.337  29.003  27.481  1.00  0.00    -0.248 NA
ATOM     57  C   UNL A   1      48.533  29.569  26.921  1.00  0.00     0.031 C 
ATOM     58  C   UNL A   1      43.428  31.802  29.317  1.00  0.00     0.029 A 
ATOM     59  C   UNL A   1      44.364  30.944  28.762  1.00  0.00     0.049 A 
ATOM     60  H   UNL A   1      44.114  28.964  28.081  1.00  0.00     0.167 HD
ATOM     61  C   UNL A   1      46.595  30.303  27.901  1.00  0.00     0.074 A 
ATOM     62  C   UNL A   1      47.977  30.583  27.570  1.00  0.00     0.031 C 
ATOM     63  C   UNL A   1      45.755  31.191  28.487  1.00  0.00     0.034 A 
BRANCH  50  64
ATOM     64  C   UNL A   1      39.983  29.095  29.156  1.00  0.00     0.023 A 
ATOM     65  C   UNL A   1      38.995  29.302  28.171  1.00  0.00     0.012 A 
ATOM     66  C   UNL A   1      39.618  29.106  30.515  1.00  0.00     0.148 A 
ATOM     67  C   UNL A   1      37.672  29.547  28.532  1.00  0.00     0.002 A 
ATOM     68  C   UNL A   1      38.288  29.317  30.866  1.00  0.00     0.091 A 
ATOM     69  F   UNL A   1      40.574  28.934  31.439  1.00  0.00    -0.205 F 
ATOM     70  C   UNL A   1      37.317  29.545  29.878  1.00  0.00     0.022 A 
BRANCH  68  71
ATOM     71  S   UNL A   1      37.728  29.264  32.573  1.00  0.00     0.127 S 
ATOM     72  O   UNL A   1      36.370  29.790  32.457  1.00  0.00    -0.237 OA
ATOM     73  O   UNL A   1      37.803  27.835  32.883  1.00  0.00    -0.237 OA
ATOM     74  O   UNL A   1      38.667  30.090  33.320  1.00  0.00    -0.744 OA
ENDBRANCH  68  71
ENDBRANCH  50  64
BRANCH  51  75
ATOM     75  C   UNL A   1      49.127  26.900  25.857  1.00  0.00     0.023 A 
ATOM     76  C   UNL A   1      50.002  26.151  26.668  1.00  0.00     0.012 A 
ATOM     77  C   UNL A   1      49.548  27.293  24.572  1.00  0.00     0.148 A 
ATOM     78  C   UNL A   1      51.281  25.821  26.220  1.00  0.00     0.002 A 
ATOM     79  C   UNL A   1      50.806  26.918  24.112  1.00  0.00     0.091 A 
ATOM     80  F   UNL A   1      48.710  28.022  23.822  1.00  0.00    -0.205 F 
ATOM     81  C   UNL A   1      51.679  26.194  24.939  1.00  0.00     0.022 A 
BRANCH  79  82
ATOM     82  S   UNL A   1      51.337  27.246  22.427  1.00  0.00     0.127 S 
ATOM     83  O   UNL A   1      52.580  26.484  22.351  1.00  0.00    -0.237 OA
ATOM     84  O   UNL A   1      50.230  26.701  21.640  1.00  0.00    -0.237 OA
ATOM     85  O   UNL A   1      51.466  28.695  22.343  1.00  0.00    -0.744 OA
ENDBRANCH  79  82
ENDBRANCH  51  75
BRANCH  63  86
ATOM     86  C   UNL A   1      46.307  32.551  28.825  1.00  0.00     0.023 A 
ATOM     87  C   UNL A   1      47.032  32.724  30.020  1.00  0.00     0.012 A 
ATOM     88  C   UNL A   1      46.165  33.636  27.939  1.00  0.00     0.148 A 
ATOM     89  C   UNL A   1      47.585  33.964  30.340  1.00  0.00     0.002 A 
ATOM     90  C   UNL A   1      46.752  34.859  28.247  1.00  0.00     0.091 A 
ATOM     91  F   UNL A   1      45.449  33.464  26.817  1.00  0.00    -0.205 F 
ATOM     92  C   UNL A   1      47.456  35.027  29.450  1.00  0.00     0.022 A 
BRANCH  90  93
ATOM     93  S   UNL A   1      46.691  36.242  27.102  1.00  0.00     0.127 S 
ATOM     94  O   UNL A   1      47.472  37.255  27.809  1.00  0.00    -0.237 OA
ATOM     95  O   UNL A   1      47.340  35.701  25.906  1.00  0.00    -0.237 OA
ATOM     96  O   UNL A   1      45.274  36.533  26.929  1.00  0.00    -0.744 OA
ENDBRANCH  90  93
ENDBRANCH  63  86
ENDBRANCH  37  38
ENDBRANCH  29  32
ENDBRANCH  27  28
ENDBRANCH   1  27
TORSDOF 17
ENDMDL
