MODEL 1
REMARK VINA RESULT:     -12.7      0.000      0.000
REMARK SMILES C[C@@H]1CC[C@H](C)[N@H+]1Cc1cc2c(cc1Cl)C=C(C(=O)NCCCCNC(=O)c1ccc(-c3c4nc(c(-c5cccc(S(=O)(=O)[O-])c5F)c5ccc([nH]5)c(-c5cccc(S(=O)(=O)[O-])c5F)c5nc(c(-c6cccc(S(=O)(=O)[O-])c6F)c6ccc3[nH]6)C=C5)C=C4)cc1)[C@@H](C(F)(F)F)O2
REMARK SMILES IDX 23 1 22 2 21 3 20 4 18 5 19 6 17 8 9 9 10 10 14 11 11 12
REMARK SMILES IDX 13 13 15 14 12 15 96 16 16 17 91 18 8 19 7 20 6 21 5 22 4 23
REMARK SMILES IDX 3 24 2 25 1 27 92 28 93 29 94 30 95 31 24 32 25 33 26 34
REMARK SMILES IDX 27 36 28 37 29 38 90 39 30 40 89 41 31 42 32 43 33 44 83 45
REMARK SMILES IDX 34 46 88 47 82 48 84 49 35 50 87 51 81 52 80 53 36 55 68 56
REMARK SMILES IDX 48 57 67 58 49 59 52 60 66 61 85 62 50 63 51 64 65 66 86 67
REMARK SMILES IDX 53 68 37 69 38 70 46 71 39 72 41 73 47 74 40 75 42 76 43 77
REMARK SMILES IDX 44 78 45 79 69 80 70 81 78 82 71 83 73 84 79 85 72 86 74 87
REMARK SMILES IDX 75 88 76 89 77 90 54 91 55 92 63 93 56 94 58 95 64 96 57 97
REMARK SMILES IDX 59 98 60 99 61 100 62 101
REMARK H PARENT 20 7 7 26 25 35 84 54 52 65
REMARK Flexibility Score: inf
ROOT
ATOM      1  C   UNL A   1      31.412  32.055  26.920  1.00  0.00     0.023 C 
ENDROOT
BRANCH   1   2
ATOM      2  C   UNL A   1      31.798  30.575  26.877  1.00  0.00     0.023 C 
BRANCH   2   3
ATOM      3  C   UNL A   1      32.260  30.087  25.507  1.00  0.00     0.116 C 
BRANCH   3   4
ATOM      4  N   UNL A   1      31.150  29.945  24.582  1.00  0.00    -0.352 N 
ATOM      5  C   UNL A   1      30.577  28.941  23.881  1.00  0.00     0.251 C 
ATOM      6  O   UNL A   1      29.603  29.262  23.192  1.00  0.00    -0.270 OA
ATOM      7  H   UNL A   1      30.695  30.805  24.425  1.00  0.00     0.163 HD
BRANCH   5   8
ATOM      8  C   UNL A   1      31.038  27.523  23.878  1.00  0.00     0.067 C 
ATOM      9  C   UNL A   1      31.853  22.693  25.122  1.00  0.00     0.029 A 
ATOM     10  C   UNL A   1      31.691  23.393  23.911  1.00  0.00     0.058 A 
ATOM     11  C   UNL A   1      31.876  23.441  26.313  1.00  0.00     0.050 A 
ATOM     12  C   UNL A   1      31.455  24.763  23.906  1.00  0.00     0.128 A 
ATOM     13  C   UNL A   1      31.580  24.811  26.305  1.00  0.00     0.033 A 
ATOM     14  Cl  UNL A   1      32.324  22.757  27.837  1.00  0.00    -0.084 Cl
ATOM     15  C   UNL A   1      31.341  25.470  25.101  1.00  0.00     0.019 A 
ATOM     16  O   UNL A   1      31.302  25.366  22.688  1.00  0.00    -0.475 OA
ATOM     17  C   UNL A   1      30.940  26.870  25.053  1.00  0.00     0.025 C 
ATOM     18  C   UNL A   1      31.594  26.797  22.686  1.00  0.00     0.314 C 
BRANCH   9  19
ATOM     19  C   UNL A   1      31.949  21.179  25.062  1.00  0.00     0.301 C 
BRANCH  19  20
ATOM     20  N   UNL A   1      33.170  20.619  24.455  1.00  0.00    -0.327 N 
ATOM     21  C   UNL A   1      32.688  18.448  23.356  1.00  0.00     0.075 C 
ATOM     22  C   UNL A   1      33.345  19.160  24.529  1.00  0.00     0.181 C 
ATOM     23  C   UNL A   1      34.856  18.951  24.545  1.00  0.00     0.071 C 
ATOM     24  C   UNL A   1      35.344  20.156  25.319  1.00  0.00     0.071 C 
ATOM     25  C   UNL A   1      34.425  21.276  24.844  1.00  0.00     0.181 C 
ATOM     26  H   UNL A   1      32.976  20.840  23.479  1.00  0.00     0.348 HD
ATOM     27  C   UNL A   1      34.991  22.003  23.625  1.00  0.00     0.075 C 
ENDBRANCH  19  20
ENDBRANCH   9  19
BRANCH  18  28
ATOM     28  C   UNL A   1      33.111  27.030  22.520  1.00  0.00     0.429 C 
ATOM     29  F   UNL A   1      33.343  28.090  21.707  1.00  0.00    -0.167 F 
ATOM     30  F   UNL A   1      33.723  27.304  23.698  1.00  0.00    -0.167 F 
ATOM     31  F   UNL A   1      33.754  25.966  21.987  1.00  0.00    -0.167 F 
ENDBRANCH  18  28
ENDBRANCH   5   8
ENDBRANCH   3   4
ENDBRANCH   2   3
ENDBRANCH   1   2
BRANCH   1  32
ATOM     32  C   UNL A   1      32.581  33.036  26.874  1.00  0.00     0.116 C 
BRANCH  32  33
ATOM     33  N   UNL A   1      32.453  34.164  27.786  1.00  0.00    -0.352 N 
ATOM     34  C   UNL A   1      33.301  34.502  28.821  1.00  0.00     0.251 C 
ATOM     35  H   UNL A   1      31.676  34.751  27.649  1.00  0.00     0.163 HD
ATOM     36  O   UNL A   1      33.049  35.447  29.557  1.00  0.00    -0.269 OA
BRANCH  34  37
ATOM     37  C   UNL A   1      34.487  33.653  29.043  1.00  0.00     0.039 A 
ATOM     38  C   UNL A   1      34.347  32.426  29.692  1.00  0.00     0.014 A 
ATOM     39  C   UNL A   1      35.751  34.160  28.735  1.00  0.00     0.014 A 
ATOM     40  C   UNL A   1      35.475  31.792  30.195  1.00  0.00     0.010 A 
ATOM     41  C   UNL A   1      36.887  33.477  29.175  1.00  0.00     0.010 A 
ATOM     42  C   UNL A   1      36.756  32.324  29.963  1.00  0.00    -0.014 A 
BRANCH  42  43
ATOM     43  C   UNL A   1      37.935  31.664  30.578  1.00  0.00     0.031 A 
ATOM     44  C   UNL A   1      38.327  31.949  32.004  1.00  0.00     0.074 A 
ATOM     45  C   UNL A   1      38.623  30.757  29.858  1.00  0.00     0.049 A 
ATOM     46  N   UNL A   1      39.301  31.427  32.705  1.00  0.00    -0.248 NA
ATOM     47  C   UNL A   1      37.531  32.944  32.743  1.00  0.00     0.031 C 
ATOM     48  C   UNL A   1      38.348  30.410  28.463  1.00  0.00     0.029 A 
ATOM     49  N   UNL A   1      39.674  29.947  30.202  1.00  0.00    -0.354 N 
ATOM     50  C   UNL A   1      39.268  32.061  33.941  1.00  0.00     0.074 A 
ATOM     51  C   UNL A   1      38.172  33.005  33.904  1.00  0.00     0.031 C 
ATOM     52  C   UNL A   1      39.176  29.426  28.084  1.00  0.00     0.029 A 
ATOM     53  C   UNL A   1      40.071  29.106  29.190  1.00  0.00     0.049 A 
ATOM     54  H   UNL A   1      40.103  29.967  31.088  1.00  0.00     0.167 HD
ATOM     55  C   UNL A   1      40.064  31.860  35.016  1.00  0.00     0.034 A 
ATOM     56  C   UNL A   1      41.048  28.178  29.153  1.00  0.00     0.034 A 
ATOM     57  C   UNL A   1      41.107  30.872  35.079  1.00  0.00     0.049 A 
ATOM     58  C   UNL A   1      41.889  27.948  30.373  1.00  0.00     0.074 A 
ATOM     59  C   UNL A   1      41.928  30.561  36.148  1.00  0.00     0.029 A 
ATOM     60  N   UNL A   1      41.462  30.029  34.040  1.00  0.00    -0.354 N 
ATOM     61  N   UNL A   1      41.787  28.505  31.555  1.00  0.00    -0.248 NA
ATOM     62  C   UNL A   1      42.970  26.959  30.262  1.00  0.00     0.031 C 
ATOM     63  C   UNL A   1      42.780  29.525  35.756  1.00  0.00     0.029 A 
ATOM     64  C   UNL A   1      42.491  29.196  34.442  1.00  0.00     0.049 A 
ATOM     65  H   UNL A   1      41.047  30.023  33.147  1.00  0.00     0.167 HD
ATOM     66  C   UNL A   1      42.787  27.934  32.330  1.00  0.00     0.074 A 
ATOM     67  C   UNL A   1      43.468  26.967  31.493  1.00  0.00     0.031 C 
ATOM     68  C   UNL A   1      43.125  28.206  33.612  1.00  0.00     0.034 A 
BRANCH  55  69
ATOM     69  C   UNL A   1      39.816  32.679  36.252  1.00  0.00     0.023 A 
ATOM     70  C   UNL A   1      40.459  33.925  36.388  1.00  0.00     0.012 A 
ATOM     71  C   UNL A   1      38.862  32.279  37.207  1.00  0.00     0.148 A 
ATOM     72  C   UNL A   1      40.155  34.763  37.460  1.00  0.00     0.002 A 
ATOM     73  C   UNL A   1      38.546  33.130  38.259  1.00  0.00     0.091 A 
ATOM     74  F   UNL A   1      38.273  31.083  37.057  1.00  0.00    -0.205 F 
ATOM     75  C   UNL A   1      39.193  34.370  38.389  1.00  0.00     0.022 A 
BRANCH  73  76
ATOM     76  S   UNL A   1      37.286  32.746  39.481  1.00  0.00     0.127 S 
ATOM     77  O   UNL A   1      36.071  32.771  38.668  1.00  0.00    -0.237 OA
ATOM     78  O   UNL A   1      37.692  31.414  39.931  1.00  0.00    -0.237 OA
ATOM     79  O   UNL A   1      37.373  33.788  40.494  1.00  0.00    -0.744 OA
ENDBRANCH  73  76
ENDBRANCH  55  69
BRANCH  56  80
ATOM     80  C   UNL A   1      41.225  27.367  27.920  1.00  0.00     0.023 A 
ATOM     81  C   UNL A   1      41.872  27.939  26.808  1.00  0.00     0.012 A 
ATOM     82  C   UNL A   1      40.847  26.012  27.879  1.00  0.00     0.148 A 
ATOM     83  C   UNL A   1      42.138  27.173  25.674  1.00  0.00     0.002 A 
ATOM     84  C   UNL A   1      41.159  25.241  26.766  1.00  0.00     0.091 A 
ATOM     85  F   UNL A   1      40.220  25.496  28.947  1.00  0.00    -0.205 F 
ATOM     86  C   UNL A   1      41.796  25.822  25.659  1.00  0.00     0.022 A 
BRANCH  84  87
ATOM     87  S   UNL A   1      40.876  23.469  26.716  1.00  0.00     0.127 S 
ATOM     88  O   UNL A   1      41.279  23.065  28.062  1.00  0.00    -0.237 OA
ATOM     89  O   UNL A   1      39.438  23.398  26.456  1.00  0.00    -0.237 OA
ATOM     90  O   UNL A   1      41.707  22.969  25.629  1.00  0.00    -0.744 OA
ENDBRANCH  84  87
ENDBRANCH  56  80
BRANCH  68  91
ATOM     91  C   UNL A   1      44.286  27.462  34.207  1.00  0.00     0.023 A 
ATOM     92  C   UNL A   1      45.583  27.990  34.056  1.00  0.00     0.012 A 
ATOM     93  C   UNL A   1      44.083  26.329  35.016  1.00  0.00     0.148 A 
ATOM     94  C   UNL A   1      46.665  27.395  34.700  1.00  0.00     0.002 A 
ATOM     95  C   UNL A   1      45.162  25.758  35.678  1.00  0.00     0.091 A 
ATOM     96  F   UNL A   1      42.837  25.845  35.134  1.00  0.00    -0.205 F 
ATOM     97  C   UNL A   1      46.454  26.288  35.519  1.00  0.00     0.022 A 
BRANCH  95  98
ATOM     98  S   UNL A   1      44.984  24.375  36.810  1.00  0.00     0.127 S 
ATOM     99  O   UNL A   1      43.958  24.872  37.726  1.00  0.00    -0.237 OA
ATOM    100  O   UNL A   1      44.539  23.303  35.919  1.00  0.00    -0.237 OA
ATOM    101  O   UNL A   1      46.296  24.167  37.404  1.00  0.00    -0.744 OA
ENDBRANCH  95  98
ENDBRANCH  68  91
ENDBRANCH  42  43
ENDBRANCH  34  37
ENDBRANCH  32  33
ENDBRANCH   1  32
TORSDOF 17
ENDMDL
MODEL 2
REMARK VINA RESULT:     -12.6      5.293      8.848
REMARK SMILES C[C@@H]1CC[C@H](C)[N@H+]1Cc1cc2c(cc1Cl)C=C(C(=O)NCCCCNC(=O)c1ccc(-c3c4nc(c(-c5cccc(S(=O)(=O)[O-])c5F)c5ccc([nH]5)c(-c5cccc(S(=O)(=O)[O-])c5F)c5nc(c(-c6cccc(S(=O)(=O)[O-])c6F)c6ccc3[nH]6)C=C5)C=C4)cc1)[C@@H](C(F)(F)F)O2
REMARK SMILES IDX 23 1 22 2 21 3 20 4 18 5 19 6 17 8 9 9 10 10 14 11 11 12
REMARK SMILES IDX 13 13 15 14 12 15 96 16 16 17 91 18 8 19 7 20 6 21 5 22 4 23
REMARK SMILES IDX 3 24 2 25 1 27 92 28 93 29 94 30 95 31 24 32 25 33 26 34
REMARK SMILES IDX 27 36 28 37 29 38 90 39 30 40 89 41 31 42 32 43 33 44 83 45
REMARK SMILES IDX 34 46 88 47 82 48 84 49 35 50 87 51 81 52 80 53 36 55 68 56
REMARK SMILES IDX 48 57 67 58 49 59 52 60 66 61 85 62 50 63 51 64 65 66 86 67
REMARK SMILES IDX 53 68 37 69 38 70 46 71 39 72 41 73 47 74 40 75 42 76 43 77
REMARK SMILES IDX 44 78 45 79 69 80 70 81 78 82 71 83 73 84 79 85 72 86 74 87
REMARK SMILES IDX 75 88 76 89 77 90 54 91 55 92 63 93 56 94 58 95 64 96 57 97
REMARK SMILES IDX 59 98 60 99 61 100 62 101
REMARK H PARENT 20 7 7 26 25 35 84 54 52 65
REMARK Flexibility Score: inf
ROOT
ATOM      1  C   UNL A   1      35.859  21.086  25.564  1.00  0.00     0.023 C 
ENDROOT
BRANCH   1   2
ATOM      2  C   UNL A   1      35.254  22.053  26.583  1.00  0.00     0.023 C 
BRANCH   2   3
ATOM      3  C   UNL A   1      34.078  21.480  27.369  1.00  0.00     0.116 C 
BRANCH   3   4
ATOM      4  N   UNL A   1      33.353  20.482  26.605  1.00  0.00    -0.352 N 
ATOM      5  C   UNL A   1      32.623  20.453  25.467  1.00  0.00     0.251 C 
ATOM      6  O   UNL A   1      32.171  19.347  25.153  1.00  0.00    -0.270 OA
ATOM      7  H   UNL A   1      33.405  19.592  27.026  1.00  0.00     0.163 HD
BRANCH   5   8
ATOM      8  C   UNL A   1      32.330  21.634  24.604  1.00  0.00     0.067 C 
ATOM      9  C   UNL A   1      30.846  26.171  22.946  1.00  0.00     0.029 A 
ATOM     10  C   UNL A   1      31.885  25.282  22.610  1.00  0.00     0.058 A 
ATOM     11  C   UNL A   1      29.913  25.753  23.911  1.00  0.00     0.050 A 
ATOM     12  C   UNL A   1      32.041  24.078  23.289  1.00  0.00     0.128 A 
ATOM     13  C   UNL A   1      30.108  24.566  24.631  1.00  0.00     0.033 A 
ATOM     14  Cl  UNL A   1      28.451  26.618  24.232  1.00  0.00    -0.084 Cl
ATOM     15  C   UNL A   1      31.191  23.740  24.339  1.00  0.00     0.019 A 
ATOM     16  O   UNL A   1      33.079  23.275  22.907  1.00  0.00    -0.475 OA
ATOM     17  C   UNL A   1      31.485  22.546  25.122  1.00  0.00     0.025 C 
ATOM     18  C   UNL A   1      32.897  21.863  23.232  1.00  0.00     0.314 C 
BRANCH   9  19
ATOM     19  C   UNL A   1      30.830  27.533  22.274  1.00  0.00     0.301 C 
BRANCH  19  20
ATOM     20  N   UNL A   1      31.397  28.654  23.045  1.00  0.00    -0.327 N 
ATOM     21  C   UNL A   1      33.804  28.950  22.519  1.00  0.00     0.075 C 
ATOM     22  C   UNL A   1      32.773  28.495  23.542  1.00  0.00     0.181 C 
ATOM     23  C   UNL A   1      32.826  29.337  24.813  1.00  0.00     0.071 C 
ATOM     24  C   UNL A   1      31.429  29.170  25.372  1.00  0.00     0.071 C 
ATOM     25  C   UNL A   1      30.549  29.167  24.127  1.00  0.00     0.181 C 
ATOM     26  H   UNL A   1      31.435  29.352  22.302  1.00  0.00     0.348 HD
ATOM     27  C   UNL A   1      30.082  30.574  23.754  1.00  0.00     0.075 C 
ENDBRANCH  19  20
ENDBRANCH   9  19
BRANCH  18  28
ATOM     28  C   UNL A   1      32.062  21.169  22.135  1.00  0.00     0.429 C 
ATOM     29  F   UNL A   1      30.746  21.461  22.284  1.00  0.00    -0.167 F 
ATOM     30  F   UNL A   1      32.410  21.570  20.889  1.00  0.00    -0.167 F 
ATOM     31  F   UNL A   1      32.178  19.821  22.155  1.00  0.00    -0.167 F 
ENDBRANCH  18  28
ENDBRANCH   5   8
ENDBRANCH   3   4
ENDBRANCH   2   3
ENDBRANCH   1   2
BRANCH   1  32
ATOM     32  C   UNL A   1      37.263  21.442  25.081  1.00  0.00     0.116 C 
BRANCH  32  33
ATOM     33  N   UNL A   1      38.263  20.413  25.332  1.00  0.00    -0.352 N 
ATOM     34  C   UNL A   1      39.449  20.553  26.023  1.00  0.00     0.251 C 
ATOM     35  H   UNL A   1      38.071  19.519  24.970  1.00  0.00     0.163 HD
ATOM     36  O   UNL A   1      40.237  19.621  26.114  1.00  0.00    -0.269 OA
BRANCH  34  37
ATOM     37  C   UNL A   1      39.759  21.877  26.596  1.00  0.00     0.039 A 
ATOM     38  C   UNL A   1      39.138  23.015  26.081  1.00  0.00     0.014 A 
ATOM     39  C   UNL A   1      40.781  21.984  27.541  1.00  0.00     0.014 A 
ATOM     40  C   UNL A   1      39.663  24.266  26.376  1.00  0.00     0.010 A 
ATOM     41  C   UNL A   1      41.255  23.250  27.895  1.00  0.00     0.010 A 
ATOM     42  C   UNL A   1      40.742  24.395  27.267  1.00  0.00    -0.014 A 
BRANCH  42  43
ATOM     43  C   UNL A   1      41.329  25.739  27.503  1.00  0.00     0.031 A 
ATOM     44  C   UNL A   1      40.595  26.774  28.314  1.00  0.00     0.074 A 
ATOM     45  C   UNL A   1      42.562  26.003  27.028  1.00  0.00     0.049 A 
ATOM     46  N   UNL A   1      40.985  27.978  28.649  1.00  0.00    -0.248 NA
ATOM     47  C   UNL A   1      39.255  26.422  28.813  1.00  0.00     0.031 C 
ATOM     48  C   UNL A   1      43.363  25.086  26.216  1.00  0.00     0.029 A 
ATOM     49  N   UNL A   1      43.364  27.105  27.176  1.00  0.00    -0.354 N 
ATOM     50  C   UNL A   1      39.927  28.542  29.351  1.00  0.00     0.074 A 
ATOM     51  C   UNL A   1      38.876  27.550  29.404  1.00  0.00     0.031 C 
ATOM     52  C   UNL A   1      44.559  25.642  25.977  1.00  0.00     0.029 A 
ATOM     53  C   UNL A   1      44.594  26.972  26.576  1.00  0.00     0.049 A 
ATOM     54  H   UNL A   1      43.086  27.913  27.664  1.00  0.00     0.167 HD
ATOM     55  C   UNL A   1      39.846  29.768  29.918  1.00  0.00     0.034 A 
ATOM     56  C   UNL A   1      45.636  27.823  26.512  1.00  0.00     0.034 A 
ATOM     57  C   UNL A   1      40.917  30.727  29.928  1.00  0.00     0.049 A 
ATOM     58  C   UNL A   1      45.534  29.159  27.184  1.00  0.00     0.074 A 
ATOM     59  C   UNL A   1      40.943  31.974  30.527  1.00  0.00     0.029 A 
ATOM     60  N   UNL A   1      42.150  30.545  29.326  1.00  0.00    -0.354 N 
ATOM     61  N   UNL A   1      44.552  29.640  27.908  1.00  0.00    -0.248 NA
ATOM     62  C   UNL A   1      46.681  30.068  27.042  1.00  0.00     0.031 C 
ATOM     63  C   UNL A   1      42.196  32.546  30.290  1.00  0.00     0.029 A 
ATOM     64  C   UNL A   1      42.946  31.656  29.540  1.00  0.00     0.049 A 
ATOM     65  H   UNL A   1      42.421  29.745  28.820  1.00  0.00     0.167 HD
ATOM     66  C   UNL A   1      44.963  30.903  28.311  1.00  0.00     0.074 A 
ATOM     67  C   UNL A   1      46.293  31.105  27.774  1.00  0.00     0.031 C 
ATOM     68  C   UNL A   1      44.286  31.822  29.039  1.00  0.00     0.034 A 
BRANCH  55  69
ATOM     69  C   UNL A   1      38.580  30.142  30.636  1.00  0.00     0.023 A 
ATOM     70  C   UNL A   1      38.436  29.798  31.994  1.00  0.00     0.012 A 
ATOM     71  C   UNL A   1      37.599  30.935  30.010  1.00  0.00     0.148 A 
ATOM     72  C   UNL A   1      37.331  30.237  32.721  1.00  0.00     0.002 A 
ATOM     73  C   UNL A   1      36.512  31.390  30.747  1.00  0.00     0.091 A 
ATOM     74  F   UNL A   1      37.757  31.239  28.713  1.00  0.00    -0.205 F 
ATOM     75  C   UNL A   1      36.376  31.040  32.101  1.00  0.00     0.022 A 
BRANCH  73  76
ATOM     76  S   UNL A   1      35.252  32.472  30.062  1.00  0.00     0.127 S 
ATOM     77  O   UNL A   1      36.046  33.637  29.672  1.00  0.00    -0.237 OA
ATOM     78  O   UNL A   1      34.743  31.678  28.944  1.00  0.00    -0.237 OA
ATOM     79  O   UNL A   1      34.295  32.708  31.133  1.00  0.00    -0.744 OA
ENDBRANCH  73  76
ENDBRANCH  55  69
BRANCH  56  80
ATOM     80  C   UNL A   1      46.881  27.389  25.824  1.00  0.00     0.023 A 
ATOM     81  C   UNL A   1      47.755  26.503  26.480  1.00  0.00     0.012 A 
ATOM     82  C   UNL A   1      47.150  27.773  24.497  1.00  0.00     0.148 A 
ATOM     83  C   UNL A   1      48.880  26.004  25.823  1.00  0.00     0.002 A 
ATOM     84  C   UNL A   1      48.244  27.234  23.832  1.00  0.00     0.091 A 
ATOM     85  F   UNL A   1      46.307  28.629  23.901  1.00  0.00    -0.205 F 
ATOM     86  C   UNL A   1      49.116  26.357  24.496  1.00  0.00     0.022 A 
BRANCH  84  87
ATOM     87  S   UNL A   1      48.547  27.529  22.086  1.00  0.00     0.127 S 
ATOM     88  O   UNL A   1      48.724  26.169  21.581  1.00  0.00    -0.237 OA
ATOM     89  O   UNL A   1      47.307  28.185  21.670  1.00  0.00    -0.237 OA
ATOM     90  O   UNL A   1      49.725  28.384  22.031  1.00  0.00    -0.744 OA
ENDBRANCH  84  87
ENDBRANCH  56  80
BRANCH  68  91
ATOM     91  C   UNL A   1      44.953  33.140  29.305  1.00  0.00     0.023 A 
ATOM     92  C   UNL A   1      45.801  33.262  30.423  1.00  0.00     0.012 A 
ATOM     93  C   UNL A   1      44.846  34.204  28.389  1.00  0.00     0.148 A 
ATOM     94  C   UNL A   1      46.532  34.429  30.628  1.00  0.00     0.002 A 
ATOM     95  C   UNL A   1      45.601  35.353  28.586  1.00  0.00     0.091 A 
ATOM     96  F   UNL A   1      44.025  34.061  27.339  1.00  0.00    -0.205 F 
ATOM     97  C   UNL A   1      46.442  35.468  29.705  1.00  0.00     0.022 A 
BRANCH  95  98
ATOM     98  S   UNL A   1      45.608  36.718  27.418  1.00  0.00     0.127 S 
ATOM     99  O   UNL A   1      46.519  37.660  28.068  1.00  0.00    -0.237 OA
ATOM    100  O   UNL A   1      46.140  36.088  26.210  1.00  0.00    -0.237 OA
ATOM    101  O   UNL A   1      44.227  37.167  27.313  1.00  0.00    -0.744 OA
ENDBRANCH  95  98
ENDBRANCH  68  91
ENDBRANCH  42  43
ENDBRANCH  34  37
ENDBRANCH  32  33
ENDBRANCH   1  32
TORSDOF 17
ENDMDL
MODEL 3
REMARK VINA RESULT:     -12.5      5.486      9.464
REMARK SMILES C[C@@H]1CC[C@H](C)[N@H+]1Cc1cc2c(cc1Cl)C=C(C(=O)NCCCCNC(=O)c1ccc(-c3c4nc(c(-c5cccc(S(=O)(=O)[O-])c5F)c5ccc([nH]5)c(-c5cccc(S(=O)(=O)[O-])c5F)c5nc(c(-c6cccc(S(=O)(=O)[O-])c6F)c6ccc3[nH]6)C=C5)C=C4)cc1)[C@@H](C(F)(F)F)O2
REMARK SMILES IDX 23 1 22 2 21 3 20 4 18 5 19 6 17 8 9 9 10 10 14 11 11 12
REMARK SMILES IDX 13 13 15 14 12 15 96 16 16 17 91 18 8 19 7 20 6 21 5 22 4 23
REMARK SMILES IDX 3 24 2 25 1 27 92 28 93 29 94 30 95 31 24 32 25 33 26 34
REMARK SMILES IDX 27 36 28 37 29 38 90 39 30 40 89 41 31 42 32 43 33 44 83 45
REMARK SMILES IDX 34 46 88 47 82 48 84 49 35 50 87 51 81 52 80 53 36 55 68 56
REMARK SMILES IDX 48 57 67 58 49 59 52 60 66 61 85 62 50 63 51 64 65 66 86 67
REMARK SMILES IDX 53 68 37 69 38 70 46 71 39 72 41 73 47 74 40 75 42 76 43 77
REMARK SMILES IDX 44 78 45 79 69 80 70 81 78 82 71 83 73 84 79 85 72 86 74 87
REMARK SMILES IDX 75 88 76 89 77 90 54 91 55 92 63 93 56 94 58 95 64 96 57 97
REMARK SMILES IDX 59 98 60 99 61 100 62 101
REMARK H PARENT 20 7 7 26 25 35 84 54 52 65
REMARK Flexibility Score: inf
ROOT
ATOM      1  C   UNL A   1      37.768  19.859  24.844  1.00  0.00     0.023 C 
ENDROOT
BRANCH   1   2
ATOM      2  C   UNL A   1      37.367  21.232  24.301  1.00  0.00     0.023 C 
BRANCH   2   3
ATOM      3  C   UNL A   1      37.109  22.281  25.378  1.00  0.00     0.116 C 
BRANCH   3   4
ATOM      4  N   UNL A   1      36.096  21.847  26.323  1.00  0.00    -0.352 N 
ATOM      5  C   UNL A   1      34.795  22.126  26.568  1.00  0.00     0.251 C 
ATOM      6  O   UNL A   1      34.284  21.498  27.501  1.00  0.00    -0.270 OA
ATOM      7  H   UNL A   1      36.448  21.173  26.950  1.00  0.00     0.163 HD
BRANCH   5   8
ATOM      8  C   UNL A   1      33.973  23.117  25.817  1.00  0.00     0.067 C 
ATOM      9  C   UNL A   1      31.945  27.414  24.095  1.00  0.00     0.029 A 
ATOM     10  C   UNL A   1      32.243  26.159  23.528  1.00  0.00     0.058 A 
ATOM     11  C   UNL A   1      32.166  27.579  25.473  1.00  0.00     0.050 A 
ATOM     12  C   UNL A   1      32.836  25.157  24.289  1.00  0.00     0.128 A 
ATOM     13  C   UNL A   1      32.816  26.587  26.219  1.00  0.00     0.033 A 
ATOM     14  Cl  UNL A   1      31.609  28.962  26.349  1.00  0.00    -0.084 Cl
ATOM     15  C   UNL A   1      33.178  25.383  25.620  1.00  0.00     0.019 A 
ATOM     16  O   UNL A   1      33.100  23.970  23.662  1.00  0.00    -0.475 OA
ATOM     17  C   UNL A   1      33.936  24.362  26.332  1.00  0.00     0.025 C 
ATOM     18  C   UNL A   1      33.200  22.826  24.562  1.00  0.00     0.314 C 
BRANCH   9  19
ATOM     19  C   UNL A   1      31.447  28.511  23.170  1.00  0.00     0.301 C 
BRANCH  19  20
ATOM     20  N   UNL A   1      30.043  28.927  23.338  1.00  0.00    -0.327 N 
ATOM     21  C   UNL A   1      28.625  26.991  23.972  1.00  0.00     0.075 C 
ATOM     22  C   UNL A   1      29.008  27.984  22.884  1.00  0.00     0.181 C 
ATOM     23  C   UNL A   1      27.830  28.867  22.482  1.00  0.00     0.071 C 
ATOM     24  C   UNL A   1      28.518  30.095  21.926  1.00  0.00     0.071 C 
ATOM     25  C   UNL A   1      29.721  30.272  22.846  1.00  0.00     0.181 C 
ATOM     26  H   UNL A   1      30.002  28.935  24.357  1.00  0.00     0.348 HD
ATOM     27  C   UNL A   1      29.399  31.164  24.044  1.00  0.00     0.075 C 
ENDBRANCH  19  20
ENDBRANCH   9  19
BRANCH  18  28
ATOM     28  C   UNL A   1      31.795  22.262  24.864  1.00  0.00     0.429 C 
ATOM     29  F   UNL A   1      31.779  20.915  24.702  1.00  0.00    -0.167 F 
ATOM     30  F   UNL A   1      31.404  22.504  26.138  1.00  0.00    -0.167 F 
ATOM     31  F   UNL A   1      30.835  22.774  24.060  1.00  0.00    -0.167 F 
ENDBRANCH  18  28
ENDBRANCH   5   8
ENDBRANCH   3   4
ENDBRANCH   2   3
ENDBRANCH   1   2
BRANCH   1  32
ATOM     32  C   UNL A   1      38.687  19.883  26.062  1.00  0.00     0.116 C 
BRANCH  32  33
ATOM     33  N   UNL A   1      39.960  19.201  25.867  1.00  0.00    -0.352 N 
ATOM     34  C   UNL A   1      41.224  19.713  26.078  1.00  0.00     0.251 C 
ATOM     35  H   UNL A   1      39.913  18.271  25.549  1.00  0.00     0.163 HD
ATOM     36  O   UNL A   1      42.221  19.054  25.817  1.00  0.00    -0.269 OA
BRANCH  34  37
ATOM     37  C   UNL A   1      41.330  21.100  26.572  1.00  0.00     0.039 A 
ATOM     38  C   UNL A   1      40.721  22.135  25.861  1.00  0.00     0.014 A 
ATOM     39  C   UNL A   1      42.163  21.370  27.659  1.00  0.00     0.014 A 
ATOM     40  C   UNL A   1      41.091  23.447  26.124  1.00  0.00     0.010 A 
ATOM     41  C   UNL A   1      42.471  22.696  27.970  1.00  0.00     0.010 A 
ATOM     42  C   UNL A   1      41.989  23.740  27.165  1.00  0.00    -0.014 A 
BRANCH  42  43
ATOM     43  C   UNL A   1      42.423  25.145  27.372  1.00  0.00     0.031 A 
ATOM     44  C   UNL A   1      41.552  26.125  28.113  1.00  0.00     0.074 A 
ATOM     45  C   UNL A   1      43.641  25.521  26.936  1.00  0.00     0.049 A 
ATOM     46  N   UNL A   1      41.800  27.374  28.416  1.00  0.00    -0.248 NA
ATOM     47  C   UNL A   1      40.235  25.652  28.573  1.00  0.00     0.031 C 
ATOM     48  C   UNL A   1      44.567  24.665  26.192  1.00  0.00     0.029 A 
ATOM     49  N   UNL A   1      44.318  26.705  27.073  1.00  0.00    -0.354 N 
ATOM     50  C   UNL A   1      40.660  27.848  29.054  1.00  0.00     0.074 A 
ATOM     51  C   UNL A   1      39.716  26.753  29.104  1.00  0.00     0.031 C 
ATOM     52  C   UNL A   1      45.709  25.335  25.979  1.00  0.00     0.029 A 
ATOM     53  C   UNL A   1      45.580  26.681  26.527  1.00  0.00     0.049 A 
ATOM     54  H   UNL A   1      43.937  27.496  27.518  1.00  0.00     0.167 HD
ATOM     55  C   UNL A   1      40.429  29.077  29.570  1.00  0.00     0.034 A 
ATOM     56  C   UNL A   1      46.529  27.634  26.471  1.00  0.00     0.034 A 
ATOM     57  C   UNL A   1      41.393  30.143  29.585  1.00  0.00     0.049 A 
ATOM     58  C   UNL A   1      46.262  28.975  27.087  1.00  0.00     0.074 A 
ATOM     59  C   UNL A   1      41.264  31.406  30.137  1.00  0.00     0.029 A 
ATOM     60  N   UNL A   1      42.664  30.071  29.040  1.00  0.00    -0.354 N 
ATOM     61  N   UNL A   1      45.205  29.374  27.753  1.00  0.00    -0.248 NA
ATOM     62  C   UNL A   1      47.313  29.993  26.955  1.00  0.00     0.031 C 
ATOM     63  C   UNL A   1      42.460  32.097  29.927  1.00  0.00     0.029 A 
ATOM     64  C   UNL A   1      43.331  31.266  29.242  1.00  0.00     0.049 A 
ATOM     65  H   UNL A   1      43.037  29.286  28.576  1.00  0.00     0.167 HD
ATOM     66  C   UNL A   1      45.465  30.687  28.122  1.00  0.00     0.074 A 
ATOM     67  C   UNL A   1      46.789  31.009  27.631  1.00  0.00     0.031 C 
ATOM     68  C   UNL A   1      44.666  31.554  28.788  1.00  0.00     0.034 A 
BRANCH  55  69
ATOM     69  C   UNL A   1      39.101  29.340  30.222  1.00  0.00     0.023 A 
ATOM     70  C   UNL A   1      38.869  28.852  31.523  1.00  0.00     0.012 A 
ATOM     71  C   UNL A   1      38.143  30.168  29.607  1.00  0.00     0.148 A 
ATOM     72  C   UNL A   1      37.698  29.184  32.204  1.00  0.00     0.002 A 
ATOM     73  C   UNL A   1      36.989  30.515  30.302  1.00  0.00     0.091 A 
ATOM     74  F   UNL A   1      38.385  30.610  28.364  1.00  0.00    -0.205 F 
ATOM     75  C   UNL A   1      36.765  30.022  31.598  1.00  0.00     0.022 A 
BRANCH  73  76
ATOM     76  S   UNL A   1      35.747  31.629  29.636  1.00  0.00     0.127 S 
ATOM     77  O   UNL A   1      34.932  31.902  30.819  1.00  0.00    -0.237 OA
ATOM     78  O   UNL A   1      36.560  32.758  29.182  1.00  0.00    -0.237 OA
ATOM     79  O   UNL A   1      35.071  30.895  28.576  1.00  0.00    -0.744 OA
ENDBRANCH  73  76
ENDBRANCH  55  69
BRANCH  56  80
ATOM     80  C   UNL A   1      47.841  27.310  25.851  1.00  0.00     0.023 A 
ATOM     81  C   UNL A   1      48.837  26.693  26.630  1.00  0.00     0.012 A 
ATOM     82  C   UNL A   1      48.068  27.522  24.477  1.00  0.00     0.148 A 
ATOM     83  C   UNL A   1      50.040  26.291  26.050  1.00  0.00     0.002 A 
ATOM     84  C   UNL A   1      49.248  27.075  23.896  1.00  0.00     0.091 A 
ATOM     85  F   UNL A   1      47.108  28.124  23.761  1.00  0.00    -0.205 F 
ATOM     86  C   UNL A   1      50.239  26.467  24.683  1.00  0.00     0.022 A 
BRANCH  84  87
ATOM     87  S   UNL A   1      49.530  27.140  22.124  1.00  0.00     0.127 S 
ATOM     88  O   UNL A   1      49.193  28.529  21.820  1.00  0.00    -0.237 OA
ATOM     89  O   UNL A   1      50.953  26.816  22.031  1.00  0.00    -0.237 OA
ATOM     90  O   UNL A   1      48.647  26.134  21.549  1.00  0.00    -0.744 OA
ENDBRANCH  84  87
ENDBRANCH  56  80
BRANCH  68  91
ATOM     91  C   UNL A   1      45.181  32.943  29.029  1.00  0.00     0.023 A 
ATOM     92  C   UNL A   1      45.913  33.205  30.203  1.00  0.00     0.012 A 
ATOM     93  C   UNL A   1      45.056  33.942  28.046  1.00  0.00     0.148 A 
ATOM     94  C   UNL A   1      46.511  34.447  30.398  1.00  0.00     0.002 A 
ATOM     95  C   UNL A   1      45.680  35.169  28.235  1.00  0.00     0.091 A 
ATOM     96  F   UNL A   1      44.346  33.666  26.942  1.00  0.00    -0.205 F 
ATOM     97  C   UNL A   1      46.405  35.424  29.411  1.00  0.00     0.022 A 
BRANCH  95  98
ATOM     98  S   UNL A   1      45.662  36.466  26.992  1.00  0.00     0.127 S 
ATOM     99  O   UNL A   1      44.235  36.780  26.911  1.00  0.00    -0.237 OA
ATOM    100  O   UNL A   1      46.480  37.504  27.618  1.00  0.00    -0.237 OA
ATOM    101  O   UNL A   1      46.236  35.882  25.789  1.00  0.00    -0.744 OA
ENDBRANCH  95  98
ENDBRANCH  68  91
ENDBRANCH  42  43
ENDBRANCH  34  37
ENDBRANCH  32  33
ENDBRANCH   1  32
TORSDOF 17
ENDMDL
