MODEL 1
REMARK VINA RESULT:     -11.1      0.000      0.000
REMARK SMILES N#CCCn1cc(C(=O)NCCCCNC(=O)c2ccc(-c3c4nc(c(-c5cccc(S(=O)(=O)[O-])c5F)c5ccc([nH]5)c(-c5cccc(S(=O)(=O)[O-])c5F)c5nc(c(-c6cccc(S(=O)(=O)[O-])c6F)c6ccc3[nH]6)C=C5)C=C4)cc2)c(-c2cccc([N+](=O)[O-])c2)n1
REMARK SMILES IDX 12 1 11 2 10 3 8 4 9 5 7 7 5 8 6 9 91 10 81 11 4 12 3 13
REMARK SMILES IDX 2 14 1 15 82 16 83 17 90 18 84 19 86 20 85 21 87 22 88 23
REMARK SMILES IDX 89 24 13 25 14 26 15 27 16 28 17 30 18 31 19 32 80 33 20 34
REMARK SMILES IDX 79 35 21 36 22 37 23 38 73 39 24 40 78 41 72 42 74 43 25 44
REMARK SMILES IDX 77 45 71 46 70 47 26 49 58 50 38 51 57 52 39 53 42 54 56 55
REMARK SMILES IDX 75 56 40 57 41 58 55 60 76 61 43 62 27 63 28 64 36 65 29 66
REMARK SMILES IDX 31 67 37 68 30 69 32 70 33 71 34 72 35 73 59 74 60 75 68 76
REMARK SMILES IDX 61 77 63 78 69 79 62 80 64 81 65 82 66 83 67 84 44 85 45 86
REMARK SMILES IDX 53 87 46 88 48 89 54 90 47 91 49 92 50 93 51 94 52 95
REMARK H PARENT 10 6 15 29 74 48 42 59
REMARK Flexibility Score: inf
ROOT
ATOM      1  C   UNL A   1      31.975  29.787  27.328  1.00  0.00     0.023 C 
ENDROOT
BRANCH   1   2
ATOM      2  C   UNL A   1      31.759  28.740  26.230  1.00  0.00     0.116 C 
BRANCH   2   3
ATOM      3  N   UNL A   1      32.927  28.624  25.388  1.00  0.00    -0.352 N 
ATOM      4  C   UNL A   1      33.321  27.697  24.459  1.00  0.00     0.255 C 
ATOM      5  O   UNL A   1      34.437  27.872  23.972  1.00  0.00    -0.269 OA
ATOM      6  H   UNL A   1      33.569  29.361  25.506  1.00  0.00     0.163 HD
BRANCH   4   7
ATOM      7  C   UNL A   1      32.465  26.584  24.061  1.00  0.00     0.085 A 
ATOM      8  N   UNL A   1      31.532  24.609  23.799  1.00  0.00    -0.270 N 
ATOM      9  C   UNL A   1      32.699  25.225  24.124  1.00  0.00     0.123 A 
ATOM     10  N   UNL A   1      30.583  25.448  23.370  1.00  0.00    -0.172 NA
ATOM     11  C   UNL A   1      31.154  26.664  23.463  1.00  0.00     0.105 A 
BRANCH   8  12
ATOM     12  C   UNL A   1      31.294  23.182  23.887  1.00  0.00     0.159 C 
BRANCH  12  13
ATOM     13  C   UNL A   1      31.656  22.554  25.217  1.00  0.00     0.144 C 
BRANCH  13  14
ATOM     14  C   UNL A   1      30.745  23.048  26.328  1.00  0.00     0.064 C 
ATOM     15  N   UNL A   1      29.989  23.459  27.249  1.00  0.00    -0.198 NA
ENDBRANCH  13  14
ENDBRANCH  12  13
ENDBRANCH   8  12
BRANCH  11  16
ATOM     16  C   UNL A   1      30.455  27.853  22.974  1.00  0.00     0.010 A 
ATOM     17  C   UNL A   1      31.093  28.702  22.052  1.00  0.00     0.011 A 
ATOM     18  C   UNL A   1      29.161  28.161  23.407  1.00  0.00     0.096 A 
ATOM     19  C   UNL A   1      30.486  29.881  21.619  1.00  0.00     0.008 A 
ATOM     20  C   UNL A   1      28.547  29.339  22.953  1.00  0.00     0.270 A 
ATOM     21  C   UNL A   1      29.213  30.209  22.075  1.00  0.00     0.085 A 
BRANCH  20  22
ATOM     22  N   UNL A   1      27.174  29.654  23.364  1.00  0.00     0.062 N 
ATOM     23  O   UNL A   1      26.353  28.724  23.391  1.00  0.00    -0.258 OA
ATOM     24  O   UNL A   1      26.931  30.811  23.737  1.00  0.00    -0.258 OA
ENDBRANCH  20  22
ENDBRANCH  11  16
ENDBRANCH   4   7
ENDBRANCH   2   3
ENDBRANCH   1   2
BRANCH   1  25
ATOM     25  C   UNL A   1      31.595  31.220  26.921  1.00  0.00     0.023 C 
BRANCH  25  26
ATOM     26  C   UNL A   1      32.773  32.182  26.802  1.00  0.00     0.116 C 
BRANCH  26  27
ATOM     27  N   UNL A   1      32.447  33.531  27.269  1.00  0.00    -0.352 N 
ATOM     28  C   UNL A   1      32.982  34.209  28.350  1.00  0.00     0.251 C 
ATOM     29  H   UNL A   1      31.764  34.014  26.750  1.00  0.00     0.163 HD
ATOM     30  O   UNL A   1      32.389  35.137  28.871  1.00  0.00    -0.269 OA
BRANCH  28  31
ATOM     31  C   UNL A   1      34.308  33.793  28.839  1.00  0.00     0.039 A 
ATOM     32  C   UNL A   1      34.454  33.041  30.006  1.00  0.00     0.014 A 
ATOM     33  C   UNL A   1      35.408  34.135  28.059  1.00  0.00     0.014 A 
ATOM     34  C   UNL A   1      35.719  32.557  30.334  1.00  0.00     0.010 A 
ATOM     35  C   UNL A   1      36.622  33.547  28.305  1.00  0.00     0.010 A 
ATOM     36  C   UNL A   1      36.795  32.796  29.465  1.00  0.00    -0.014 A 
BRANCH  36  37
ATOM     37  C   UNL A   1      38.088  32.160  29.686  1.00  0.00     0.031 A 
ATOM     38  C   UNL A   1      38.200  30.769  29.160  1.00  0.00     0.074 A 
ATOM     39  C   UNL A   1      39.171  32.852  30.101  1.00  0.00     0.049 A 
ATOM     40  N   UNL A   1      38.351  29.680  29.839  1.00  0.00    -0.248 NA
ATOM     41  C   UNL A   1      37.982  30.544  27.722  1.00  0.00     0.031 C 
ATOM     42  C   UNL A   1      39.287  34.298  30.331  1.00  0.00     0.029 A 
ATOM     43  N   UNL A   1      40.454  32.426  30.241  1.00  0.00    -0.354 N 
ATOM     44  C   UNL A   1      38.494  28.660  28.897  1.00  0.00     0.074 A 
ATOM     45  C   UNL A   1      38.046  29.212  27.646  1.00  0.00     0.031 C 
ATOM     46  C   UNL A   1      40.589  34.653  30.297  1.00  0.00     0.029 A 
ATOM     47  C   UNL A   1      41.396  33.452  30.222  1.00  0.00     0.049 A 
ATOM     48  H   UNL A   1      40.696  31.477  30.347  1.00  0.00     0.167 HD
ATOM     49  C   UNL A   1      39.211  27.534  29.175  1.00  0.00     0.034 A 
ATOM     50  C   UNL A   1      42.739  33.316  30.091  1.00  0.00     0.034 A 
ATOM     51  C   UNL A   1      39.471  27.420  30.590  1.00  0.00     0.049 A 
ATOM     52  C   UNL A   1      43.070  31.921  30.465  1.00  0.00     0.074 A 
ATOM     53  C   UNL A   1      38.690  27.390  31.728  1.00  0.00     0.029 A 
ATOM     54  N   UNL A   1      40.742  27.725  31.017  1.00  0.00    -0.354 N 
ATOM     55  N   UNL A   1      42.927  31.452  31.673  1.00  0.00    -0.248 NA
ATOM     56  C   UNL A   1      43.126  30.928  29.406  1.00  0.00     0.031 C 
ATOM     57  C   UNL A   1      39.407  28.177  32.677  1.00  0.00     0.029 A 
ATOM     58  C   UNL A   1      40.613  28.565  32.090  1.00  0.00     0.049 A 
ATOM     59  H   UNL A   1      41.586  27.402  30.625  1.00  0.00     0.167 HD
ATOM     60  C   UNL A   1      42.402  30.180  31.483  1.00  0.00     0.074 A 
ATOM     61  C   UNL A   1      42.652  29.872  30.074  1.00  0.00     0.031 C 
ATOM     62  C   UNL A   1      41.550  29.624  32.394  1.00  0.00     0.034 A 
BRANCH  49  63
ATOM     63  C   UNL A   1      40.016  26.726  28.176  1.00  0.00     0.023 A 
ATOM     64  C   UNL A   1      39.945  25.317  28.284  1.00  0.00     0.012 A 
ATOM     65  C   UNL A   1      41.038  27.247  27.351  1.00  0.00     0.148 A 
ATOM     66  C   UNL A   1      40.888  24.479  27.678  1.00  0.00     0.002 A 
ATOM     67  C   UNL A   1      41.927  26.407  26.686  1.00  0.00     0.091 A 
ATOM     68  F   UNL A   1      41.256  28.563  27.299  1.00  0.00    -0.205 F 
ATOM     69  C   UNL A   1      41.880  25.025  26.875  1.00  0.00     0.022 A 
BRANCH  67  70
ATOM     70  S   UNL A   1      43.200  27.058  25.596  1.00  0.00     0.127 S 
ATOM     71  O   UNL A   1      43.759  25.830  25.039  1.00  0.00    -0.237 OA
ATOM     72  O   UNL A   1      42.409  27.862  24.662  1.00  0.00    -0.237 OA
ATOM     73  O   UNL A   1      44.086  27.837  26.451  1.00  0.00    -0.744 OA
ENDBRANCH  67  70
ENDBRANCH  49  63
BRANCH  50  74
ATOM     74  C   UNL A   1      43.725  34.212  29.444  1.00  0.00     0.023 A 
ATOM     75  C   UNL A   1      44.490  35.093  30.234  1.00  0.00     0.012 A 
ATOM     76  C   UNL A   1      44.120  34.010  28.102  1.00  0.00     0.148 A 
ATOM     77  C   UNL A   1      45.631  35.721  29.719  1.00  0.00     0.002 A 
ATOM     78  C   UNL A   1      45.251  34.643  27.592  1.00  0.00     0.091 A 
ATOM     79  F   UNL A   1      43.446  33.126  27.355  1.00  0.00    -0.205 F 
ATOM     80  C   UNL A   1      46.017  35.490  28.402  1.00  0.00     0.022 A 
BRANCH  78  81
ATOM     81  S   UNL A   1      45.816  34.368  25.907  1.00  0.00     0.127 S 
ATOM     82  O   UNL A   1      46.183  32.952  25.939  1.00  0.00    -0.237 OA
ATOM     83  O   UNL A   1      44.617  34.676  25.134  1.00  0.00    -0.237 OA
ATOM     84  O   UNL A   1      46.944  35.273  25.718  1.00  0.00    -0.744 OA
ENDBRANCH  78  81
ENDBRANCH  50  74
BRANCH  62  85
ATOM     85  C   UNL A   1      41.363  30.309  33.725  1.00  0.00     0.023 A 
ATOM     86  C   UNL A   1      42.279  30.162  34.788  1.00  0.00     0.012 A 
ATOM     87  C   UNL A   1      40.351  31.278  33.833  1.00  0.00     0.148 A 
ATOM     88  C   UNL A   1      42.175  30.949  35.939  1.00  0.00     0.002 A 
ATOM     89  C   UNL A   1      40.281  32.091  34.956  1.00  0.00     0.091 A 
ATOM     90  F   UNL A   1      39.490  31.409  32.813  1.00  0.00    -0.205 F 
ATOM     91  C   UNL A   1      41.185  31.925  36.017  1.00  0.00     0.022 A 
BRANCH  89  92
ATOM     92  S   UNL A   1      39.114  33.450  35.053  1.00  0.00     0.127 S 
ATOM     93  O   UNL A   1      37.831  32.751  35.047  1.00  0.00    -0.237 OA
ATOM     94  O   UNL A   1      39.464  34.078  36.329  1.00  0.00    -0.237 OA
ATOM     95  O   UNL A   1      39.378  34.287  33.889  1.00  0.00    -0.744 OA
ENDBRANCH  89  92
ENDBRANCH  62  85
ENDBRANCH  36  37
ENDBRANCH  28  31
ENDBRANCH  26  27
ENDBRANCH  25  26
ENDBRANCH   1  25
TORSDOF 19
ENDMDL
MODEL 2
REMARK VINA RESULT:     -10.8      1.911      3.571
REMARK SMILES N#CCCn1cc(C(=O)NCCCCNC(=O)c2ccc(-c3c4nc(c(-c5cccc(S(=O)(=O)[O-])c5F)c5ccc([nH]5)c(-c5cccc(S(=O)(=O)[O-])c5F)c5nc(c(-c6cccc(S(=O)(=O)[O-])c6F)c6ccc3[nH]6)C=C5)C=C4)cc2)c(-c2cccc([N+](=O)[O-])c2)n1
REMARK SMILES IDX 12 1 11 2 10 3 8 4 9 5 7 7 5 8 6 9 91 10 81 11 4 12 3 13
REMARK SMILES IDX 2 14 1 15 82 16 83 17 90 18 84 19 86 20 85 21 87 22 88 23
REMARK SMILES IDX 89 24 13 25 14 26 15 27 16 28 17 30 18 31 19 32 80 33 20 34
REMARK SMILES IDX 79 35 21 36 22 37 23 38 73 39 24 40 78 41 72 42 74 43 25 44
REMARK SMILES IDX 77 45 71 46 70 47 26 49 58 50 38 51 57 52 39 53 42 54 56 55
REMARK SMILES IDX 75 56 40 57 41 58 55 60 76 61 43 62 27 63 28 64 36 65 29 66
REMARK SMILES IDX 31 67 37 68 30 69 32 70 33 71 34 72 35 73 59 74 60 75 68 76
REMARK SMILES IDX 61 77 63 78 69 79 62 80 64 81 65 82 66 83 67 84 44 85 45 86
REMARK SMILES IDX 53 87 46 88 48 89 54 90 47 91 49 92 50 93 51 94 52 95
REMARK H PARENT 10 6 15 29 74 48 42 59
REMARK Flexibility Score: inf
ROOT
ATOM      1  C   UNL A   1      31.496  30.349  27.232  1.00  0.00     0.023 C 
ENDROOT
BRANCH   1   2
ATOM      2  C   UNL A   1      32.590  29.421  26.695  1.00  0.00     0.116 C 
BRANCH   2   3
ATOM      3  N   UNL A   1      32.246  28.035  26.911  1.00  0.00    -0.352 N 
ATOM      4  C   UNL A   1      31.564  27.113  26.160  1.00  0.00     0.255 C 
ATOM      5  O   UNL A   1      31.384  26.020  26.693  1.00  0.00    -0.269 OA
ATOM      6  H   UNL A   1      32.566  27.681  27.772  1.00  0.00     0.163 HD
BRANCH   4   7
ATOM      7  C   UNL A   1      31.096  27.405  24.809  1.00  0.00     0.085 A 
ATOM      8  N   UNL A   1      30.298  28.365  22.997  1.00  0.00    -0.270 N 
ATOM      9  C   UNL A   1      30.300  28.437  24.354  1.00  0.00     0.123 A 
ATOM     10  N   UNL A   1      30.900  27.272  22.516  1.00  0.00    -0.172 NA
ATOM     11  C   UNL A   1      31.346  26.633  23.615  1.00  0.00     0.105 A 
BRANCH   8  12
ATOM     12  C   UNL A   1      29.706  29.350  22.114  1.00  0.00     0.159 C 
BRANCH  12  13
ATOM     13  C   UNL A   1      28.193  29.413  22.148  1.00  0.00     0.144 C 
BRANCH  13  14
ATOM     14  C   UNL A   1      27.708  30.644  22.896  1.00  0.00     0.064 C 
ATOM     15  N   UNL A   1      27.306  31.666  23.516  1.00  0.00    -0.198 NA
ENDBRANCH  13  14
ENDBRANCH  12  13
ENDBRANCH   8  12
BRANCH  11  16
ATOM     16  C   UNL A   1      31.975  25.317  23.505  1.00  0.00     0.010 A 
ATOM     17  C   UNL A   1      31.203  24.209  23.114  1.00  0.00     0.011 A 
ATOM     18  C   UNL A   1      33.335  25.139  23.784  1.00  0.00     0.096 A 
ATOM     19  C   UNL A   1      31.752  22.927  23.068  1.00  0.00     0.008 A 
ATOM     20  C   UNL A   1      33.887  23.850  23.718  1.00  0.00     0.270 A 
ATOM     21  C   UNL A   1      33.095  22.741  23.378  1.00  0.00     0.085 A 
BRANCH  20  22
ATOM     22  N   UNL A   1      35.321  23.654  23.965  1.00  0.00     0.062 N 
ATOM     23  O   UNL A   1      35.847  24.326  24.865  1.00  0.00    -0.258 OA
ATOM     24  O   UNL A   1      35.905  22.774  23.316  1.00  0.00    -0.258 OA
ENDBRANCH  20  22
ENDBRANCH  11  16
ENDBRANCH   4   7
ENDBRANCH   2   3
ENDBRANCH   1   2
BRANCH   1  25
ATOM     25  C   UNL A   1      31.525  31.769  26.642  1.00  0.00     0.023 C 
BRANCH  25  26
ATOM     26  C   UNL A   1      32.769  32.579  26.992  1.00  0.00     0.116 C 
BRANCH  26  27
ATOM     27  N   UNL A   1      32.448  33.883  27.573  1.00  0.00    -0.352 N 
ATOM     28  C   UNL A   1      33.003  34.476  28.694  1.00  0.00     0.251 C 
ATOM     29  H   UNL A   1      31.751  34.402  27.110  1.00  0.00     0.163 HD
ATOM     30  O   UNL A   1      32.417  35.355  29.301  1.00  0.00    -0.269 OA
BRANCH  28  31
ATOM     31  C   UNL A   1      34.342  34.030  29.118  1.00  0.00     0.039 A 
ATOM     32  C   UNL A   1      34.526  33.263  30.270  1.00  0.00     0.014 A 
ATOM     33  C   UNL A   1      35.412  34.361  28.293  1.00  0.00     0.014 A 
ATOM     34  C   UNL A   1      35.795  32.753  30.536  1.00  0.00     0.010 A 
ATOM     35  C   UNL A   1      36.624  33.748  28.479  1.00  0.00     0.010 A 
ATOM     36  C   UNL A   1      36.835  32.982  29.622  1.00  0.00    -0.014 A 
BRANCH  36  37
ATOM     37  C   UNL A   1      38.125  32.320  29.778  1.00  0.00     0.031 A 
ATOM     38  C   UNL A   1      38.179  30.922  29.261  1.00  0.00     0.074 A 
ATOM     39  C   UNL A   1      39.243  32.992  30.127  1.00  0.00     0.049 A 
ATOM     40  N   UNL A   1      38.344  29.837  29.941  1.00  0.00    -0.248 NA
ATOM     41  C   UNL A   1      37.877  30.689  27.839  1.00  0.00     0.031 C 
ATOM     42  C   UNL A   1      39.402  34.437  30.335  1.00  0.00     0.029 A 
ATOM     43  N   UNL A   1      40.523  32.540  30.201  1.00  0.00    -0.354 N 
ATOM     44  C   UNL A   1      38.414  28.806  29.003  1.00  0.00     0.074 A 
ATOM     45  C   UNL A   1      37.909  29.356  27.773  1.00  0.00     0.031 C 
ATOM     46  C   UNL A   1      40.708  34.765  30.227  1.00  0.00     0.029 A 
ATOM     47  C   UNL A   1      41.484  33.546  30.120  1.00  0.00     0.049 A 
ATOM     48  H   UNL A   1      40.751  31.587  30.302  1.00  0.00     0.167 HD
ATOM     49  C   UNL A   1      39.121  27.667  29.253  1.00  0.00     0.034 A 
ATOM     50  C   UNL A   1      42.814  33.380  29.917  1.00  0.00     0.034 A 
ATOM     51  C   UNL A   1      39.456  27.560  30.652  1.00  0.00     0.049 A 
ATOM     52  C   UNL A   1      43.136  31.982  30.286  1.00  0.00     0.074 A 
ATOM     53  C   UNL A   1      38.738  27.556  31.832  1.00  0.00     0.029 A 
ATOM     54  N   UNL A   1      40.755  27.842  31.006  1.00  0.00    -0.354 N 
ATOM     55  N   UNL A   1      43.050  31.526  31.504  1.00  0.00    -0.248 NA
ATOM     56  C   UNL A   1      43.114  30.978  29.235  1.00  0.00     0.031 C 
ATOM     57  C   UNL A   1      39.522  28.337  32.731  1.00  0.00     0.029 A 
ATOM     58  C   UNL A   1      40.703  28.693  32.076  1.00  0.00     0.049 A 
ATOM     59  H   UNL A   1      41.569  27.497  30.572  1.00  0.00     0.167 HD
ATOM     60  C   UNL A   1      42.489  30.265  31.356  1.00  0.00     0.074 A 
ATOM     61  C   UNL A   1      42.654  29.939  29.939  1.00  0.00     0.031 C 
ATOM     62  C   UNL A   1      41.677  29.734  32.318  1.00  0.00     0.034 A 
BRANCH  49  63
ATOM     63  C   UNL A   1      39.853  26.833  28.219  1.00  0.00     0.023 A 
ATOM     64  C   UNL A   1      39.698  25.429  28.300  1.00  0.00     0.012 A 
ATOM     65  C   UNL A   1      40.888  27.309  27.381  1.00  0.00     0.148 A 
ATOM     66  C   UNL A   1      40.574  24.548  27.655  1.00  0.00     0.002 A 
ATOM     67  C   UNL A   1      41.708  26.431  26.680  1.00  0.00     0.091 A 
ATOM     68  F   UNL A   1      41.185  28.609  27.351  1.00  0.00    -0.205 F 
ATOM     69  C   UNL A   1      41.580  25.050  26.841  1.00  0.00     0.022 A 
BRANCH  67  70
ATOM     70  S   UNL A   1      42.995  27.026  25.574  1.00  0.00     0.127 S 
ATOM     71  O   UNL A   1      43.928  27.634  26.516  1.00  0.00    -0.237 OA
ATOM     72  O   UNL A   1      43.456  25.781  24.956  1.00  0.00    -0.237 OA
ATOM     73  O   UNL A   1      42.327  27.937  24.652  1.00  0.00    -0.744 OA
ENDBRANCH  67  70
ENDBRANCH  49  63
BRANCH  50  74
ATOM     74  C   UNL A   1      43.782  34.249  29.208  1.00  0.00     0.023 A 
ATOM     75  C   UNL A   1      44.155  33.943  27.884  1.00  0.00     0.012 A 
ATOM     76  C   UNL A   1      44.123  35.522  29.717  1.00  0.00     0.148 A 
ATOM     77  C   UNL A   1      44.810  34.884  27.081  1.00  0.00     0.002 A 
ATOM     78  C   UNL A   1      44.781  36.454  28.917  1.00  0.00     0.091 A 
ATOM     79  F   UNL A   1      43.719  35.857  30.949  1.00  0.00    -0.205 F 
ATOM     80  C   UNL A   1      45.114  36.143  27.593  1.00  0.00     0.022 A 
BRANCH  78  81
ATOM     81  S   UNL A   1      45.182  38.103  29.510  1.00  0.00     0.127 S 
ATOM     82  O   UNL A   1      46.066  37.811  30.639  1.00  0.00    -0.237 OA
ATOM     83  O   UNL A   1      45.842  38.688  28.347  1.00  0.00    -0.237 OA
ATOM     84  O   UNL A   1      43.909  38.706  29.888  1.00  0.00    -0.744 OA
ENDBRANCH  78  81
ENDBRANCH  50  74
BRANCH  62  85
ATOM     85  C   UNL A   1      41.578  30.435  33.651  1.00  0.00     0.023 A 
ATOM     86  C   UNL A   1      42.543  30.272  34.666  1.00  0.00     0.012 A 
ATOM     87  C   UNL A   1      40.598  31.431  33.802  1.00  0.00     0.148 A 
ATOM     88  C   UNL A   1      42.520  31.071  35.813  1.00  0.00     0.002 A 
ATOM     89  C   UNL A   1      40.608  32.255  34.919  1.00  0.00     0.091 A 
ATOM     90  F   UNL A   1      39.689  31.577  32.826  1.00  0.00    -0.205 F 
ATOM     91  C   UNL A   1      41.562  32.074  35.933  1.00  0.00     0.022 A 
BRANCH  89  92
ATOM     92  S   UNL A   1      39.484  33.646  35.063  1.00  0.00     0.127 S 
ATOM     93  O   UNL A   1      38.180  32.986  35.050  1.00  0.00    -0.237 OA
ATOM     94  O   UNL A   1      39.863  34.227  36.352  1.00  0.00    -0.237 OA
ATOM     95  O   UNL A   1      39.763  34.506  33.920  1.00  0.00    -0.744 OA
ENDBRANCH  89  92
ENDBRANCH  62  85
ENDBRANCH  36  37
ENDBRANCH  28  31
ENDBRANCH  26  27
ENDBRANCH  25  26
ENDBRANCH   1  25
TORSDOF 19
ENDMDL
MODEL 3
REMARK VINA RESULT:     -10.7      3.056      7.151
REMARK SMILES N#CCCn1cc(C(=O)NCCCCNC(=O)c2ccc(-c3c4nc(c(-c5cccc(S(=O)(=O)[O-])c5F)c5ccc([nH]5)c(-c5cccc(S(=O)(=O)[O-])c5F)c5nc(c(-c6cccc(S(=O)(=O)[O-])c6F)c6ccc3[nH]6)C=C5)C=C4)cc2)c(-c2cccc([N+](=O)[O-])c2)n1
REMARK SMILES IDX 12 1 11 2 10 3 8 4 9 5 7 7 5 8 6 9 91 10 81 11 4 12 3 13
REMARK SMILES IDX 2 14 1 15 82 16 83 17 90 18 84 19 86 20 85 21 87 22 88 23
REMARK SMILES IDX 89 24 13 25 14 26 15 27 16 28 17 30 18 31 19 32 80 33 20 34
REMARK SMILES IDX 79 35 21 36 22 37 23 38 73 39 24 40 78 41 72 42 74 43 25 44
REMARK SMILES IDX 77 45 71 46 70 47 26 49 58 50 38 51 57 52 39 53 42 54 56 55
REMARK SMILES IDX 75 56 40 57 41 58 55 60 76 61 43 62 27 63 28 64 36 65 29 66
REMARK SMILES IDX 31 67 37 68 30 69 32 70 33 71 34 72 35 73 59 74 60 75 68 76
REMARK SMILES IDX 61 77 63 78 69 79 62 80 64 81 65 82 66 83 67 84 44 85 45 86
REMARK SMILES IDX 53 87 46 88 48 89 54 90 47 91 49 92 50 93 51 94 52 95
REMARK H PARENT 10 6 15 29 74 48 42 59
REMARK Flexibility Score: inf
ROOT
ATOM      1  C   UNL A   1      31.736  27.081  26.536  1.00  0.00     0.023 C 
ENDROOT
BRANCH   1   2
ATOM      2  C   UNL A   1      31.965  25.566  26.554  1.00  0.00     0.116 C 
BRANCH   2   3
ATOM      3  N   UNL A   1      33.365  25.251  26.396  1.00  0.00    -0.352 N 
ATOM      4  C   UNL A   1      34.046  24.410  25.555  1.00  0.00     0.255 C 
ATOM      5  O   UNL A   1      35.257  24.329  25.749  1.00  0.00    -0.269 OA
ATOM      6  H   UNL A   1      33.950  25.741  27.019  1.00  0.00     0.163 HD
BRANCH   4   7
ATOM      7  C   UNL A   1      33.378  23.670  24.489  1.00  0.00     0.085 A 
ATOM      8  N   UNL A   1      32.441  22.118  23.244  1.00  0.00    -0.270 N 
ATOM      9  C   UNL A   1      33.330  22.311  24.253  1.00  0.00     0.123 A 
ATOM     10  N   UNL A   1      32.011  23.252  22.680  1.00  0.00    -0.172 NA
ATOM     11  C   UNL A   1      32.622  24.221  23.390  1.00  0.00     0.105 A 
BRANCH   8  12
ATOM     12  C   UNL A   1      31.977  20.824  22.782  1.00  0.00     0.159 C 
BRANCH  12  13
ATOM     13  C   UNL A   1      32.913  19.669  23.072  1.00  0.00     0.144 C 
BRANCH  13  14
ATOM     14  C   UNL A   1      32.508  18.934  24.339  1.00  0.00     0.064 C 
ATOM     15  N   UNL A   1      32.171  18.325  25.391  1.00  0.00    -0.198 NA
ENDBRANCH  13  14
ENDBRANCH  12  13
ENDBRANCH   8  12
BRANCH  11  16
ATOM     16  C   UNL A   1      32.486  25.625  22.999  1.00  0.00     0.010 A 
ATOM     17  C   UNL A   1      33.633  26.366  22.667  1.00  0.00     0.011 A 
ATOM     18  C   UNL A   1      31.233  26.244  22.951  1.00  0.00     0.096 A 
ATOM     19  C   UNL A   1      33.550  27.725  22.360  1.00  0.00     0.008 A 
ATOM     20  C   UNL A   1      31.152  27.607  22.623  1.00  0.00     0.270 A 
ATOM     21  C   UNL A   1      32.308  28.353  22.345  1.00  0.00     0.085 A 
BRANCH  20  22
ATOM     22  N   UNL A   1      29.841  28.261  22.526  1.00  0.00     0.062 N 
ATOM     23  O   UNL A   1      29.739  29.236  21.765  1.00  0.00    -0.258 OA
ATOM     24  O   UNL A   1      28.895  27.755  23.145  1.00  0.00    -0.258 OA
ENDBRANCH  20  22
ENDBRANCH  11  16
ENDBRANCH   4   7
ENDBRANCH   2   3
ENDBRANCH   1   2
BRANCH   1  25
ATOM     25  C   UNL A   1      33.005  27.909  26.277  1.00  0.00     0.023 C 
BRANCH  25  26
ATOM     26  C   UNL A   1      33.490  28.722  27.474  1.00  0.00     0.116 C 
BRANCH  26  27
ATOM     27  N   UNL A   1      33.263  30.159  27.308  1.00  0.00    -0.352 N 
ATOM     28  C   UNL A   1      34.082  31.201  27.706  1.00  0.00     0.251 C 
ATOM     29  H   UNL A   1      32.425  30.414  26.858  1.00  0.00     0.163 HD
ATOM     30  O   UNL A   1      33.642  32.325  27.869  1.00  0.00    -0.269 OA
BRANCH  28  31
ATOM     31  C   UNL A   1      35.514  30.917  27.903  1.00  0.00     0.039 A 
ATOM     32  C   UNL A   1      36.385  31.877  28.422  1.00  0.00     0.014 A 
ATOM     33  C   UNL A   1      35.954  29.633  27.599  1.00  0.00     0.014 A 
ATOM     34  C   UNL A   1      37.693  31.500  28.719  1.00  0.00     0.010 A 
ATOM     35  C   UNL A   1      37.195  29.226  28.017  1.00  0.00     0.010 A 
ATOM     36  C   UNL A   1      38.084  30.165  28.534  1.00  0.00    -0.014 A 
BRANCH  36  37
ATOM     37  C   UNL A   1      39.386  29.698  28.996  1.00  0.00     0.031 A 
ATOM     38  C   UNL A   1      39.636  29.882  30.454  1.00  0.00     0.074 A 
ATOM     39  C   UNL A   1      40.193  28.935  28.227  1.00  0.00     0.049 A 
ATOM     40  N   UNL A   1      40.512  30.651  31.012  1.00  0.00    -0.248 NA
ATOM     41  C   UNL A   1      38.717  29.242  31.410  1.00  0.00     0.031 C 
ATOM     42  C   UNL A   1      39.921  28.394  26.889  1.00  0.00     0.029 A 
ATOM     43  N   UNL A   1      41.370  28.337  28.555  1.00  0.00    -0.354 N 
ATOM     44  C   UNL A   1      40.418  30.404  32.383  1.00  0.00     0.074 A 
ATOM     45  C   UNL A   1      39.173  29.709  32.575  1.00  0.00     0.031 C 
ATOM     46  C   UNL A   1      40.745  27.350  26.652  1.00  0.00     0.029 A 
ATOM     47  C   UNL A   1      41.707  27.264  27.733  1.00  0.00     0.049 A 
ATOM     48  H   UNL A   1      41.932  28.636  29.306  1.00  0.00     0.167 HD
ATOM     49  C   UNL A   1      41.493  30.563  33.206  1.00  0.00     0.034 A 
ATOM     50  C   UNL A   1      42.671  26.339  27.964  1.00  0.00     0.034 A 
ATOM     51  C   UNL A   1      42.545  31.302  32.552  1.00  0.00     0.049 A 
ATOM     52  C   UNL A   1      43.607  26.928  28.949  1.00  0.00     0.074 A 
ATOM     53  C   UNL A   1      42.637  32.536  31.938  1.00  0.00     0.029 A 
ATOM     54  N   UNL A   1      43.630  30.583  32.108  1.00  0.00    -0.354 N 
ATOM     55  N   UNL A   1      44.361  27.960  28.691  1.00  0.00    -0.248 NA
ATOM     56  C   UNL A   1      43.372  26.657  30.358  1.00  0.00     0.031 C 
ATOM     57  C   UNL A   1      43.451  32.306  30.790  1.00  0.00     0.029 A 
ATOM     58  C   UNL A   1      43.872  30.975  30.820  1.00  0.00     0.049 A 
ATOM     59  H   UNL A   1      44.137  29.911  32.620  1.00  0.00     0.167 HD
ATOM     60  C   UNL A   1      44.295  28.727  29.846  1.00  0.00     0.074 A 
ATOM     61  C   UNL A   1      43.767  27.826  30.872  1.00  0.00     0.031 C 
ATOM     62  C   UNL A   1      44.382  30.090  29.796  1.00  0.00     0.034 A 
BRANCH  49  63
ATOM     63  C   UNL A   1      41.784  29.749  34.452  1.00  0.00     0.023 A 
ATOM     64  C   UNL A   1      42.389  30.427  35.536  1.00  0.00     0.012 A 
ATOM     65  C   UNL A   1      41.772  28.337  34.516  1.00  0.00     0.148 A 
ATOM     66  C   UNL A   1      43.022  29.742  36.580  1.00  0.00     0.002 A 
ATOM     67  C   UNL A   1      42.333  27.659  35.594  1.00  0.00     0.091 A 
ATOM     68  F   UNL A   1      41.340  27.619  33.477  1.00  0.00    -0.205 F 
ATOM     69  C   UNL A   1      42.992  28.355  36.610  1.00  0.00     0.022 A 
BRANCH  67  70
ATOM     70  S   UNL A   1      42.280  25.866  35.710  1.00  0.00     0.127 S 
ATOM     71  O   UNL A   1      40.846  25.612  35.617  1.00  0.00    -0.237 OA
ATOM     72  O   UNL A   1      43.060  25.469  34.537  1.00  0.00    -0.237 OA
ATOM     73  O   UNL A   1      42.909  25.538  36.983  1.00  0.00    -0.744 OA
ENDBRANCH  67  70
ENDBRANCH  49  63
BRANCH  50  74
ATOM     74  C   UNL A   1      42.721  24.907  27.591  1.00  0.00     0.023 A 
ATOM     75  C   UNL A   1      41.605  24.082  27.835  1.00  0.00     0.012 A 
ATOM     76  C   UNL A   1      43.741  24.411  26.747  1.00  0.00     0.148 A 
ATOM     77  C   UNL A   1      41.488  22.825  27.230  1.00  0.00     0.002 A 
ATOM     78  C   UNL A   1      43.624  23.157  26.152  1.00  0.00     0.091 A 
ATOM     79  F   UNL A   1      44.778  25.206  26.449  1.00  0.00    -0.205 F 
ATOM     80  C   UNL A   1      42.492  22.366  26.382  1.00  0.00     0.022 A 
BRANCH  78  81
ATOM     81  S   UNL A   1      44.873  22.516  25.030  1.00  0.00     0.127 S 
ATOM     82  O   UNL A   1      44.208  21.333  24.482  1.00  0.00    -0.237 OA
ATOM     83  O   UNL A   1      45.031  23.623  24.092  1.00  0.00    -0.237 OA
ATOM     84  O   UNL A   1      46.033  22.217  25.861  1.00  0.00    -0.744 OA
ENDBRANCH  78  81
ENDBRANCH  50  74
BRANCH  62  85
ATOM     85  C   UNL A   1      44.783  30.743  28.497  1.00  0.00     0.023 A 
ATOM     86  C   UNL A   1      43.838  31.195  27.552  1.00  0.00     0.012 A 
ATOM     87  C   UNL A   1      46.134  31.089  28.321  1.00  0.00     0.148 A 
ATOM     88  C   UNL A   1      44.234  31.955  26.448  1.00  0.00     0.002 A 
ATOM     89  C   UNL A   1      46.516  31.886  27.251  1.00  0.00     0.091 A 
ATOM     90  F   UNL A   1      47.021  30.656  29.230  1.00  0.00    -0.205 F 
ATOM     91  C   UNL A   1      45.571  32.315  26.305  1.00  0.00     0.022 A 
BRANCH  89  92
ATOM     92  S   UNL A   1      48.198  32.490  27.091  1.00  0.00     0.127 S 
ATOM     93  O   UNL A   1      48.958  31.247  26.973  1.00  0.00    -0.237 OA
ATOM     94  O   UNL A   1      48.133  33.286  25.864  1.00  0.00    -0.237 OA
ATOM     95  O   UNL A   1      48.458  33.273  28.292  1.00  0.00    -0.744 OA
ENDBRANCH  89  92
ENDBRANCH  62  85
ENDBRANCH  36  37
ENDBRANCH  28  31
ENDBRANCH  26  27
ENDBRANCH  25  26
ENDBRANCH   1  25
TORSDOF 19
ENDMDL
