MODEL 1
REMARK VINA RESULT:     -15.2      0.000      0.000
REMARK SMILES O=C(NCCCCNC(=O)[C@H](c1c[nH]c2cc(F)ccc12)[NH+]1CCN(c2ccccc2)CC1)c1ccc(-c2c3nc(c(-c4cccc(S(=O)(=O)[O-])c4F)c4ccc([nH]4)c(-c4cccc(S(=O)(=O)[O-])c4F)c4nc(c(-c5cccc(S(=O)(=O)[O-])c5F)c5ccc2[nH]5)C=C4)C=C3)cc1
REMARK SMILES IDX 5 1 4 2 3 3 1 4 2 5 34 7 35 8 96 9 36 10 95 11 37 12 38 13
REMARK SMILES IDX 39 14 89 15 40 16 94 17 88 18 90 19 41 20 93 21 87 22 86 23
REMARK SMILES IDX 42 25 74 26 54 27 73 28 55 29 58 30 72 31 91 32 56 33 57 34
REMARK SMILES IDX 71 36 92 37 59 38 43 39 44 40 52 41 45 42 47 43 53 44 46 45
REMARK SMILES IDX 48 46 49 47 50 48 51 49 75 50 76 51 84 52 77 53 79 54 85 55
REMARK SMILES IDX 78 56 80 57 81 58 82 59 83 60 60 61 61 62 69 63 62 64 64 65
REMARK SMILES IDX 70 66 63 67 65 68 66 69 67 70 68 71 6 72 7 73 8 74 9 75
REMARK SMILES IDX 10 77 11 78 22 79 23 80 33 81 24 83 32 84 25 85 26 86 27 87
REMARK SMILES IDX 31 88 28 89 30 90 29 91 12 92 13 93 21 94 14 95 15 96 20 97
REMARK SMILES IDX 16 99 19 100 17 101 18 102
REMARK H PARENT 3 6 90 24 58 35 8 76 22 82 14 98
REMARK Flexibility Score: inf
ROOT
ATOM      1  C   UNL A   1      35.968  21.064  25.252  1.00  0.00     0.023 C 
ENDROOT
BRANCH   1   2
ATOM      2  C   UNL A   1      37.060  19.791  24.855  1.00  0.00     0.116 C 
BRANCH   2   3
ATOM      3  N   UNL A   1      39.012  19.333  25.470  1.00  0.00    -0.352 N 
ATOM      4  O   UNL A   1      41.226  18.884  25.925  1.00  0.00    -0.269 OA
ATOM      5  C   UNL A   1      40.324  19.726  26.005  1.00  0.00     0.251 C 
ATOM      6  H   UNL A   1      39.089  18.362  25.327  1.00  0.00     0.163 HD
BRANCH   5   7
ATOM      7  C   UNL A   1      40.681  21.023  26.671  1.00  0.00     0.039 A 
ATOM      8  C   UNL A   1      39.992  22.145  26.242  1.00  0.00     0.014 A 
ATOM      9  C   UNL A   1      41.794  21.188  27.511  1.00  0.00     0.014 A 
ATOM     10  C   UNL A   1      40.631  23.376  26.299  1.00  0.00     0.010 A 
ATOM     11  C   UNL A   1      42.294  22.487  27.773  1.00  0.00     0.010 A 
ATOM     12  C   UNL A   1      41.756  23.607  27.115  1.00  0.00    -0.014 A 
BRANCH  12  13
ATOM     13  C   UNL A   1      42.238  25.027  27.279  1.00  0.00     0.031 A 
ATOM     14  C   UNL A   1      43.541  25.550  26.709  1.00  0.00     0.074 A 
ATOM     15  C   UNL A   1      41.434  25.906  27.925  1.00  0.00     0.049 A 
ATOM     16  N   UNL A   1      44.092  26.732  26.867  1.00  0.00    -0.248 NA
ATOM     17  C   UNL A   1      44.332  24.647  25.859  1.00  0.00     0.031 C 
ATOM     18  C   UNL A   1      40.146  25.567  28.539  1.00  0.00     0.029 A 
ATOM     19  N   UNL A   1      41.549  27.257  28.159  1.00  0.00    -0.354 N 
ATOM     20  C   UNL A   1      45.322  26.691  26.214  1.00  0.00     0.074 A 
ATOM     21  C   UNL A   1      45.419  25.373  25.619  1.00  0.00     0.031 C 
ATOM     22  C   UNL A   1      39.544  26.677  28.968  1.00  0.00     0.029 A 
ATOM     23  C   UNL A   1      40.491  27.774  28.873  1.00  0.00     0.049 A 
ATOM     24  H   UNL A   1      42.311  27.799  27.848  1.00  0.00     0.167 HD
ATOM     25  C   UNL A   1      46.282  27.650  26.132  1.00  0.00     0.034 A 
ATOM     26  C   UNL A   1      40.312  28.952  29.499  1.00  0.00     0.034 A 
ATOM     27  C   UNL A   1      46.157  28.978  26.687  1.00  0.00     0.049 A 
ATOM     28  C   UNL A   1      41.394  29.975  29.435  1.00  0.00     0.074 A 
ATOM     29  C   UNL A   1      47.061  30.027  26.621  1.00  0.00     0.029 A 
ATOM     30  N   UNL A   1      45.072  29.441  27.419  1.00  0.00    -0.354 N 
ATOM     31  N   UNL A   1      42.537  29.914  28.798  1.00  0.00    -0.248 NA
ATOM     32  C   UNL A   1      41.170  31.225  30.168  1.00  0.00     0.031 C 
ATOM     33  C   UNL A   1      46.544  31.104  27.351  1.00  0.00     0.029 A 
ATOM     34  C   UNL A   1      45.296  30.747  27.831  1.00  0.00     0.049 A 
ATOM     35  H   UNL A   1      44.263  28.918  27.617  1.00  0.00     0.167 HD
ATOM     36  C   UNL A   1      43.166  31.124  29.040  1.00  0.00     0.074 A 
ATOM     37  C   UNL A   1      42.267  31.907  29.867  1.00  0.00     0.031 C 
ATOM     38  C   UNL A   1      44.384  31.539  28.620  1.00  0.00     0.034 A 
BRANCH  25  39
ATOM     39  C   UNL A   1      47.584  27.303  25.442  1.00  0.00     0.023 A 
ATOM     40  C   UNL A   1      48.619  26.656  26.145  1.00  0.00     0.012 A 
ATOM     41  C   UNL A   1      47.755  27.567  24.064  1.00  0.00     0.148 A 
ATOM     42  C   UNL A   1      49.817  26.323  25.504  1.00  0.00     0.002 A 
ATOM     43  C   UNL A   1      48.934  27.197  23.425  1.00  0.00     0.091 A 
ATOM     44  F   UNL A   1      46.765  28.184  23.404  1.00  0.00    -0.205 F 
ATOM     45  C   UNL A   1      49.971  26.588  24.146  1.00  0.00     0.022 A 
BRANCH  43  46
ATOM     46  S   UNL A   1      49.189  27.430  21.660  1.00  0.00     0.127 S 
ATOM     47  O   UNL A   1      48.899  28.855  21.508  1.00  0.00    -0.237 OA
ATOM     48  O   UNL A   1      50.600  27.076  21.498  1.00  0.00    -0.237 OA
ATOM     49  O   UNL A   1      48.261  26.524  20.999  1.00  0.00    -0.744 OA
ENDBRANCH  43  46
ENDBRANCH  25  39
BRANCH  26  50
ATOM     50  C   UNL A   1      39.076  29.150  30.308  1.00  0.00     0.023 A 
ATOM     51  C   UNL A   1      38.939  28.515  31.555  1.00  0.00     0.012 A 
ATOM     52  C   UNL A   1      38.097  30.082  29.897  1.00  0.00     0.148 A 
ATOM     53  C   UNL A   1      37.854  28.812  32.381  1.00  0.00     0.002 A 
ATOM     54  C   UNL A   1      37.067  30.431  30.757  1.00  0.00     0.091 A 
ATOM     55  F   UNL A   1      38.242  30.665  28.698  1.00  0.00    -0.205 F 
ATOM     56  C   UNL A   1      36.933  29.784  31.993  1.00  0.00     0.022 A 
BRANCH  54  57
ATOM     57  S   UNL A   1      35.960  31.806  30.420  1.00  0.00     0.127 S 
ATOM     58  O   UNL A   1      36.904  32.899  30.201  1.00  0.00    -0.237 OA
ATOM     59  O   UNL A   1      35.263  31.342  29.219  1.00  0.00    -0.237 OA
ATOM     60  O   UNL A   1      35.111  31.929  31.597  1.00  0.00    -0.744 OA
ENDBRANCH  54  57
ENDBRANCH  26  50
BRANCH  38  61
ATOM     61  C   UNL A   1      44.809  32.931  28.997  1.00  0.00     0.023 A 
ATOM     62  C   UNL A   1      45.527  33.154  30.188  1.00  0.00     0.012 A 
ATOM     63  C   UNL A   1      44.558  34.006  28.124  1.00  0.00     0.148 A 
ATOM     64  C   UNL A   1      45.974  34.435  30.512  1.00  0.00     0.002 A 
ATOM     65  C   UNL A   1      45.051  35.268  28.428  1.00  0.00     0.091 A 
ATOM     66  F   UNL A   1      43.849  33.771  27.011  1.00  0.00    -0.205 F 
ATOM     67  C   UNL A   1      45.749  35.487  29.627  1.00  0.00     0.022 A 
BRANCH  65  68
ATOM     68  S   UNL A   1      44.894  36.660  27.305  1.00  0.00     0.127 S 
ATOM     69  O   UNL A   1      45.885  36.330  26.281  1.00  0.00    -0.237 OA
ATOM     70  O   UNL A   1      43.502  36.545  26.867  1.00  0.00    -0.237 OA
ATOM     71  O   UNL A   1      45.188  37.851  28.091  1.00  0.00    -0.744 OA
ENDBRANCH  65  68
ENDBRANCH  38  61
ENDBRANCH  12  13
ENDBRANCH   5   7
ENDBRANCH   2   3
ENDBRANCH   1   2
BRANCH   1  72
ATOM     72  C   UNL A   1      36.439  22.531  25.201  1.00  0.00     0.023 C 
BRANCH  72  73
ATOM     73  C   UNL A   1      35.394  23.558  24.784  1.00  0.00     0.116 C 
BRANCH  73  74
ATOM     74  N   UNL A   1      34.955  23.488  23.419  1.00  0.00    -0.351 N 
ATOM     75  C   UNL A   1      33.685  23.157  23.007  1.00  0.00     0.283 C 
ATOM     76  H   UNL A   1      35.618  23.694  22.720  1.00  0.00     0.163 HD
ATOM     77  O   UNL A   1      33.388  23.479  21.851  1.00  0.00    -0.268 OA
BRANCH  75  78
ATOM     78  C   UNL A   1      32.721  22.370  23.975  1.00  0.00     0.307 C 
BRANCH  78  79
ATOM     79  N   UNL A   1      31.405  22.986  24.258  1.00  0.00    -0.318 N 
ATOM     80  C   UNL A   1      30.908  22.987  25.635  1.00  0.00     0.284 C 
ATOM     81  C   UNL A   1      31.036  24.228  23.602  1.00  0.00     0.284 C 
ATOM     82  H   UNL A   1      30.910  22.247  23.758  1.00  0.00     0.349 HD
ATOM     83  C   UNL A   1      31.267  24.194  26.545  1.00  0.00     0.178 C 
ATOM     84  C   UNL A   1      31.427  25.512  24.346  1.00  0.00     0.178 C 
ATOM     85  N   UNL A   1      31.405  25.476  25.836  1.00  0.00    -0.360 N 
BRANCH  85  86
ATOM     86  C   UNL A   1      32.143  26.557  26.420  1.00  0.00     0.037 A 
ATOM     87  C   UNL A   1      33.855  26.897  25.920  1.00  0.00     0.026 A 
ATOM     88  C   UNL A   1      31.168  27.901  27.146  1.00  0.00     0.026 A 
ATOM     89  C   UNL A   1      34.559  28.571  26.068  1.00  0.00     0.002 A 
ATOM     90  C   UNL A   1      31.814  29.576  27.265  1.00  0.00     0.002 A 
ATOM     91  C   UNL A   1      33.499  29.940  26.650  1.00  0.00     0.000 A 
ENDBRANCH  85  86
ENDBRANCH  78  79
BRANCH  78  92
ATOM     92  C   UNL A   1      32.450  20.981  23.384  1.00  0.00     0.044 A 
ATOM     93  C   UNL A   1      32.076  20.691  22.080  1.00  0.00     0.094 A 
ATOM     94  C   UNL A   1      32.572  19.708  24.049  1.00  0.00     0.009 A 
ATOM     95  N   UNL A   1      32.008  19.337  21.922  1.00  0.00    -0.361 N 
ATOM     96  C   UNL A   1      32.299  18.709  23.107  1.00  0.00     0.049 A 
ATOM     97  C   UNL A   1      32.906  19.308  25.361  1.00  0.00     0.014 A 
ATOM     98  H   UNL A   1      31.782  18.879  21.081  1.00  0.00     0.166 HD
ATOM     99  C   UNL A   1      32.350  17.342  23.406  1.00  0.00     0.065 A 
ATOM    100  C   UNL A   1      32.953  17.944  25.680  1.00  0.00     0.040 A 
ATOM    101  C   UNL A   1      32.680  16.988  24.711  1.00  0.00     0.125 A 
ATOM    102  F   UNL A   1      32.735  15.689  25.039  1.00  0.00    -0.207 F 
ENDBRANCH  78  92
ENDBRANCH  75  78
ENDBRANCH  73  74
ENDBRANCH  72  73
ENDBRANCH   1  72
TORSDOF 17
ENDMDL
MODEL 2
REMARK VINA RESULT:     -15.2      5.331     11.167
REMARK SMILES O=C(NCCCCNC(=O)[C@H](c1c[nH]c2cc(F)ccc12)[NH+]1CCN(c2ccccc2)CC1)c1ccc(-c2c3nc(c(-c4cccc(S(=O)(=O)[O-])c4F)c4ccc([nH]4)c(-c4cccc(S(=O)(=O)[O-])c4F)c4nc(c(-c5cccc(S(=O)(=O)[O-])c5F)c5ccc2[nH]5)C=C4)C=C3)cc1
REMARK SMILES IDX 5 1 4 2 3 3 1 4 2 5 34 7 35 8 96 9 36 10 95 11 37 12 38 13
REMARK SMILES IDX 39 14 89 15 40 16 94 17 88 18 90 19 41 20 93 21 87 22 86 23
REMARK SMILES IDX 42 25 74 26 54 27 73 28 55 29 58 30 72 31 91 32 56 33 57 34
REMARK SMILES IDX 71 36 92 37 59 38 43 39 44 40 52 41 45 42 47 43 53 44 46 45
REMARK SMILES IDX 48 46 49 47 50 48 51 49 75 50 76 51 84 52 77 53 79 54 85 55
REMARK SMILES IDX 78 56 80 57 81 58 82 59 83 60 60 61 61 62 69 63 62 64 64 65
REMARK SMILES IDX 70 66 63 67 65 68 66 69 67 70 68 71 6 72 7 73 8 74 9 75
REMARK SMILES IDX 10 77 11 78 22 79 23 80 33 81 24 83 32 84 25 85 26 86 27 87
REMARK SMILES IDX 31 88 28 89 30 90 29 91 12 92 13 93 21 94 14 95 15 96 20 97
REMARK SMILES IDX 16 99 19 100 17 101 18 102
REMARK H PARENT 3 6 90 24 58 35 8 76 22 82 14 98
REMARK Flexibility Score: inf
ROOT
ATOM      1  C   UNL A   1      31.431  29.295  26.233  1.00  0.00     0.023 C 
ENDROOT
BRANCH   1   2
ATOM      2  C   UNL A   1      31.208  30.972  25.906  1.00  0.00     0.116 C 
BRANCH   2   3
ATOM      3  N   UNL A   1      31.862  32.719  26.864  1.00  0.00    -0.352 N 
ATOM      4  O   UNL A   1      32.465  34.562  28.110  1.00  0.00    -0.269 OA
ATOM      5  C   UNL A   1      32.823  33.450  27.704  1.00  0.00     0.251 C 
ATOM      6  H   UNL A   1      31.179  33.390  26.637  1.00  0.00     0.163 HD
BRANCH   5   7
ATOM      7  C   UNL A   1      34.205  33.012  28.093  1.00  0.00     0.039 A 
ATOM      8  C   UNL A   1      34.434  31.647  28.118  1.00  0.00     0.014 A 
ATOM      9  C   UNL A   1      35.173  33.874  28.634  1.00  0.00     0.014 A 
ATOM     10  C   UNL A   1      35.372  31.149  29.012  1.00  0.00     0.010 A 
ATOM     11  C   UNL A   1      36.280  33.339  29.337  1.00  0.00     0.010 A 
ATOM     12  C   UNL A   1      36.365  31.960  29.595  1.00  0.00    -0.014 A 
BRANCH  12  13
ATOM     13  C   UNL A   1      37.470  31.286  30.372  1.00  0.00     0.031 A 
ATOM     14  C   UNL A   1      37.698  31.480  31.857  1.00  0.00     0.074 A 
ATOM     15  C   UNL A   1      38.272  30.412  29.718  1.00  0.00     0.049 A 
ATOM     16  N   UNL A   1      38.673  31.017  32.606  1.00  0.00    -0.248 NA
ATOM     17  C   UNL A   1      36.724  32.290  32.605  1.00  0.00     0.031 C 
ATOM     18  C   UNL A   1      38.190  30.112  28.285  1.00  0.00     0.029 A 
ATOM     19  N   UNL A   1      39.290  29.596  30.154  1.00  0.00    -0.354 N 
ATOM     20  C   UNL A   1      38.481  31.540  33.883  1.00  0.00     0.074 A 
ATOM     21  C   UNL A   1      37.267  32.328  33.818  1.00  0.00     0.031 C 
ATOM     22  C   UNL A   1      39.020  29.112  27.985  1.00  0.00     0.029 A 
ATOM     23  C   UNL A   1      39.859  28.855  29.142  1.00  0.00     0.049 A 
ATOM     24  H   UNL A   1      39.582  29.546  31.094  1.00  0.00     0.167 HD
ATOM     25  C   UNL A   1      39.250  31.393  34.994  1.00  0.00     0.034 A 
ATOM     26  C   UNL A   1      40.991  28.129  29.080  1.00  0.00     0.034 A 
ATOM     27  C   UNL A   1      40.434  30.567  35.064  1.00  0.00     0.049 A 
ATOM     28  C   UNL A   1      41.843  28.015  30.297  1.00  0.00     0.074 A 
ATOM     29  C   UNL A   1      41.253  30.328  36.156  1.00  0.00     0.029 A 
ATOM     30  N   UNL A   1      40.976  29.855  34.003  1.00  0.00    -0.354 N 
ATOM     31  N   UNL A   1      41.629  28.507  31.491  1.00  0.00    -0.248 NA
ATOM     32  C   UNL A   1      43.087  27.250  30.166  1.00  0.00     0.031 C 
ATOM     33  C   UNL A   1      42.313  29.513  35.745  1.00  0.00     0.029 A 
ATOM     34  C   UNL A   1      42.131  29.200  34.408  1.00  0.00     0.049 A 
ATOM     35  H   UNL A   1      40.597  29.821  33.096  1.00  0.00     0.167 HD
ATOM     36  C   UNL A   1      42.705  28.101  32.263  1.00  0.00     0.074 A 
ATOM     37  C   UNL A   1      43.561  27.304  31.404  1.00  0.00     0.031 C 
ATOM     38  C   UNL A   1      42.960  28.375  33.563  1.00  0.00     0.034 A 
BRANCH  25  39
ATOM     39  C   UNL A   1      38.867  32.167  36.238  1.00  0.00     0.023 A 
ATOM     40  C   UNL A   1      39.180  33.535  36.359  1.00  0.00     0.012 A 
ATOM     41  C   UNL A   1      38.131  31.541  37.270  1.00  0.00     0.148 A 
ATOM     42  C   UNL A   1      38.813  34.252  37.501  1.00  0.00     0.002 A 
ATOM     43  C   UNL A   1      37.735  32.272  38.386  1.00  0.00     0.091 A 
ATOM     44  F   UNL A   1      37.838  30.239  37.147  1.00  0.00    -0.205 F 
ATOM     45  C   UNL A   1      38.088  33.624  38.509  1.00  0.00     0.022 A 
BRANCH  43  46
ATOM     46  S   UNL A   1      36.732  31.562  39.698  1.00  0.00     0.127 S 
ATOM     47  O   UNL A   1      37.739  30.854  40.487  1.00  0.00    -0.237 OA
ATOM     48  O   UNL A   1      36.178  32.752  40.347  1.00  0.00    -0.237 OA
ATOM     49  O   UNL A   1      35.744  30.722  39.037  1.00  0.00    -0.744 OA
ENDBRANCH  43  46
ENDBRANCH  25  39
BRANCH  26  50
ATOM     50  C   UNL A   1      41.392  27.545  27.768  1.00  0.00     0.023 A 
ATOM     51  C   UNL A   1      41.860  28.379  26.738  1.00  0.00     0.012 A 
ATOM     52  C   UNL A   1      41.440  26.143  27.597  1.00  0.00     0.148 A 
ATOM     53  C   UNL A   1      42.375  27.826  25.564  1.00  0.00     0.002 A 
ATOM     54  C   UNL A   1      42.027  25.602  26.464  1.00  0.00     0.091 A 
ATOM     55  F   UNL A   1      40.976  25.369  28.589  1.00  0.00    -0.205 F 
ATOM     56  C   UNL A   1      42.480  26.442  25.436  1.00  0.00     0.022 A 
BRANCH  54  57
ATOM     57  S   UNL A   1      42.378  23.847  26.310  1.00  0.00     0.127 S 
ATOM     58  O   UNL A   1      43.098  23.798  25.040  1.00  0.00    -0.237 OA
ATOM     59  O   UNL A   1      43.200  23.600  27.496  1.00  0.00    -0.237 OA
ATOM     60  O   UNL A   1      41.083  23.180  26.329  1.00  0.00    -0.744 OA
ENDBRANCH  54  57
ENDBRANCH  26  50
BRANCH  38  61
ATOM     61  C   UNL A   1      44.192  27.766  34.171  1.00  0.00     0.023 A 
ATOM     62  C   UNL A   1      45.416  28.463  34.140  1.00  0.00     0.012 A 
ATOM     63  C   UNL A   1      44.112  26.529  34.840  1.00  0.00     0.148 A 
ATOM     64  C   UNL A   1      46.548  27.927  34.754  1.00  0.00     0.002 A 
ATOM     65  C   UNL A   1      45.231  26.027  35.492  1.00  0.00     0.091 A 
ATOM     66  F   UNL A   1      42.943  25.874  34.829  1.00  0.00    -0.205 F 
ATOM     67  C   UNL A   1      46.452  26.719  35.441  1.00  0.00     0.022 A 
BRANCH  65  68
ATOM     68  S   UNL A   1      45.177  24.530  36.481  1.00  0.00     0.127 S 
ATOM     69  O   UNL A   1      46.577  24.380  36.873  1.00  0.00    -0.237 OA
ATOM     70  O   UNL A   1      44.276  24.914  37.569  1.00  0.00    -0.237 OA
ATOM     71  O   UNL A   1      44.663  23.484  35.607  1.00  0.00    -0.744 OA
ENDBRANCH  65  68
ENDBRANCH  38  61
ENDBRANCH  12  13
ENDBRANCH   5   7
ENDBRANCH   2   3
ENDBRANCH   1   2
BRANCH   1  72
ATOM     72  C   UNL A   1      32.812  28.644  26.025  1.00  0.00     0.023 C 
BRANCH  72  73
ATOM     73  C   UNL A   1      32.898  27.147  26.295  1.00  0.00     0.116 C 
BRANCH  73  74
ATOM     74  N   UNL A   1      31.670  26.507  26.677  1.00  0.00    -0.351 N 
ATOM     75  C   UNL A   1      30.831  25.821  25.829  1.00  0.00     0.283 C 
ATOM     76  H   UNL A   1      31.406  26.565  27.624  1.00  0.00     0.163 HD
ATOM     77  O   UNL A   1      30.026  25.053  26.366  1.00  0.00    -0.268 OA
BRANCH  75  78
ATOM     78  C   UNL A   1      30.904  26.071  24.274  1.00  0.00     0.307 C 
BRANCH  78  79
ATOM     79  N   UNL A   1      31.035  24.879  23.408  1.00  0.00    -0.318 N 
ATOM     80  C   UNL A   1      32.144  24.818  22.454  1.00  0.00     0.284 C 
ATOM     81  C   UNL A   1      30.790  23.558  23.960  1.00  0.00     0.284 C 
ATOM     82  H   UNL A   1      30.196  25.122  22.881  1.00  0.00     0.349 HD
ATOM     83  C   UNL A   1      33.483  24.182  22.921  1.00  0.00     0.178 C 
ATOM     84  C   UNL A   1      32.015  22.851  24.556  1.00  0.00     0.178 C 
ATOM     85  N   UNL A   1      33.335  23.104  23.912  1.00  0.00    -0.360 N 
BRANCH  85  86
ATOM     86  C   UNL A   1      34.434  22.731  24.754  1.00  0.00     0.037 A 
ATOM     87  C   UNL A   1      35.138  21.059  24.686  1.00  0.00     0.026 A 
ATOM     88  C   UNL A   1      35.467  24.083  25.378  1.00  0.00     0.026 A 
ATOM     89  C   UNL A   1      36.871  20.753  25.158  1.00  0.00     0.002 A 
ATOM     90  C   UNL A   1      37.195  23.827  25.809  1.00  0.00     0.002 A 
ATOM     91  C   UNL A   1      37.934  22.163  25.625  1.00  0.00     0.000 A 
ENDBRANCH  85  86
ENDBRANCH  78  79
BRANCH  78  92
ATOM     92  C   UNL A   1      29.637  26.812  23.831  1.00  0.00     0.044 A 
ATOM     93  C   UNL A   1      28.324  26.435  24.079  1.00  0.00     0.094 A 
ATOM     94  C   UNL A   1      29.557  28.059  23.114  1.00  0.00     0.009 A 
ATOM     95  N   UNL A   1      27.482  27.392  23.593  1.00  0.00    -0.361 N 
ATOM     96  C   UNL A   1      28.203  28.394  22.993  1.00  0.00     0.049 A 
ATOM     97  C   UNL A   1      30.510  28.947  22.570  1.00  0.00     0.014 A 
ATOM     98  H   UNL A   1      26.500  27.367  23.663  1.00  0.00     0.166 HD
ATOM     99  C   UNL A   1      27.758  29.565  22.366  1.00  0.00     0.065 A 
ATOM    100  C   UNL A   1      30.082  30.120  21.932  1.00  0.00     0.040 A 
ATOM    101  C   UNL A   1      28.727  30.413  21.840  1.00  0.00     0.125 A 
ATOM    102  F   UNL A   1      28.342  31.542  21.228  1.00  0.00    -0.207 F 
ENDBRANCH  78  92
ENDBRANCH  75  78
ENDBRANCH  73  74
ENDBRANCH  72  73
ENDBRANCH   1  72
TORSDOF 17
ENDMDL
MODEL 3
REMARK VINA RESULT:     -14.7      5.319      8.936
REMARK SMILES O=C(NCCCCNC(=O)[C@H](c1c[nH]c2cc(F)ccc12)[NH+]1CCN(c2ccccc2)CC1)c1ccc(-c2c3nc(c(-c4cccc(S(=O)(=O)[O-])c4F)c4ccc([nH]4)c(-c4cccc(S(=O)(=O)[O-])c4F)c4nc(c(-c5cccc(S(=O)(=O)[O-])c5F)c5ccc2[nH]5)C=C4)C=C3)cc1
REMARK SMILES IDX 5 1 4 2 3 3 1 4 2 5 34 7 35 8 96 9 36 10 95 11 37 12 38 13
REMARK SMILES IDX 39 14 89 15 40 16 94 17 88 18 90 19 41 20 93 21 87 22 86 23
REMARK SMILES IDX 42 25 74 26 54 27 73 28 55 29 58 30 72 31 91 32 56 33 57 34
REMARK SMILES IDX 71 36 92 37 59 38 43 39 44 40 52 41 45 42 47 43 53 44 46 45
REMARK SMILES IDX 48 46 49 47 50 48 51 49 75 50 76 51 84 52 77 53 79 54 85 55
REMARK SMILES IDX 78 56 80 57 81 58 82 59 83 60 60 61 61 62 69 63 62 64 64 65
REMARK SMILES IDX 70 66 63 67 65 68 66 69 67 70 68 71 6 72 7 73 8 74 9 75
REMARK SMILES IDX 10 77 11 78 22 79 23 80 33 81 24 83 32 84 25 85 26 86 27 87
REMARK SMILES IDX 31 88 28 89 30 90 29 91 12 92 13 93 21 94 14 95 15 96 20 97
REMARK SMILES IDX 16 99 19 100 17 101 18 102
REMARK H PARENT 3 6 90 24 58 35 8 76 22 82 14 98
REMARK Flexibility Score: inf
ROOT
ATOM      1  C   UNL A   1      31.711  29.203  26.481  1.00  0.00     0.023 C 
ENDROOT
BRANCH   1   2
ATOM      2  C   UNL A   1      31.743  30.905  26.208  1.00  0.00     0.116 C 
BRANCH   2   3
ATOM      3  N   UNL A   1      32.623  32.506  27.238  1.00  0.00    -0.352 N 
ATOM      4  O   UNL A   1      33.495  34.174  28.567  1.00  0.00    -0.269 OA
ATOM      5  C   UNL A   1      33.727  33.095  28.008  1.00  0.00     0.251 C 
ATOM      6  H   UNL A   1      31.959  33.230  27.172  1.00  0.00     0.163 HD
BRANCH   5   7
ATOM      7  C   UNL A   1      35.118  32.551  28.163  1.00  0.00     0.039 A 
ATOM      8  C   UNL A   1      35.221  31.211  28.496  1.00  0.00     0.014 A 
ATOM      9  C   UNL A   1      36.269  33.354  28.211  1.00  0.00     0.014 A 
ATOM     10  C   UNL A   1      36.315  30.796  29.243  1.00  0.00     0.010 A 
ATOM     11  C   UNL A   1      37.471  32.833  28.750  1.00  0.00     0.010 A 
ATOM     12  C   UNL A   1      37.497  31.557  29.338  1.00  0.00    -0.014 A 
BRANCH  12  13
ATOM     13  C   UNL A   1      38.703  30.920  29.983  1.00  0.00     0.031 A 
ATOM     14  C   UNL A   1      39.580  29.889  29.303  1.00  0.00     0.074 A 
ATOM     15  C   UNL A   1      39.061  31.334  31.223  1.00  0.00     0.049 A 
ATOM     16  N   UNL A   1      40.591  29.212  29.799  1.00  0.00    -0.248 NA
ATOM     17  C   UNL A   1      39.300  29.566  27.895  1.00  0.00     0.031 C 
ATOM     18  C   UNL A   1      38.324  32.318  32.021  1.00  0.00     0.029 A 
ATOM     19  N   UNL A   1      40.132  31.015  32.025  1.00  0.00    -0.354 N 
ATOM     20  C   UNL A   1      41.011  28.332  28.806  1.00  0.00     0.074 A 
ATOM     21  C   UNL A   1      40.169  28.589  27.655  1.00  0.00     0.031 C 
ATOM     22  C   UNL A   1      39.010  32.609  33.127  1.00  0.00     0.029 A 
ATOM     23  C   UNL A   1      40.114  31.671  33.236  1.00  0.00     0.049 A 
ATOM     24  H   UNL A   1      40.839  30.382  31.761  1.00  0.00     0.167 HD
ATOM     25  C   UNL A   1      41.991  27.390  28.852  1.00  0.00     0.034 A 
ATOM     26  C   UNL A   1      40.812  31.490  34.373  1.00  0.00     0.034 A 
ATOM     27  C   UNL A   1      42.859  27.172  29.987  1.00  0.00     0.049 A 
ATOM     28  C   UNL A   1      41.852  30.424  34.419  1.00  0.00     0.074 A 
ATOM     29  C   UNL A   1      43.903  26.269  30.111  1.00  0.00     0.029 A 
ATOM     30  N   UNL A   1      42.783  27.850  31.195  1.00  0.00    -0.354 N 
ATOM     31  N   UNL A   1      42.237  29.619  33.461  1.00  0.00    -0.248 NA
ATOM     32  C   UNL A   1      42.555  30.237  35.692  1.00  0.00     0.031 C 
ATOM     33  C   UNL A   1      44.424  26.368  31.406  1.00  0.00     0.029 A 
ATOM     34  C   UNL A   1      43.741  27.369  32.076  1.00  0.00     0.049 A 
ATOM     35  H   UNL A   1      42.142  28.569  31.398  1.00  0.00     0.167 HD
ATOM     36  C   UNL A   1      43.240  28.836  34.009  1.00  0.00     0.074 A 
ATOM     37  C   UNL A   1      43.416  29.278  35.379  1.00  0.00     0.031 C 
ATOM     38  C   UNL A   1      43.941  27.836  33.426  1.00  0.00     0.034 A 
BRANCH  25  39
ATOM     39  C   UNL A   1      42.172  26.485  27.653  1.00  0.00     0.023 A 
ATOM     40  C   UNL A   1      42.693  26.987  26.445  1.00  0.00     0.012 A 
ATOM     41  C   UNL A   1      41.881  25.105  27.749  1.00  0.00     0.148 A 
ATOM     42  C   UNL A   1      42.874  26.148  25.341  1.00  0.00     0.002 A 
ATOM     43  C   UNL A   1      42.101  24.268  26.660  1.00  0.00     0.091 A 
ATOM     44  F   UNL A   1      41.385  24.636  28.903  1.00  0.00    -0.205 F 
ATOM     45  C   UNL A   1      42.584  24.791  25.450  1.00  0.00     0.022 A 
BRANCH  43  46
ATOM     46  S   UNL A   1      41.827  22.493  26.735  1.00  0.00     0.127 S 
ATOM     47  O   UNL A   1      42.040  22.104  25.341  1.00  0.00    -0.237 OA
ATOM     48  O   UNL A   1      42.876  22.053  27.655  1.00  0.00    -0.237 OA
ATOM     49  O   UNL A   1      40.472  22.318  27.238  1.00  0.00    -0.744 OA
ENDBRANCH  43  46
ENDBRANCH  25  39
BRANCH  26  50
ATOM     50  C   UNL A   1      40.451  32.303  35.569  1.00  0.00     0.023 A 
ATOM     51  C   UNL A   1      41.068  33.547  35.789  1.00  0.00     0.012 A 
ATOM     52  C   UNL A   1      39.390  31.900  36.410  1.00  0.00     0.148 A 
ATOM     53  C   UNL A   1      40.630  34.376  36.822  1.00  0.00     0.002 A 
ATOM     54  C   UNL A   1      38.908  32.765  37.382  1.00  0.00     0.091 A 
ATOM     55  F   UNL A   1      38.825  30.704  36.188  1.00  0.00    -0.205 F 
ATOM     56  C   UNL A   1      39.539  33.998  37.601  1.00  0.00     0.022 A 
BRANCH  54  57
ATOM     57  S   UNL A   1      37.392  32.439  38.289  1.00  0.00     0.127 S 
ATOM     58  O   UNL A   1      37.660  33.103  39.562  1.00  0.00    -0.237 OA
ATOM     59  O   UNL A   1      36.391  33.097  37.448  1.00  0.00    -0.237 OA
ATOM     60  O   UNL A   1      37.268  30.989  38.346  1.00  0.00    -0.744 OA
ENDBRANCH  54  57
ENDBRANCH  26  50
BRANCH  38  61
ATOM     61  C   UNL A   1      45.014  27.173  34.245  1.00  0.00     0.023 A 
ATOM     62  C   UNL A   1      46.330  27.676  34.230  1.00  0.00     0.012 A 
ATOM     63  C   UNL A   1      44.691  26.093  35.089  1.00  0.00     0.148 A 
ATOM     64  C   UNL A   1      47.314  27.101  35.033  1.00  0.00     0.002 A 
ATOM     65  C   UNL A   1      45.664  25.559  35.923  1.00  0.00     0.091 A 
ATOM     66  F   UNL A   1      43.439  25.616  35.063  1.00  0.00    -0.205 F 
ATOM     67  C   UNL A   1      46.979  26.053  35.889  1.00  0.00     0.022 A 
BRANCH  65  68
ATOM     68  S   UNL A   1      45.302  24.276  37.126  1.00  0.00     0.127 S 
ATOM     69  O   UNL A   1      44.932  23.155  36.264  1.00  0.00    -0.237 OA
ATOM     70  O   UNL A   1      46.588  24.124  37.808  1.00  0.00    -0.237 OA
ATOM     71  O   UNL A   1      44.228  24.795  37.962  1.00  0.00    -0.744 OA
ENDBRANCH  65  68
ENDBRANCH  38  61
ENDBRANCH  12  13
ENDBRANCH   5   7
ENDBRANCH   2   3
ENDBRANCH   1   2
BRANCH   1  72
ATOM     72  C   UNL A   1      33.008  28.378  26.372  1.00  0.00     0.023 C 
BRANCH  72  73
ATOM     73  C   UNL A   1      32.850  26.865  26.440  1.00  0.00     0.116 C 
BRANCH  73  74
ATOM     74  N   UNL A   1      31.558  26.386  26.846  1.00  0.00    -0.351 N 
ATOM     75  C   UNL A   1      30.673  25.704  26.042  1.00  0.00     0.283 C 
ATOM     76  H   UNL A   1      31.283  26.561  27.774  1.00  0.00     0.163 HD
ATOM     77  O   UNL A   1      29.786  25.073  26.626  1.00  0.00    -0.268 OA
BRANCH  75  78
ATOM     78  C   UNL A   1      30.802  25.793  24.474  1.00  0.00     0.307 C 
BRANCH  78  79
ATOM     79  N   UNL A   1      30.814  24.515  23.727  1.00  0.00    -0.318 N 
ATOM     80  C   UNL A   1      31.788  24.337  22.649  1.00  0.00     0.284 C 
ATOM     81  C   UNL A   1      30.638  23.263  24.442  1.00  0.00     0.284 C 
ATOM     82  H   UNL A   1      29.914  24.718  23.291  1.00  0.00     0.349 HD
ATOM     83  C   UNL A   1      33.174  23.729  23.003  1.00  0.00     0.178 C 
ATOM     84  C   UNL A   1      31.928  22.600  24.945  1.00  0.00     0.178 C 
ATOM     85  N   UNL A   1      33.153  22.763  24.113  1.00  0.00    -0.360 N 
BRANCH  85  86
ATOM     86  C   UNL A   1      34.352  22.460  24.839  1.00  0.00     0.037 A 
ATOM     87  C   UNL A   1      35.112  20.814  24.744  1.00  0.00     0.026 A 
ATOM     88  C   UNL A   1      35.390  23.870  25.305  1.00  0.00     0.026 A 
ATOM     89  C   UNL A   1      36.897  20.589  25.032  1.00  0.00     0.002 A 
ATOM     90  C   UNL A   1      37.163  23.693  25.551  1.00  0.00     0.002 A 
ATOM     91  C   UNL A   1      37.946  22.053  25.337  1.00  0.00     0.000 A 
ENDBRANCH  85  86
ENDBRANCH  78  79
BRANCH  78  92
ATOM     92  C   UNL A   1      29.633  26.622  23.927  1.00  0.00     0.044 A 
ATOM     93  C   UNL A   1      28.280  26.348  24.070  1.00  0.00     0.094 A 
ATOM     94  C   UNL A   1      29.705  27.864  23.199  1.00  0.00     0.009 A 
ATOM     95  N   UNL A   1      27.554  27.360  23.513  1.00  0.00    -0.361 N 
ATOM     96  C   UNL A   1      28.394  28.298  22.968  1.00  0.00     0.049 A 
ATOM     97  C   UNL A   1      30.763  28.673  22.729  1.00  0.00     0.014 A 
ATOM     98  H   UNL A   1      26.571  27.409  23.504  1.00  0.00     0.166 HD
ATOM     99  C   UNL A   1      28.091  29.492  22.303  1.00  0.00     0.065 A 
ATOM    100  C   UNL A   1      30.477  29.867  22.054  1.00  0.00     0.040 A 
ATOM    101  C   UNL A   1      29.161  30.259  21.852  1.00  0.00     0.125 A 
ATOM    102  F   UNL A   1      28.912  31.408  21.206  1.00  0.00    -0.207 F 
ENDBRANCH  78  92
ENDBRANCH  75  78
ENDBRANCH  73  74
ENDBRANCH  72  73
ENDBRANCH   1  72
TORSDOF 17
ENDMDL
