MODEL 1
REMARK VINA RESULT:     -12.9      0.000      0.000
REMARK SMILES N#Cc1ccc2c(c1)C=C(C(=O)NCCCCNC(=O)c1ccc(-c3c4nc(c(-c5cccc(S(=O)(=O)[O-])c5F)c5ccc([nH]5)c(-c5cccc(S(=O)(=O)[O-])c5F)c5nc(c(-c6cccc(S(=O)(=O)[O-])c6F)c6ccc3[nH]6)C=C5)C=C4)cc1)[C@@H](C(F)(F)F)O2
REMARK SMILES IDX 16 1 15 2 14 3 13 4 11 5 12 6 10 8 3 9 4 10 8 11 5 12 7 13
REMARK SMILES IDX 6 14 9 15 89 16 84 17 2 18 1 19 85 20 86 21 87 22 88 23
REMARK SMILES IDX 17 24 18 25 19 26 20 28 21 29 22 30 83 31 23 32 82 33 24 34
REMARK SMILES IDX 25 35 26 36 76 37 27 38 81 39 75 40 77 41 28 42 80 43 74 44
REMARK SMILES IDX 73 45 29 47 61 48 41 49 60 50 42 51 45 52 59 53 78 54 43 55
REMARK SMILES IDX 44 56 58 58 79 59 46 60 30 61 31 62 39 63 32 64 34 65 40 66
REMARK SMILES IDX 33 67 35 68 36 69 37 70 38 71 62 72 63 73 71 74 64 75 66 76
REMARK SMILES IDX 72 77 65 78 67 79 68 80 69 81 70 82 47 83 48 84 56 85 49 86
REMARK SMILES IDX 51 87 57 88 50 89 52 90 53 91 54 92 55 93
REMARK H PARENT 13 7 18 27 77 46 45 57
REMARK Flexibility Score: inf
ROOT
ATOM      1  C   UNL A   1      35.726  21.780  25.903  1.00  0.00     0.023 C 
ENDROOT
BRANCH   1   2
ATOM      2  C   UNL A   1      35.172  22.952  26.699  1.00  0.00     0.023 C 
BRANCH   2   3
ATOM      3  C   UNL A   1      34.652  24.081  25.818  1.00  0.00     0.116 C 
BRANCH   3   4
ATOM      4  N   UNL A   1      33.205  24.206  25.878  1.00  0.00    -0.352 N 
ATOM      5  C   UNL A   1      32.133  23.526  25.401  1.00  0.00     0.251 C 
ATOM      6  O   UNL A   1      31.027  23.956  25.738  1.00  0.00    -0.270 OA
ATOM      7  H   UNL A   1      32.930  24.992  26.404  1.00  0.00     0.163 HD
BRANCH   5   8
ATOM      8  C   UNL A   1      32.217  22.328  24.511  1.00  0.00     0.067 C 
ATOM      9  C   UNL A   1      32.906  17.564  24.015  1.00  0.00     0.053 A 
ATOM     10  C   UNL A   1      32.528  17.654  22.670  1.00  0.00     0.023 A 
ATOM     11  C   UNL A   1      32.904  18.709  24.825  1.00  0.00     0.031 A 
ATOM     12  C   UNL A   1      32.155  18.883  22.136  1.00  0.00     0.048 A 
ATOM     13  C   UNL A   1      32.529  19.946  24.289  1.00  0.00     0.018 A 
ATOM     14  C   UNL A   1      32.167  20.017  22.942  1.00  0.00     0.128 A 
ATOM     15  C   UNL A   1      32.458  21.148  25.111  1.00  0.00     0.025 C 
ATOM     16  O   UNL A   1      31.760  21.166  22.339  1.00  0.00    -0.475 OA
ATOM     17  C   UNL A   1      32.070  22.407  23.020  1.00  0.00     0.314 C 
BRANCH   9  18
ATOM     18  C   UNL A   1      33.280  16.292  24.556  1.00  0.00     0.099 C 
ATOM     19  N   UNL A   1      33.604  15.266  24.995  1.00  0.00    -0.192 NA
ENDBRANCH   9  18
BRANCH  17  20
ATOM     20  C   UNL A   1      33.297  23.053  22.344  1.00  0.00     0.429 C 
ATOM     21  F   UNL A   1      33.275  22.820  21.008  1.00  0.00    -0.167 F 
ATOM     22  F   UNL A   1      33.340  24.397  22.498  1.00  0.00    -0.167 F 
ATOM     23  F   UNL A   1      34.465  22.567  22.822  1.00  0.00    -0.167 F 
ENDBRANCH  17  20
ENDBRANCH   5   8
ENDBRANCH   3   4
ENDBRANCH   2   3
ENDBRANCH   1   2
BRANCH   1  24
ATOM     24  C   UNL A   1      37.066  22.049  25.233  1.00  0.00     0.116 C 
BRANCH  24  25
ATOM     25  N   UNL A   1      38.031  20.962  25.377  1.00  0.00    -0.352 N 
ATOM     26  C   UNL A   1      39.256  21.006  26.012  1.00  0.00     0.251 C 
ATOM     27  H   UNL A   1      37.779  20.099  24.976  1.00  0.00     0.163 HD
ATOM     28  O   UNL A   1      40.023  20.051  25.972  1.00  0.00    -0.269 OA
BRANCH  26  29
ATOM     29  C   UNL A   1      39.624  22.262  26.693  1.00  0.00     0.039 A 
ATOM     30  C   UNL A   1      39.039  23.455  26.268  1.00  0.00     0.014 A 
ATOM     31  C   UNL A   1      40.684  22.266  27.601  1.00  0.00     0.014 A 
ATOM     32  C   UNL A   1      39.670  24.652  26.561  1.00  0.00     0.010 A 
ATOM     33  C   UNL A   1      41.232  23.488  28.001  1.00  0.00     0.010 A 
ATOM     34  C   UNL A   1      40.774  24.687  27.431  1.00  0.00    -0.014 A 
BRANCH  34  35
ATOM     35  C   UNL A   1      41.417  25.994  27.728  1.00  0.00     0.031 A 
ATOM     36  C   UNL A   1      42.807  26.317  27.243  1.00  0.00     0.074 A 
ATOM     37  C   UNL A   1      40.710  26.918  28.408  1.00  0.00     0.049 A 
ATOM     38  N   UNL A   1      43.495  27.418  27.415  1.00  0.00    -0.248 NA
ATOM     39  C   UNL A   1      43.523  25.286  26.472  1.00  0.00     0.031 C 
ATOM     40  C   UNL A   1      39.355  26.723  28.934  1.00  0.00     0.029 A 
ATOM     41  N   UNL A   1      41.018  28.206  28.762  1.00  0.00    -0.354 N 
ATOM     42  C   UNL A   1      44.730  27.199  26.816  1.00  0.00     0.074 A 
ATOM     43  C   UNL A   1      44.705  25.859  26.274  1.00  0.00     0.031 C 
ATOM     44  C   UNL A   1      38.933  27.860  29.500  1.00  0.00     0.029 A 
ATOM     45  C   UNL A   1      40.012  28.839  29.452  1.00  0.00     0.049 A 
ATOM     46  H   UNL A   1      41.876  28.636  28.544  1.00  0.00     0.167 HD
ATOM     47  C   UNL A   1      45.782  28.045  26.714  1.00  0.00     0.034 A 
ATOM     48  C   UNL A   1      39.960  30.060  30.014  1.00  0.00     0.034 A 
ATOM     49  C   UNL A   1      45.790  29.391  27.218  1.00  0.00     0.049 A 
ATOM     50  C   UNL A   1      41.148  30.965  29.906  1.00  0.00     0.074 A 
ATOM     51  C   UNL A   1      46.798  30.335  27.116  1.00  0.00     0.029 A 
ATOM     52  N   UNL A   1      44.754  29.985  27.918  1.00  0.00    -0.354 N 
ATOM     53  N   UNL A   1      42.280  30.758  29.280  1.00  0.00    -0.248 NA
ATOM     54  C   UNL A   1      41.052  32.274  30.566  1.00  0.00     0.031 C 
ATOM     55  C   UNL A   1      46.385  31.489  27.785  1.00  0.00     0.029 A 
ATOM     56  C   UNL A   1      45.104  31.277  28.269  1.00  0.00     0.049 A 
ATOM     57  H   UNL A   1      43.896  29.553  28.136  1.00  0.00     0.167 HD
ATOM     58  C   UNL A   1      43.024  31.916  29.452  1.00  0.00     0.074 A 
ATOM     59  C   UNL A   1      42.211  32.827  30.230  1.00  0.00     0.031 C 
ATOM     60  C   UNL A   1      44.273  32.190  29.009  1.00  0.00     0.034 A 
BRANCH  47  61
ATOM     61  C   UNL A   1      47.021  27.573  26.003  1.00  0.00     0.023 A 
ATOM     62  C   UNL A   1      47.939  26.748  26.681  1.00  0.00     0.012 A 
ATOM     63  C   UNL A   1      47.201  27.829  24.627  1.00  0.00     0.148 A 
ATOM     64  C   UNL A   1      49.019  26.183  26.002  1.00  0.00     0.002 A 
ATOM     65  C   UNL A   1      48.264  27.241  23.952  1.00  0.00     0.091 A 
ATOM     66  F   UNL A   1      46.314  28.619  24.007  1.00  0.00    -0.205 F 
ATOM     67  C   UNL A   1      49.173  26.419  24.637  1.00  0.00     0.022 A 
BRANCH  65  68
ATOM     68  S   UNL A   1      48.533  27.450  22.188  1.00  0.00     0.127 S 
ATOM     69  O   UNL A   1      49.779  28.214  22.171  1.00  0.00    -0.237 OA
ATOM     70  O   UNL A   1      48.658  26.066  21.732  1.00  0.00    -0.237 OA
ATOM     71  O   UNL A   1      47.368  28.162  21.682  1.00  0.00    -0.744 OA
ENDBRANCH  65  68
ENDBRANCH  47  61
BRANCH  48  72
ATOM     72  C   UNL A   1      38.718  30.480  30.712  1.00  0.00     0.023 A 
ATOM     73  C   UNL A   1      38.612  30.302  32.103  1.00  0.00     0.012 A 
ATOM     74  C   UNL A   1      37.686  31.139  30.014  1.00  0.00     0.148 A 
ATOM     75  C   UNL A   1      37.494  30.774  32.791  1.00  0.00     0.002 A 
ATOM     76  C   UNL A   1      36.593  31.638  30.710  1.00  0.00     0.091 A 
ATOM     77  F   UNL A   1      37.821  31.302  28.691  1.00  0.00    -0.205 F 
ATOM     78  C   UNL A   1      36.492  31.451  32.097  1.00  0.00     0.022 A 
BRANCH  76  79
ATOM     79  S   UNL A   1      35.296  32.594  29.918  1.00  0.00     0.127 S 
ATOM     80  O   UNL A   1      34.362  32.797  31.024  1.00  0.00    -0.237 OA
ATOM     81  O   UNL A   1      36.025  33.791  29.499  1.00  0.00    -0.237 OA
ATOM     82  O   UNL A   1      34.800  31.769  28.827  1.00  0.00    -0.744 OA
ENDBRANCH  76  79
ENDBRANCH  48  72
BRANCH  60  83
ATOM     83  C   UNL A   1      44.856  33.539  29.321  1.00  0.00     0.023 A 
ATOM     84  C   UNL A   1      45.556  33.734  30.526  1.00  0.00     0.012 A 
ATOM     85  C   UNL A   1      44.827  34.565  28.356  1.00  0.00     0.148 A 
ATOM     86  C   UNL A   1      46.219  34.936  30.768  1.00  0.00     0.002 A 
ATOM     87  C   UNL A   1      45.516  35.748  28.591  1.00  0.00     0.091 A 
ATOM     88  F   UNL A   1      44.151  34.350  27.218  1.00  0.00    -0.205 F 
ATOM     89  C   UNL A   1      46.212  35.935  29.797  1.00  0.00     0.022 A 
BRANCH  87  90
ATOM     90  S   UNL A   1      45.611  37.069  27.379  1.00  0.00     0.127 S 
ATOM     91  O   UNL A   1      44.212  37.485  27.285  1.00  0.00    -0.237 OA
ATOM     92  O   UNL A   1      46.491  38.032  28.042  1.00  0.00    -0.237 OA
ATOM     93  O   UNL A   1      46.158  36.473  26.168  1.00  0.00    -0.744 OA
ENDBRANCH  87  90
ENDBRANCH  60  83
ENDBRANCH  34  35
ENDBRANCH  26  29
ENDBRANCH  24  25
ENDBRANCH   1  24
TORSDOF 16
ENDMDL
MODEL 2
REMARK VINA RESULT:     -12.9      5.906     10.771
REMARK SMILES N#Cc1ccc2c(c1)C=C(C(=O)NCCCCNC(=O)c1ccc(-c3c4nc(c(-c5cccc(S(=O)(=O)[O-])c5F)c5ccc([nH]5)c(-c5cccc(S(=O)(=O)[O-])c5F)c5nc(c(-c6cccc(S(=O)(=O)[O-])c6F)c6ccc3[nH]6)C=C5)C=C4)cc1)[C@@H](C(F)(F)F)O2
REMARK SMILES IDX 16 1 15 2 14 3 13 4 11 5 12 6 10 8 3 9 4 10 8 11 5 12 7 13
REMARK SMILES IDX 6 14 9 15 89 16 84 17 2 18 1 19 85 20 86 21 87 22 88 23
REMARK SMILES IDX 17 24 18 25 19 26 20 28 21 29 22 30 83 31 23 32 82 33 24 34
REMARK SMILES IDX 25 35 26 36 76 37 27 38 81 39 75 40 77 41 28 42 80 43 74 44
REMARK SMILES IDX 73 45 29 47 61 48 41 49 60 50 42 51 45 52 59 53 78 54 43 55
REMARK SMILES IDX 44 56 58 58 79 59 46 60 30 61 31 62 39 63 32 64 34 65 40 66
REMARK SMILES IDX 33 67 35 68 36 69 37 70 38 71 62 72 63 73 71 74 64 75 66 76
REMARK SMILES IDX 72 77 65 78 67 79 68 80 69 81 70 82 47 83 48 84 56 85 49 86
REMARK SMILES IDX 51 87 57 88 50 89 52 90 53 91 54 92 55 93
REMARK H PARENT 13 7 18 27 77 46 45 57
REMARK Flexibility Score: inf
ROOT
ATOM      1  C   UNL A   1      32.844  29.356  25.487  1.00  0.00     0.023 C 
ENDROOT
BRANCH   1   2
ATOM      2  C   UNL A   1      34.034  28.496  25.090  1.00  0.00     0.023 C 
BRANCH   2   3
ATOM      3  C   UNL A   1      33.790  27.006  25.296  1.00  0.00     0.116 C 
BRANCH   3   4
ATOM      4  N   UNL A   1      33.587  26.302  24.042  1.00  0.00    -0.352 N 
ATOM      5  C   UNL A   1      32.595  26.182  23.124  1.00  0.00     0.251 C 
ATOM      6  O   UNL A   1      32.856  25.497  22.132  1.00  0.00    -0.270 OA
ATOM      7  H   UNL A   1      34.377  25.771  23.791  1.00  0.00     0.163 HD
BRANCH   5   8
ATOM      8  C   UNL A   1      31.245  26.810  23.250  1.00  0.00     0.067 C 
ATOM      9  C   UNL A   1      28.366  30.640  22.573  1.00  0.00     0.053 A 
ATOM     10  C   UNL A   1      27.258  29.867  22.940  1.00  0.00     0.023 A 
ATOM     11  C   UNL A   1      29.644  30.065  22.536  1.00  0.00     0.031 A 
ATOM     12  C   UNL A   1      27.428  28.527  23.274  1.00  0.00     0.048 A 
ATOM     13  C   UNL A   1      29.817  28.718  22.872  1.00  0.00     0.018 A 
ATOM     14  C   UNL A   1      28.701  27.967  23.247  1.00  0.00     0.128 A 
ATOM     15  C   UNL A   1      31.120  28.068  22.791  1.00  0.00     0.025 C 
ATOM     16  O   UNL A   1      28.764  26.645  23.562  1.00  0.00    -0.475 OA
ATOM     17  C   UNL A   1      30.074  26.109  23.873  1.00  0.00     0.314 C 
BRANCH   9  18
ATOM     18  C   UNL A   1      28.177  32.016  22.223  1.00  0.00     0.099 C 
ATOM     19  N   UNL A   1      28.046  33.135  21.940  1.00  0.00    -0.192 NA
ENDBRANCH   9  18
BRANCH  17  20
ATOM     20  C   UNL A   1      30.211  25.987  25.404  1.00  0.00     0.429 C 
ATOM     21  F   UNL A   1      31.121  25.032  25.721  1.00  0.00    -0.167 F 
ATOM     22  F   UNL A   1      30.636  27.131  25.990  1.00  0.00    -0.167 F 
ATOM     23  F   UNL A   1      29.045  25.651  26.002  1.00  0.00    -0.167 F 
ENDBRANCH  17  20
ENDBRANCH   5   8
ENDBRANCH   3   4
ENDBRANCH   2   3
ENDBRANCH   1   2
BRANCH   1  24
ATOM     24  C   UNL A   1      32.814  29.753  26.957  1.00  0.00     0.116 C 
BRANCH  24  25
ATOM     25  N   UNL A   1      32.682  31.190  27.182  1.00  0.00    -0.352 N 
ATOM     26  C   UNL A   1      33.646  32.057  27.658  1.00  0.00     0.251 C 
ATOM     27  H   UNL A   1      31.806  31.586  26.969  1.00  0.00     0.163 HD
ATOM     28  O   UNL A   1      33.377  33.226  27.904  1.00  0.00    -0.269 OA
BRANCH  26  29
ATOM     29  C   UNL A   1      34.991  31.506  27.907  1.00  0.00     0.039 A 
ATOM     30  C   UNL A   1      35.114  30.163  28.262  1.00  0.00     0.014 A 
ATOM     31  C   UNL A   1      36.085  32.370  27.980  1.00  0.00     0.014 A 
ATOM     32  C   UNL A   1      36.260  29.746  28.918  1.00  0.00     0.010 A 
ATOM     33  C   UNL A   1      37.286  31.904  28.520  1.00  0.00     0.010 A 
ATOM     34  C   UNL A   1      37.362  30.608  29.057  1.00  0.00    -0.014 A 
BRANCH  34  35
ATOM     35  C   UNL A   1      38.577  30.118  29.758  1.00  0.00     0.031 A 
ATOM     36  C   UNL A   1      38.920  30.575  31.153  1.00  0.00     0.074 A 
ATOM     37  C   UNL A   1      39.356  29.210  29.136  1.00  0.00     0.049 A 
ATOM     38  N   UNL A   1      39.940  30.227  31.897  1.00  0.00    -0.248 NA
ATOM     39  C   UNL A   1      38.016  31.539  31.802  1.00  0.00     0.031 C 
ATOM     40  C   UNL A   1      39.132  28.694  27.783  1.00  0.00     0.029 A 
ATOM     41  N   UNL A   1      40.481  28.549  29.559  1.00  0.00    -0.354 N 
ATOM     42  C   UNL A   1      39.826  30.956  33.075  1.00  0.00     0.074 A 
ATOM     43  C   UNL A   1      38.638  31.770  32.953  1.00  0.00     0.031 C 
ATOM     44  C   UNL A   1      40.056  27.766  27.505  1.00  0.00     0.029 A 
ATOM     45  C   UNL A   1      40.987  27.679  28.623  1.00  0.00     0.049 A 
ATOM     46  H   UNL A   1      40.886  28.684  30.445  1.00  0.00     0.167 HD
ATOM     47  C   UNL A   1      40.630  30.935  34.163  1.00  0.00     0.034 A 
ATOM     48  C   UNL A   1      42.092  26.913  28.638  1.00  0.00     0.034 A 
ATOM     49  C   UNL A   1      41.788  30.095  34.299  1.00  0.00     0.049 A 
ATOM     50  C   UNL A   1      42.976  26.928  29.847  1.00  0.00     0.074 A 
ATOM     51  C   UNL A   1      42.635  29.975  35.388  1.00  0.00     0.029 A 
ATOM     52  N   UNL A   1      42.269  29.238  33.322  1.00  0.00    -0.354 N 
ATOM     53  N   UNL A   1      42.811  27.578  30.972  1.00  0.00    -0.248 NA
ATOM     54  C   UNL A   1      44.188  26.099  29.798  1.00  0.00     0.031 C 
ATOM     55  C   UNL A   1      43.646  29.072  35.058  1.00  0.00     0.029 A 
ATOM     56  C   UNL A   1      43.408  28.599  33.777  1.00  0.00     0.049 A 
ATOM     57  H   UNL A   1      41.861  29.105  32.436  1.00  0.00     0.167 HD
ATOM     58  C   UNL A   1      43.886  27.222  31.774  1.00  0.00     0.074 A 
ATOM     59  C   UNL A   1      44.690  26.290  31.013  1.00  0.00     0.031 C 
ATOM     60  C   UNL A   1      44.179  27.643  33.027  1.00  0.00     0.034 A 
BRANCH  47  61
ATOM     61  C   UNL A   1      40.287  31.821  35.331  1.00  0.00     0.023 A 
ATOM     62  C   UNL A   1      40.881  33.093  35.435  1.00  0.00     0.012 A 
ATOM     63  C   UNL A   1      39.275  31.449  36.240  1.00  0.00     0.148 A 
ATOM     64  C   UNL A   1      40.473  33.985  36.426  1.00  0.00     0.002 A 
ATOM     65  C   UNL A   1      38.856  32.354  37.208  1.00  0.00     0.091 A 
ATOM     66  F   UNL A   1      38.729  30.231  36.121  1.00  0.00    -0.205 F 
ATOM     67  C   UNL A   1      39.454  33.621  37.303  1.00  0.00     0.022 A 
BRANCH  65  68
ATOM     68  S   UNL A   1      37.526  31.998  38.363  1.00  0.00     0.127 S 
ATOM     69  O   UNL A   1      37.248  30.594  38.065  1.00  0.00    -0.237 OA
ATOM     70  O   UNL A   1      38.172  32.232  39.654  1.00  0.00    -0.237 OA
ATOM     71  O   UNL A   1      36.449  32.921  38.037  1.00  0.00    -0.744 OA
ENDBRANCH  65  68
ENDBRANCH  47  61
BRANCH  48  72
ATOM     72  C   UNL A   1      42.394  26.060  27.460  1.00  0.00     0.023 A 
ATOM     73  C   UNL A   1      43.165  26.583  26.407  1.00  0.00     0.012 A 
ATOM     74  C   UNL A   1      41.998  24.708  27.428  1.00  0.00     0.148 A 
ATOM     75  C   UNL A   1      43.538  25.771  25.335  1.00  0.00     0.002 A 
ATOM     76  C   UNL A   1      42.403  23.896  26.377  1.00  0.00     0.091 A 
ATOM     77  F   UNL A   1      41.273  24.237  28.451  1.00  0.00    -0.205 F 
ATOM     78  C   UNL A   1      43.168  24.427  25.327  1.00  0.00     0.022 A 
BRANCH  76  79
ATOM     79  S   UNL A   1      42.047  22.137  26.319  1.00  0.00     0.127 S 
ATOM     80  O   UNL A   1      40.602  22.135  26.103  1.00  0.00    -0.237 OA
ATOM     81  O   UNL A   1      42.843  21.712  25.167  1.00  0.00    -0.237 OA
ATOM     82  O   UNL A   1      42.488  21.598  27.597  1.00  0.00    -0.744 OA
ENDBRANCH  76  79
ENDBRANCH  48  72
BRANCH  60  83
ATOM     83  C   UNL A   1      45.408  27.090  33.691  1.00  0.00     0.023 A 
ATOM     84  C   UNL A   1      46.612  27.817  33.644  1.00  0.00     0.012 A 
ATOM     85  C   UNL A   1      45.327  25.922  34.475  1.00  0.00     0.148 A 
ATOM     86  C   UNL A   1      47.722  27.387  34.369  1.00  0.00     0.002 A 
ATOM     87  C   UNL A   1      46.428  25.517  35.219  1.00  0.00     0.091 A 
ATOM     88  F   UNL A   1      44.167  25.250  34.498  1.00  0.00    -0.205 F 
ATOM     89  C   UNL A   1      47.626  26.248  35.166  1.00  0.00     0.022 A 
BRANCH  87  90
ATOM     90  S   UNL A   1      46.385  24.097  36.317  1.00  0.00     0.127 S 
ATOM     91  O   UNL A   1      45.283  24.448  37.212  1.00  0.00    -0.237 OA
ATOM     92  O   UNL A   1      46.095  23.002  35.392  1.00  0.00    -0.237 OA
ATOM     93  O   UNL A   1      47.695  24.032  36.950  1.00  0.00    -0.744 OA
ENDBRANCH  87  90
ENDBRANCH  60  83
ENDBRANCH  34  35
ENDBRANCH  26  29
ENDBRANCH  24  25
ENDBRANCH   1  24
TORSDOF 16
ENDMDL
MODEL 3
REMARK VINA RESULT:     -12.8      1.293      7.630
REMARK SMILES N#Cc1ccc2c(c1)C=C(C(=O)NCCCCNC(=O)c1ccc(-c3c4nc(c(-c5cccc(S(=O)(=O)[O-])c5F)c5ccc([nH]5)c(-c5cccc(S(=O)(=O)[O-])c5F)c5nc(c(-c6cccc(S(=O)(=O)[O-])c6F)c6ccc3[nH]6)C=C5)C=C4)cc1)[C@@H](C(F)(F)F)O2
REMARK SMILES IDX 16 1 15 2 14 3 13 4 11 5 12 6 10 8 3 9 4 10 8 11 5 12 7 13
REMARK SMILES IDX 6 14 9 15 89 16 84 17 2 18 1 19 85 20 86 21 87 22 88 23
REMARK SMILES IDX 17 24 18 25 19 26 20 28 21 29 22 30 83 31 23 32 82 33 24 34
REMARK SMILES IDX 25 35 26 36 76 37 27 38 81 39 75 40 77 41 28 42 80 43 74 44
REMARK SMILES IDX 73 45 29 47 61 48 41 49 60 50 42 51 45 52 59 53 78 54 43 55
REMARK SMILES IDX 44 56 58 58 79 59 46 60 30 61 31 62 39 63 32 64 34 65 40 66
REMARK SMILES IDX 33 67 35 68 36 69 37 70 38 71 62 72 63 73 71 74 64 75 66 76
REMARK SMILES IDX 72 77 65 78 67 79 68 80 69 81 70 82 47 83 48 84 56 85 49 86
REMARK SMILES IDX 51 87 57 88 50 89 52 90 53 91 54 92 55 93
REMARK H PARENT 13 7 18 27 77 46 45 57
REMARK Flexibility Score: inf
ROOT
ATOM      1  C   UNL A   1      35.430  21.825  26.130  1.00  0.00     0.023 C 
ENDROOT
BRANCH   1   2
ATOM      2  C   UNL A   1      34.877  23.033  26.872  1.00  0.00     0.023 C 
BRANCH   2   3
ATOM      3  C   UNL A   1      34.227  24.056  25.950  1.00  0.00     0.116 C 
BRANCH   3   4
ATOM      4  N   UNL A   1      32.776  23.998  25.997  1.00  0.00    -0.352 N 
ATOM      5  C   UNL A   1      31.803  23.189  25.510  1.00  0.00     0.251 C 
ATOM      6  O   UNL A   1      30.648  23.475  25.837  1.00  0.00    -0.270 OA
ATOM      7  H   UNL A   1      32.399  24.742  26.520  1.00  0.00     0.163 HD
BRANCH   5   8
ATOM      8  C   UNL A   1      32.045  22.011  24.622  1.00  0.00     0.067 C 
ATOM      9  C   UNL A   1      33.231  17.344  24.145  1.00  0.00     0.053 A 
ATOM     10  C   UNL A   1      32.904  17.405  22.786  1.00  0.00     0.023 A 
ATOM     11  C   UNL A   1      33.079  18.478  24.957  1.00  0.00     0.031 A 
ATOM     12  C   UNL A   1      32.432  18.593  22.239  1.00  0.00     0.048 A 
ATOM     13  C   UNL A   1      32.605  19.674  24.408  1.00  0.00     0.018 A 
ATOM     14  C   UNL A   1      32.295  19.717  23.047  1.00  0.00     0.128 A 
ATOM     15  C   UNL A   1      32.378  20.858  25.229  1.00  0.00     0.025 C 
ATOM     16  O   UNL A   1      31.801  20.824  22.430  1.00  0.00    -0.475 OA
ATOM     17  C   UNL A   1      31.955  22.085  23.126  1.00  0.00     0.314 C 
BRANCH   9  18
ATOM     18  C   UNL A   1      33.708  16.112  24.698  1.00  0.00     0.099 C 
ATOM     19  N   UNL A   1      34.098  15.123  25.167  1.00  0.00    -0.192 NA
ENDBRANCH   9  18
BRANCH  17  20
ATOM     20  C   UNL A   1      33.138  22.856  22.506  1.00  0.00     0.429 C 
ATOM     21  F   UNL A   1      33.020  24.183  22.761  1.00  0.00    -0.167 F 
ATOM     22  F   UNL A   1      34.338  22.474  23.002  1.00  0.00    -0.167 F 
ATOM     23  F   UNL A   1      33.204  22.705  21.163  1.00  0.00    -0.167 F 
ENDBRANCH  17  20
ENDBRANCH   5   8
ENDBRANCH   3   4
ENDBRANCH   2   3
ENDBRANCH   1   2
BRANCH   1  24
ATOM     24  C   UNL A   1      36.688  22.103  25.320  1.00  0.00     0.116 C 
BRANCH  24  25
ATOM     25  N   UNL A   1      37.681  21.033  25.380  1.00  0.00    -0.352 N 
ATOM     26  C   UNL A   1      38.944  21.090  25.933  1.00  0.00     0.251 C 
ATOM     27  H   UNL A   1      37.419  20.173  24.979  1.00  0.00     0.163 HD
ATOM     28  O   UNL A   1      39.725  20.153  25.824  1.00  0.00    -0.269 OA
BRANCH  26  29
ATOM     29  C   UNL A   1      39.332  22.341  26.612  1.00  0.00     0.039 A 
ATOM     30  C   UNL A   1      38.757  23.541  26.194  1.00  0.00     0.014 A 
ATOM     31  C   UNL A   1      40.400  22.333  27.511  1.00  0.00     0.014 A 
ATOM     32  C   UNL A   1      39.405  24.731  26.482  1.00  0.00     0.010 A 
ATOM     33  C   UNL A   1      40.965  23.547  27.908  1.00  0.00     0.010 A 
ATOM     34  C   UNL A   1      40.517  24.753  27.343  1.00  0.00    -0.014 A 
BRANCH  34  35
ATOM     35  C   UNL A   1      41.177  26.051  27.636  1.00  0.00     0.031 A 
ATOM     36  C   UNL A   1      40.493  27.118  28.451  1.00  0.00     0.074 A 
ATOM     37  C   UNL A   1      42.436  26.246  27.193  1.00  0.00     0.049 A 
ATOM     38  N   UNL A   1      40.947  28.296  28.798  1.00  0.00    -0.248 NA
ATOM     39  C   UNL A   1      39.132  26.839  28.943  1.00  0.00     0.031 C 
ATOM     40  C   UNL A   1      43.203  25.290  26.389  1.00  0.00     0.029 A 
ATOM     41  N   UNL A   1      43.297  27.299  27.365  1.00  0.00    -0.354 N 
ATOM     42  C   UNL A   1      39.922  28.912  29.505  1.00  0.00     0.074 A 
ATOM     43  C   UNL A   1      38.815  27.982  29.541  1.00  0.00     0.031 C 
ATOM     44  C   UNL A   1      44.432  25.778  26.178  1.00  0.00     0.029 A 
ATOM     45  C   UNL A   1      44.516  27.112  26.757  1.00  0.00     0.049 A 
ATOM     46  H   UNL A   1      43.066  28.109  27.873  1.00  0.00     0.167 HD
ATOM     47  C   UNL A   1      39.910  30.136  30.085  1.00  0.00     0.034 A 
ATOM     48  C   UNL A   1      45.580  27.927  26.648  1.00  0.00     0.034 A 
ATOM     49  C   UNL A   1      41.025  31.043  30.082  1.00  0.00     0.049 A 
ATOM     50  C   UNL A   1      45.531  29.284  27.279  1.00  0.00     0.074 A 
ATOM     51  C   UNL A   1      41.117  32.286  30.686  1.00  0.00     0.029 A 
ATOM     52  N   UNL A   1      42.235  30.816  29.446  1.00  0.00    -0.354 N 
ATOM     53  N   UNL A   1      44.573  29.818  27.995  1.00  0.00    -0.248 NA
ATOM     54  C   UNL A   1      46.707  30.146  27.100  1.00  0.00     0.031 C 
ATOM     55  C   UNL A   1      42.369  32.825  30.387  1.00  0.00     0.029 A 
ATOM     56  C   UNL A   1      43.073  31.902  29.630  1.00  0.00     0.049 A 
ATOM     57  H   UNL A   1      42.464  30.004  28.939  1.00  0.00     0.167 HD
ATOM     58  C   UNL A   1      45.037  31.070  28.372  1.00  0.00     0.074 A 
ATOM     59  C   UNL A   1      46.366  31.212  27.814  1.00  0.00     0.031 C 
ATOM     60  C   UNL A   1      44.408  32.018  29.106  1.00  0.00     0.034 A 
BRANCH  47  61
ATOM     61  C   UNL A   1      38.668  30.580  30.809  1.00  0.00     0.023 A 
ATOM     62  C   UNL A   1      38.603  30.462  32.211  1.00  0.00     0.012 A 
ATOM     63  C   UNL A   1      37.632  31.241  30.118  1.00  0.00     0.148 A 
ATOM     64  C   UNL A   1      37.525  30.995  32.917  1.00  0.00     0.002 A 
ATOM     65  C   UNL A   1      36.574  31.792  30.831  1.00  0.00     0.091 A 
ATOM     66  F   UNL A   1      37.717  31.336  28.784  1.00  0.00    -0.205 F 
ATOM     67  C   UNL A   1      36.519  31.671  32.229  1.00  0.00     0.022 A 
BRANCH  65  68
ATOM     68  S   UNL A   1      35.246  32.714  30.046  1.00  0.00     0.127 S 
ATOM     69  O   UNL A   1      34.350  32.955  31.176  1.00  0.00    -0.237 OA
ATOM     70  O   UNL A   1      35.946  33.902  29.557  1.00  0.00    -0.237 OA
ATOM     71  O   UNL A   1      34.708  31.846  29.009  1.00  0.00    -0.744 OA
ENDBRANCH  65  68
ENDBRANCH  47  61
BRANCH  48  72
ATOM     72  C   UNL A   1      46.782  27.448  25.917  1.00  0.00     0.023 A 
ATOM     73  C   UNL A   1      46.924  27.745  24.550  1.00  0.00     0.012 A 
ATOM     74  C   UNL A   1      47.822  26.783  26.596  1.00  0.00     0.148 A 
ATOM     75  C   UNL A   1      48.087  27.386  23.867  1.00  0.00     0.002 A 
ATOM     76  C   UNL A   1      48.991  26.461  25.920  1.00  0.00     0.091 A 
ATOM     77  F   UNL A   1      47.661  26.523  27.901  1.00  0.00    -0.205 F 
ATOM     78  C   UNL A   1      49.123  26.756  24.554  1.00  0.00     0.022 A 
BRANCH  76  79
ATOM     79  S   UNL A   1      50.411  25.725  26.737  1.00  0.00     0.127 S 
ATOM     80  O   UNL A   1      51.333  25.542  25.618  1.00  0.00    -0.237 OA
ATOM     81  O   UNL A   1      50.788  26.777  27.681  1.00  0.00    -0.237 OA
ATOM     82  O   UNL A   1      49.926  24.499  27.353  1.00  0.00    -0.744 OA
ENDBRANCH  76  79
ENDBRANCH  48  72
BRANCH  60  83
ATOM     83  C   UNL A   1      45.140  33.298  29.388  1.00  0.00     0.023 A 
ATOM     84  C   UNL A   1      45.982  33.386  30.512  1.00  0.00     0.012 A 
ATOM     85  C   UNL A   1      45.099  34.359  28.461  1.00  0.00     0.148 A 
ATOM     86  C   UNL A   1      46.774  34.516  30.712  1.00  0.00     0.002 A 
ATOM     87  C   UNL A   1      45.914  35.468  28.651  1.00  0.00     0.091 A 
ATOM     88  F   UNL A   1      44.286  34.246  27.401  1.00  0.00    -0.205 F 
ATOM     89  C   UNL A   1      46.750  35.548  29.776  1.00  0.00     0.022 A 
BRANCH  87  90
ATOM     90  S   UNL A   1      45.994  36.821  27.474  1.00  0.00     0.127 S 
ATOM     91  O   UNL A   1      44.616  37.309  27.489  1.00  0.00    -0.237 OA
ATOM     92  O   UNL A   1      46.966  37.717  28.101  1.00  0.00    -0.237 OA
ATOM     93  O   UNL A   1      46.426  36.238  26.211  1.00  0.00    -0.744 OA
ENDBRANCH  87  90
ENDBRANCH  60  83
ENDBRANCH  34  35
ENDBRANCH  26  29
ENDBRANCH  24  25
ENDBRANCH   1  24
TORSDOF 16
ENDMDL
