MODEL 1
REMARK VINA RESULT:     -11.7      0.000      0.000
REMARK SMILES CC[C@H](Oc1ccccc1/C=C1\SC(N)=[NH+]C1=O)C(=O)NCCCCNC(=O)c1ccc(-c2c3nc(c(-c4cccc(S(=O)(=O)[O-])c4F)c4ccc([nH]4)c(-c4cccc(S(=O)(=O)[O-])c4F)c4nc(c(-c5cccc(S(=O)(=O)[O-])c5F)c5ccc2[nH]5)C=C4)C=C3)cc1
REMARK SMILES IDX 23 1 22 2 21 3 19 4 20 5 3 7 2 8 1 9 4 10 5 11 6 12 10 13
REMARK SMILES IDX 7 14 9 15 8 16 11 17 12 18 13 19 17 20 14 21 16 22 18 23
REMARK SMILES IDX 15 24 24 28 25 29 26 30 27 31 28 33 29 34 30 35 91 36 31 37
REMARK SMILES IDX 90 38 32 39 33 40 34 41 84 42 35 43 89 44 83 45 85 46 36 47
REMARK SMILES IDX 88 48 82 49 81 50 37 52 69 53 49 54 68 55 50 56 53 57 67 58
REMARK SMILES IDX 86 59 51 60 52 61 66 63 87 64 54 65 38 66 39 67 47 68 40 69
REMARK SMILES IDX 42 70 48 71 41 72 43 73 44 74 45 75 46 76 70 77 71 78 79 79
REMARK SMILES IDX 72 80 74 81 80 82 73 83 75 84 76 85 77 86 78 87 55 88 56 89
REMARK SMILES IDX 64 90 57 91 59 92 65 93 58 94 60 95 61 96 62 97 63 98
REMARK H PARENT 21 6 16 25 15 26 15 27 26 32 85 51 53 62
REMARK Flexibility Score: inf
ROOT
ATOM      1  C   UNL A   1      36.263  22.963  23.385  1.00  0.00     0.023 C 
ENDROOT
BRANCH   1   2
ATOM      2  C   UNL A   1      35.231  24.066  23.579  1.00  0.00     0.116 C 
BRANCH   2   3
ATOM      3  N   UNL A   1      33.958  23.693  22.986  1.00  0.00    -0.353 N 
ATOM      4  C   UNL A   1      32.734  23.574  23.598  1.00  0.00     0.261 C 
ATOM      5  O   UNL A   1      31.789  23.132  22.943  1.00  0.00    -0.271 OA
ATOM      6  H   UNL A   1      33.976  23.501  22.020  1.00  0.00     0.163 HD
BRANCH   4   7
ATOM      7  C   UNL A   1      32.536  24.107  25.034  1.00  0.00     0.261 C 
BRANCH   7   8
ATOM      8  C   UNL A   1      31.877  22.951  25.814  1.00  0.00     0.052 C 
ATOM      9  C   UNL A   1      32.202  22.959  27.300  1.00  0.00     0.008 C 
ENDBRANCH   7   8
BRANCH   7  10
ATOM     10  O   UNL A   1      31.861  25.362  24.857  1.00  0.00    -0.480 OA
BRANCH  10  11
ATOM     11  C   UNL A   1      32.390  26.563  25.222  1.00  0.00     0.127 A 
ATOM     12  C   UNL A   1      33.648  26.654  25.821  1.00  0.00     0.047 A 
ATOM     13  C   UNL A   1      31.551  27.697  25.229  1.00  0.00     0.018 A 
ATOM     14  C   UNL A   1      34.102  27.856  26.367  1.00  0.00     0.004 A 
ATOM     15  C   UNL A   1      32.007  28.896  25.802  1.00  0.00     0.012 A 
ATOM     16  C   UNL A   1      33.280  28.974  26.365  1.00  0.00     0.001 A 
BRANCH  13  17
ATOM     17  C   UNL A   1      30.208  27.710  24.629  1.00  0.00     0.036 C 
ATOM     18  C   UNL A   1      29.827  28.337  23.511  1.00  0.00     0.110 C 
ATOM     19  S   UNL A   1      30.742  29.307  22.438  1.00  0.00     0.006 SA
ATOM     20  C   UNL A   1      28.397  28.363  23.071  1.00  0.00     0.346 C 
ATOM     21  C   UNL A   1      29.248  30.033  21.891  1.00  0.00     0.314 C 
ATOM     22  N   UNL A   1      28.160  29.440  22.242  1.00  0.00    -0.200 N 
ATOM     23  O   UNL A   1      27.572  27.541  23.426  1.00  0.00    -0.240 OA
ATOM     24  N   UNL A   1      29.323  31.175  21.180  1.00  0.00    -0.281 N 
ATOM     25  H   UNL A   1      27.263  29.724  21.951  1.00  0.00     0.316 HD
ATOM     26  H   UNL A   1      30.202  31.558  20.956  1.00  0.00     0.302 HD
ATOM     27  H   UNL A   1      28.500  31.626  20.885  1.00  0.00     0.302 HD
ENDBRANCH  13  17
ENDBRANCH  10  11
ENDBRANCH   7  10
ENDBRANCH   4   7
ENDBRANCH   2   3
ENDBRANCH   1   2
BRANCH   1  28
ATOM     28  C   UNL A   1      36.082  21.759  24.296  1.00  0.00     0.023 C 
BRANCH  28  29
ATOM     29  C   UNL A   1      36.851  21.843  25.602  1.00  0.00     0.116 C 
BRANCH  29  30
ATOM     30  N   UNL A   1      37.909  20.845  25.710  1.00  0.00    -0.352 N 
ATOM     31  C   UNL A   1      39.213  21.032  26.114  1.00  0.00     0.251 C 
ATOM     32  H   UNL A   1      37.661  19.925  25.464  1.00  0.00     0.163 HD
ATOM     33  O   UNL A   1      40.029  20.120  26.047  1.00  0.00    -0.269 OA
BRANCH  31  34
ATOM     34  C   UNL A   1      39.615  22.370  26.591  1.00  0.00     0.039 A 
ATOM     35  C   UNL A   1      40.620  22.484  27.556  1.00  0.00     0.014 A 
ATOM     36  C   UNL A   1      39.070  23.509  25.995  1.00  0.00     0.014 A 
ATOM     37  C   UNL A   1      41.139  23.746  27.860  1.00  0.00     0.010 A 
ATOM     38  C   UNL A   1      39.664  24.742  26.216  1.00  0.00     0.010 A 
ATOM     39  C   UNL A   1      40.697  24.878  27.158  1.00  0.00    -0.014 A 
BRANCH  39  40
ATOM     40  C   UNL A   1      41.265  26.233  27.381  1.00  0.00     0.031 A 
ATOM     41  C   UNL A   1      42.656  26.533  26.888  1.00  0.00     0.074 A 
ATOM     42  C   UNL A   1      40.613  27.129  28.147  1.00  0.00     0.049 A 
ATOM     43  N   UNL A   1      43.427  27.552  27.154  1.00  0.00    -0.248 NA
ATOM     44  C   UNL A   1      43.281  25.516  26.024  1.00  0.00     0.031 C 
ATOM     45  C   UNL A   1      39.294  26.931  28.751  1.00  0.00     0.029 A 
ATOM     46  N   UNL A   1      40.995  28.372  28.588  1.00  0.00    -0.354 N 
ATOM     47  C   UNL A   1      44.648  27.266  26.556  1.00  0.00     0.074 A 
ATOM     48  C   UNL A   1      44.524  25.962  25.943  1.00  0.00     0.031 C 
ATOM     49  C   UNL A   1      38.982  28.008  29.489  1.00  0.00     0.029 A 
ATOM     50  C   UNL A   1      40.092  28.955  29.447  1.00  0.00     0.049 A 
ATOM     51  H   UNL A   1      41.837  28.805  28.317  1.00  0.00     0.167 HD
ATOM     52  C   UNL A   1      45.764  28.029  26.494  1.00  0.00     0.034 A 
ATOM     53  C   UNL A   1      40.160  30.110  30.139  1.00  0.00     0.034 A 
ATOM     54  C   UNL A   1      45.852  29.357  27.037  1.00  0.00     0.049 A 
ATOM     55  C   UNL A   1      41.377  30.983  29.991  1.00  0.00     0.074 A 
ATOM     56  C   UNL A   1      46.891  30.262  26.929  1.00  0.00     0.029 A 
ATOM     57  N   UNL A   1      44.860  29.969  27.787  1.00  0.00    -0.354 N 
ATOM     58  N   UNL A   1      42.469  30.761  29.301  1.00  0.00    -0.248 NA
ATOM     59  C   UNL A   1      41.359  32.277  30.688  1.00  0.00     0.031 C 
ATOM     60  C   UNL A   1      46.534  31.418  27.631  1.00  0.00     0.029 A 
ATOM     61  C   UNL A   1      45.261  31.241  28.152  1.00  0.00     0.049 A 
ATOM     62  H   UNL A   1      43.998  29.559  28.025  1.00  0.00     0.167 HD
ATOM     63  C   UNL A   1      43.249  31.903  29.442  1.00  0.00     0.074 A 
ATOM     64  C   UNL A   1      42.502  32.818  30.281  1.00  0.00     0.031 C 
ATOM     65  C   UNL A   1      44.477  32.164  28.931  1.00  0.00     0.034 A 
BRANCH  52  66
ATOM     66  C   UNL A   1      46.956  27.461  25.770  1.00  0.00     0.023 A 
ATOM     67  C   UNL A   1      47.826  26.576  26.439  1.00  0.00     0.012 A 
ATOM     68  C   UNL A   1      47.207  27.788  24.424  1.00  0.00     0.148 A 
ATOM     69  C   UNL A   1      48.956  26.069  25.800  1.00  0.00     0.002 A 
ATOM     70  C   UNL A   1      48.308  27.236  23.776  1.00  0.00     0.091 A 
ATOM     71  F   UNL A   1      46.386  28.650  23.807  1.00  0.00    -0.205 F 
ATOM     72  C   UNL A   1      49.191  26.391  24.466  1.00  0.00     0.022 A 
BRANCH  70  73
ATOM     73  S   UNL A   1      48.643  27.526  22.035  1.00  0.00     0.127 S 
ATOM     74  O   UNL A   1      49.793  28.425  22.101  1.00  0.00    -0.237 OA
ATOM     75  O   UNL A   1      48.948  26.179  21.550  1.00  0.00    -0.237 OA
ATOM     76  O   UNL A   1      47.422  28.102  21.487  1.00  0.00    -0.744 OA
ENDBRANCH  70  73
ENDBRANCH  52  66
BRANCH  53  77
ATOM     77  C   UNL A   1      39.004  30.530  30.981  1.00  0.00     0.023 A 
ATOM     78  C   UNL A   1      38.983  30.183  32.346  1.00  0.00     0.012 A 
ATOM     79  C   UNL A   1      37.964  31.322  30.457  1.00  0.00     0.148 A 
ATOM     80  C   UNL A   1      37.936  30.598  33.169  1.00  0.00     0.002 A 
ATOM     81  C   UNL A   1      36.953  31.779  31.295  1.00  0.00     0.091 A 
ATOM     82  F   UNL A   1      38.003  31.637  29.154  1.00  0.00    -0.205 F 
ATOM     83  C   UNL A   1      36.928  31.405  32.647  1.00  0.00     0.022 A 
BRANCH  81  84
ATOM     84  S   UNL A   1      35.693  32.937  30.748  1.00  0.00     0.127 S 
ATOM     85  O   UNL A   1      36.487  33.919  30.015  1.00  0.00    -0.237 OA
ATOM     86  O   UNL A   1      34.844  32.083  29.917  1.00  0.00    -0.237 OA
ATOM     87  O   UNL A   1      35.051  33.423  31.962  1.00  0.00    -0.744 OA
ENDBRANCH  81  84
ENDBRANCH  53  77
BRANCH  65  88
ATOM     88  C   UNL A   1      45.084  33.514  29.204  1.00  0.00     0.023 A 
ATOM     89  C   UNL A   1      45.872  33.715  30.354  1.00  0.00     0.012 A 
ATOM     90  C   UNL A   1      44.966  34.550  28.255  1.00  0.00     0.148 A 
ATOM     91  C   UNL A   1      46.519  34.932  30.563  1.00  0.00     0.002 A 
ATOM     92  C   UNL A   1      45.652  35.741  28.446  1.00  0.00     0.091 A 
ATOM     93  F   UNL A   1      44.195  34.342  27.176  1.00  0.00    -0.205 F 
ATOM     94  C   UNL A   1      46.422  35.938  29.604  1.00  0.00     0.022 A 
BRANCH  92  95
ATOM     95  S   UNL A   1      45.669  37.051  27.216  1.00  0.00     0.127 S 
ATOM     96  O   UNL A   1      46.481  38.070  27.878  1.00  0.00    -0.237 OA
ATOM     97  O   UNL A   1      46.315  36.398  26.077  1.00  0.00    -0.237 OA
ATOM     98  O   UNL A   1      44.275  37.413  26.995  1.00  0.00    -0.744 OA
ENDBRANCH  92  95
ENDBRANCH  65  88
ENDBRANCH  39  40
ENDBRANCH  31  34
ENDBRANCH  29  30
ENDBRANCH  28  29
ENDBRANCH   1  28
TORSDOF 18
ENDMDL
MODEL 2
REMARK VINA RESULT:     -11.5      1.472      2.103
REMARK SMILES CC[C@H](Oc1ccccc1/C=C1\SC(N)=[NH+]C1=O)C(=O)NCCCCNC(=O)c1ccc(-c2c3nc(c(-c4cccc(S(=O)(=O)[O-])c4F)c4ccc([nH]4)c(-c4cccc(S(=O)(=O)[O-])c4F)c4nc(c(-c5cccc(S(=O)(=O)[O-])c5F)c5ccc2[nH]5)C=C4)C=C3)cc1
REMARK SMILES IDX 23 1 22 2 21 3 19 4 20 5 3 7 2 8 1 9 4 10 5 11 6 12 10 13
REMARK SMILES IDX 7 14 9 15 8 16 11 17 12 18 13 19 17 20 14 21 16 22 18 23
REMARK SMILES IDX 15 24 24 28 25 29 26 30 27 31 28 33 29 34 30 35 91 36 31 37
REMARK SMILES IDX 90 38 32 39 33 40 34 41 84 42 35 43 89 44 83 45 85 46 36 47
REMARK SMILES IDX 88 48 82 49 81 50 37 52 69 53 49 54 68 55 50 56 53 57 67 58
REMARK SMILES IDX 86 59 51 60 52 61 66 63 87 64 54 65 38 66 39 67 47 68 40 69
REMARK SMILES IDX 42 70 48 71 41 72 43 73 44 74 45 75 46 76 70 77 71 78 79 79
REMARK SMILES IDX 72 80 74 81 80 82 73 83 75 84 76 85 77 86 78 87 55 88 56 89
REMARK SMILES IDX 64 90 57 91 59 92 65 93 58 94 60 95 61 96 62 97 63 98
REMARK H PARENT 21 6 16 25 15 26 15 27 26 32 85 51 53 62
REMARK Flexibility Score: inf
ROOT
ATOM      1  C   UNL A   1      36.760  22.860  23.551  1.00  0.00     0.023 C 
ENDROOT
BRANCH   1   2
ATOM      2  C   UNL A   1      35.477  23.551  23.993  1.00  0.00     0.116 C 
BRANCH   2   3
ATOM      3  N   UNL A   1      34.793  24.145  22.856  1.00  0.00    -0.353 N 
ATOM      4  C   UNL A   1      33.538  23.865  22.374  1.00  0.00     0.261 C 
ATOM      5  O   UNL A   1      33.178  24.397  21.323  1.00  0.00    -0.271 OA
ATOM      6  H   UNL A   1      35.295  24.839  22.369  1.00  0.00     0.163 HD
BRANCH   4   7
ATOM      7  C   UNL A   1      32.567  23.001  23.209  1.00  0.00     0.261 C 
BRANCH   7   8
ATOM      8  C   UNL A   1      32.327  21.726  22.373  1.00  0.00     0.052 C 
ATOM      9  C   UNL A   1      32.299  20.453  23.204  1.00  0.00     0.008 C 
ENDBRANCH   7   8
BRANCH   7  10
ATOM     10  O   UNL A   1      31.487  23.890  23.531  1.00  0.00    -0.480 OA
BRANCH  10  11
ATOM     11  C   UNL A   1      30.923  23.979  24.768  1.00  0.00     0.127 A 
ATOM     12  C   UNL A   1      30.824  22.866  25.605  1.00  0.00     0.047 A 
ATOM     13  C   UNL A   1      30.206  25.147  25.101  1.00  0.00     0.018 A 
ATOM     14  C   UNL A   1      30.077  22.915  26.784  1.00  0.00     0.004 A 
ATOM     15  C   UNL A   1      29.439  25.179  26.278  1.00  0.00     0.012 A 
ATOM     16  C   UNL A   1      29.379  24.068  27.117  1.00  0.00     0.001 A 
BRANCH  13  17
ATOM     17  C   UNL A   1      30.239  26.373  24.289  1.00  0.00     0.036 C 
ATOM     18  C   UNL A   1      31.237  27.259  24.202  1.00  0.00     0.110 C 
ATOM     19  S   UNL A   1      32.761  27.267  24.983  1.00  0.00     0.006 SA
ATOM     20  C   UNL A   1      31.097  28.529  23.424  1.00  0.00     0.346 C 
ATOM     21  C   UNL A   1      32.845  28.991  24.703  1.00  0.00     0.314 C 
ATOM     22  N   UNL A   1      31.988  29.481  23.876  1.00  0.00    -0.200 N 
ATOM     23  O   UNL A   1      30.286  28.680  22.528  1.00  0.00    -0.240 OA
ATOM     24  N   UNL A   1      33.763  29.699  25.391  1.00  0.00    -0.281 N 
ATOM     25  H   UNL A   1      31.971  30.426  23.599  1.00  0.00     0.316 HD
ATOM     26  H   UNL A   1      34.380  29.239  26.003  1.00  0.00     0.302 HD
ATOM     27  H   UNL A   1      33.814  30.675  25.280  1.00  0.00     0.302 HD
ENDBRANCH  13  17
ENDBRANCH  10  11
ENDBRANCH   7  10
ENDBRANCH   4   7
ENDBRANCH   2   3
ENDBRANCH   1   2
BRANCH   1  28
ATOM     28  C   UNL A   1      37.042  21.539  24.251  1.00  0.00     0.023 C 
BRANCH  28  29
ATOM     29  C   UNL A   1      37.609  21.684  25.651  1.00  0.00     0.116 C 
BRANCH  29  30
ATOM     30  N   UNL A   1      38.709  20.766  25.923  1.00  0.00    -0.352 N 
ATOM     31  C   UNL A   1      39.943  21.056  26.461  1.00  0.00     0.251 C 
ATOM     32  H   UNL A   1      38.550  19.822  25.692  1.00  0.00     0.163 HD
ATOM     33  O   UNL A   1      40.818  20.200  26.528  1.00  0.00    -0.269 OA
BRANCH  31  34
ATOM     34  C   UNL A   1      40.202  22.436  26.920  1.00  0.00     0.039 A 
ATOM     35  C   UNL A   1      41.095  22.655  27.972  1.00  0.00     0.014 A 
ATOM     36  C   UNL A   1      39.641  23.510  26.228  1.00  0.00     0.014 A 
ATOM     37  C   UNL A   1      41.493  23.961  28.274  1.00  0.00     0.010 A 
ATOM     38  C   UNL A   1      40.123  24.790  26.455  1.00  0.00     0.010 A 
ATOM     39  C   UNL A   1      41.046  25.033  27.486  1.00  0.00    -0.014 A 
BRANCH  39  40
ATOM     40  C   UNL A   1      41.493  26.433  27.707  1.00  0.00     0.031 A 
ATOM     41  C   UNL A   1      42.907  26.812  27.357  1.00  0.00     0.074 A 
ATOM     42  C   UNL A   1      40.700  27.310  28.354  1.00  0.00     0.049 A 
ATOM     43  N   UNL A   1      43.574  27.893  27.659  1.00  0.00    -0.248 NA
ATOM     44  C   UNL A   1      43.693  25.810  26.615  1.00  0.00     0.031 C 
ATOM     45  C   UNL A   1      39.337  27.041  28.818  1.00  0.00     0.029 A 
ATOM     46  N   UNL A   1      40.946  28.592  28.777  1.00  0.00    -0.354 N 
ATOM     47  C   UNL A   1      44.871  27.672  27.213  1.00  0.00     0.074 A 
ATOM     48  C   UNL A   1      44.905  26.341  26.651  1.00  0.00     0.031 C 
ATOM     49  C   UNL A   1      38.873  28.121  29.466  1.00  0.00     0.029 A 
ATOM     50  C   UNL A   1      39.915  29.142  29.503  1.00  0.00     0.049 A 
ATOM     51  H   UNL A   1      41.783  29.073  28.580  1.00  0.00     0.167 HD
ATOM     52  C   UNL A   1      45.933  28.511  27.239  1.00  0.00     0.034 A 
ATOM     53  C   UNL A   1      39.827  30.325  30.144  1.00  0.00     0.034 A 
ATOM     54  C   UNL A   1      45.871  29.861  27.726  1.00  0.00     0.049 A 
ATOM     55  C   UNL A   1      40.992  31.276  30.091  1.00  0.00     0.074 A 
ATOM     56  C   UNL A   1      46.853  30.833  27.692  1.00  0.00     0.029 A 
ATOM     57  N   UNL A   1      44.761  30.429  28.334  1.00  0.00    -0.354 N 
ATOM     58  N   UNL A   1      42.167  31.106  29.536  1.00  0.00    -0.248 NA
ATOM     59  C   UNL A   1      40.809  32.592  30.721  1.00  0.00     0.031 C 
ATOM     60  C   UNL A   1      46.342  31.987  28.296  1.00  0.00     0.029 A 
ATOM     61  C   UNL A   1      45.033  31.740  28.681  1.00  0.00     0.049 A 
ATOM     62  H   UNL A   1      43.907  29.968  28.494  1.00  0.00     0.167 HD
ATOM     63  C   UNL A   1      42.849  32.305  29.710  1.00  0.00     0.074 A 
ATOM     64  C   UNL A   1      41.952  33.196  30.418  1.00  0.00     0.031 C 
ATOM     65  C   UNL A   1      44.107  32.634  29.326  1.00  0.00     0.034 A 
BRANCH  52  66
ATOM     66  C   UNL A   1      47.235  28.002  26.678  1.00  0.00     0.023 A 
ATOM     67  C   UNL A   1      48.274  27.619  27.552  1.00  0.00     0.012 A 
ATOM     68  C   UNL A   1      47.426  27.885  25.288  1.00  0.00     0.148 A 
ATOM     69  C   UNL A   1      49.500  27.182  27.053  1.00  0.00     0.002 A 
ATOM     70  C   UNL A   1      48.634  27.398  24.799  1.00  0.00     0.091 A 
ATOM     71  F   UNL A   1      46.440  28.275  24.468  1.00  0.00    -0.205 F 
ATOM     72  C   UNL A   1      49.676  27.062  25.678  1.00  0.00     0.022 A 
BRANCH  70  73
ATOM     73  S   UNL A   1      48.922  27.128  23.047  1.00  0.00     0.127 S 
ATOM     74  O   UNL A   1      48.326  28.328  22.461  1.00  0.00    -0.237 OA
ATOM     75  O   UNL A   1      50.382  27.075  22.977  1.00  0.00    -0.237 OA
ATOM     76  O   UNL A   1      48.257  25.872  22.725  1.00  0.00    -0.744 OA
ENDBRANCH  70  73
ENDBRANCH  52  66
BRANCH  53  77
ATOM     77  C   UNL A   1      38.557  30.694  30.833  1.00  0.00     0.023 A 
ATOM     78  C   UNL A   1      38.424  30.442  32.212  1.00  0.00     0.012 A 
ATOM     79  C   UNL A   1      37.514  31.346  30.149  1.00  0.00     0.148 A 
ATOM     80  C   UNL A   1      37.265  30.815  32.894  1.00  0.00     0.002 A 
ATOM     81  C   UNL A   1      36.386  31.764  30.845  1.00  0.00     0.091 A 
ATOM     82  F   UNL A   1      37.661  31.571  28.835  1.00  0.00    -0.205 F 
ATOM     83  C   UNL A   1      36.252  31.486  32.214  1.00  0.00     0.022 A 
BRANCH  81  84
ATOM     84  S   UNL A   1      35.095  32.758  30.088  1.00  0.00     0.127 S 
ATOM     85  O   UNL A   1      34.585  31.854  29.061  1.00  0.00    -0.237 OA
ATOM     86  O   UNL A   1      34.193  32.986  31.217  1.00  0.00    -0.237 OA
ATOM     87  O   UNL A   1      35.758  33.960  29.598  1.00  0.00    -0.744 OA
ENDBRANCH  81  84
ENDBRANCH  53  77
BRANCH  65  88
ATOM     88  C   UNL A   1      44.587  34.034  29.601  1.00  0.00     0.023 A 
ATOM     89  C   UNL A   1      45.236  34.331  30.815  1.00  0.00     0.012 A 
ATOM     90  C   UNL A   1      44.497  35.024  28.601  1.00  0.00     0.148 A 
ATOM     91  C   UNL A   1      45.772  35.599  31.037  1.00  0.00     0.002 A 
ATOM     92  C   UNL A   1      45.076  36.268  28.810  1.00  0.00     0.091 A 
ATOM     93  F   UNL A   1      43.859  34.723  27.460  1.00  0.00    -0.205 F 
ATOM     94  C   UNL A   1      45.706  36.561  30.031  1.00  0.00     0.022 A 
BRANCH  92  95
ATOM     95  S   UNL A   1      45.130  37.532  27.534  1.00  0.00     0.127 S 
ATOM     96  O   UNL A   1      45.893  36.862  26.483  1.00  0.00    -0.237 OA
ATOM     97  O   UNL A   1      43.713  37.726  27.231  1.00  0.00    -0.237 OA
ATOM     98  O   UNL A   1      45.783  38.685  28.138  1.00  0.00    -0.744 OA
ENDBRANCH  92  95
ENDBRANCH  65  88
ENDBRANCH  39  40
ENDBRANCH  31  34
ENDBRANCH  29  30
ENDBRANCH  28  29
ENDBRANCH   1  28
TORSDOF 18
ENDMDL
MODEL 3
REMARK VINA RESULT:     -11.5      3.001      8.448
REMARK SMILES CC[C@H](Oc1ccccc1/C=C1\SC(N)=[NH+]C1=O)C(=O)NCCCCNC(=O)c1ccc(-c2c3nc(c(-c4cccc(S(=O)(=O)[O-])c4F)c4ccc([nH]4)c(-c4cccc(S(=O)(=O)[O-])c4F)c4nc(c(-c5cccc(S(=O)(=O)[O-])c5F)c5ccc2[nH]5)C=C4)C=C3)cc1
REMARK SMILES IDX 23 1 22 2 21 3 19 4 20 5 3 7 2 8 1 9 4 10 5 11 6 12 10 13
REMARK SMILES IDX 7 14 9 15 8 16 11 17 12 18 13 19 17 20 14 21 16 22 18 23
REMARK SMILES IDX 15 24 24 28 25 29 26 30 27 31 28 33 29 34 30 35 91 36 31 37
REMARK SMILES IDX 90 38 32 39 33 40 34 41 84 42 35 43 89 44 83 45 85 46 36 47
REMARK SMILES IDX 88 48 82 49 81 50 37 52 69 53 49 54 68 55 50 56 53 57 67 58
REMARK SMILES IDX 86 59 51 60 52 61 66 63 87 64 54 65 38 66 39 67 47 68 40 69
REMARK SMILES IDX 42 70 48 71 41 72 43 73 44 74 45 75 46 76 70 77 71 78 79 79
REMARK SMILES IDX 72 80 74 81 80 82 73 83 75 84 76 85 77 86 78 87 55 88 56 89
REMARK SMILES IDX 64 90 57 91 59 92 65 93 58 94 60 95 61 96 62 97 63 98
REMARK H PARENT 21 6 16 25 15 26 15 27 26 32 85 51 53 62
REMARK Flexibility Score: inf
ROOT
ATOM      1  C   UNL A   1      39.525  23.121  26.552  1.00  0.00     0.023 C 
ENDROOT
BRANCH   1   2
ATOM      2  C   UNL A   1      38.370  24.029  26.149  1.00  0.00     0.116 C 
BRANCH   2   3
ATOM      3  N   UNL A   1      37.746  23.557  24.924  1.00  0.00    -0.353 N 
ATOM      4  C   UNL A   1      36.411  23.522  24.606  1.00  0.00     0.261 C 
ATOM      5  O   UNL A   1      36.071  22.976  23.555  1.00  0.00    -0.271 OA
ATOM      6  H   UNL A   1      38.361  23.219  24.233  1.00  0.00     0.163 HD
BRANCH   4   7
ATOM      7  C   UNL A   1      35.388  24.266  25.492  1.00  0.00     0.261 C 
BRANCH   7   8
ATOM      8  C   UNL A   1      34.844  23.206  26.471  1.00  0.00     0.052 C 
ATOM      9  C   UNL A   1      35.454  21.827  26.273  1.00  0.00     0.008 C 
ENDBRANCH   7   8
BRANCH   7  10
ATOM     10  O   UNL A   1      34.521  24.925  24.556  1.00  0.00    -0.480 OA
BRANCH  10  11
ATOM     11  C   UNL A   1      33.300  25.434  24.884  1.00  0.00     0.127 A 
ATOM     12  C   UNL A   1      33.175  26.543  25.723  1.00  0.00     0.047 A 
ATOM     13  C   UNL A   1      32.149  24.679  24.579  1.00  0.00     0.018 A 
ATOM     14  C   UNL A   1      31.929  26.941  26.210  1.00  0.00     0.004 A 
ATOM     15  C   UNL A   1      30.903  25.074  25.093  1.00  0.00     0.012 A 
ATOM     16  C   UNL A   1      30.794  26.204  25.902  1.00  0.00     0.001 A 
BRANCH  13  17
ATOM     17  C   UNL A   1      32.169  23.493  23.708  1.00  0.00     0.036 C 
ATOM     18  C   UNL A   1      32.047  22.214  24.080  1.00  0.00     0.110 C 
ATOM     19  S   UNL A   1      31.836  21.548  25.643  1.00  0.00     0.006 SA
ATOM     20  C   UNL A   1      32.200  21.092  23.103  1.00  0.00     0.346 C 
ATOM     21  C   UNL A   1      32.455  20.031  25.030  1.00  0.00     0.314 C 
ATOM     22  N   UNL A   1      32.546  19.923  23.750  1.00  0.00    -0.200 N 
ATOM     23  O   UNL A   1      32.050  21.225  21.902  1.00  0.00    -0.240 OA
ATOM     24  N   UNL A   1      32.833  19.095  25.923  1.00  0.00    -0.281 N 
ATOM     25  H   UNL A   1      32.829  19.102  23.287  1.00  0.00     0.316 HD
ATOM     26  H   UNL A   1      32.726  19.264  26.887  1.00  0.00     0.302 HD
ATOM     27  H   UNL A   1      33.215  18.244  25.611  1.00  0.00     0.302 HD
ENDBRANCH  13  17
ENDBRANCH  10  11
ENDBRANCH   7  10
ENDBRANCH   4   7
ENDBRANCH   2   3
ENDBRANCH   1   2
BRANCH   1  28
ATOM     28  C   UNL A   1      39.370  21.670  26.123  1.00  0.00     0.023 C 
BRANCH  28  29
ATOM     29  C   UNL A   1      40.072  20.674  27.028  1.00  0.00     0.116 C 
BRANCH  29  30
ATOM     30  N   UNL A   1      40.869  19.696  26.297  1.00  0.00    -0.352 N 
ATOM     31  C   UNL A   1      42.143  19.844  25.796  1.00  0.00     0.251 C 
ATOM     32  H   UNL A   1      40.443  18.821  26.142  1.00  0.00     0.163 HD
ATOM     33  O   UNL A   1      42.651  18.973  25.098  1.00  0.00    -0.269 OA
BRANCH  31  34
ATOM     34  C   UNL A   1      42.870  21.097  26.085  1.00  0.00     0.039 A 
ATOM     35  C   UNL A   1      42.982  22.073  25.091  1.00  0.00     0.014 A 
ATOM     36  C   UNL A   1      43.338  21.342  27.377  1.00  0.00     0.014 A 
ATOM     37  C   UNL A   1      43.490  23.333  25.421  1.00  0.00     0.010 A 
ATOM     38  C   UNL A   1      43.734  22.624  27.725  1.00  0.00     0.010 A 
ATOM     39  C   UNL A   1      43.826  23.632  26.750  1.00  0.00    -0.014 A 
BRANCH  39  40
ATOM     40  C   UNL A   1      44.297  24.974  27.177  1.00  0.00     0.031 A 
ATOM     41  C   UNL A   1      43.309  25.940  27.775  1.00  0.00     0.074 A 
ATOM     42  C   UNL A   1      45.550  25.381  26.892  1.00  0.00     0.049 A 
ATOM     43  N   UNL A   1      43.439  27.217  28.014  1.00  0.00    -0.248 NA
ATOM     44  C   UNL A   1      41.974  25.403  28.093  1.00  0.00     0.031 C 
ATOM     45  C   UNL A   1      46.580  24.568  26.242  1.00  0.00     0.029 A 
ATOM     46  N   UNL A   1      46.154  26.601  27.070  1.00  0.00    -0.354 N 
ATOM     47  C   UNL A   1      42.188  27.650  28.437  1.00  0.00     0.074 A 
ATOM     48  C   UNL A   1      41.305  26.506  28.388  1.00  0.00     0.031 C 
ATOM     49  C   UNL A   1      47.684  25.314  26.070  1.00  0.00     0.029 A 
ATOM     50  C   UNL A   1      47.429  26.666  26.556  1.00  0.00     0.049 A 
ATOM     51  H   UNL A   1      45.717  27.359  27.523  1.00  0.00     0.167 HD
ATOM     52  C   UNL A   1      41.812  28.880  28.858  1.00  0.00     0.034 A 
ATOM     53  C   UNL A   1      48.286  27.703  26.466  1.00  0.00     0.034 A 
ATOM     54  C   UNL A   1      42.715  29.991  28.979  1.00  0.00     0.049 A 
ATOM     55  C   UNL A   1      47.876  29.043  27.015  1.00  0.00     0.074 A 
ATOM     56  C   UNL A   1      42.468  31.246  29.504  1.00  0.00     0.029 A 
ATOM     57  N   UNL A   1      44.041  29.977  28.573  1.00  0.00    -0.354 N 
ATOM     58  N   UNL A   1      46.733  29.399  27.547  1.00  0.00    -0.248 NA
ATOM     59  C   UNL A   1      48.883  30.114  26.983  1.00  0.00     0.031 C 
ATOM     60  C   UNL A   1      43.642  31.999  29.399  1.00  0.00     0.029 A 
ATOM     61  C   UNL A   1      44.627  31.203  28.834  1.00  0.00     0.049 A 
ATOM     62  H   UNL A   1      44.497  29.210  28.161  1.00  0.00     0.167 HD
ATOM     63  C   UNL A   1      46.894  30.718  27.952  1.00  0.00     0.074 A 
ATOM     64  C   UNL A   1      48.249  31.098  27.609  1.00  0.00     0.031 C 
ATOM     65  C   UNL A   1      45.996  31.543  28.546  1.00  0.00     0.034 A 
BRANCH  52  66
ATOM     66  C   UNL A   1      40.374  29.066  29.264  1.00  0.00     0.023 A 
ATOM     67  C   UNL A   1      39.409  29.401  28.291  1.00  0.00     0.012 A 
ATOM     68  C   UNL A   1      39.972  28.894  30.602  1.00  0.00     0.148 A 
ATOM     69  C   UNL A   1      38.079  29.616  28.652  1.00  0.00     0.002 A 
ATOM     70  C   UNL A   1      38.634  29.059  30.945  1.00  0.00     0.091 A 
ATOM     71  F   UNL A   1      40.904  28.601  31.520  1.00  0.00    -0.205 F 
ATOM     72  C   UNL A   1      37.691  29.435  29.976  1.00  0.00     0.022 A 
BRANCH  70  73
ATOM     73  S   UNL A   1      38.027  28.763  32.609  1.00  0.00     0.127 S 
ATOM     74  O   UNL A   1      36.658  29.269  32.518  1.00  0.00    -0.237 OA
ATOM     75  O   UNL A   1      38.132  27.308  32.724  1.00  0.00    -0.237 OA
ATOM     76  O   UNL A   1      38.916  29.504  33.494  1.00  0.00    -0.744 OA
ENDBRANCH  70  73
ENDBRANCH  52  66
BRANCH  53  77
ATOM     77  C   UNL A   1      49.643  27.485  25.889  1.00  0.00     0.023 A 
ATOM     78  C   UNL A   1      50.695  27.083  26.734  1.00  0.00     0.012 A 
ATOM     79  C   UNL A   1      49.881  27.609  24.507  1.00  0.00     0.148 A 
ATOM     80  C   UNL A   1      51.966  26.829  26.217  1.00  0.00     0.002 A 
ATOM     81  C   UNL A   1      51.135  27.301  23.990  1.00  0.00     0.091 A 
ATOM     82  F   UNL A   1      48.866  27.997  23.721  1.00  0.00    -0.205 F 
ATOM     83  C   UNL A   1      52.183  26.927  24.845  1.00  0.00     0.022 A 
BRANCH  81  84
ATOM     84  S   UNL A   1      51.471  27.259  22.226  1.00  0.00     0.127 S 
ATOM     85  O   UNL A   1      50.251  26.649  21.704  1.00  0.00    -0.237 OA
ATOM     86  O   UNL A   1      51.632  28.681  21.920  1.00  0.00    -0.237 OA
ATOM     87  O   UNL A   1      52.686  26.470  22.074  1.00  0.00    -0.744 OA
ENDBRANCH  81  84
ENDBRANCH  53  77
BRANCH  65  88
ATOM     88  C   UNL A   1      46.451  32.926  28.927  1.00  0.00     0.023 A 
ATOM     89  C   UNL A   1      47.137  33.136  30.138  1.00  0.00     0.012 A 
ATOM     90  C   UNL A   1      46.298  33.997  28.022  1.00  0.00     0.148 A 
ATOM     91  C   UNL A   1      47.648  34.394  30.452  1.00  0.00     0.002 A 
ATOM     92  C   UNL A   1      46.852  35.234  28.318  1.00  0.00     0.091 A 
ATOM     93  F   UNL A   1      45.625  33.778  26.882  1.00  0.00    -0.205 F 
ATOM     94  C   UNL A   1      47.520  35.438  29.537  1.00  0.00     0.022 A 
BRANCH  92  95
ATOM     95  S   UNL A   1      46.825  36.605  27.157  1.00  0.00     0.127 S 
ATOM     96  O   UNL A   1      47.580  37.625  27.883  1.00  0.00    -0.237 OA
ATOM     97  O   UNL A   1      47.517  36.042  25.998  1.00  0.00    -0.237 OA
ATOM     98  O   UNL A   1      45.420  36.914  26.932  1.00  0.00    -0.744 OA
ENDBRANCH  92  95
ENDBRANCH  65  88
ENDBRANCH  39  40
ENDBRANCH  31  34
ENDBRANCH  29  30
ENDBRANCH  28  29
ENDBRANCH   1  28
TORSDOF 18
ENDMDL
