MODEL 1
REMARK VINA RESULT:     -11.0      0.000      0.000
REMARK SMILES CC(C)C[C@H](NC(=O)[C@H](Cc1ccccc1)NC(=O)CNC(=O)CNC(=O)OCc1ccccc1)C(=O)NCCCCNC(=O)c1ccc(-c2c3nc(c(-c4cccc(S(=O)(=O)[O-])c4F)c4ccc([nH]4)c(-c4cccc(S(=O)(=O)[O-])c4F)c4nc(c(-c5cccc(S(=O)(=O)[O-])c5F)c5ccc2[nH]5)C=C4)C=C3)cc1
REMARK SMILES IDX 5 1 4 2 2 3 1 4 3 5 36 6 37 7 38 8 39 10 40 11 41 12 42 13
REMARK SMILES IDX 43 14 44 15 45 17 46 18 47 19 108 20 48 21 107 22 49 23
REMARK SMILES IDX 50 24 51 25 101 26 52 27 106 28 100 29 102 30 53 31 105 32
REMARK SMILES IDX 99 33 98 34 54 36 86 37 66 38 85 39 67 40 70 41 84 42 103 43
REMARK SMILES IDX 68 44 69 45 83 47 104 48 71 49 55 50 56 51 64 52 57 53 59 54
REMARK SMILES IDX 65 55 58 56 60 57 61 58 62 59 63 60 87 61 88 62 96 63 89 64
REMARK SMILES IDX 91 65 97 66 90 67 92 68 93 69 94 70 95 71 72 72 73 73 81 74
REMARK SMILES IDX 74 75 76 76 82 77 75 78 77 79 78 80 79 81 80 82 6 83 7 84
REMARK SMILES IDX 8 86 9 87 17 88 18 89 19 91 20 92 21 93 22 94 23 96 24 97
REMARK SMILES IDX 25 98 26 99 27 101 28 102 29 103 30 104 31 105 35 106 32 107
REMARK SMILES IDX 34 108 33 109 10 110 11 111 12 112 16 113 13 114 15 115
REMARK SMILES IDX 14 116
REMARK H PARENT 38 9 43 16 102 35 70 46 6 85 17 90 21 95 25 100
REMARK Flexibility Score: inf
ROOT
ATOM      1  C   UNL A   1      30.785  28.068  22.959  1.00  0.00     0.171 C 
ENDROOT
BRANCH   1   2
ATOM      2  C   UNL A   1      30.636  27.278  24.269  1.00  0.00     0.038 C 
BRANCH   2   3
ATOM      3  C   UNL A   1      29.605  26.137  24.410  1.00  0.00    -0.015 C 
ATOM      4  C   UNL A   1      29.443  25.537  25.797  1.00  0.00     0.007 C 
ATOM      5  C   UNL A   1      28.229  26.601  23.912  1.00  0.00     0.007 C 
ENDBRANCH   2   3
ENDBRANCH   1   2
BRANCH   1   6
ATOM      6  C   UNL A   1      30.230  29.498  22.800  1.00  0.00     0.242 C 
ATOM      7  O   UNL A   1      29.857  29.890  21.691  1.00  0.00    -0.273 OA
ATOM      8  N   UNL A   1      30.274  30.437  23.773  1.00  0.00    -0.354 N 
ATOM      9  H   UNL A   1      29.732  31.239  23.590  1.00  0.00     0.163 HD
BRANCH   8  10
ATOM     10  C   UNL A   1      30.978  30.467  25.031  1.00  0.00     0.116 C 
BRANCH  10  11
ATOM     11  C   UNL A   1      30.988  31.869  25.635  1.00  0.00     0.023 C 
BRANCH  11  12
ATOM     12  C   UNL A   1      31.518  31.958  27.073  1.00  0.00     0.023 C 
BRANCH  12  13
ATOM     13  C   UNL A   1      32.792  32.779  27.260  1.00  0.00     0.116 C 
BRANCH  13  14
ATOM     14  N   UNL A   1      32.514  34.160  27.634  1.00  0.00    -0.352 N 
ATOM     15  C   UNL A   1      33.047  34.921  28.643  1.00  0.00     0.251 C 
ATOM     16  H   UNL A   1      31.843  34.616  27.076  1.00  0.00     0.163 HD
ATOM     17  O   UNL A   1      32.559  36.014  28.911  1.00  0.00    -0.269 OA
BRANCH  15  18
ATOM     18  C   UNL A   1      34.196  34.409  29.415  1.00  0.00     0.039 A 
ATOM     19  C   UNL A   1      33.955  33.697  30.591  1.00  0.00     0.014 A 
ATOM     20  C   UNL A   1      35.503  34.626  28.969  1.00  0.00     0.014 A 
ATOM     21  C   UNL A   1      35.029  33.145  31.291  1.00  0.00     0.010 A 
ATOM     22  C   UNL A   1      36.565  34.018  29.631  1.00  0.00     0.010 A 
ATOM     23  C   UNL A   1      36.338  33.274  30.800  1.00  0.00    -0.014 A 
BRANCH  23  24
ATOM     24  C   UNL A   1      37.481  32.628  31.491  1.00  0.00     0.031 A 
ATOM     25  C   UNL A   1      38.199  31.473  30.850  1.00  0.00     0.074 A 
ATOM     26  C   UNL A   1      37.822  33.032  32.731  1.00  0.00     0.049 A 
ATOM     27  N   UNL A   1      39.198  30.766  31.312  1.00  0.00    -0.248 NA
ATOM     28  C   UNL A   1      37.716  31.037  29.529  1.00  0.00     0.031 C 
ATOM     29  C   UNL A   1      37.143  34.083  33.494  1.00  0.00     0.029 A 
ATOM     30  N   UNL A   1      38.806  32.590  33.579  1.00  0.00    -0.354 N 
ATOM     31  C   UNL A   1      39.443  29.787  30.358  1.00  0.00     0.074 A 
ATOM     32  C   UNL A   1      38.464  29.965  29.307  1.00  0.00     0.031 C 
ATOM     33  C   UNL A   1      37.734  34.205  34.693  1.00  0.00     0.029 A 
ATOM     34  C   UNL A   1      38.817  33.232  34.794  1.00  0.00     0.049 A 
ATOM     35  H   UNL A   1      39.445  31.880  33.338  1.00  0.00     0.167 HD
ATOM     36  C   UNL A   1      40.416  28.845  30.339  1.00  0.00     0.034 A 
ATOM     37  C   UNL A   1      39.612  33.057  35.868  1.00  0.00     0.034 A 
ATOM     38  C   UNL A   1      41.416  28.701  31.361  1.00  0.00     0.049 A 
ATOM     39  C   UNL A   1      40.721  32.043  35.799  1.00  0.00     0.074 A 
ATOM     40  C   UNL A   1      42.498  27.839  31.392  1.00  0.00     0.029 A 
ATOM     41  N   UNL A   1      41.456  29.438  32.536  1.00  0.00    -0.354 N 
ATOM     42  N   UNL A   1      41.044  31.241  34.813  1.00  0.00    -0.248 NA
ATOM     43  C   UNL A   1      41.600  31.936  36.972  1.00  0.00     0.031 C 
ATOM     44  C   UNL A   1      43.186  28.047  32.592  1.00  0.00     0.029 A 
ATOM     45  C   UNL A   1      42.542  29.048  33.301  1.00  0.00     0.049 A 
ATOM     46  H   UNL A   1      40.809  30.134  32.788  1.00  0.00     0.167 HD
ATOM     47  C   UNL A   1      42.181  30.560  35.231  1.00  0.00     0.074 A 
ATOM     48  C   UNL A   1      42.504  31.060  36.552  1.00  0.00     0.031 C 
ATOM     49  C   UNL A   1      42.884  29.596  34.589  1.00  0.00     0.034 A 
BRANCH  36  50
ATOM     50  C   UNL A   1      40.486  27.940  29.138  1.00  0.00     0.023 A 
ATOM     51  C   UNL A   1      39.588  26.858  29.037  1.00  0.00     0.012 A 
ATOM     52  C   UNL A   1      41.396  28.182  28.092  1.00  0.00     0.148 A 
ATOM     53  C   UNL A   1      39.615  26.011  27.929  1.00  0.00     0.002 A 
ATOM     54  C   UNL A   1      41.389  27.359  26.971  1.00  0.00     0.091 A 
ATOM     55  F   UNL A   1      42.258  29.201  28.216  1.00  0.00    -0.205 F 
ATOM     56  C   UNL A   1      40.508  26.268  26.893  1.00  0.00     0.022 A 
BRANCH  54  57
ATOM     57  S   UNL A   1      42.451  27.650  25.551  1.00  0.00     0.127 S 
ATOM     58  O   UNL A   1      41.915  28.909  25.036  1.00  0.00    -0.237 OA
ATOM     59  O   UNL A   1      43.773  27.759  26.170  1.00  0.00    -0.237 OA
ATOM     60  O   UNL A   1      42.283  26.494  24.683  1.00  0.00    -0.744 OA
ENDBRANCH  54  57
ENDBRANCH  36  50
BRANCH  37  61
ATOM     61  C   UNL A   1      39.437  33.921  37.071  1.00  0.00     0.023 A 
ATOM     62  C   UNL A   1      39.860  35.263  37.024  1.00  0.00     0.012 A 
ATOM     63  C   UNL A   1      38.824  33.434  38.242  1.00  0.00     0.148 A 
ATOM     64  C   UNL A   1      39.705  36.097  38.132  1.00  0.00     0.002 A 
ATOM     65  C   UNL A   1      38.624  34.285  39.323  1.00  0.00     0.091 A 
ATOM     66  F   UNL A   1      38.440  32.150  38.272  1.00  0.00    -0.205 F 
ATOM     67  C   UNL A   1      39.078  35.612  39.277  1.00  0.00     0.022 A 
BRANCH  65  68
ATOM     68  S   UNL A   1      37.707  33.781  40.783  1.00  0.00     0.127 S 
ATOM     69  O   UNL A   1      38.622  32.822  41.395  1.00  0.00    -0.237 OA
ATOM     70  O   UNL A   1      37.565  35.047  41.504  1.00  0.00    -0.237 OA
ATOM     71  O   UNL A   1      36.451  33.236  40.282  1.00  0.00    -0.744 OA
ENDBRANCH  65  68
ENDBRANCH  37  61
BRANCH  49  72
ATOM     72  C   UNL A   1      44.093  29.031  35.285  1.00  0.00     0.023 A 
ATOM     73  C   UNL A   1      43.955  27.898  36.111  1.00  0.00     0.012 A 
ATOM     74  C   UNL A   1      45.375  29.569  35.057  1.00  0.00     0.148 A 
ATOM     75  C   UNL A   1      45.071  27.327  36.722  1.00  0.00     0.002 A 
ATOM     76  C   UNL A   1      46.488  28.967  35.632  1.00  0.00     0.091 A 
ATOM     77  F   UNL A   1      45.483  30.660  34.284  1.00  0.00    -0.205 F 
ATOM     78  C   UNL A   1      46.336  27.853  36.473  1.00  0.00     0.022 A 
BRANCH  76  79
ATOM     79  S   UNL A   1      48.162  29.521  35.290  1.00  0.00     0.127 S 
ATOM     80  O   UNL A   1      48.937  28.740  36.252  1.00  0.00    -0.237 OA
ATOM     81  O   UNL A   1      48.343  29.122  33.893  1.00  0.00    -0.237 OA
ATOM     82  O   UNL A   1      48.158  30.961  35.507  1.00  0.00    -0.744 OA
ENDBRANCH  76  79
ENDBRANCH  49  72
ENDBRANCH  23  24
ENDBRANCH  15  18
ENDBRANCH  13  14
ENDBRANCH  12  13
ENDBRANCH  11  12
ENDBRANCH  10  11
ENDBRANCH   8  10
ENDBRANCH   1   6
BRANCH   1  83
ATOM     83  N   UNL A   1      32.170  28.103  22.479  1.00  0.00    -0.343 N 
ATOM     84  C   UNL A   1      33.039  27.059  22.368  1.00  0.00     0.243 C 
ATOM     85  H   UNL A   1      32.513  28.984  22.205  1.00  0.00     0.164 HD
ATOM     86  O   UNL A   1      33.667  27.006  21.303  1.00  0.00    -0.273 OA
BRANCH  84  87
ATOM     87  C   UNL A   1      33.270  25.990  23.502  1.00  0.00     0.175 C 
BRANCH  87  88
ATOM     88  N   UNL A   1      33.935  24.825  22.898  1.00  0.00    -0.342 N 
ATOM     89  C   UNL A   1      34.835  23.893  23.315  1.00  0.00     0.240 C 
ATOM     90  H   UNL A   1      33.662  24.684  21.962  1.00  0.00     0.164 HD
ATOM     91  O   UNL A   1      35.346  23.183  22.442  1.00  0.00    -0.273 OA
BRANCH  89  92
ATOM     92  C   UNL A   1      35.285  23.680  24.785  1.00  0.00     0.216 C 
BRANCH  92  93
ATOM     93  N   UNL A   1      36.505  22.953  25.121  1.00  0.00    -0.346 N 
ATOM     94  C   UNL A   1      36.690  21.617  25.377  1.00  0.00     0.239 C 
ATOM     95  H   UNL A   1      37.320  23.503  25.171  1.00  0.00     0.164 HD
ATOM     96  O   UNL A   1      37.835  21.172  25.284  1.00  0.00    -0.273 OA
BRANCH  94  97
ATOM     97  C   UNL A   1      35.495  20.690  25.669  1.00  0.00     0.219 C 
BRANCH  97  98
ATOM     98  N   UNL A   1      35.643  19.487  24.888  1.00  0.00    -0.312 N 
ATOM     99  C   UNL A   1      34.846  18.402  24.790  1.00  0.00     0.407 C 
ATOM    100  H   UNL A   1      36.458  19.452  24.338  1.00  0.00     0.167 HD
ATOM    101  O   UNL A   1      35.356  17.327  24.491  1.00  0.00    -0.225 OA
BRANCH  99 102
ATOM    102  O   UNL A   1      33.542  18.625  25.032  1.00  0.00    -0.445 OA
BRANCH 102 103
ATOM    103  C   UNL A   1      32.820  19.012  23.851  1.00  0.00     0.270 C 
BRANCH 103 104
ATOM    104  C   UNL A   1      32.274  20.421  23.930  1.00  0.00    -0.011 A 
ATOM    105  C   UNL A   1      32.054  21.167  22.765  1.00  0.00     0.007 A 
ATOM    106  C   UNL A   1      31.983  21.014  25.169  1.00  0.00     0.007 A 
ATOM    107  C   UNL A   1      31.581  22.481  22.839  1.00  0.00     0.000 A 
ATOM    108  C   UNL A   1      31.512  22.329  25.242  1.00  0.00     0.000 A 
ATOM    109  C   UNL A   1      31.318  23.064  24.078  1.00  0.00     0.000 A 
ENDBRANCH 103 104
ENDBRANCH 102 103
ENDBRANCH  99 102
ENDBRANCH  97  98
ENDBRANCH  94  97
ENDBRANCH  92  93
ENDBRANCH  89  92
ENDBRANCH  87  88
BRANCH  87 110
ATOM    110  C   UNL A   1      34.186  26.773  24.510  1.00  0.00     0.070 C 
BRANCH 110 111
ATOM    111  C   UNL A   1      33.751  27.651  25.666  1.00  0.00    -0.045 A 
ATOM    112  C   UNL A   1      34.593  28.725  26.013  1.00  0.00     0.004 A 
ATOM    113  C   UNL A   1      32.695  27.375  26.530  1.00  0.00     0.004 A 
ATOM    114  C   UNL A   1      34.357  29.506  27.149  1.00  0.00     0.000 A 
ATOM    115  C   UNL A   1      32.428  28.173  27.648  1.00  0.00     0.000 A 
ATOM    116  C   UNL A   1      33.262  29.238  27.960  1.00  0.00     0.000 A 
ENDBRANCH 110 111
ENDBRANCH  87 110
ENDBRANCH  84  87
ENDBRANCH   1  83
TORSDOF 28
ENDMDL
MODEL 2
REMARK VINA RESULT:     -10.9      1.508      7.258
REMARK SMILES CC(C)C[C@H](NC(=O)[C@H](Cc1ccccc1)NC(=O)CNC(=O)CNC(=O)OCc1ccccc1)C(=O)NCCCCNC(=O)c1ccc(-c2c3nc(c(-c4cccc(S(=O)(=O)[O-])c4F)c4ccc([nH]4)c(-c4cccc(S(=O)(=O)[O-])c4F)c4nc(c(-c5cccc(S(=O)(=O)[O-])c5F)c5ccc2[nH]5)C=C4)C=C3)cc1
REMARK SMILES IDX 5 1 4 2 2 3 1 4 3 5 36 6 37 7 38 8 39 10 40 11 41 12 42 13
REMARK SMILES IDX 43 14 44 15 45 17 46 18 47 19 108 20 48 21 107 22 49 23
REMARK SMILES IDX 50 24 51 25 101 26 52 27 106 28 100 29 102 30 53 31 105 32
REMARK SMILES IDX 99 33 98 34 54 36 86 37 66 38 85 39 67 40 70 41 84 42 103 43
REMARK SMILES IDX 68 44 69 45 83 47 104 48 71 49 55 50 56 51 64 52 57 53 59 54
REMARK SMILES IDX 65 55 58 56 60 57 61 58 62 59 63 60 87 61 88 62 96 63 89 64
REMARK SMILES IDX 91 65 97 66 90 67 92 68 93 69 94 70 95 71 72 72 73 73 81 74
REMARK SMILES IDX 74 75 76 76 82 77 75 78 77 79 78 80 79 81 80 82 6 83 7 84
REMARK SMILES IDX 8 86 9 87 17 88 18 89 19 91 20 92 21 93 22 94 23 96 24 97
REMARK SMILES IDX 25 98 26 99 27 101 28 102 29 103 30 104 31 105 35 106 32 107
REMARK SMILES IDX 34 108 33 109 10 110 11 111 12 112 16 113 13 114 15 115
REMARK SMILES IDX 14 116
REMARK H PARENT 38 9 43 16 102 35 70 46 6 85 17 90 21 95 25 100
REMARK Flexibility Score: inf
ROOT
ATOM      1  C   UNL A   1      30.482  28.496  22.302  1.00  0.00     0.171 C 
ENDROOT
BRANCH   1   2
ATOM      2  C   UNL A   1      29.936  27.385  23.214  1.00  0.00     0.038 C 
BRANCH   2   3
ATOM      3  C   UNL A   1      28.543  27.496  23.874  1.00  0.00    -0.015 C 
ATOM      4  C   UNL A   1      27.471  28.219  23.077  1.00  0.00     0.007 C 
ATOM      5  C   UNL A   1      28.022  26.100  24.246  1.00  0.00     0.007 C 
ENDBRANCH   2   3
ENDBRANCH   1   2
BRANCH   1   6
ATOM      6  C   UNL A   1      29.937  29.938  22.357  1.00  0.00     0.242 C 
ATOM      7  O   UNL A   1      29.609  30.507  21.312  1.00  0.00    -0.273 OA
ATOM      8  N   UNL A   1      29.946  30.707  23.470  1.00  0.00    -0.354 N 
ATOM      9  H   UNL A   1      29.414  31.533  23.399  1.00  0.00     0.163 HD
BRANCH   8  10
ATOM     10  C   UNL A   1      30.602  30.526  24.741  1.00  0.00     0.116 C 
BRANCH  10  11
ATOM     11  C   UNL A   1      30.994  31.864  25.364  1.00  0.00     0.023 C 
BRANCH  11  12
ATOM     12  C   UNL A   1      31.386  31.805  26.848  1.00  0.00     0.023 C 
BRANCH  12  13
ATOM     13  C   UNL A   1      32.680  32.523  27.221  1.00  0.00     0.116 C 
BRANCH  13  14
ATOM     14  N   UNL A   1      32.456  33.910  27.605  1.00  0.00    -0.352 N 
ATOM     15  C   UNL A   1      33.050  34.655  28.592  1.00  0.00     0.251 C 
ATOM     16  H   UNL A   1      31.774  34.385  27.076  1.00  0.00     0.163 HD
ATOM     17  O   UNL A   1      32.604  35.761  28.880  1.00  0.00    -0.269 OA
BRANCH  15  18
ATOM     18  C   UNL A   1      34.215  34.112  29.316  1.00  0.00     0.039 A 
ATOM     19  C   UNL A   1      33.998  33.296  30.428  1.00  0.00     0.014 A 
ATOM     20  C   UNL A   1      35.514  34.401  28.888  1.00  0.00     0.014 A 
ATOM     21  C   UNL A   1      35.090  32.716  31.076  1.00  0.00     0.010 A 
ATOM     22  C   UNL A   1      36.595  33.768  29.495  1.00  0.00     0.010 A 
ATOM     23  C   UNL A   1      36.393  32.923  30.596  1.00  0.00    -0.014 A 
BRANCH  23  24
ATOM     24  C   UNL A   1      37.556  32.251  31.228  1.00  0.00     0.031 A 
ATOM     25  C   UNL A   1      38.108  32.759  32.531  1.00  0.00     0.074 A 
ATOM     26  C   UNL A   1      38.162  31.231  30.589  1.00  0.00     0.049 A 
ATOM     27  N   UNL A   1      39.131  32.321  33.218  1.00  0.00    -0.248 NA
ATOM     28  C   UNL A   1      37.441  33.928  33.129  1.00  0.00     0.031 C 
ATOM     29  C   UNL A   1      37.774  30.707  29.276  1.00  0.00     0.029 A 
ATOM     30  N   UNL A   1      39.249  30.471  30.941  1.00  0.00    -0.354 N 
ATOM     31  C   UNL A   1      39.249  33.174  34.308  1.00  0.00     0.074 A 
ATOM     32  C   UNL A   1      38.217  34.179  34.173  1.00  0.00     0.031 C 
ATOM     33  C   UNL A   1      38.608  29.710  28.939  1.00  0.00     0.029 A 
ATOM     34  C   UNL A   1      39.599  29.537  29.996  1.00  0.00     0.049 A 
ATOM     35  H   UNL A   1      39.731  30.585  31.792  1.00  0.00     0.167 HD
ATOM     36  C   UNL A   1      40.116  33.108  35.347  1.00  0.00     0.034 A 
ATOM     37  C   UNL A   1      40.605  28.641  29.984  1.00  0.00     0.034 A 
ATOM     38  C   UNL A   1      41.108  32.080  35.503  1.00  0.00     0.049 A 
ATOM     39  C   UNL A   1      41.518  28.551  31.176  1.00  0.00     0.074 A 
ATOM     40  C   UNL A   1      41.973  31.872  36.563  1.00  0.00     0.029 A 
ATOM     41  N   UNL A   1      41.369  31.087  34.571  1.00  0.00    -0.354 N 
ATOM     42  N   UNL A   1      41.505  29.259  32.279  1.00  0.00    -0.248 NA
ATOM     43  C   UNL A   1      42.559  27.514  31.141  1.00  0.00     0.031 C 
ATOM     44  C   UNL A   1      42.766  30.759  36.265  1.00  0.00     0.029 A 
ATOM     45  C   UNL A   1      42.385  30.265  35.028  1.00  0.00     0.049 A 
ATOM     46  H   UNL A   1      40.903  30.982  33.711  1.00  0.00     0.167 HD
ATOM     47  C   UNL A   1      42.509  28.734  33.084  1.00  0.00     0.074 A 
ATOM     48  C   UNL A   1      43.097  27.632  32.349  1.00  0.00     0.031 C 
ATOM     49  C   UNL A   1      42.920  29.136  34.311  1.00  0.00     0.034 A 
BRANCH  36  50
ATOM     50  C   UNL A   1      39.980  34.142  36.433  1.00  0.00     0.023 A 
ATOM     51  C   UNL A   1      40.252  35.493  36.136  1.00  0.00     0.012 A 
ATOM     52  C   UNL A   1      39.539  33.793  37.723  1.00  0.00     0.148 A 
ATOM     53  C   UNL A   1      40.120  36.477  37.116  1.00  0.00     0.002 A 
ATOM     54  C   UNL A   1      39.369  34.785  38.683  1.00  0.00     0.091 A 
ATOM     55  F   UNL A   1      39.308  32.501  37.994  1.00  0.00    -0.205 F 
ATOM     56  C   UNL A   1      39.669  36.125  38.384  1.00  0.00     0.022 A 
BRANCH  54  57
ATOM     57  S   UNL A   1      38.723  34.443  40.324  1.00  0.00     0.127 S 
ATOM     58  O   UNL A   1      37.419  33.863  40.012  1.00  0.00    -0.237 OA
ATOM     59  O   UNL A   1      39.703  33.491  40.850  1.00  0.00    -0.237 OA
ATOM     60  O   UNL A   1      38.692  35.723  41.017  1.00  0.00    -0.744 OA
ENDBRANCH  54  57
ENDBRANCH  36  50
BRANCH  37  61
ATOM     61  C   UNL A   1      40.750  27.701  28.835  1.00  0.00     0.023 A 
ATOM     62  C   UNL A   1      39.859  26.617  28.715  1.00  0.00     0.012 A 
ATOM     63  C   UNL A   1      41.734  27.894  27.847  1.00  0.00     0.148 A 
ATOM     64  C   UNL A   1      39.966  25.723  27.649  1.00  0.00     0.002 A 
ATOM     65  C   UNL A   1      41.801  27.031  26.759  1.00  0.00     0.091 A 
ATOM     66  F   UNL A   1      42.581  28.924  27.986  1.00  0.00    -0.205 F 
ATOM     67  C   UNL A   1      40.929  25.936  26.666  1.00  0.00     0.022 A 
BRANCH  65  68
ATOM     68  S   UNL A   1      42.921  27.310  25.383  1.00  0.00     0.127 S 
ATOM     69  O   UNL A   1      42.839  26.039  24.668  1.00  0.00    -0.237 OA
ATOM     70  O   UNL A   1      42.291  28.443  24.703  1.00  0.00    -0.237 OA
ATOM     71  O   UNL A   1      44.209  27.620  25.988  1.00  0.00    -0.744 OA
ENDBRANCH  65  68
ENDBRANCH  37  61
BRANCH  49  72
ATOM     72  C   UNL A   1      44.042  28.370  34.959  1.00  0.00     0.023 A 
ATOM     73  C   UNL A   1      45.377  28.690  34.645  1.00  0.00     0.012 A 
ATOM     74  C   UNL A   1      43.776  27.392  35.938  1.00  0.00     0.148 A 
ATOM     75  C   UNL A   1      46.431  28.028  35.275  1.00  0.00     0.002 A 
ATOM     76  C   UNL A   1      44.830  26.770  36.594  1.00  0.00     0.091 A 
ATOM     77  F   UNL A   1      42.498  27.088  36.208  1.00  0.00    -0.205 F 
ATOM     78  C   UNL A   1      46.158  27.078  36.256  1.00  0.00     0.022 A 
BRANCH  76  79
ATOM     79  S   UNL A   1      44.572  25.604  37.937  1.00  0.00     0.127 S 
ATOM     80  O   UNL A   1      43.651  24.647  37.328  1.00  0.00    -0.237 OA
ATOM     81  O   UNL A   1      45.923  25.089  38.168  1.00  0.00    -0.237 OA
ATOM     82  O   UNL A   1      44.029  26.383  39.041  1.00  0.00    -0.744 OA
ENDBRANCH  76  79
ENDBRANCH  49  72
ENDBRANCH  23  24
ENDBRANCH  15  18
ENDBRANCH  13  14
ENDBRANCH  12  13
ENDBRANCH  11  12
ENDBRANCH  10  11
ENDBRANCH   8  10
ENDBRANCH   1   6
BRANCH   1  83
ATOM     83  N   UNL A   1      31.944  28.600  22.358  1.00  0.00    -0.343 N 
ATOM     84  C   UNL A   1      32.851  27.583  22.369  1.00  0.00     0.243 C 
ATOM     85  H   UNL A   1      32.313  29.512  22.392  1.00  0.00     0.164 HD
ATOM     86  O   UNL A   1      33.813  27.726  21.605  1.00  0.00    -0.273 OA
BRANCH  84  87
ATOM     87  C   UNL A   1      32.727  26.312  23.291  1.00  0.00     0.175 C 
BRANCH  87  88
ATOM     88  N   UNL A   1      33.026  25.127  22.471  1.00  0.00    -0.342 N 
ATOM     89  C   UNL A   1      33.762  23.993  22.632  1.00  0.00     0.240 C 
ATOM     90  H   UNL A   1      32.587  25.163  21.591  1.00  0.00     0.164 HD
ATOM     91  O   UNL A   1      33.967  23.315  21.619  1.00  0.00    -0.273 OA
BRANCH  89  92
ATOM     92  C   UNL A   1      34.380  23.510  23.972  1.00  0.00     0.216 C 
BRANCH  92  93
ATOM     93  N   UNL A   1      35.812  23.274  24.119  1.00  0.00    -0.346 N 
ATOM     94  C   UNL A   1      36.475  22.224  24.703  1.00  0.00     0.239 C 
ATOM     95  H   UNL A   1      36.393  23.975  23.743  1.00  0.00     0.164 HD
ATOM     96  O   UNL A   1      37.658  22.057  24.401  1.00  0.00    -0.273 OA
BRANCH  94  97
ATOM     97  C   UNL A   1      35.738  21.229  25.622  1.00  0.00     0.219 C 
BRANCH  97  98
ATOM     98  N   UNL A   1      35.280  20.118  24.826  1.00  0.00    -0.312 N 
ATOM     99  C   UNL A   1      34.263  19.255  25.029  1.00  0.00     0.407 C 
ATOM    100  H   UNL A   1      35.795  19.963  24.001  1.00  0.00     0.167 HD
ATOM    101  O   UNL A   1      34.340  18.133  24.538  1.00  0.00    -0.225 OA
BRANCH  99 102
ATOM    102  O   UNL A   1      33.243  19.734  25.763  1.00  0.00    -0.445 OA
BRANCH 102 103
ATOM    103  C   UNL A   1      32.218  20.338  24.955  1.00  0.00     0.270 C 
BRANCH 103 104
ATOM    104  C   UNL A   1      31.834  21.722  25.429  1.00  0.00    -0.011 A 
ATOM    105  C   UNL A   1      30.983  22.528  24.661  1.00  0.00     0.007 A 
ATOM    106  C   UNL A   1      32.325  22.232  26.642  1.00  0.00     0.007 A 
ATOM    107  C   UNL A   1      30.655  23.821  25.082  1.00  0.00     0.000 A 
ATOM    108  C   UNL A   1      31.998  23.526  27.061  1.00  0.00     0.000 A 
ATOM    109  C   UNL A   1      31.168  24.322  26.278  1.00  0.00     0.000 A 
ENDBRANCH 103 104
ENDBRANCH 102 103
ENDBRANCH  99 102
ENDBRANCH  97  98
ENDBRANCH  94  97
ENDBRANCH  92  93
ENDBRANCH  89  92
ENDBRANCH  87  88
BRANCH  87 110
ATOM    110  C   UNL A   1      33.813  26.596  24.390  1.00  0.00     0.070 C 
BRANCH 110 111
ATOM    111  C   UNL A   1      33.643  27.378  25.677  1.00  0.00    -0.045 A 
ATOM    112  C   UNL A   1      32.361  27.389  26.261  1.00  0.00     0.004 A 
ATOM    113  C   UNL A   1      34.590  28.238  26.225  1.00  0.00     0.004 A 
ATOM    114  C   UNL A   1      32.064  28.194  27.365  1.00  0.00     0.000 A 
ATOM    115  C   UNL A   1      34.315  29.018  27.354  1.00  0.00     0.000 A 
ATOM    116  C   UNL A   1      33.048  28.999  27.923  1.00  0.00     0.000 A 
ENDBRANCH 110 111
ENDBRANCH  87 110
ENDBRANCH  84  87
ENDBRANCH   1  83
TORSDOF 28
ENDMDL
MODEL 3
REMARK VINA RESULT:     -10.7      5.214     10.612
REMARK SMILES CC(C)C[C@H](NC(=O)[C@H](Cc1ccccc1)NC(=O)CNC(=O)CNC(=O)OCc1ccccc1)C(=O)NCCCCNC(=O)c1ccc(-c2c3nc(c(-c4cccc(S(=O)(=O)[O-])c4F)c4ccc([nH]4)c(-c4cccc(S(=O)(=O)[O-])c4F)c4nc(c(-c5cccc(S(=O)(=O)[O-])c5F)c5ccc2[nH]5)C=C4)C=C3)cc1
REMARK SMILES IDX 5 1 4 2 2 3 1 4 3 5 36 6 37 7 38 8 39 10 40 11 41 12 42 13
REMARK SMILES IDX 43 14 44 15 45 17 46 18 47 19 108 20 48 21 107 22 49 23
REMARK SMILES IDX 50 24 51 25 101 26 52 27 106 28 100 29 102 30 53 31 105 32
REMARK SMILES IDX 99 33 98 34 54 36 86 37 66 38 85 39 67 40 70 41 84 42 103 43
REMARK SMILES IDX 68 44 69 45 83 47 104 48 71 49 55 50 56 51 64 52 57 53 59 54
REMARK SMILES IDX 65 55 58 56 60 57 61 58 62 59 63 60 87 61 88 62 96 63 89 64
REMARK SMILES IDX 91 65 97 66 90 67 92 68 93 69 94 70 95 71 72 72 73 73 81 74
REMARK SMILES IDX 74 75 76 76 82 77 75 78 77 79 78 80 79 81 80 82 6 83 7 84
REMARK SMILES IDX 8 86 9 87 17 88 18 89 19 91 20 92 21 93 22 94 23 96 24 97
REMARK SMILES IDX 25 98 26 99 27 101 28 102 29 103 30 104 31 105 35 106 32 107
REMARK SMILES IDX 34 108 33 109 10 110 11 111 12 112 16 113 13 114 15 115
REMARK SMILES IDX 14 116
REMARK H PARENT 38 9 43 16 102 35 70 46 6 85 17 90 21 95 25 100
REMARK Flexibility Score: inf
ROOT
ATOM      1  C   UNL A   1      34.353  23.097  26.206  1.00  0.00     0.171 C 
ENDROOT
BRANCH   1   2
ATOM      2  C   UNL A   1      35.422  24.178  25.977  1.00  0.00     0.038 C 
BRANCH   2   3
ATOM      3  C   UNL A   1      36.930  23.852  26.060  1.00  0.00    -0.015 C 
ATOM      4  C   UNL A   1      37.711  23.922  24.758  1.00  0.00     0.007 C 
ATOM      5  C   UNL A   1      37.612  24.762  27.091  1.00  0.00     0.007 C 
ENDBRANCH   2   3
ENDBRANCH   1   2
BRANCH   1   6
ATOM      6  C   UNL A   1      34.722  21.668  26.656  1.00  0.00     0.242 C 
ATOM      7  O   UNL A   1      34.669  21.372  27.853  1.00  0.00    -0.273 OA
ATOM      8  N   UNL A   1      35.270  20.738  25.842  1.00  0.00    -0.354 N 
ATOM      9  H   UNL A   1      35.290  19.828  26.218  1.00  0.00     0.163 HD
BRANCH   8  10
ATOM     10  C   UNL A   1      35.833  20.850  24.518  1.00  0.00     0.116 C 
BRANCH  10  11
ATOM     11  C   UNL A   1      37.346  21.052  24.568  1.00  0.00     0.023 C 
BRANCH  11  12
ATOM     12  C   UNL A   1      38.151  19.840  25.059  1.00  0.00     0.023 C 
BRANCH  12  13
ATOM     13  C   UNL A   1      39.139  20.115  26.190  1.00  0.00     0.116 C 
BRANCH  13  14
ATOM     14  N   UNL A   1      40.345  19.304  26.084  1.00  0.00    -0.352 N 
ATOM     15  C   UNL A   1      41.662  19.689  26.061  1.00  0.00     0.251 C 
ATOM     16  H   UNL A   1      40.191  18.334  26.020  1.00  0.00     0.163 HD
ATOM     17  O   UNL A   1      42.535  18.871  25.791  1.00  0.00    -0.269 OA
BRANCH  15  18
ATOM     18  C   UNL A   1      42.018  21.092  26.345  1.00  0.00     0.039 A 
ATOM     19  C   UNL A   1      42.352  21.453  27.651  1.00  0.00     0.014 A 
ATOM     20  C   UNL A   1      42.031  22.041  25.319  1.00  0.00     0.014 A 
ATOM     21  C   UNL A   1      42.763  22.760  27.918  1.00  0.00     0.010 A 
ATOM     22  C   UNL A   1      42.504  23.324  25.575  1.00  0.00     0.010 A 
ATOM     23  C   UNL A   1      42.872  23.696  26.878  1.00  0.00    -0.014 A 
BRANCH  23  24
ATOM     24  C   UNL A   1      43.380  25.067  27.133  1.00  0.00     0.031 A 
ATOM     25  C   UNL A   1      42.469  26.118  27.707  1.00  0.00     0.074 A 
ATOM     26  C   UNL A   1      44.639  25.386  26.776  1.00  0.00     0.049 A 
ATOM     27  N   UNL A   1      42.726  27.372  27.972  1.00  0.00    -0.248 NA
ATOM     28  C   UNL A   1      41.084  25.714  27.997  1.00  0.00     0.031 C 
ATOM     29  C   UNL A   1      45.589  24.477  26.128  1.00  0.00     0.029 A 
ATOM     30  N   UNL A   1      45.330  26.567  26.881  1.00  0.00    -0.354 N 
ATOM     31  C   UNL A   1      41.532  27.915  28.429  1.00  0.00     0.074 A 
ATOM     32  C   UNL A   1      40.539  26.864  28.370  1.00  0.00     0.031 C 
ATOM     33  C   UNL A   1      46.738  25.134  25.898  1.00  0.00     0.029 A 
ATOM     34  C   UNL A   1      46.601  26.512  26.362  1.00  0.00     0.049 A 
ATOM     35  H   UNL A   1      44.950  27.378  27.291  1.00  0.00     0.167 HD
ATOM     36  C   UNL A   1      41.289  29.165  28.890  1.00  0.00     0.034 A 
ATOM     37  C   UNL A   1      47.551  27.464  26.270  1.00  0.00     0.034 A 
ATOM     38  C   UNL A   1      42.289  30.193  28.993  1.00  0.00     0.049 A 
ATOM     39  C   UNL A   1      47.274  28.828  26.841  1.00  0.00     0.074 A 
ATOM     40  C   UNL A   1      42.167  31.462  29.529  1.00  0.00     0.029 A 
ATOM     41  N   UNL A   1      43.596  30.069  28.548  1.00  0.00    -0.354 N 
ATOM     42  N   UNL A   1      46.188  29.271  27.428  1.00  0.00    -0.248 NA
ATOM     43  C   UNL A   1      48.365  29.811  26.775  1.00  0.00     0.031 C 
ATOM     44  C   UNL A   1      43.399  32.111  29.398  1.00  0.00     0.029 A 
ATOM     45  C   UNL A   1      44.291  31.241  28.794  1.00  0.00     0.049 A 
ATOM     46  H   UNL A   1      43.975  29.268  28.120  1.00  0.00     0.167 HD
ATOM     47  C   UNL A   1      46.475  30.570  27.831  1.00  0.00     0.074 A 
ATOM     48  C   UNL A   1      47.845  30.835  27.441  1.00  0.00     0.031 C 
ATOM     49  C   UNL A   1      45.673  31.469  28.451  1.00  0.00     0.034 A 
BRANCH  36  50
ATOM     50  C   UNL A   1      39.899  29.468  29.384  1.00  0.00     0.023 A 
ATOM     51  C   UNL A   1      38.875  29.720  28.448  1.00  0.00     0.012 A 
ATOM     52  C   UNL A   1      39.593  29.455  30.757  1.00  0.00     0.148 A 
ATOM     53  C   UNL A   1      37.574  29.987  28.872  1.00  0.00     0.002 A 
ATOM     54  C   UNL A   1      38.284  29.680  31.171  1.00  0.00     0.091 A 
ATOM     55  F   UNL A   1      40.583  29.237  31.633  1.00  0.00    -0.205 F 
ATOM     56  C   UNL A   1      37.277  29.956  30.231  1.00  0.00     0.022 A 
BRANCH  54  57
ATOM     57  S   UNL A   1      37.785  29.591  32.895  1.00  0.00     0.127 S 
ATOM     58  O   UNL A   1      38.988  30.070  33.574  1.00  0.00    -0.237 OA
ATOM     59  O   UNL A   1      36.652  30.515  32.937  1.00  0.00    -0.237 OA
ATOM     60  O   UNL A   1      37.440  28.198  33.139  1.00  0.00    -0.744 OA
ENDBRANCH  54  57
ENDBRANCH  36  50
BRANCH  37  61
ATOM     61  C   UNL A   1      48.881  27.133  25.685  1.00  0.00     0.023 A 
ATOM     62  C   UNL A   1      49.102  27.345  24.310  1.00  0.00     0.012 A 
ATOM     63  C   UNL A   1      49.934  26.647  26.483  1.00  0.00     0.148 A 
ATOM     64  C   UNL A   1      50.337  27.048  23.734  1.00  0.00     0.002 A 
ATOM     65  C   UNL A   1      51.179  26.405  25.913  1.00  0.00     0.091 A 
ATOM     66  F   UNL A   1      49.701  26.438  27.786  1.00  0.00    -0.205 F 
ATOM     67  C   UNL A   1      51.379  26.590  24.536  1.00  0.00     0.022 A 
BRANCH  65  68
ATOM     68  S   UNL A   1      52.609  25.941  26.896  1.00  0.00     0.127 S 
ATOM     69  O   UNL A   1      52.917  24.614  26.368  1.00  0.00    -0.237 OA
ATOM     70  O   UNL A   1      53.573  26.985  26.542  1.00  0.00    -0.237 OA
ATOM     71  O   UNL A   1      52.160  25.989  28.281  1.00  0.00    -0.744 OA
ENDBRANCH  65  68
ENDBRANCH  37  61
BRANCH  49  72
ATOM     72  C   UNL A   1      46.255  32.818  28.778  1.00  0.00     0.023 A 
ATOM     73  C   UNL A   1      46.947  33.003  29.991  1.00  0.00     0.012 A 
ATOM     74  C   UNL A   1      46.190  33.876  27.850  1.00  0.00     0.148 A 
ATOM     75  C   UNL A   1      47.541  34.230  30.287  1.00  0.00     0.002 A 
ATOM     76  C   UNL A   1      46.823  35.080  28.132  1.00  0.00     0.091 A 
ATOM     77  F   UNL A   1      45.510  33.686  26.710  1.00  0.00    -0.205 F 
ATOM     78  C   UNL A   1      47.489  35.262  29.355  1.00  0.00     0.022 A 
BRANCH  76  79
ATOM     79  S   UNL A   1      46.887  36.431  26.949  1.00  0.00     0.127 S 
ATOM     80  O   UNL A   1      45.476  36.787  26.825  1.00  0.00    -0.237 OA
ATOM     81  O   UNL A   1      47.708  37.421  27.650  1.00  0.00    -0.237 OA
ATOM     82  O   UNL A   1      47.504  35.881  25.750  1.00  0.00    -0.744 OA
ENDBRANCH  76  79
ENDBRANCH  49  72
ENDBRANCH  23  24
ENDBRANCH  15  18
ENDBRANCH  13  14
ENDBRANCH  12  13
ENDBRANCH  11  12
ENDBRANCH  10  11
ENDBRANCH   8  10
ENDBRANCH   1   6
BRANCH   1  83
ATOM     83  N   UNL A   1      33.278  23.550  27.095  1.00  0.00    -0.343 N 
ATOM     84  C   UNL A   1      32.124  24.187  26.747  1.00  0.00     0.243 C 
ATOM     85  H   UNL A   1      33.405  23.374  28.054  1.00  0.00     0.164 HD
ATOM     86  O   UNL A   1      31.098  23.748  27.281  1.00  0.00    -0.273 OA
BRANCH  84  87
ATOM     87  C   UNL A   1      32.066  25.411  25.758  1.00  0.00     0.175 C 
BRANCH  87  88
ATOM     88  N   UNL A   1      30.932  25.201  24.844  1.00  0.00    -0.342 N 
ATOM     89  C   UNL A   1      30.728  25.317  23.503  1.00  0.00     0.240 C 
ATOM     90  H   UNL A   1      30.122  24.905  25.318  1.00  0.00     0.164 HD
ATOM     91  O   UNL A   1      29.556  25.274  23.113  1.00  0.00    -0.273 OA
BRANCH  89  92
ATOM     92  C   UNL A   1      31.843  25.527  22.444  1.00  0.00     0.216 C 
BRANCH  92  93
ATOM     93  N   UNL A   1      33.147  24.882  22.558  1.00  0.00    -0.346 N 
ATOM     94  C   UNL A   1      33.491  23.562  22.409  1.00  0.00     0.239 C 
ATOM     95  H   UNL A   1      33.895  25.485  22.775  1.00  0.00     0.164 HD
ATOM     96  O   UNL A   1      34.677  23.302  22.197  1.00  0.00    -0.273 OA
BRANCH  94  97
ATOM     97  C   UNL A   1      32.419  22.455  22.406  1.00  0.00     0.219 C 
BRANCH  97  98
ATOM     98  N   UNL A   1      32.153  22.065  23.768  1.00  0.00    -0.312 N 
ATOM     99  C   UNL A   1      32.199  20.852  24.357  1.00  0.00     0.407 C 
ATOM    100  H   UNL A   1      31.896  22.805  24.364  1.00  0.00     0.167 HD
ATOM    101  O   UNL A   1      31.489  20.650  25.337  1.00  0.00    -0.225 OA
BRANCH  99 102
ATOM    102  O   UNL A   1      33.047  19.973  23.794  1.00  0.00    -0.445 OA
BRANCH 102 103
ATOM    103  C   UNL A   1      32.411  18.725  23.468  1.00  0.00     0.270 C 
BRANCH 103 104
ATOM    104  C   UNL A   1      33.026  17.546  24.190  1.00  0.00    -0.011 A 
ATOM    105  C   UNL A   1      34.392  17.265  24.060  1.00  0.00     0.007 A 
ATOM    106  C   UNL A   1      32.243  16.705  24.996  1.00  0.00     0.007 A 
ATOM    107  C   UNL A   1      34.954  16.155  24.699  1.00  0.00     0.000 A 
ATOM    108  C   UNL A   1      32.805  15.594  25.633  1.00  0.00     0.000 A 
ATOM    109  C   UNL A   1      34.160  15.316  25.479  1.00  0.00     0.000 A 
ENDBRANCH 103 104
ENDBRANCH 102 103
ENDBRANCH  99 102
ENDBRANCH  97  98
ENDBRANCH  94  97
ENDBRANCH  92  93
ENDBRANCH  89  92
ENDBRANCH  87  88
BRANCH  87 110
ATOM    110  C   UNL A   1      31.856  26.619  26.741  1.00  0.00     0.070 C 
BRANCH 110 111
ATOM    111  C   UNL A   1      32.623  27.925  26.778  1.00  0.00    -0.045 A 
ATOM    112  C   UNL A   1      34.010  27.865  26.539  1.00  0.00     0.004 A 
ATOM    113  C   UNL A   1      32.113  29.144  27.214  1.00  0.00     0.004 A 
ATOM    114  C   UNL A   1      34.831  28.987  26.692  1.00  0.00     0.000 A 
ATOM    115  C   UNL A   1      32.918  30.282  27.332  1.00  0.00     0.000 A 
ATOM    116  C   UNL A   1      34.281  30.203  27.074  1.00  0.00     0.000 A 
ENDBRANCH 110 111
ENDBRANCH  87 110
ENDBRANCH  84  87
ENDBRANCH   1  83
TORSDOF 28
ENDMDL
