MODEL 1
REMARK VINA RESULT:     -11.5      0.000      0.000
REMARK SMILES CC[C@H](C)[C@@H](NC(=O)[C@@H]1CCCN1C(=O)C1CC1)C(=O)NCCCCNC(=O)c1ccc(-c2c3nc(c(-c4cccc(S(=O)(=O)[O-])c4F)c4ccc([nH]4)c(-c4cccc(S(=O)(=O)[O-])c4F)c4nc(c(-c5cccc(S(=O)(=O)[O-])c5F)c5ccc2[nH]5)C=C4)C=C3)cc1
REMARK SMILES IDX 23 1 22 2 21 3 19 4 20 5 5 7 3 8 4 9 2 10 1 11 6 12 7 13
REMARK SMILES IDX 8 15 9 16 10 17 13 18 11 19 12 20 14 21 15 22 16 23 17 24
REMARK SMILES IDX 18 25 24 26 25 27 26 28 27 29 28 31 29 32 30 33 91 34 31 35
REMARK SMILES IDX 90 36 32 37 33 38 34 39 84 40 35 41 89 42 83 43 85 44 36 45
REMARK SMILES IDX 88 46 82 47 81 48 37 50 69 51 49 52 68 53 50 54 53 55 67 56
REMARK SMILES IDX 86 57 51 58 52 59 66 61 87 62 54 63 38 64 39 65 47 66 40 67
REMARK SMILES IDX 42 68 48 69 41 70 43 71 44 72 45 73 46 74 70 75 71 76 79 77
REMARK SMILES IDX 72 78 74 79 80 80 73 81 75 82 76 83 77 84 78 85 55 86 56 87
REMARK SMILES IDX 64 88 57 89 59 90 65 91 58 92 60 93 61 94 62 95 63 96
REMARK H PARENT 21 6 6 14 26 30 85 49 53 60
REMARK Flexibility Score: inf
ROOT
ATOM      1  C   UNL A   1      35.262  21.866  26.293  1.00  0.00     0.023 C 
ENDROOT
BRANCH   1   2
ATOM      2  C   UNL A   1      34.559  23.197  26.066  1.00  0.00     0.116 C 
BRANCH   2   3
ATOM      3  N   UNL A   1      33.361  23.332  26.876  1.00  0.00    -0.354 N 
ATOM      4  C   UNL A   1      32.065  23.469  26.465  1.00  0.00     0.242 C 
ATOM      5  O   UNL A   1      31.178  23.529  27.319  1.00  0.00    -0.273 OA
ATOM      6  H   UNL A   1      33.501  23.322  27.850  1.00  0.00     0.163 HD
BRANCH   4   7
ATOM      7  C   UNL A   1      31.744  23.713  24.980  1.00  0.00     0.174 C 
BRANCH   7   8
ATOM      8  C   UNL A   1      31.776  22.342  24.218  1.00  0.00     0.018 C 
ATOM      9  C   UNL A   1      32.884  22.248  23.161  1.00  0.00     0.010 C 
BRANCH   8  10
ATOM     10  C   UNL A   1      31.849  21.111  25.162  1.00  0.00     0.002 C 
ATOM     11  C   UNL A   1      32.529  19.877  24.584  1.00  0.00     0.004 C 
ENDBRANCH   8  10
ENDBRANCH   7   8
BRANCH   7  12
ATOM     12  N   UNL A   1      30.465  24.453  24.856  1.00  0.00    -0.342 N 
ATOM     13  C   UNL A   1      30.332  25.460  23.930  1.00  0.00     0.243 C 
ATOM     14  H   UNL A   1      29.706  24.222  25.440  1.00  0.00     0.164 HD
ATOM     15  O   UNL A   1      30.097  25.118  22.765  1.00  0.00    -0.273 OA
BRANCH  13  16
ATOM     16  C   UNL A   1      30.586  26.954  24.275  1.00  0.00     0.174 C 
ATOM     17  C   UNL A   1      29.902  27.885  23.256  1.00  0.00     0.037 C 
ATOM     18  N   UNL A   1      31.953  27.476  24.416  1.00  0.00    -0.330 N 
ATOM     19  C   UNL A   1      30.993  28.794  22.705  1.00  0.00     0.024 C 
ATOM     20  C   UNL A   1      32.058  28.774  23.769  1.00  0.00     0.120 C 
BRANCH  18  21
ATOM     21  C   UNL A   1      32.933  27.214  25.369  1.00  0.00     0.226 C 
ATOM     22  O   UNL A   1      33.861  26.450  25.100  1.00  0.00    -0.275 OA
BRANCH  21  23
ATOM     23  C   UNL A   1      32.990  27.820  26.728  1.00  0.00     0.079 C 
ATOM     24  C   UNL A   1      32.459  29.119  27.251  1.00  0.00     0.014 C 
ATOM     25  C   UNL A   1      31.779  27.830  27.623  1.00  0.00     0.014 C 
ENDBRANCH  21  23
ENDBRANCH  18  21
ENDBRANCH  13  16
ENDBRANCH   7  12
ENDBRANCH   4   7
ENDBRANCH   2   3
ENDBRANCH   1   2
BRANCH   1  26
ATOM     26  C   UNL A   1      35.916  21.290  25.039  1.00  0.00     0.023 C 
BRANCH  26  27
ATOM     27  C   UNL A   1      37.401  21.602  24.908  1.00  0.00     0.116 C 
BRANCH  27  28
ATOM     28  N   UNL A   1      38.246  20.515  25.376  1.00  0.00    -0.352 N 
ATOM     29  C   UNL A   1      39.397  20.586  26.125  1.00  0.00     0.251 C 
ATOM     30  H   UNL A   1      37.957  19.609  25.124  1.00  0.00     0.163 HD
ATOM     31  O   UNL A   1      40.067  19.579  26.336  1.00  0.00    -0.269 OA
BRANCH  29  32
ATOM     32  C   UNL A   1      39.843  21.899  26.628  1.00  0.00     0.039 A 
ATOM     33  C   UNL A   1      40.884  21.946  27.556  1.00  0.00     0.014 A 
ATOM     34  C   UNL A   1      39.280  23.079  26.129  1.00  0.00     0.014 A 
ATOM     35  C   UNL A   1      41.419  23.180  27.929  1.00  0.00     0.010 A 
ATOM     36  C   UNL A   1      39.862  24.304  26.450  1.00  0.00     0.010 A 
ATOM     37  C   UNL A   1      40.939  24.366  27.348  1.00  0.00    -0.014 A 
BRANCH  37  38
ATOM     38  C   UNL A   1      41.574  25.675  27.647  1.00  0.00     0.031 A 
ATOM     39  C   UNL A   1      40.803  26.743  28.372  1.00  0.00     0.074 A 
ATOM     40  C   UNL A   1      42.814  25.936  27.184  1.00  0.00     0.049 A 
ATOM     41  N   UNL A   1      41.173  27.959  28.679  1.00  0.00    -0.248 NA
ATOM     42  C   UNL A   1      39.429  26.413  28.785  1.00  0.00     0.031 C 
ATOM     43  C   UNL A   1      43.633  25.015  26.394  1.00  0.00     0.029 A 
ATOM     44  N   UNL A   1      43.590  27.065  27.285  1.00  0.00    -0.354 N 
ATOM     45  C   UNL A   1      40.072  28.551  29.283  1.00  0.00     0.074 A 
ATOM     46  C   UNL A   1      39.009  27.569  29.279  1.00  0.00     0.031 C 
ATOM     47  C   UNL A   1      44.791  25.616  26.077  1.00  0.00     0.029 A 
ATOM     48  C   UNL A   1      44.790  26.973  26.619  1.00  0.00     0.049 A 
ATOM     49  H   UNL A   1      43.314  27.866  27.787  1.00  0.00     0.167 HD
ATOM     50  C   UNL A   1      39.962  29.789  29.819  1.00  0.00     0.034 A 
ATOM     51  C   UNL A   1      45.775  27.877  26.454  1.00  0.00     0.034 A 
ATOM     52  C   UNL A   1      41.037  30.742  29.876  1.00  0.00     0.049 A 
ATOM     53  C   UNL A   1      45.644  29.230  27.101  1.00  0.00     0.074 A 
ATOM     54  C   UNL A   1      41.060  31.971  30.510  1.00  0.00     0.029 A 
ATOM     55  N   UNL A   1      42.272  30.579  29.269  1.00  0.00    -0.354 N 
ATOM     56  N   UNL A   1      44.668  29.698  27.840  1.00  0.00    -0.248 NA
ATOM     57  C   UNL A   1      46.762  30.169  26.920  1.00  0.00     0.031 C 
ATOM     58  C   UNL A   1      42.305  32.562  30.270  1.00  0.00     0.029 A 
ATOM     59  C   UNL A   1      43.059  31.694  29.496  1.00  0.00     0.049 A 
ATOM     60  H   UNL A   1      42.547  29.788  28.753  1.00  0.00     0.167 HD
ATOM     61  C   UNL A   1      45.064  30.971  28.235  1.00  0.00     0.074 A 
ATOM     62  C   UNL A   1      46.381  31.192  27.673  1.00  0.00     0.031 C 
ATOM     63  C   UNL A   1      44.390  31.881  28.979  1.00  0.00     0.034 A 
BRANCH  50  64
ATOM     64  C   UNL A   1      38.648  30.168  30.448  1.00  0.00     0.023 A 
ATOM     65  C   UNL A   1      38.390  29.801  31.784  1.00  0.00     0.012 A 
ATOM     66  C   UNL A   1      37.706  30.944  29.747  1.00  0.00     0.148 A 
ATOM     67  C   UNL A   1      37.203  30.179  32.406  1.00  0.00     0.002 A 
ATOM     68  C   UNL A   1      36.541  31.351  30.388  1.00  0.00     0.091 A 
ATOM     69  F   UNL A   1      37.960  31.262  28.470  1.00  0.00    -0.205 F 
ATOM     70  C   UNL A   1      36.284  30.963  31.714  1.00  0.00     0.022 A 
BRANCH  68  71
ATOM     71  S   UNL A   1      35.330  32.423  29.604  1.00  0.00     0.127 S 
ATOM     72  O   UNL A   1      34.403  32.675  30.705  1.00  0.00    -0.237 OA
ATOM     73  O   UNL A   1      36.143  33.575  29.216  1.00  0.00    -0.237 OA
ATOM     74  O   UNL A   1      34.786  31.662  28.488  1.00  0.00    -0.744 OA
ENDBRANCH  68  71
ENDBRANCH  50  64
BRANCH  51  75
ATOM     75  C   UNL A   1      47.001  27.513  25.689  1.00  0.00     0.023 A 
ATOM     76  C   UNL A   1      48.037  26.812  26.335  1.00  0.00     0.012 A 
ATOM     77  C   UNL A   1      47.136  27.828  24.323  1.00  0.00     0.148 A 
ATOM     78  C   UNL A   1      49.197  26.456  25.645  1.00  0.00     0.002 A 
ATOM     79  C   UNL A   1      48.270  27.423  23.627  1.00  0.00     0.091 A 
ATOM     80  F   UNL A   1      46.150  28.513  23.727  1.00  0.00    -0.205 F 
ATOM     81  C   UNL A   1      49.308  26.752  24.289  1.00  0.00     0.022 A 
BRANCH  79  82
ATOM     82  S   UNL A   1      48.427  27.645  21.850  1.00  0.00     0.127 S 
ATOM     83  O   UNL A   1      49.581  28.535  21.760  1.00  0.00    -0.237 OA
ATOM     84  O   UNL A   1      48.668  26.277  21.390  1.00  0.00    -0.237 OA
ATOM     85  O   UNL A   1      47.153  28.203  21.417  1.00  0.00    -0.744 OA
ENDBRANCH  79  82
ENDBRANCH  51  75
BRANCH  63  86
ATOM     86  C   UNL A   1      45.060  33.202  29.250  1.00  0.00     0.023 A 
ATOM     87  C   UNL A   1      45.886  33.340  30.382  1.00  0.00     0.012 A 
ATOM     88  C   UNL A   1      44.948  34.271  28.338  1.00  0.00     0.148 A 
ATOM     89  C   UNL A   1      46.577  34.529  30.615  1.00  0.00     0.002 A 
ATOM     90  C   UNL A   1      45.674  35.437  28.554  1.00  0.00     0.091 A 
ATOM     91  F   UNL A   1      44.143  34.124  27.277  1.00  0.00    -0.205 F 
ATOM     92  C   UNL A   1      46.481  35.570  29.695  1.00  0.00     0.022 A 
BRANCH  90  93
ATOM     93  S   UNL A   1      45.686  36.796  27.378  1.00  0.00     0.127 S 
ATOM     94  O   UNL A   1      46.597  37.739  28.022  1.00  0.00    -0.237 OA
ATOM     95  O   UNL A   1      46.217  36.159  26.172  1.00  0.00    -0.237 OA
ATOM     96  O   UNL A   1      44.303  37.241  27.266  1.00  0.00    -0.744 OA
ENDBRANCH  90  93
ENDBRANCH  63  86
ENDBRANCH  37  38
ENDBRANCH  29  32
ENDBRANCH  27  28
ENDBRANCH  26  27
ENDBRANCH   1  26
TORSDOF 20
ENDMDL
MODEL 2
REMARK VINA RESULT:     -11.5      1.408      8.051
REMARK SMILES CC[C@H](C)[C@@H](NC(=O)[C@@H]1CCCN1C(=O)C1CC1)C(=O)NCCCCNC(=O)c1ccc(-c2c3nc(c(-c4cccc(S(=O)(=O)[O-])c4F)c4ccc([nH]4)c(-c4cccc(S(=O)(=O)[O-])c4F)c4nc(c(-c5cccc(S(=O)(=O)[O-])c5F)c5ccc2[nH]5)C=C4)C=C3)cc1
REMARK SMILES IDX 23 1 22 2 21 3 19 4 20 5 5 7 3 8 4 9 2 10 1 11 6 12 7 13
REMARK SMILES IDX 8 15 9 16 10 17 13 18 11 19 12 20 14 21 15 22 16 23 17 24
REMARK SMILES IDX 18 25 24 26 25 27 26 28 27 29 28 31 29 32 30 33 91 34 31 35
REMARK SMILES IDX 90 36 32 37 33 38 34 39 84 40 35 41 89 42 83 43 85 44 36 45
REMARK SMILES IDX 88 46 82 47 81 48 37 50 69 51 49 52 68 53 50 54 53 55 67 56
REMARK SMILES IDX 86 57 51 58 52 59 66 61 87 62 54 63 38 64 39 65 47 66 40 67
REMARK SMILES IDX 42 68 48 69 41 70 43 71 44 72 45 73 46 74 70 75 71 76 79 77
REMARK SMILES IDX 72 78 74 79 80 80 73 81 75 82 76 83 77 84 78 85 55 86 56 87
REMARK SMILES IDX 64 88 57 89 59 90 65 91 58 92 60 93 61 94 62 95 63 96
REMARK H PARENT 21 6 6 14 26 30 85 49 53 60
REMARK Flexibility Score: inf
ROOT
ATOM      1  C   UNL A   1      36.177  23.212  26.234  1.00  0.00     0.023 C 
ENDROOT
BRANCH   1   2
ATOM      2  C   UNL A   1      35.293  24.088  25.357  1.00  0.00     0.116 C 
BRANCH   2   3
ATOM      3  N   UNL A   1      35.150  23.556  24.014  1.00  0.00    -0.354 N 
ATOM      4  C   UNL A   1      34.238  23.896  23.055  1.00  0.00     0.242 C 
ATOM      5  O   UNL A   1      34.309  23.349  21.952  1.00  0.00    -0.273 OA
ATOM      6  H   UNL A   1      35.795  22.858  23.760  1.00  0.00     0.163 HD
BRANCH   4   7
ATOM      7  C   UNL A   1      33.051  24.812  23.403  1.00  0.00     0.174 C 
BRANCH   7   8
ATOM      8  C   UNL A   1      33.034  26.026  22.409  1.00  0.00     0.018 C 
ATOM      9  C   UNL A   1      31.667  26.271  21.756  1.00  0.00     0.010 C 
BRANCH   8  10
ATOM     10  C   UNL A   1      33.559  27.347  23.034  1.00  0.00     0.002 C 
ATOM     11  C   UNL A   1      33.463  27.441  24.551  1.00  0.00     0.004 C 
ENDBRANCH   8  10
ENDBRANCH   7   8
BRANCH   7  12
ATOM     12  N   UNL A   1      31.796  24.023  23.428  1.00  0.00    -0.342 N 
ATOM     13  C   UNL A   1      31.079  23.896  24.593  1.00  0.00     0.243 C 
ATOM     14  H   UNL A   1      31.474  23.587  22.605  1.00  0.00     0.164 HD
ATOM     15  O   UNL A   1      30.339  24.839  24.898  1.00  0.00    -0.273 OA
BRANCH  13  16
ATOM     16  C   UNL A   1      31.264  22.697  25.564  1.00  0.00     0.174 C 
ATOM     17  C   UNL A   1      31.547  23.180  26.999  1.00  0.00     0.037 C 
ATOM     18  N   UNL A   1      32.274  21.660  25.302  1.00  0.00    -0.330 N 
ATOM     19  C   UNL A   1      32.853  22.523  27.425  1.00  0.00     0.024 C 
ATOM     20  C   UNL A   1      32.961  21.313  26.536  1.00  0.00     0.120 C 
BRANCH  18  21
ATOM     21  C   UNL A   1      32.354  20.703  24.296  1.00  0.00     0.226 C 
ATOM     22  O   UNL A   1      32.292  21.047  23.114  1.00  0.00    -0.275 OA
BRANCH  21  23
ATOM     23  C   UNL A   1      32.551  19.243  24.515  1.00  0.00     0.079 C 
ATOM     24  C   UNL A   1      32.798  18.126  23.549  1.00  0.00     0.014 C 
ATOM     25  C   UNL A   1      33.921  18.624  24.417  1.00  0.00     0.014 C 
ENDBRANCH  21  23
ENDBRANCH  18  21
ENDBRANCH  13  16
ENDBRANCH   7  12
ENDBRANCH   4   7
ENDBRANCH   2   3
ENDBRANCH   1   2
BRANCH   1  26
ATOM     26  C   UNL A   1      36.548  21.874  25.598  1.00  0.00     0.023 C 
BRANCH  26  27
ATOM     27  C   UNL A   1      37.946  21.833  24.996  1.00  0.00     0.116 C 
BRANCH  27  28
ATOM     28  N   UNL A   1      38.805  20.849  25.636  1.00  0.00    -0.352 N 
ATOM     29  C   UNL A   1      39.858  21.058  26.493  1.00  0.00     0.251 C 
ATOM     30  H   UNL A   1      38.605  19.908  25.427  1.00  0.00     0.163 HD
ATOM     31  O   UNL A   1      40.566  20.122  26.852  1.00  0.00    -0.269 OA
BRANCH  29  32
ATOM     32  C   UNL A   1      40.158  22.434  26.933  1.00  0.00     0.039 A 
ATOM     33  C   UNL A   1      41.010  22.620  28.023  1.00  0.00     0.014 A 
ATOM     34  C   UNL A   1      39.656  23.532  26.228  1.00  0.00     0.014 A 
ATOM     35  C   UNL A   1      41.424  23.910  28.361  1.00  0.00     0.010 A 
ATOM     36  C   UNL A   1      40.126  24.810  26.523  1.00  0.00     0.010 A 
ATOM     37  C   UNL A   1      41.018  25.010  27.588  1.00  0.00    -0.014 A 
BRANCH  37  38
ATOM     38  C   UNL A   1      41.540  26.374  27.863  1.00  0.00     0.031 A 
ATOM     39  C   UNL A   1      42.952  26.734  27.492  1.00  0.00     0.074 A 
ATOM     40  C   UNL A   1      40.772  27.259  28.531  1.00  0.00     0.049 A 
ATOM     41  N   UNL A   1      43.595  27.854  27.695  1.00  0.00    -0.248 NA
ATOM     42  C   UNL A   1      43.755  25.694  26.829  1.00  0.00     0.031 C 
ATOM     43  C   UNL A   1      39.417  27.003  29.021  1.00  0.00     0.029 A 
ATOM     44  N   UNL A   1      41.034  28.545  28.940  1.00  0.00    -0.354 N 
ATOM     45  C   UNL A   1      44.884  27.644  27.223  1.00  0.00     0.074 A 
ATOM     46  C   UNL A   1      44.941  26.279  26.745  1.00  0.00     0.031 C 
ATOM     47  C   UNL A   1      38.969  28.091  29.669  1.00  0.00     0.029 A 
ATOM     48  C   UNL A   1      40.011  29.114  29.662  1.00  0.00     0.049 A 
ATOM     49  H   UNL A   1      41.875  29.014  28.735  1.00  0.00     0.167 HD
ATOM     50  C   UNL A   1      45.919  28.514  27.166  1.00  0.00     0.034 A 
ATOM     51  C   UNL A   1      39.923  30.319  30.259  1.00  0.00     0.034 A 
ATOM     52  C   UNL A   1      45.842  29.887  27.586  1.00  0.00     0.049 A 
ATOM     53  C   UNL A   1      41.073  31.283  30.138  1.00  0.00     0.074 A 
ATOM     54  C   UNL A   1      46.796  30.880  27.450  1.00  0.00     0.029 A 
ATOM     55  N   UNL A   1      44.757  30.458  28.231  1.00  0.00    -0.354 N 
ATOM     56  N   UNL A   1      42.214  31.130  29.512  1.00  0.00    -0.248 NA
ATOM     57  C   UNL A   1      40.912  32.598  30.779  1.00  0.00     0.031 C 
ATOM     58  C   UNL A   1      46.295  32.048  28.033  1.00  0.00     0.029 A 
ATOM     59  C   UNL A   1      45.025  31.785  28.520  1.00  0.00     0.049 A 
ATOM     60  H   UNL A   1      43.921  29.988  28.453  1.00  0.00     0.167 HD
ATOM     61  C   UNL A   1      42.894  32.334  29.657  1.00  0.00     0.074 A 
ATOM     62  C   UNL A   1      42.027  33.216  30.411  1.00  0.00     0.031 C 
ATOM     63  C   UNL A   1      44.133  32.671  29.222  1.00  0.00     0.034 A 
BRANCH  50  64
ATOM     64  C   UNL A   1      47.212  28.029  26.568  1.00  0.00     0.023 A 
ATOM     65  C   UNL A   1      48.221  27.531  27.417  1.00  0.00     0.012 A 
ATOM     66  C   UNL A   1      47.399  27.996  25.174  1.00  0.00     0.148 A 
ATOM     67  C   UNL A   1      49.409  27.031  26.888  1.00  0.00     0.002 A 
ATOM     68  C   UNL A   1      48.571  27.460  24.652  1.00  0.00     0.091 A 
ATOM     69  F   UNL A   1      46.437  28.496  24.386  1.00  0.00    -0.205 F 
ATOM     70  C   UNL A   1      49.580  26.985  25.507  1.00  0.00     0.022 A 
BRANCH  68  71
ATOM     71  S   UNL A   1      48.853  27.289  22.886  1.00  0.00     0.127 S 
ATOM     72  O   UNL A   1      50.311  27.357  22.811  1.00  0.00    -0.237 OA
ATOM     73  O   UNL A   1      48.290  25.967  22.609  1.00  0.00    -0.237 OA
ATOM     74  O   UNL A   1      48.141  28.394  22.258  1.00  0.00    -0.744 OA
ENDBRANCH  68  71
ENDBRANCH  50  64
BRANCH  51  75
ATOM     75  C   UNL A   1      38.676  30.705  30.977  1.00  0.00     0.023 A 
ATOM     76  C   UNL A   1      38.558  30.435  32.354  1.00  0.00     0.012 A 
ATOM     77  C   UNL A   1      37.620  31.361  30.315  1.00  0.00     0.148 A 
ATOM     78  C   UNL A   1      37.402  30.786  33.053  1.00  0.00     0.002 A 
ATOM     79  C   UNL A   1      36.493  31.756  31.028  1.00  0.00     0.091 A 
ATOM     80  F   UNL A   1      37.738  31.592  29.000  1.00  0.00    -0.205 F 
ATOM     81  C   UNL A   1      36.375  31.456  32.394  1.00  0.00     0.022 A 
BRANCH  79  82
ATOM     82  S   UNL A   1      35.189  32.743  30.282  1.00  0.00     0.127 S 
ATOM     83  O   UNL A   1      34.787  31.905  29.156  1.00  0.00    -0.237 OA
ATOM     84  O   UNL A   1      34.211  32.830  31.366  1.00  0.00    -0.237 OA
ATOM     85  O   UNL A   1      35.815  34.014  29.942  1.00  0.00    -0.744 OA
ENDBRANCH  79  82
ENDBRANCH  51  75
BRANCH  63  86
ATOM     86  C   UNL A   1      44.633  34.057  29.531  1.00  0.00     0.023 A 
ATOM     87  C   UNL A   1      45.371  34.279  30.710  1.00  0.00     0.012 A 
ATOM     88  C   UNL A   1      44.458  35.111  28.613  1.00  0.00     0.148 A 
ATOM     89  C   UNL A   1      45.910  35.536  30.982  1.00  0.00     0.002 A 
ATOM     90  C   UNL A   1      45.035  36.350  28.870  1.00  0.00     0.091 A 
ATOM     91  F   UNL A   1      43.738  34.882  27.506  1.00  0.00    -0.205 F 
ATOM     92  C   UNL A   1      45.753  36.566  30.057  1.00  0.00     0.022 A 
BRANCH  90  93
ATOM     93  S   UNL A   1      44.964  37.708  27.696  1.00  0.00     0.127 S 
ATOM     94  O   UNL A   1      45.021  38.870  28.581  1.00  0.00    -0.237 OA
ATOM     95  O   UNL A   1      46.171  37.491  26.896  1.00  0.00    -0.237 OA
ATOM     96  O   UNL A   1      43.716  37.541  26.964  1.00  0.00    -0.744 OA
ENDBRANCH  90  93
ENDBRANCH  63  86
ENDBRANCH  37  38
ENDBRANCH  29  32
ENDBRANCH  27  28
ENDBRANCH  26  27
ENDBRANCH   1  26
TORSDOF 20
ENDMDL
MODEL 3
REMARK VINA RESULT:     -11.3      2.923      7.993
REMARK SMILES CC[C@H](C)[C@@H](NC(=O)[C@@H]1CCCN1C(=O)C1CC1)C(=O)NCCCCNC(=O)c1ccc(-c2c3nc(c(-c4cccc(S(=O)(=O)[O-])c4F)c4ccc([nH]4)c(-c4cccc(S(=O)(=O)[O-])c4F)c4nc(c(-c5cccc(S(=O)(=O)[O-])c5F)c5ccc2[nH]5)C=C4)C=C3)cc1
REMARK SMILES IDX 23 1 22 2 21 3 19 4 20 5 5 7 3 8 4 9 2 10 1 11 6 12 7 13
REMARK SMILES IDX 8 15 9 16 10 17 13 18 11 19 12 20 14 21 15 22 16 23 17 24
REMARK SMILES IDX 18 25 24 26 25 27 26 28 27 29 28 31 29 32 30 33 91 34 31 35
REMARK SMILES IDX 90 36 32 37 33 38 34 39 84 40 35 41 89 42 83 43 85 44 36 45
REMARK SMILES IDX 88 46 82 47 81 48 37 50 69 51 49 52 68 53 50 54 53 55 67 56
REMARK SMILES IDX 86 57 51 58 52 59 66 61 87 62 54 63 38 64 39 65 47 66 40 67
REMARK SMILES IDX 42 68 48 69 41 70 43 71 44 72 45 73 46 74 70 75 71 76 79 77
REMARK SMILES IDX 72 78 74 79 80 80 73 81 75 82 76 83 77 84 78 85 55 86 56 87
REMARK SMILES IDX 64 88 57 89 59 90 65 91 58 92 60 93 61 94 62 95 63 96
REMARK H PARENT 21 6 6 14 26 30 85 49 53 60
REMARK Flexibility Score: inf
ROOT
ATOM      1  C   UNL A   1      35.838  22.702  23.819  1.00  0.00     0.023 C 
ENDROOT
BRANCH   1   2
ATOM      2  C   UNL A   1      34.703  23.636  23.424  1.00  0.00     0.116 C 
BRANCH   2   3
ATOM      3  N   UNL A   1      34.700  24.859  24.207  1.00  0.00    -0.354 N 
ATOM      4  C   UNL A   1      33.787  25.276  25.134  1.00  0.00     0.242 C 
ATOM      5  O   UNL A   1      33.988  26.340  25.723  1.00  0.00    -0.273 OA
ATOM      6  H   UNL A   1      35.456  25.469  24.049  1.00  0.00     0.163 HD
BRANCH   4   7
ATOM      7  C   UNL A   1      32.459  24.519  25.309  1.00  0.00     0.174 C 
BRANCH   7   8
ATOM      8  C   UNL A   1      32.442  23.839  26.723  1.00  0.00     0.018 C 
ATOM      9  C   UNL A   1      31.215  22.950  26.966  1.00  0.00     0.010 C 
BRANCH   8  10
ATOM     10  C   UNL A   1      33.736  23.043  27.044  1.00  0.00     0.002 C 
ATOM     11  C   UNL A   1      33.605  21.527  26.999  1.00  0.00     0.004 C 
ENDBRANCH   8  10
ENDBRANCH   7   8
BRANCH   7  12
ATOM     12  N   UNL A   1      31.320  25.434  25.055  1.00  0.00    -0.342 N 
ATOM     13  C   UNL A   1      30.848  25.618  23.778  1.00  0.00     0.243 C 
ATOM     14  H   UNL A   1      30.898  25.913  25.806  1.00  0.00     0.164 HD
ATOM     15  O   UNL A   1      30.083  24.753  23.336  1.00  0.00    -0.273 OA
BRANCH  13  16
ATOM     16  C   UNL A   1      31.335  26.777  22.864  1.00  0.00     0.174 C 
ATOM     17  C   UNL A   1      32.294  26.261  21.774  1.00  0.00     0.037 C 
ATOM     18  N   UNL A   1      31.999  27.960  23.432  1.00  0.00    -0.330 N 
ATOM     19  C   UNL A   1      33.575  27.075  21.908  1.00  0.00     0.024 C 
ATOM     20  C   UNL A   1      33.137  28.334  22.607  1.00  0.00     0.120 C 
BRANCH  18  21
ATOM     21  C   UNL A   1      31.510  28.972  24.251  1.00  0.00     0.226 C 
ATOM     22  O   UNL A   1      30.375  29.416  24.067  1.00  0.00    -0.275 OA
BRANCH  21  23
ATOM     23  C   UNL A   1      32.242  29.574  25.400  1.00  0.00     0.079 C 
ATOM     24  C   UNL A   1      31.797  30.541  26.453  1.00  0.00     0.014 C 
ATOM     25  C   UNL A   1      32.001  29.094  26.807  1.00  0.00     0.014 C 
ENDBRANCH  21  23
ENDBRANCH  18  21
ENDBRANCH  13  16
ENDBRANCH   7  12
ENDBRANCH   4   7
ENDBRANCH   2   3
ENDBRANCH   1   2
BRANCH   1  26
ATOM     26  C   UNL A   1      36.974  23.390  24.573  1.00  0.00     0.023 C 
BRANCH  26  27
ATOM     27  C   UNL A   1      37.252  22.808  25.952  1.00  0.00     0.116 C 
BRANCH  27  28
ATOM     28  N   UNL A   1      38.507  22.074  26.010  1.00  0.00    -0.352 N 
ATOM     29  C   UNL A   1      39.753  22.533  26.364  1.00  0.00     0.251 C 
ATOM     30  H   UNL A   1      38.457  21.123  25.763  1.00  0.00     0.163 HD
ATOM     31  O   UNL A   1      40.741  21.814  26.242  1.00  0.00    -0.269 OA
BRANCH  29  32
ATOM     32  C   UNL A   1      39.894  23.922  26.843  1.00  0.00     0.039 A 
ATOM     33  C   UNL A   1      39.777  24.176  28.210  1.00  0.00     0.014 A 
ATOM     34  C   UNL A   1      40.210  24.953  25.952  1.00  0.00     0.014 A 
ATOM     35  C   UNL A   1      40.054  25.453  28.699  1.00  0.00     0.010 A 
ATOM     36  C   UNL A   1      40.554  26.207  26.450  1.00  0.00     0.010 A 
ATOM     37  C   UNL A   1      40.484  26.468  27.828  1.00  0.00    -0.014 A 
BRANCH  37  38
ATOM     38  C   UNL A   1      40.894  27.799  28.346  1.00  0.00     0.031 A 
ATOM     39  C   UNL A   1      42.349  28.125  28.532  1.00  0.00     0.074 A 
ATOM     40  C   UNL A   1      39.951  28.681  28.735  1.00  0.00     0.049 A 
ATOM     41  N   UNL A   1      42.893  29.213  29.014  1.00  0.00    -0.248 NA
ATOM     42  C   UNL A   1      43.322  27.087  28.152  1.00  0.00     0.031 C 
ATOM     43  C   UNL A   1      38.505  28.452  28.686  1.00  0.00     0.029 A 
ATOM     44  N   UNL A   1      40.067  29.938  29.279  1.00  0.00    -0.354 N 
ATOM     45  C   UNL A   1      44.261  28.978  29.032  1.00  0.00     0.074 A 
ATOM     46  C   UNL A   1      44.466  27.634  28.535  1.00  0.00     0.031 C 
ATOM     47  C   UNL A   1      37.871  29.526  29.184  1.00  0.00     0.029 A 
ATOM     48  C   UNL A   1      38.861  30.511  29.610  1.00  0.00     0.049 A 
ATOM     49  H   UNL A   1      40.932  30.386  29.419  1.00  0.00     0.167 HD
ATOM     50  C   UNL A   1      45.261  29.813  29.400  1.00  0.00     0.034 A 
ATOM     51  C   UNL A   1      38.582  31.691  30.198  1.00  0.00     0.034 A 
ATOM     52  C   UNL A   1      45.060  31.168  29.836  1.00  0.00     0.049 A 
ATOM     53  C   UNL A   1      39.713  32.619  30.554  1.00  0.00     0.074 A 
ATOM     54  C   UNL A   1      46.014  32.132  30.109  1.00  0.00     0.029 A 
ATOM     55  N   UNL A   1      43.824  31.748  30.073  1.00  0.00    -0.354 N 
ATOM     56  N   UNL A   1      41.001  32.453  30.377  1.00  0.00    -0.248 NA
ATOM     57  C   UNL A   1      39.352  33.909  31.162  1.00  0.00     0.031 C 
ATOM     58  C   UNL A   1      45.355  33.291  30.532  1.00  0.00     0.029 A 
ATOM     59  C   UNL A   1      43.991  33.051  30.510  1.00  0.00     0.049 A 
ATOM     60  H   UNL A   1      42.957  31.299  29.951  1.00  0.00     0.167 HD
ATOM     61  C   UNL A   1      41.601  33.625  30.823  1.00  0.00     0.074 A 
ATOM     62  C   UNL A   1      40.535  34.503  31.257  1.00  0.00     0.031 C 
ATOM     63  C   UNL A   1      42.919  33.937  30.886  1.00  0.00     0.034 A 
BRANCH  50  64
ATOM     64  C   UNL A   1      46.674  29.309  29.288  1.00  0.00     0.023 A 
ATOM     65  C   UNL A   1      47.261  28.646  30.385  1.00  0.00     0.012 A 
ATOM     66  C   UNL A   1      47.392  29.424  28.083  1.00  0.00     0.148 A 
ATOM     67  C   UNL A   1      48.551  28.127  30.293  1.00  0.00     0.002 A 
ATOM     68  C   UNL A   1      48.663  28.870  27.985  1.00  0.00     0.091 A 
ATOM     69  F   UNL A   1      46.825  30.079  27.060  1.00  0.00    -0.205 F 
ATOM     70  C   UNL A   1      49.247  28.228  29.091  1.00  0.00     0.022 A 
BRANCH  68  71
ATOM     71  S   UNL A   1      49.610  28.884  26.459  1.00  0.00     0.127 S 
ATOM     72  O   UNL A   1      50.676  27.932  26.763  1.00  0.00    -0.237 OA
ATOM     73  O   UNL A   1      48.629  28.410  25.482  1.00  0.00    -0.237 OA
ATOM     74  O   UNL A   1      50.038  30.263  26.267  1.00  0.00    -0.744 OA
ENDBRANCH  68  71
ENDBRANCH  50  64
BRANCH  51  75
ATOM     75  C   UNL A   1      37.165  32.089  30.433  1.00  0.00     0.023 A 
ATOM     76  C   UNL A   1      36.570  31.825  31.682  1.00  0.00     0.012 A 
ATOM     77  C   UNL A   1      36.413  32.750  29.443  1.00  0.00     0.148 A 
ATOM     78  C   UNL A   1      35.246  32.187  31.933  1.00  0.00     0.002 A 
ATOM     79  C   UNL A   1      35.112  33.157  29.717  1.00  0.00     0.091 A 
ATOM     80  F   UNL A   1      36.987  32.976  28.253  1.00  0.00    -0.205 F 
ATOM     81  C   UNL A   1      34.520  32.862  30.954  1.00  0.00     0.022 A 
BRANCH  79  82
ATOM     82  S   UNL A   1      34.160  34.150  28.561  1.00  0.00     0.127 S 
ATOM     83  O   UNL A   1      33.000  34.519  29.367  1.00  0.00    -0.237 OA
ATOM     84  O   UNL A   1      35.082  35.249  28.268  1.00  0.00    -0.237 OA
ATOM     85  O   UNL A   1      33.898  33.275  27.425  1.00  0.00    -0.744 OA
ENDBRANCH  79  82
ENDBRANCH  51  75
BRANCH  63  86
ATOM     86  C   UNL A   1      43.296  35.289  31.429  1.00  0.00     0.023 A 
ATOM     87  C   UNL A   1      43.588  36.337  30.534  1.00  0.00     0.012 A 
ATOM     88  C   UNL A   1      43.267  35.547  32.814  1.00  0.00     0.148 A 
ATOM     89  C   UNL A   1      43.867  37.618  31.011  1.00  0.00     0.002 A 
ATOM     90  C   UNL A   1      43.503  36.836  33.278  1.00  0.00     0.091 A 
ATOM     91  F   UNL A   1      43.004  34.531  33.648  1.00  0.00    -0.205 F 
ATOM     92  C   UNL A   1      43.811  37.869  32.379  1.00  0.00     0.022 A 
BRANCH  90  93
ATOM     93  S   UNL A   1      43.363  37.275  35.015  1.00  0.00     0.127 S 
ATOM     94  O   UNL A   1      43.694  38.698  34.990  1.00  0.00    -0.237 OA
ATOM     95  O   UNL A   1      41.958  36.979  35.299  1.00  0.00    -0.237 OA
ATOM     96  O   UNL A   1      44.313  36.425  35.721  1.00  0.00    -0.744 OA
ENDBRANCH  90  93
ENDBRANCH  63  86
ENDBRANCH  37  38
ENDBRANCH  29  32
ENDBRANCH  27  28
ENDBRANCH  26  27
ENDBRANCH   1  26
TORSDOF 20
ENDMDL
