MODEL 1
REMARK VINA RESULT:     -12.3      0.000      0.000
REMARK SMILES O=C(CCN/C(=[NH+]\S(=O)(=O)c1ccccc1)c1ccccc1)NCCCCNC(=O)c1ccc(-c2c3nc(c(-c4cccc(S(=O)(=O)[O-])c4F)c4ccc([nH]4)c(-c4cccc(S(=O)(=O)[O-])c4F)c4nc(c(-c5cccc(S(=O)(=O)[O-])c5F)c5ccc2[nH]5)C=C4)C=C3)cc1
REMARK SMILES IDX 25 1 24 2 23 3 1 4 2 5 3 7 4 8 5 9 6 10 7 12 17 14 18 15
REMARK SMILES IDX 22 16 19 17 21 18 20 19 8 20 9 21 10 22 11 23 12 24 16 25
REMARK SMILES IDX 13 26 15 27 14 28 26 29 27 30 28 31 29 32 30 34 31 35 32 36
REMARK SMILES IDX 93 37 33 38 92 39 34 40 35 41 36 42 86 43 37 44 91 45 85 46
REMARK SMILES IDX 87 47 38 48 90 49 84 50 83 51 39 53 71 54 51 55 70 56 52 57
REMARK SMILES IDX 55 58 69 59 88 60 53 61 54 62 68 64 89 65 56 66 40 67 41 68
REMARK SMILES IDX 49 69 42 70 44 71 50 72 43 73 45 74 46 75 47 76 48 77 72 78
REMARK SMILES IDX 73 79 81 80 74 81 76 82 82 83 75 84 77 85 78 86 79 87 80 88
REMARK SMILES IDX 57 89 58 90 66 91 59 92 61 93 67 94 60 95 62 96 63 97 64 98
REMARK SMILES IDX 65 99
REMARK H PARENT 23 6 5 11 7 13 28 33 87 52 55 63
REMARK Flexibility Score: inf
ROOT
ATOM      1  C   UNL A   1      34.323  23.513  26.118  1.00  0.00     0.023 C 
ENDROOT
BRANCH   1   2
ATOM      2  C   UNL A   1      33.127  23.519  27.069  1.00  0.00     0.116 C 
BRANCH   2   3
ATOM      3  N   UNL A   1      32.149  24.527  26.715  1.00  0.00    -0.356 N 
ATOM      4  O   UNL A   1      33.662  26.160  26.129  1.00  0.00    -0.275 OA
ATOM      5  C   UNL A   1      32.503  25.781  26.273  1.00  0.00     0.223 C 
ATOM      6  H   UNL A   1      31.193  24.307  26.795  1.00  0.00     0.163 HD
BRANCH   5   7
ATOM      7  C   UNL A   1      31.331  26.668  25.934  1.00  0.00     0.145 C 
BRANCH   7   8
ATOM      8  C   UNL A   1      31.789  27.903  25.173  1.00  0.00     0.243 C 
BRANCH   8   9
ATOM      9  N   UNL A   1      32.131  27.591  23.796  1.00  0.00    -0.273 N 
ATOM     10  C   UNL A   1      31.312  27.574  22.684  1.00  0.00     0.290 C 
ATOM     11  H   UNL A   1      33.074  27.361  23.632  1.00  0.00     0.305 HD
ATOM     12  N   UNL A   1      31.543  26.932  21.583  1.00  0.00    -0.162 N 
ATOM     13  H   UNL A   1      30.916  27.045  20.832  1.00  0.00     0.327 HD
BRANCH  10  14
ATOM     14  C   UNL A   1      30.048  28.378  22.659  1.00  0.00     0.064 A 
ATOM     15  C   UNL A   1      30.090  29.716  22.249  1.00  0.00     0.016 A 
ATOM     16  C   UNL A   1      28.850  27.827  23.127  1.00  0.00     0.016 A 
ATOM     17  C   UNL A   1      28.929  30.489  22.278  1.00  0.00     0.001 A 
ATOM     18  C   UNL A   1      27.688  28.601  23.142  1.00  0.00     0.001 A 
ATOM     19  C   UNL A   1      27.730  29.930  22.717  1.00  0.00     0.000 A 
ENDBRANCH  10  14
BRANCH  12  20
ATOM     20  S   UNL A   1      32.809  25.962  21.390  1.00  0.00     0.328 S 
ATOM     21  O   UNL A   1      32.915  25.574  19.991  1.00  0.00    -0.179 OA
ATOM     22  O   UNL A   1      33.968  26.571  22.016  1.00  0.00    -0.179 OA
BRANCH  20  23
ATOM     23  C   UNL A   1      32.384  24.514  22.330  1.00  0.00     0.109 A 
ATOM     24  C   UNL A   1      31.165  24.450  23.012  1.00  0.00     0.024 A 
ATOM     25  C   UNL A   1      33.283  23.443  22.372  1.00  0.00     0.024 A 
ATOM     26  C   UNL A   1      30.854  23.310  23.757  1.00  0.00     0.001 A 
ATOM     27  C   UNL A   1      32.958  22.302  23.108  1.00  0.00     0.001 A 
ATOM     28  C   UNL A   1      31.748  22.239  23.802  1.00  0.00     0.000 A 
ENDBRANCH  20  23
ENDBRANCH  12  20
ENDBRANCH   8   9
ENDBRANCH   7   8
ENDBRANCH   5   7
ENDBRANCH   2   3
ENDBRANCH   1   2
BRANCH   1  29
ATOM     29  C   UNL A   1      35.171  22.236  26.142  1.00  0.00     0.023 C 
BRANCH  29  30
ATOM     30  C   UNL A   1      36.287  22.170  25.101  1.00  0.00     0.116 C 
BRANCH  30  31
ATOM     31  N   UNL A   1      37.189  21.050  25.331  1.00  0.00    -0.352 N 
ATOM     32  C   UNL A   1      38.485  21.056  25.792  1.00  0.00     0.251 C 
ATOM     33  H   UNL A   1      36.818  20.161  25.128  1.00  0.00     0.163 HD
ATOM     34  O   UNL A   1      39.157  20.030  25.737  1.00  0.00    -0.269 OA
BRANCH  32  35
ATOM     35  C   UNL A   1      39.077  22.294  26.354  1.00  0.00     0.039 A 
ATOM     36  C   UNL A   1      40.150  22.205  27.246  1.00  0.00     0.014 A 
ATOM     37  C   UNL A   1      38.557  23.544  26.026  1.00  0.00     0.014 A 
ATOM     38  C   UNL A   1      40.745  23.374  27.751  1.00  0.00     0.010 A 
ATOM     39  C   UNL A   1      39.191  24.697  26.485  1.00  0.00     0.010 A 
ATOM     40  C   UNL A   1      40.298  24.641  27.341  1.00  0.00    -0.014 A 
BRANCH  40  41
ATOM     41  C   UNL A   1      41.003  25.905  27.721  1.00  0.00     0.031 A 
ATOM     42  C   UNL A   1      40.298  27.012  28.474  1.00  0.00     0.074 A 
ATOM     43  C   UNL A   1      42.250  26.137  27.258  1.00  0.00     0.049 A 
ATOM     44  N   UNL A   1      40.739  28.203  28.796  1.00  0.00    -0.248 NA
ATOM     45  C   UNL A   1      38.903  26.771  28.873  1.00  0.00     0.031 C 
ATOM     46  C   UNL A   1      43.016  25.228  26.402  1.00  0.00     0.029 A 
ATOM     47  N   UNL A   1      43.083  27.221  27.412  1.00  0.00    -0.354 N 
ATOM     48  C   UNL A   1      39.667  28.871  29.382  1.00  0.00     0.074 A 
ATOM     49  C   UNL A   1      38.543  27.960  29.339  1.00  0.00     0.031 C 
ATOM     50  C   UNL A   1      44.209  25.777  26.129  1.00  0.00     0.029 A 
ATOM     51  C   UNL A   1      44.288  27.092  26.759  1.00  0.00     0.049 A 
ATOM     52  H   UNL A   1      42.839  28.014  27.941  1.00  0.00     0.167 HD
ATOM     53  C   UNL A   1      39.623  30.112  29.929  1.00  0.00     0.034 A 
ATOM     54  C   UNL A   1      45.342  27.927  26.672  1.00  0.00     0.034 A 
ATOM     55  C   UNL A   1      40.760  30.990  30.049  1.00  0.00     0.049 A 
ATOM     56  C   UNL A   1      45.307  29.251  27.385  1.00  0.00     0.074 A 
ATOM     57  C   UNL A   1      40.842  32.199  30.722  1.00  0.00     0.029 A 
ATOM     58  N   UNL A   1      42.006  30.765  29.489  1.00  0.00    -0.354 N 
ATOM     59  N   UNL A   1      44.343  29.781  28.098  1.00  0.00    -0.248 NA
ATOM     60  C   UNL A   1      46.523  30.078  27.317  1.00  0.00     0.031 C 
ATOM     61  C   UNL A   1      42.129  32.718  30.543  1.00  0.00     0.029 A 
ATOM     62  C   UNL A   1      42.860  31.814  29.790  1.00  0.00     0.049 A 
ATOM     63  H   UNL A   1      42.250  29.974  28.955  1.00  0.00     0.167 HD
ATOM     64  C   UNL A   1      44.850  30.978  28.594  1.00  0.00     0.074 A 
ATOM     65  C   UNL A   1      46.213  31.087  28.118  1.00  0.00     0.031 C 
ATOM     66  C   UNL A   1      44.233  31.904  29.366  1.00  0.00     0.034 A 
BRANCH  53  67
ATOM     67  C   UNL A   1      38.314  30.589  30.512  1.00  0.00     0.023 A 
ATOM     68  C   UNL A   1      38.030  30.363  31.874  1.00  0.00     0.012 A 
ATOM     69  C   UNL A   1      37.408  31.348  29.740  1.00  0.00     0.148 A 
ATOM     70  C   UNL A   1      36.853  30.844  32.448  1.00  0.00     0.002 A 
ATOM     71  C   UNL A   1      36.263  31.870  30.333  1.00  0.00     0.091 A 
ATOM     72  F   UNL A   1      37.683  31.546  28.443  1.00  0.00    -0.205 F 
ATOM     73  C   UNL A   1      35.978  31.606  31.682  1.00  0.00     0.022 A 
BRANCH  71  74
ATOM     74  S   UNL A   1      35.124  32.952  29.460  1.00  0.00     0.127 S 
ATOM     75  O   UNL A   1      34.145  33.252  30.505  1.00  0.00    -0.237 OA
ATOM     76  O   UNL A   1      35.987  34.076  29.094  1.00  0.00    -0.237 OA
ATOM     77  O   UNL A   1      34.621  32.180  28.333  1.00  0.00    -0.744 OA
ENDBRANCH  71  74
ENDBRANCH  53  67
BRANCH  54  78
ATOM     78  C   UNL A   1      46.571  27.498  25.947  1.00  0.00     0.023 A 
ATOM     79  C   UNL A   1      46.705  27.813  24.580  1.00  0.00     0.012 A 
ATOM     80  C   UNL A   1      47.607  26.804  26.598  1.00  0.00     0.148 A 
ATOM     81  C   UNL A   1      47.833  27.411  23.863  1.00  0.00     0.002 A 
ATOM     82  C   UNL A   1      48.753  26.455  25.892  1.00  0.00     0.091 A 
ATOM     83  F   UNL A   1      47.456  26.510  27.897  1.00  0.00    -0.205 F 
ATOM     84  C   UNL A   1      48.860  26.741  24.521  1.00  0.00     0.022 A 
BRANCH  82  85
ATOM     85  S   UNL A   1      50.181  25.705  26.680  1.00  0.00     0.127 S 
ATOM     86  O   UNL A   1      51.106  25.571  25.557  1.00  0.00    -0.237 OA
ATOM     87  O   UNL A   1      50.550  26.721  27.666  1.00  0.00    -0.237 OA
ATOM     88  O   UNL A   1      49.703  24.455  27.254  1.00  0.00    -0.744 OA
ENDBRANCH  82  85
ENDBRANCH  54  78
BRANCH  66  89
ATOM     89  C   UNL A   1      45.030  33.111  29.796  1.00  0.00     0.023 A 
ATOM     90  C   UNL A   1      45.794  33.068  30.980  1.00  0.00     0.012 A 
ATOM     91  C   UNL A   1      45.074  34.267  28.990  1.00  0.00     0.148 A 
ATOM     92  C   UNL A   1      46.557  34.168  31.373  1.00  0.00     0.002 A 
ATOM     93  C   UNL A   1      45.876  35.340  29.362  1.00  0.00     0.091 A 
ATOM     94  F   UNL A   1      44.328  34.297  27.876  1.00  0.00    -0.205 F 
ATOM     95  C   UNL A   1      46.608  35.298  30.559  1.00  0.00     0.022 A 
BRANCH  93  96
ATOM     96  S   UNL A   1      46.077  36.799  28.333  1.00  0.00     0.127 S 
ATOM     97  O   UNL A   1      46.762  36.247  27.165  1.00  0.00    -0.237 OA
ATOM     98  O   UNL A   1      44.691  37.202  28.093  1.00  0.00    -0.237 OA
ATOM     99  O   UNL A   1      46.854  37.744  29.122  1.00  0.00    -0.744 OA
ENDBRANCH  93  96
ENDBRANCH  66  89
ENDBRANCH  40  41
ENDBRANCH  32  35
ENDBRANCH  30  31
ENDBRANCH  29  30
ENDBRANCH   1  29
TORSDOF 19
ENDMDL
MODEL 2
REMARK VINA RESULT:     -12.2      1.884      7.795
REMARK SMILES O=C(CCN/C(=[NH+]\S(=O)(=O)c1ccccc1)c1ccccc1)NCCCCNC(=O)c1ccc(-c2c3nc(c(-c4cccc(S(=O)(=O)[O-])c4F)c4ccc([nH]4)c(-c4cccc(S(=O)(=O)[O-])c4F)c4nc(c(-c5cccc(S(=O)(=O)[O-])c5F)c5ccc2[nH]5)C=C4)C=C3)cc1
REMARK SMILES IDX 25 1 24 2 23 3 1 4 2 5 3 7 4 8 5 9 6 10 7 12 17 14 18 15
REMARK SMILES IDX 22 16 19 17 21 18 20 19 8 20 9 21 10 22 11 23 12 24 16 25
REMARK SMILES IDX 13 26 15 27 14 28 26 29 27 30 28 31 29 32 30 34 31 35 32 36
REMARK SMILES IDX 93 37 33 38 92 39 34 40 35 41 36 42 86 43 37 44 91 45 85 46
REMARK SMILES IDX 87 47 38 48 90 49 84 50 83 51 39 53 71 54 51 55 70 56 52 57
REMARK SMILES IDX 55 58 69 59 88 60 53 61 54 62 68 64 89 65 56 66 40 67 41 68
REMARK SMILES IDX 49 69 42 70 44 71 50 72 43 73 45 74 46 75 47 76 48 77 72 78
REMARK SMILES IDX 73 79 81 80 74 81 76 82 82 83 75 84 77 85 78 86 79 87 80 88
REMARK SMILES IDX 57 89 58 90 66 91 59 92 61 93 67 94 60 95 62 96 63 97 64 98
REMARK SMILES IDX 65 99
REMARK H PARENT 23 6 5 11 7 13 28 33 87 52 55 63
REMARK Flexibility Score: inf
ROOT
ATOM      1  C   UNL A   1      34.379  24.311  25.522  1.00  0.00     0.023 C 
ENDROOT
BRANCH   1   2
ATOM      2  C   UNL A   1      33.165  24.346  26.450  1.00  0.00     0.116 C 
BRANCH   2   3
ATOM      3  N   UNL A   1      32.327  25.503  26.215  1.00  0.00    -0.356 N 
ATOM      4  O   UNL A   1      34.041  27.030  26.029  1.00  0.00    -0.275 OA
ATOM      5  C   UNL A   1      32.842  26.766  26.025  1.00  0.00     0.223 C 
ATOM      6  H   UNL A   1      31.350  25.383  26.190  1.00  0.00     0.163 HD
BRANCH   5   7
ATOM      7  C   UNL A   1      31.797  27.824  25.770  1.00  0.00     0.145 C 
BRANCH   7   8
ATOM      8  C   UNL A   1      32.265  28.798  24.699  1.00  0.00     0.243 C 
BRANCH   8   9
ATOM      9  N   UNL A   1      32.398  28.154  23.404  1.00  0.00    -0.273 N 
ATOM     10  C   UNL A   1      31.406  27.796  22.510  1.00  0.00     0.290 C 
ATOM     11  H   UNL A   1      33.318  27.943  23.124  1.00  0.00     0.305 HD
ATOM     12  N   UNL A   1      31.512  26.900  21.581  1.00  0.00    -0.162 N 
ATOM     13  H   UNL A   1      30.758  26.774  20.961  1.00  0.00     0.327 HD
BRANCH  10  14
ATOM     14  C   UNL A   1      30.079  28.490  22.531  1.00  0.00     0.064 A 
ATOM     15  C   UNL A   1      29.974  29.791  22.022  1.00  0.00     0.016 A 
ATOM     16  C   UNL A   1      28.971  27.884  23.132  1.00  0.00     0.016 A 
ATOM     17  C   UNL A   1      28.756  30.468  22.090  1.00  0.00     0.001 A 
ATOM     18  C   UNL A   1      27.752  28.560  23.186  1.00  0.00     0.001 A 
ATOM     19  C   UNL A   1      27.646  29.850  22.664  1.00  0.00     0.000 A 
ENDBRANCH  10  14
BRANCH  12  20
ATOM     20  S   UNL A   1      32.822  25.988  21.396  1.00  0.00     0.328 S 
ATOM     21  O   UNL A   1      32.984  25.651  19.990  1.00  0.00    -0.179 OA
ATOM     22  O   UNL A   1      33.937  26.621  22.076  1.00  0.00    -0.179 OA
BRANCH  20  23
ATOM     23  C   UNL A   1      32.429  24.495  22.276  1.00  0.00     0.109 A 
ATOM     24  C   UNL A   1      33.270  23.381  22.187  1.00  0.00     0.024 A 
ATOM     25  C   UNL A   1      31.270  24.453  23.060  1.00  0.00     0.024 A 
ATOM     26  C   UNL A   1      32.937  22.211  22.874  1.00  0.00     0.001 A 
ATOM     27  C   UNL A   1      30.953  23.285  23.755  1.00  0.00     0.001 A 
ATOM     28  C   UNL A   1      31.782  22.166  23.658  1.00  0.00     0.000 A 
ENDBRANCH  20  23
ENDBRANCH  12  20
ENDBRANCH   8   9
ENDBRANCH   7   8
ENDBRANCH   5   7
ENDBRANCH   2   3
ENDBRANCH   1   2
BRANCH   1  29
ATOM     29  C   UNL A   1      35.426  23.243  25.857  1.00  0.00     0.023 C 
BRANCH  29  30
ATOM     30  C   UNL A   1      36.881  23.703  25.780  1.00  0.00     0.116 C 
BRANCH  30  31
ATOM     31  N   UNL A   1      37.816  22.622  26.059  1.00  0.00    -0.352 N 
ATOM     32  C   UNL A   1      39.135  22.688  26.441  1.00  0.00     0.251 C 
ATOM     33  H   UNL A   1      37.451  21.713  25.961  1.00  0.00     0.163 HD
ATOM     34  O   UNL A   1      39.822  21.670  26.441  1.00  0.00    -0.269 OA
BRANCH  32  35
ATOM     35  C   UNL A   1      39.735  23.981  26.851  1.00  0.00     0.039 A 
ATOM     36  C   UNL A   1      40.111  24.911  25.877  1.00  0.00     0.014 A 
ATOM     37  C   UNL A   1      39.955  24.267  28.197  1.00  0.00     0.014 A 
ATOM     38  C   UNL A   1      40.641  26.155  26.258  1.00  0.00     0.010 A 
ATOM     39  C   UNL A   1      40.426  25.526  28.566  1.00  0.00     0.010 A 
ATOM     40  C   UNL A   1      40.765  26.496  27.615  1.00  0.00    -0.014 A 
BRANCH  40  41
ATOM     41  C   UNL A   1      41.167  27.865  28.067  1.00  0.00     0.031 A 
ATOM     42  C   UNL A   1      42.617  28.297  28.098  1.00  0.00     0.074 A 
ATOM     43  C   UNL A   1      40.240  28.688  28.603  1.00  0.00     0.049 A 
ATOM     44  N   UNL A   1      43.138  29.413  28.548  1.00  0.00    -0.248 NA
ATOM     45  C   UNL A   1      43.616  27.337  27.606  1.00  0.00     0.031 C 
ATOM     46  C   UNL A   1      38.822  28.365  28.773  1.00  0.00     0.029 A 
ATOM     47  N   UNL A   1      40.355  29.952  29.133  1.00  0.00    -0.354 N 
ATOM     48  C   UNL A   1      44.518  29.268  28.447  1.00  0.00     0.074 A 
ATOM     49  C   UNL A   1      44.754  27.939  27.923  1.00  0.00     0.031 C 
ATOM     50  C   UNL A   1      38.197  29.407  29.341  1.00  0.00     0.029 A 
ATOM     51  C   UNL A   1      39.169  30.463  29.609  1.00  0.00     0.049 A 
ATOM     52  H   UNL A   1      41.206  30.444  29.170  1.00  0.00     0.167 HD
ATOM     53  C   UNL A   1      45.499  30.159  28.736  1.00  0.00     0.034 A 
ATOM     54  C   UNL A   1      38.884  31.644  30.193  1.00  0.00     0.034 A 
ATOM     55  C   UNL A   1      45.267  31.511  29.179  1.00  0.00     0.049 A 
ATOM     56  C   UNL A   1      39.976  32.660  30.396  1.00  0.00     0.074 A 
ATOM     57  C   UNL A   1      46.192  32.529  29.350  1.00  0.00     0.029 A 
ATOM     58  N   UNL A   1      44.033  32.038  29.524  1.00  0.00    -0.354 N 
ATOM     59  N   UNL A   1      41.252  32.569  30.113  1.00  0.00    -0.248 NA
ATOM     60  C   UNL A   1      39.580  33.959  30.963  1.00  0.00     0.031 C 
ATOM     61  C   UNL A   1      45.522  33.660  29.827  1.00  0.00     0.029 A 
ATOM     62  C   UNL A   1      44.173  33.359  29.917  1.00  0.00     0.049 A 
ATOM     63  H   UNL A   1      43.181  31.545  29.494  1.00  0.00     0.167 HD
ATOM     64  C   UNL A   1      41.801  33.808  30.428  1.00  0.00     0.074 A 
ATOM     65  C   UNL A   1      40.716  34.639  30.905  1.00  0.00     0.031 C 
ATOM     66  C   UNL A   1      43.091  34.210  30.339  1.00  0.00     0.034 A 
BRANCH  53  67
ATOM     67  C   UNL A   1      46.934  29.737  28.521  1.00  0.00     0.023 A 
ATOM     68  C   UNL A   1      47.562  29.998  27.286  1.00  0.00     0.012 A 
ATOM     69  C   UNL A   1      47.691  29.175  29.570  1.00  0.00     0.148 A 
ATOM     70  C   UNL A   1      48.902  29.669  27.083  1.00  0.00     0.002 A 
ATOM     71  C   UNL A   1      49.041  28.900  29.378  1.00  0.00     0.091 A 
ATOM     72  F   UNL A   1      47.079  28.920  30.736  1.00  0.00    -0.205 F 
ATOM     73  C   UNL A   1      49.643  29.132  28.131  1.00  0.00     0.022 A 
BRANCH  71  74
ATOM     74  S   UNL A   1      50.109  28.304  30.695  1.00  0.00     0.127 S 
ATOM     75  O   UNL A   1      51.423  28.359  30.056  1.00  0.00    -0.237 OA
ATOM     76  O   UNL A   1      49.897  29.306  31.740  1.00  0.00    -0.237 OA
ATOM     77  O   UNL A   1      49.631  26.970  31.028  1.00  0.00    -0.744 OA
ENDBRANCH  71  74
ENDBRANCH  53  67
BRANCH  54  78
ATOM     78  C   UNL A   1      37.475  31.975  30.549  1.00  0.00     0.023 A 
ATOM     79  C   UNL A   1      37.000  31.649  31.835  1.00  0.00     0.012 A 
ATOM     80  C   UNL A   1      36.617  32.623  29.642  1.00  0.00     0.148 A 
ATOM     81  C   UNL A   1      35.681  31.925  32.199  1.00  0.00     0.002 A 
ATOM     82  C   UNL A   1      35.322  32.946  30.029  1.00  0.00     0.091 A 
ATOM     83  F   UNL A   1      37.089  32.920  28.423  1.00  0.00    -0.205 F 
ATOM     84  C   UNL A   1      34.846  32.582  31.300  1.00  0.00     0.022 A 
BRANCH  82  85
ATOM     85  S   UNL A   1      34.214  33.903  28.990  1.00  0.00     0.127 S 
ATOM     86  O   UNL A   1      35.120  34.906  28.433  1.00  0.00    -0.237 OA
ATOM     87  O   UNL A   1      33.749  32.895  28.037  1.00  0.00    -0.237 OA
ATOM     88  O   UNL A   1      33.180  34.413  29.880  1.00  0.00    -0.744 OA
ENDBRANCH  82  85
ENDBRANCH  54  78
BRANCH  66  89
ATOM     89  C   UNL A   1      43.415  35.634  30.719  1.00  0.00     0.023 A 
ATOM     90  C   UNL A   1      43.815  35.941  32.034  1.00  0.00     0.012 A 
ATOM     91  C   UNL A   1      43.387  36.659  29.751  1.00  0.00     0.148 A 
ATOM     92  C   UNL A   1      44.144  37.250  32.390  1.00  0.00     0.002 A 
ATOM     93  C   UNL A   1      43.765  37.951  30.099  1.00  0.00     0.091 A 
ATOM     94  F   UNL A   1      42.988  36.352  28.507  1.00  0.00    -0.205 F 
ATOM     95  C   UNL A   1      44.131  38.252  31.421  1.00  0.00     0.022 A 
BRANCH  93  96
ATOM     96  S   UNL A   1      43.867  39.285  28.900  1.00  0.00     0.127 S 
ATOM     97  O   UNL A   1      42.495  39.339  28.397  1.00  0.00    -0.237 OA
ATOM     98  O   UNL A   1      44.256  40.422  29.734  1.00  0.00    -0.237 OA
ATOM     99  O   UNL A   1      44.872  38.876  27.928  1.00  0.00    -0.744 OA
ENDBRANCH  93  96
ENDBRANCH  66  89
ENDBRANCH  40  41
ENDBRANCH  32  35
ENDBRANCH  30  31
ENDBRANCH  29  30
ENDBRANCH   1  29
TORSDOF 19
ENDMDL
MODEL 3
REMARK VINA RESULT:     -12.2      5.586     10.354
REMARK SMILES O=C(CCN/C(=[NH+]\S(=O)(=O)c1ccccc1)c1ccccc1)NCCCCNC(=O)c1ccc(-c2c3nc(c(-c4cccc(S(=O)(=O)[O-])c4F)c4ccc([nH]4)c(-c4cccc(S(=O)(=O)[O-])c4F)c4nc(c(-c5cccc(S(=O)(=O)[O-])c5F)c5ccc2[nH]5)C=C4)C=C3)cc1
REMARK SMILES IDX 25 1 24 2 23 3 1 4 2 5 3 7 4 8 5 9 6 10 7 12 17 14 18 15
REMARK SMILES IDX 22 16 19 17 21 18 20 19 8 20 9 21 10 22 11 23 12 24 16 25
REMARK SMILES IDX 13 26 15 27 14 28 26 29 27 30 28 31 29 32 30 34 31 35 32 36
REMARK SMILES IDX 93 37 33 38 92 39 34 40 35 41 36 42 86 43 37 44 91 45 85 46
REMARK SMILES IDX 87 47 38 48 90 49 84 50 83 51 39 53 71 54 51 55 70 56 52 57
REMARK SMILES IDX 55 58 69 59 88 60 53 61 54 62 68 64 89 65 56 66 40 67 41 68
REMARK SMILES IDX 49 69 42 70 44 71 50 72 43 73 45 74 46 75 47 76 48 77 72 78
REMARK SMILES IDX 73 79 81 80 74 81 76 82 82 83 75 84 77 85 78 86 79 87 80 88
REMARK SMILES IDX 57 89 58 90 66 91 59 92 61 93 67 94 60 95 62 96 63 97 64 98
REMARK SMILES IDX 65 99
REMARK H PARENT 23 6 5 11 7 13 28 33 87 52 55 63
REMARK Flexibility Score: inf
ROOT
ATOM      1  C   UNL A   1      31.719  30.834  25.814  1.00  0.00     0.023 C 
ENDROOT
BRANCH   1   2
ATOM      2  C   UNL A   1      30.716  30.484  24.716  1.00  0.00     0.116 C 
BRANCH   2   3
ATOM      3  N   UNL A   1      30.922  29.152  24.187  1.00  0.00    -0.356 N 
ATOM      4  O   UNL A   1      30.601  29.701  21.973  1.00  0.00    -0.275 OA
ATOM      5  C   UNL A   1      30.842  28.868  22.842  1.00  0.00     0.223 C 
ATOM      6  H   UNL A   1      31.127  28.421  24.812  1.00  0.00     0.163 HD
BRANCH   5   7
ATOM      7  C   UNL A   1      31.117  27.424  22.502  1.00  0.00     0.145 C 
BRANCH   7   8
ATOM      8  C   UNL A   1      30.468  26.496  23.518  1.00  0.00     0.243 C 
BRANCH   8   9
ATOM      9  N   UNL A   1      31.337  25.383  23.863  1.00  0.00    -0.273 N 
ATOM     10  C   UNL A   1      32.466  25.382  24.659  1.00  0.00     0.290 C 
ATOM     11  H   UNL A   1      31.087  24.512  23.478  1.00  0.00     0.305 HD
ATOM     12  N   UNL A   1      33.411  24.498  24.630  1.00  0.00    -0.162 N 
ATOM     13  H   UNL A   1      34.139  24.565  25.290  1.00  0.00     0.327 HD
BRANCH  10  14
ATOM     14  C   UNL A   1      32.664  26.443  25.698  1.00  0.00     0.064 A 
ATOM     15  C   UNL A   1      31.649  26.692  26.630  1.00  0.00     0.016 A 
ATOM     16  C   UNL A   1      33.812  27.242  25.686  1.00  0.00     0.016 A 
ATOM     17  C   UNL A   1      31.798  27.716  27.565  1.00  0.00     0.001 A 
ATOM     18  C   UNL A   1      33.963  28.257  26.631  1.00  0.00     0.001 A 
ATOM     19  C   UNL A   1      32.957  28.493  27.569  1.00  0.00     0.000 A 
ENDBRANCH  10  14
BRANCH  12  20
ATOM     20  S   UNL A   1      33.446  23.295  23.566  1.00  0.00     0.328 S 
ATOM     21  O   UNL A   1      32.259  22.469  23.727  1.00  0.00    -0.179 OA
ATOM     22  O   UNL A   1      33.722  23.839  22.249  1.00  0.00    -0.179 OA
BRANCH  20  23
ATOM     23  C   UNL A   1      34.856  22.331  24.059  1.00  0.00     0.109 A 
ATOM     24  C   UNL A   1      34.680  21.067  24.630  1.00  0.00     0.024 A 
ATOM     25  C   UNL A   1      36.139  22.853  23.862  1.00  0.00     0.024 A 
ATOM     26  C   UNL A   1      35.800  20.330  25.025  1.00  0.00     0.001 A 
ATOM     27  C   UNL A   1      37.252  22.104  24.246  1.00  0.00     0.001 A 
ATOM     28  C   UNL A   1      37.082  20.848  24.830  1.00  0.00     0.000 A 
ENDBRANCH  20  23
ENDBRANCH  12  20
ENDBRANCH   8   9
ENDBRANCH   7   8
ENDBRANCH   5   7
ENDBRANCH   2   3
ENDBRANCH   1   2
BRANCH   1  29
ATOM     29  C   UNL A   1      31.404  32.109  26.605  1.00  0.00     0.023 C 
BRANCH  29  30
ATOM     30  C   UNL A   1      32.585  32.727  27.351  1.00  0.00     0.116 C 
BRANCH  30  31
ATOM     31  N   UNL A   1      32.397  34.150  27.595  1.00  0.00    -0.352 N 
ATOM     32  C   UNL A   1      32.994  34.959  28.534  1.00  0.00     0.251 C 
ATOM     33  H   UNL A   1      31.750  34.598  27.003  1.00  0.00     0.163 HD
ATOM     34  O   UNL A   1      32.566  36.095  28.721  1.00  0.00    -0.269 OA
BRANCH  32  35
ATOM     35  C   UNL A   1      34.149  34.468  29.323  1.00  0.00     0.039 A 
ATOM     36  C   UNL A   1      33.931  33.842  30.555  1.00  0.00     0.014 A 
ATOM     37  C   UNL A   1      35.452  34.652  28.866  1.00  0.00     0.014 A 
ATOM     38  C   UNL A   1      35.017  33.336  31.289  1.00  0.00     0.010 A 
ATOM     39  C   UNL A   1      36.516  34.095  29.573  1.00  0.00     0.010 A 
ATOM     40  C   UNL A   1      36.325  33.418  30.785  1.00  0.00    -0.014 A 
BRANCH  40  41
ATOM     41  C   UNL A   1      37.488  32.752  31.450  1.00  0.00     0.031 A 
ATOM     42  C   UNL A   1      38.228  31.606  30.794  1.00  0.00     0.074 A 
ATOM     43  C   UNL A   1      37.799  33.071  32.724  1.00  0.00     0.049 A 
ATOM     44  N   UNL A   1      39.195  30.863  31.277  1.00  0.00    -0.248 NA
ATOM     45  C   UNL A   1      37.797  31.210  29.446  1.00  0.00     0.031 C 
ATOM     46  C   UNL A   1      37.092  34.058  33.544  1.00  0.00     0.029 A 
ATOM     47  N   UNL A   1      38.768  32.579  33.568  1.00  0.00    -0.354 N 
ATOM     48  C   UNL A   1      39.448  29.883  30.321  1.00  0.00     0.074 A 
ATOM     49  C   UNL A   1      38.507  30.108  29.244  1.00  0.00     0.031 C 
ATOM     50  C   UNL A   1      37.662  34.116  34.757  1.00  0.00     0.029 A 
ATOM     51  C   UNL A   1      38.755  33.150  34.820  1.00  0.00     0.049 A 
ATOM     52  H   UNL A   1      39.409  31.882  33.300  1.00  0.00     0.167 HD
ATOM     53  C   UNL A   1      40.388  28.906  30.321  1.00  0.00     0.034 A 
ATOM     54  C   UNL A   1      39.530  32.931  35.901  1.00  0.00     0.034 A 
ATOM     55  C   UNL A   1      41.380  28.729  31.351  1.00  0.00     0.049 A 
ATOM     56  C   UNL A   1      40.640  31.918  35.832  1.00  0.00     0.074 A 
ATOM     57  C   UNL A   1      42.463  27.864  31.361  1.00  0.00     0.029 A 
ATOM     58  N   UNL A   1      41.418  29.421  32.551  1.00  0.00    -0.354 N 
ATOM     59  N   UNL A   1      40.982  31.133  34.841  1.00  0.00    -0.248 NA
ATOM     60  C   UNL A   1      41.500  31.789  37.020  1.00  0.00     0.031 C 
ATOM     61  C   UNL A   1      43.136  28.010  32.578  1.00  0.00     0.029 A 
ATOM     62  C   UNL A   1      42.495  28.995  33.312  1.00  0.00     0.049 A 
ATOM     63  H   UNL A   1      40.773  30.113  32.823  1.00  0.00     0.167 HD
ATOM     64  C   UNL A   1      42.115  30.450  35.269  1.00  0.00     0.074 A 
ATOM     65  C   UNL A   1      42.415  30.928  36.602  1.00  0.00     0.031 C 
ATOM     66  C   UNL A   1      42.833  29.504  34.616  1.00  0.00     0.034 A 
BRANCH  53  67
ATOM     67  C   UNL A   1      40.447  27.972  29.134  1.00  0.00     0.023 A 
ATOM     68  C   UNL A   1      39.480  26.957  28.994  1.00  0.00     0.012 A 
ATOM     69  C   UNL A   1      41.396  28.162  28.107  1.00  0.00     0.148 A 
ATOM     70  C   UNL A   1      39.480  26.119  27.878  1.00  0.00     0.002 A 
ATOM     71  C   UNL A   1      41.357  27.359  26.972  1.00  0.00     0.091 A 
ATOM     72  F   UNL A   1      42.319  29.123  28.258  1.00  0.00    -0.205 F 
ATOM     73  C   UNL A   1      40.409  26.328  26.864  1.00  0.00     0.022 A 
BRANCH  71  74
ATOM     74  S   UNL A   1      42.442  27.613  25.563  1.00  0.00     0.127 S 
ATOM     75  O   UNL A   1      42.147  26.435  24.748  1.00  0.00    -0.237 OA
ATOM     76  O   UNL A   1      41.944  28.874  25.014  1.00  0.00    -0.237 OA
ATOM     77  O   UNL A   1      43.793  27.677  26.102  1.00  0.00    -0.744 OA
ENDBRANCH  71  74
ENDBRANCH  53  67
BRANCH  54  78
ATOM     78  C   UNL A   1      39.344  33.758  37.127  1.00  0.00     0.023 A 
ATOM     79  C   UNL A   1      39.795  35.093  37.128  1.00  0.00     0.012 A 
ATOM     80  C   UNL A   1      38.711  33.245  38.274  1.00  0.00     0.148 A 
ATOM     81  C   UNL A   1      39.656  35.892  38.263  1.00  0.00     0.002 A 
ATOM     82  C   UNL A   1      38.525  34.063  39.383  1.00  0.00     0.091 A 
ATOM     83  F   UNL A   1      38.294  31.971  38.254  1.00  0.00    -0.205 F 
ATOM     84  C   UNL A   1      39.013  35.380  39.387  1.00  0.00     0.022 A 
BRANCH  82  85
ATOM     85  S   UNL A   1      37.597  33.535  40.827  1.00  0.00     0.127 S 
ATOM     86  O   UNL A   1      36.321  33.142  40.234  1.00  0.00    -0.237 OA
ATOM     87  O   UNL A   1      38.415  32.428  41.322  1.00  0.00    -0.237 OA
ATOM     88  O   UNL A   1      37.551  34.692  41.710  1.00  0.00    -0.744 OA
ENDBRANCH  82  85
ENDBRANCH  54  78
BRANCH  66  89
ATOM     89  C   UNL A   1      44.052  28.942  35.303  1.00  0.00     0.023 A 
ATOM     90  C   UNL A   1      45.319  29.518  35.079  1.00  0.00     0.012 A 
ATOM     91  C   UNL A   1      43.932  27.881  36.224  1.00  0.00     0.148 A 
ATOM     92  C   UNL A   1      46.450  29.024  35.730  1.00  0.00     0.002 A 
ATOM     93  C   UNL A   1      45.054  27.427  36.907  1.00  0.00     0.091 A 
ATOM     94  F   UNL A   1      42.722  27.333  36.413  1.00  0.00    -0.205 F 
ATOM     95  C   UNL A   1      46.316  27.987  36.652  1.00  0.00     0.022 A 
BRANCH  93  96
ATOM     96  S   UNL A   1      44.965  26.161  38.179  1.00  0.00     0.127 S 
ATOM     97  O   UNL A   1      44.455  25.017  37.424  1.00  0.00    -0.237 OA
ATOM     98  O   UNL A   1      46.363  26.042  38.596  1.00  0.00    -0.237 OA
ATOM     99  O   UNL A   1      44.070  26.681  39.203  1.00  0.00    -0.744 OA
ENDBRANCH  93  96
ENDBRANCH  66  89
ENDBRANCH  40  41
ENDBRANCH  32  35
ENDBRANCH  30  31
ENDBRANCH  29  30
ENDBRANCH   1  29
TORSDOF 19
ENDMDL
