MODEL 1
REMARK VINA RESULT:     -11.1      0.000      0.000
REMARK SMILES CCCCCN(C)S(=O)(=O)c1cc(Cl)cc(C(=O)NCCCCNC(=O)c2ccc(-c3c4nc(c(-c5cccc(S(=O)(=O)[O-])c5F)c5ccc([nH]5)c(-c5cccc(S(=O)(=O)[O-])c5F)c5nc(c(-c6cccc(S(=O)(=O)[O-])c6F)c6ccc3[nH]6)C=C5)C=C4)cc2)c1F
REMARK SMILES IDX 20 1 19 2 17 3 18 4 16 6 11 7 12 8 90 9 13 10 91 11 14 12
REMARK SMILES IDX 15 13 8 14 9 15 10 16 6 17 7 18 5 19 4 20 3 21 2 22 1 23
REMARK SMILES IDX 21 24 22 25 23 26 24 27 25 28 26 30 27 31 28 32 89 33 29 34
REMARK SMILES IDX 88 35 30 36 31 37 32 38 82 39 33 40 87 41 81 42 83 43 34 44
REMARK SMILES IDX 86 45 80 46 79 47 35 49 67 50 47 51 66 52 48 53 51 54 65 55
REMARK SMILES IDX 84 56 49 57 50 58 64 60 85 61 52 62 36 63 37 64 45 65 38 66
REMARK SMILES IDX 40 67 46 68 39 69 41 70 42 71 43 72 44 73 68 74 69 75 77 76
REMARK SMILES IDX 70 77 72 78 78 79 71 80 73 81 74 82 75 83 76 84 53 85 54 86
REMARK SMILES IDX 62 87 55 88 57 89 63 90 56 91 58 92 59 93 60 94 61 95
REMARK H PARENT 19 5 24 29 83 48 51 59
REMARK Flexibility Score: inf
ROOT
ATOM      1  C   UNL A   1      36.520  22.150  25.584  1.00  0.00     0.116 C 
ENDROOT
BRANCH   1   2
ATOM      2  N   UNL A   1      35.554  21.527  26.471  1.00  0.00    -0.352 N 
ATOM      3  C   UNL A   1      34.190  21.584  26.546  1.00  0.00     0.254 C 
ATOM      4  O   UNL A   1      33.644  20.966  27.462  1.00  0.00    -0.269 OA
ATOM      5  H   UNL A   1      35.962  20.949  27.155  1.00  0.00     0.163 HD
BRANCH   3   6
ATOM      6  C   UNL A   1      33.311  22.264  25.558  1.00  0.00     0.078 A 
ATOM      7  C   UNL A   1      31.982  24.071  24.658  1.00  0.00     0.120 A 
ATOM      8  C   UNL A   1      31.708  23.338  23.500  1.00  0.00     0.045 A 
ATOM      9  C   UNL A   1      32.734  23.526  25.698  1.00  0.00     0.156 A 
ATOM     10  C   UNL A   1      32.221  22.055  23.385  1.00  0.00     0.043 A 
ATOM     11  F   UNL A   1      32.844  24.221  26.833  1.00  0.00    -0.205 F 
ATOM     12  Cl  UNL A   1      31.890  21.132  21.973  1.00  0.00    -0.084 Cl
ATOM     13  C   UNL A   1      33.028  21.526  24.390  1.00  0.00     0.037 A 
BRANCH   7  14
ATOM     14  S   UNL A   1      31.566  25.783  24.712  1.00  0.00     0.245 S 
ATOM     15  O   UNL A   1      32.798  26.535  24.660  1.00  0.00    -0.207 OA
ATOM     16  O   UNL A   1      30.669  25.928  25.842  1.00  0.00    -0.207 OA
BRANCH  14  17
ATOM     17  N   UNL A   1      30.724  26.118  23.254  1.00  0.00    -0.201 NA
ATOM     18  C   UNL A   1      31.600  26.679  22.189  1.00  0.00     0.124 C 
BRANCH  17  19
ATOM     19  C   UNL A   1      29.517  26.996  23.447  1.00  0.00     0.102 C 
BRANCH  19  20
ATOM     20  C   UNL A   1      29.854  28.488  23.419  1.00  0.00     0.017 C 
BRANCH  20  21
ATOM     21  C   UNL A   1      28.891  29.415  22.666  1.00  0.00     0.001 C 
BRANCH  21  22
ATOM     22  C   UNL A   1      28.919  30.894  23.063  1.00  0.00    -0.003 C 
ATOM     23  C   UNL A   1      27.579  31.434  23.532  1.00  0.00     0.004 C 
ENDBRANCH  21  22
ENDBRANCH  20  21
ENDBRANCH  19  20
ENDBRANCH  17  19
ENDBRANCH  14  17
ENDBRANCH   7  14
ENDBRANCH   3   6
ENDBRANCH   1   2
BRANCH   1  24
ATOM     24  C   UNL A   1      36.924  21.176  24.472  1.00  0.00     0.023 C 
BRANCH  24  25
ATOM     25  C   UNL A   1      37.818  20.021  24.938  1.00  0.00     0.023 C 
BRANCH  25  26
ATOM     26  C   UNL A   1      39.036  20.444  25.754  1.00  0.00     0.116 C 
BRANCH  26  27
ATOM     27  N   UNL A   1      40.029  19.388  25.881  1.00  0.00    -0.352 N 
ATOM     28  C   UNL A   1      41.371  19.501  26.155  1.00  0.00     0.251 C 
ATOM     29  H   UNL A   1      39.696  18.471  25.754  1.00  0.00     0.163 HD
ATOM     30  O   UNL A   1      42.092  18.508  26.115  1.00  0.00    -0.269 OA
BRANCH  28  31
ATOM     31  C   UNL A   1      41.949  20.828  26.458  1.00  0.00     0.039 A 
ATOM     32  C   UNL A   1      42.210  21.703  25.399  1.00  0.00     0.014 A 
ATOM     33  C   UNL A   1      42.214  21.216  27.773  1.00  0.00     0.014 A 
ATOM     34  C   UNL A   1      42.678  22.992  25.665  1.00  0.00     0.010 A 
ATOM     35  C   UNL A   1      42.624  22.518  28.040  1.00  0.00     0.010 A 
ATOM     36  C   UNL A   1      42.859  23.419  26.991  1.00  0.00    -0.014 A 
BRANCH  36  37
ATOM     37  C   UNL A   1      43.274  24.808  27.305  1.00  0.00     0.031 A 
ATOM     38  C   UNL A   1      42.293  25.772  27.911  1.00  0.00     0.074 A 
ATOM     39  C   UNL A   1      44.504  25.228  26.950  1.00  0.00     0.049 A 
ATOM     40  N   UNL A   1      42.448  27.040  28.187  1.00  0.00    -0.248 NA
ATOM     41  C   UNL A   1      40.951  25.250  28.219  1.00  0.00     0.031 C 
ATOM     42  C   UNL A   1      45.515  24.410  26.277  1.00  0.00     0.029 A 
ATOM     43  N   UNL A   1      45.100  26.457  27.074  1.00  0.00    -0.354 N 
ATOM     44  C   UNL A   1      41.219  27.478  28.664  1.00  0.00     0.074 A 
ATOM     45  C   UNL A   1      40.319  26.346  28.615  1.00  0.00     0.031 C 
ATOM     46  C   UNL A   1      46.606  25.159  26.048  1.00  0.00     0.029 A 
ATOM     47  C   UNL A   1      46.366  26.512  26.539  1.00  0.00     0.049 A 
ATOM     48  H   UNL A   1      44.664  27.227  27.505  1.00  0.00     0.167 HD
ATOM     49  C   UNL A   1      40.879  28.702  29.131  1.00  0.00     0.034 A 
ATOM     50  C   UNL A   1      47.236  27.539  26.455  1.00  0.00     0.034 A 
ATOM     51  C   UNL A   1      41.793  29.807  29.238  1.00  0.00     0.049 A 
ATOM     52  C   UNL A   1      46.856  28.869  27.047  1.00  0.00     0.074 A 
ATOM     53  C   UNL A   1      41.572  31.056  29.790  1.00  0.00     0.029 A 
ATOM     54  N   UNL A   1      43.103  29.794  28.788  1.00  0.00    -0.354 N 
ATOM     55  N   UNL A   1      45.744  29.216  27.648  1.00  0.00    -0.248 NA
ATOM     56  C   UNL A   1      47.864  29.938  26.982  1.00  0.00     0.031 C 
ATOM     57  C   UNL A   1      42.752  31.800  29.673  1.00  0.00     0.029 A 
ATOM     58  C   UNL A   1      43.706  31.012  29.049  1.00  0.00     0.049 A 
ATOM     59  H   UNL A   1      43.542  29.030  28.348  1.00  0.00     0.167 HD
ATOM     60  C   UNL A   1      45.929  30.530  28.062  1.00  0.00     0.074 A 
ATOM     61  C   UNL A   1      47.268  30.911  27.660  1.00  0.00     0.031 C 
ATOM     62  C   UNL A   1      45.062  31.353  28.700  1.00  0.00     0.034 A 
BRANCH  49  63
ATOM     63  C   UNL A   1      39.473  28.887  29.635  1.00  0.00     0.023 A 
ATOM     64  C   UNL A   1      39.149  28.455  30.938  1.00  0.00     0.012 A 
ATOM     65  C   UNL A   1      38.490  29.521  28.852  1.00  0.00     0.148 A 
ATOM     66  C   UNL A   1      37.861  28.622  31.442  1.00  0.00     0.002 A 
ATOM     67  C   UNL A   1      37.217  29.717  29.376  1.00  0.00     0.091 A 
ATOM     68  F   UNL A   1      38.807  29.898  27.605  1.00  0.00    -0.205 F 
ATOM     69  C   UNL A   1      36.898  29.261  30.665  1.00  0.00     0.022 A 
BRANCH  67  70
ATOM     70  S   UNL A   1      35.933  30.591  28.470  1.00  0.00     0.127 S 
ATOM     71  O   UNL A   1      35.053  31.028  29.552  1.00  0.00    -0.237 OA
ATOM     72  O   UNL A   1      36.685  31.668  27.823  1.00  0.00    -0.237 OA
ATOM     73  O   UNL A   1      35.369  29.615  27.549  1.00  0.00    -0.744 OA
ENDBRANCH  67  70
ENDBRANCH  49  63
BRANCH  50  74
ATOM     74  C   UNL A   1      48.588  27.314  25.873  1.00  0.00     0.023 A 
ATOM     75  C   UNL A   1      49.614  26.822  26.701  1.00  0.00     0.012 A 
ATOM     76  C   UNL A   1      48.852  27.535  24.508  1.00  0.00     0.148 A 
ATOM     77  C   UNL A   1      50.887  26.575  26.185  1.00  0.00     0.002 A 
ATOM     78  C   UNL A   1      50.108  27.241  23.990  1.00  0.00     0.091 A 
ATOM     79  F   UNL A   1      47.866  28.021  23.738  1.00  0.00    -0.205 F 
ATOM     80  C   UNL A   1      51.132  26.772  24.829  1.00  0.00     0.022 A 
BRANCH  78  81
ATOM     81  S   UNL A   1      50.468  27.347  22.233  1.00  0.00     0.127 S 
ATOM     82  O   UNL A   1      51.835  26.839  22.174  1.00  0.00    -0.237 OA
ATOM     83  O   UNL A   1      49.455  26.460  21.657  1.00  0.00    -0.237 OA
ATOM     84  O   UNL A   1      50.292  28.752  21.888  1.00  0.00    -0.744 OA
ENDBRANCH  78  81
ENDBRANCH  50  74
BRANCH  62  85
ATOM     85  C   UNL A   1      45.532  32.745  29.026  1.00  0.00     0.023 A 
ATOM     86  C   UNL A   1      46.232  32.974  30.226  1.00  0.00     0.012 A 
ATOM     87  C   UNL A   1      45.357  33.802  28.112  1.00  0.00     0.148 A 
ATOM     88  C   UNL A   1      46.734  34.240  30.522  1.00  0.00     0.002 A 
ATOM     89  C   UNL A   1      45.894  35.052  28.396  1.00  0.00     0.091 A 
ATOM     90  F   UNL A   1      44.666  33.569  26.986  1.00  0.00    -0.205 F 
ATOM     91  C   UNL A   1      46.576  35.275  29.603  1.00  0.00     0.022 A 
BRANCH  89  92
ATOM     92  S   UNL A   1      45.808  36.413  27.225  1.00  0.00     0.127 S 
ATOM     93  O   UNL A   1      46.599  37.439  27.900  1.00  0.00    -0.237 OA
ATOM     94  O   UNL A   1      46.439  35.844  26.032  1.00  0.00    -0.237 OA
ATOM     95  O   UNL A   1      44.391  36.707  27.067  1.00  0.00    -0.744 OA
ENDBRANCH  89  92
ENDBRANCH  62  85
ENDBRANCH  36  37
ENDBRANCH  28  31
ENDBRANCH  26  27
ENDBRANCH  25  26
ENDBRANCH  24  25
ENDBRANCH   1  24
TORSDOF 20
ENDMDL
MODEL 2
REMARK VINA RESULT:     -10.7      2.855      8.218
REMARK SMILES CCCCCN(C)S(=O)(=O)c1cc(Cl)cc(C(=O)NCCCCNC(=O)c2ccc(-c3c4nc(c(-c5cccc(S(=O)(=O)[O-])c5F)c5ccc([nH]5)c(-c5cccc(S(=O)(=O)[O-])c5F)c5nc(c(-c6cccc(S(=O)(=O)[O-])c6F)c6ccc3[nH]6)C=C5)C=C4)cc2)c1F
REMARK SMILES IDX 20 1 19 2 17 3 18 4 16 6 11 7 12 8 90 9 13 10 91 11 14 12
REMARK SMILES IDX 15 13 8 14 9 15 10 16 6 17 7 18 5 19 4 20 3 21 2 22 1 23
REMARK SMILES IDX 21 24 22 25 23 26 24 27 25 28 26 30 27 31 28 32 89 33 29 34
REMARK SMILES IDX 88 35 30 36 31 37 32 38 82 39 33 40 87 41 81 42 83 43 34 44
REMARK SMILES IDX 86 45 80 46 79 47 35 49 67 50 47 51 66 52 48 53 51 54 65 55
REMARK SMILES IDX 84 56 49 57 50 58 64 60 85 61 52 62 36 63 37 64 45 65 38 66
REMARK SMILES IDX 40 67 46 68 39 69 41 70 42 71 43 72 44 73 68 74 69 75 77 76
REMARK SMILES IDX 70 77 72 78 78 79 71 80 73 81 74 82 75 83 76 84 53 85 54 86
REMARK SMILES IDX 62 87 55 88 57 89 63 90 56 91 58 92 59 93 60 94 61 95
REMARK H PARENT 19 5 24 29 83 48 51 59
REMARK Flexibility Score: inf
ROOT
ATOM      1  C   UNL A   1      35.129  21.229  26.134  1.00  0.00     0.116 C 
ENDROOT
BRANCH   1   2
ATOM      2  N   UNL A   1      33.931  20.474  25.812  1.00  0.00    -0.352 N 
ATOM      3  C   UNL A   1      32.747  20.819  25.223  1.00  0.00     0.254 C 
ATOM      4  O   UNL A   1      31.883  19.943  25.127  1.00  0.00    -0.269 OA
ATOM      5  H   UNL A   1      33.983  19.525  26.069  1.00  0.00     0.163 HD
BRANCH   3   6
ATOM      6  C   UNL A   1      32.453  22.142  24.612  1.00  0.00     0.078 A 
ATOM      7  C   UNL A   1      31.616  24.408  24.547  1.00  0.00     0.120 A 
ATOM      8  C   UNL A   1      32.067  24.573  23.235  1.00  0.00     0.045 A 
ATOM      9  C   UNL A   1      31.762  23.193  25.215  1.00  0.00     0.156 A 
ATOM     10  C   UNL A   1      32.692  23.508  22.605  1.00  0.00     0.043 A 
ATOM     11  F   UNL A   1      31.188  23.055  26.413  1.00  0.00    -0.205 F 
ATOM     12  Cl  UNL A   1      33.247  23.685  20.988  1.00  0.00    -0.084 Cl
ATOM     13  C   UNL A   1      32.901  22.310  23.287  1.00  0.00     0.037 A 
BRANCH   7  14
ATOM     14  S   UNL A   1      31.061  25.817  25.450  1.00  0.00     0.245 S 
ATOM     15  O   UNL A   1      31.978  26.023  26.547  1.00  0.00    -0.207 OA
ATOM     16  O   UNL A   1      29.654  25.581  25.710  1.00  0.00    -0.207 OA
BRANCH  14  17
ATOM     17  N   UNL A   1      31.242  27.162  24.398  1.00  0.00    -0.201 NA
ATOM     18  C   UNL A   1      31.829  28.354  25.070  1.00  0.00     0.124 C 
BRANCH  17  19
ATOM     19  C   UNL A   1      29.970  27.542  23.688  1.00  0.00     0.102 C 
BRANCH  19  20
ATOM     20  C   UNL A   1      30.212  28.423  22.461  1.00  0.00     0.017 C 
BRANCH  20  21
ATOM     21  C   UNL A   1      29.567  29.813  22.451  1.00  0.00     0.001 C 
BRANCH  21  22
ATOM     22  C   UNL A   1      28.348  30.005  23.361  1.00  0.00    -0.003 C 
ATOM     23  C   UNL A   1      27.723  31.387  23.274  1.00  0.00     0.004 C 
ENDBRANCH  21  22
ENDBRANCH  20  21
ENDBRANCH  19  20
ENDBRANCH  17  19
ENDBRANCH  14  17
ENDBRANCH   7  14
ENDBRANCH   3   6
ENDBRANCH   1   2
BRANCH   1  24
ATOM     24  C   UNL A   1      36.038  21.332  24.906  1.00  0.00     0.023 C 
BRANCH  24  25
ATOM     25  C   UNL A   1      36.515  22.754  24.590  1.00  0.00     0.023 C 
BRANCH  25  26
ATOM     26  C   UNL A   1      37.514  23.330  25.588  1.00  0.00     0.116 C 
BRANCH  26  27
ATOM     27  N   UNL A   1      38.710  22.512  25.730  1.00  0.00    -0.352 N 
ATOM     28  C   UNL A   1      39.941  22.871  26.227  1.00  0.00     0.251 C 
ATOM     29  H   UNL A   1      38.627  21.578  25.430  1.00  0.00     0.163 HD
ATOM     30  O   UNL A   1      40.879  22.081  26.171  1.00  0.00    -0.269 OA
BRANCH  28  31
ATOM     31  C   UNL A   1      40.137  24.223  26.791  1.00  0.00     0.039 A 
ATOM     32  C   UNL A   1      40.113  24.380  28.180  1.00  0.00     0.014 A 
ATOM     33  C   UNL A   1      40.361  25.324  25.963  1.00  0.00     0.014 A 
ATOM     34  C   UNL A   1      40.377  25.631  28.741  1.00  0.00     0.010 A 
ATOM     35  C   UNL A   1      40.683  26.557  26.522  1.00  0.00     0.010 A 
ATOM     36  C   UNL A   1      40.695  26.723  27.915  1.00  0.00    -0.014 A 
BRANCH  36  37
ATOM     37  C   UNL A   1      41.063  28.042  28.486  1.00  0.00     0.031 A 
ATOM     38  C   UNL A   1      42.507  28.394  28.708  1.00  0.00     0.074 A 
ATOM     39  C   UNL A   1      40.091  28.879  28.899  1.00  0.00     0.049 A 
ATOM     40  N   UNL A   1      43.018  29.464  29.261  1.00  0.00    -0.248 NA
ATOM     41  C   UNL A   1      43.508  27.402  28.281  1.00  0.00     0.031 C 
ATOM     42  C   UNL A   1      38.653  28.611  28.816  1.00  0.00     0.029 A 
ATOM     43  N   UNL A   1      40.165  30.109  29.501  1.00  0.00    -0.354 N 
ATOM     44  C   UNL A   1      44.391  29.259  29.283  1.00  0.00     0.074 A 
ATOM     45  C   UNL A   1      44.633  27.952  28.714  1.00  0.00     0.031 C 
ATOM     46  C   UNL A   1      37.982  29.646  29.348  1.00  0.00     0.029 A 
ATOM     47  C   UNL A   1      38.938  30.640  29.825  1.00  0.00     0.049 A 
ATOM     48  H   UNL A   1      41.016  30.569  29.684  1.00  0.00     0.167 HD
ATOM     49  C   UNL A   1      45.366  30.096  29.710  1.00  0.00     0.034 A 
ATOM     50  C   UNL A   1      38.621  31.798  30.437  1.00  0.00     0.034 A 
ATOM     51  C   UNL A   1      45.126  31.421  30.217  1.00  0.00     0.049 A 
ATOM     52  C   UNL A   1      39.723  32.741  30.835  1.00  0.00     0.074 A 
ATOM     53  C   UNL A   1      46.050  32.383  30.580  1.00  0.00     0.029 A 
ATOM     54  N   UNL A   1      43.872  31.970  30.426  1.00  0.00    -0.354 N 
ATOM     55  N   UNL A   1      41.019  32.601  30.693  1.00  0.00    -0.248 NA
ATOM     56  C   UNL A   1      39.320  34.017  31.444  1.00  0.00     0.031 C 
ATOM     57  C   UNL A   1      45.353  33.518  31.011  1.00  0.00     0.029 A 
ATOM     58  C   UNL A   1      43.995  33.259  30.915  1.00  0.00     0.049 A 
ATOM     59  H   UNL A   1      43.018  31.511  30.254  1.00  0.00     0.167 HD
ATOM     60  C   UNL A   1      41.583  33.781  31.162  1.00  0.00     0.074 A 
ATOM     61  C   UNL A   1      40.488  34.633  31.577  1.00  0.00     0.031 C 
ATOM     62  C   UNL A   1      42.892  34.119  31.261  1.00  0.00     0.034 A 
BRANCH  49  63
ATOM     63  C   UNL A   1      46.790  29.631  29.573  1.00  0.00     0.023 A 
ATOM     64  C   UNL A   1      47.385  28.920  30.635  1.00  0.00     0.012 A 
ATOM     65  C   UNL A   1      47.523  29.850  28.391  1.00  0.00     0.148 A 
ATOM     66  C   UNL A   1      48.698  28.462  30.537  1.00  0.00     0.002 A 
ATOM     67  C   UNL A   1      48.820  29.358  28.287  1.00  0.00     0.091 A 
ATOM     68  F   UNL A   1      46.952  30.552  27.402  1.00  0.00    -0.205 F 
ATOM     69  C   UNL A   1      49.411  28.672  29.360  1.00  0.00     0.022 A 
BRANCH  67  70
ATOM     70  S   UNL A   1      49.788  29.524  26.782  1.00  0.00     0.127 S 
ATOM     71  O   UNL A   1      49.724  30.966  26.546  1.00  0.00    -0.237 OA
ATOM     72  O   UNL A   1      51.103  29.033  27.198  1.00  0.00    -0.237 OA
ATOM     73  O   UNL A   1      49.122  28.690  25.792  1.00  0.00    -0.744 OA
ENDBRANCH  67  70
ENDBRANCH  49  63
BRANCH  50  74
ATOM     74  C   UNL A   1      37.189  32.170  30.615  1.00  0.00     0.023 A 
ATOM     75  C   UNL A   1      36.577  31.947  31.863  1.00  0.00     0.012 A 
ATOM     76  C   UNL A   1      36.450  32.782  29.586  1.00  0.00     0.148 A 
ATOM     77  C   UNL A   1      35.246  32.305  32.076  1.00  0.00     0.002 A 
ATOM     78  C   UNL A   1      35.139  33.181  29.820  1.00  0.00     0.091 A 
ATOM     79  F   UNL A   1      37.045  32.972  28.399  1.00  0.00    -0.205 F 
ATOM     80  C   UNL A   1      34.530  32.933  31.061  1.00  0.00     0.022 A 
BRANCH  78  81
ATOM     81  S   UNL A   1      34.190  34.110  28.609  1.00  0.00     0.127 S 
ATOM     82  O   UNL A   1      35.039  35.277  28.393  1.00  0.00    -0.237 OA
ATOM     83  O   UNL A   1      34.128  33.175  27.484  1.00  0.00    -0.237 OA
ATOM     84  O   UNL A   1      32.902  34.364  29.242  1.00  0.00    -0.744 OA
ENDBRANCH  78  81
ENDBRANCH  50  74
BRANCH  62  85
ATOM     85  C   UNL A   1      43.222  35.478  31.819  1.00  0.00     0.023 A 
ATOM     86  C   UNL A   1      43.298  35.652  33.214  1.00  0.00     0.012 A 
ATOM     87  C   UNL A   1      43.539  36.554  30.967  1.00  0.00     0.148 A 
ATOM     88  C   UNL A   1      43.665  36.884  33.754  1.00  0.00     0.002 A 
ATOM     89  C   UNL A   1      43.940  37.767  31.512  1.00  0.00     0.091 A 
ATOM     90  F   UNL A   1      43.436  36.374  29.641  1.00  0.00    -0.205 F 
ATOM     91  C   UNL A   1      43.997  37.936  32.904  1.00  0.00     0.022 A 
BRANCH  89  92
ATOM     92  S   UNL A   1      44.469  39.144  30.484  1.00  0.00     0.127 S 
ATOM     93  O   UNL A   1      44.668  40.198  31.475  1.00  0.00    -0.237 OA
ATOM     94  O   UNL A   1      45.702  38.633  29.881  1.00  0.00    -0.237 OA
ATOM     95  O   UNL A   1      43.386  39.363  29.535  1.00  0.00    -0.744 OA
ENDBRANCH  89  92
ENDBRANCH  62  85
ENDBRANCH  36  37
ENDBRANCH  28  31
ENDBRANCH  26  27
ENDBRANCH  25  26
ENDBRANCH  24  25
ENDBRANCH   1  24
TORSDOF 20
ENDMDL
MODEL 3
REMARK VINA RESULT:     -10.5      1.780      7.559
REMARK SMILES CCCCCN(C)S(=O)(=O)c1cc(Cl)cc(C(=O)NCCCCNC(=O)c2ccc(-c3c4nc(c(-c5cccc(S(=O)(=O)[O-])c5F)c5ccc([nH]5)c(-c5cccc(S(=O)(=O)[O-])c5F)c5nc(c(-c6cccc(S(=O)(=O)[O-])c6F)c6ccc3[nH]6)C=C5)C=C4)cc2)c1F
REMARK SMILES IDX 20 1 19 2 17 3 18 4 16 6 11 7 12 8 90 9 13 10 91 11 14 12
REMARK SMILES IDX 15 13 8 14 9 15 10 16 6 17 7 18 5 19 4 20 3 21 2 22 1 23
REMARK SMILES IDX 21 24 22 25 23 26 24 27 25 28 26 30 27 31 28 32 89 33 29 34
REMARK SMILES IDX 88 35 30 36 31 37 32 38 82 39 33 40 87 41 81 42 83 43 34 44
REMARK SMILES IDX 86 45 80 46 79 47 35 49 67 50 47 51 66 52 48 53 51 54 65 55
REMARK SMILES IDX 84 56 49 57 50 58 64 60 85 61 52 62 36 63 37 64 45 65 38 66
REMARK SMILES IDX 40 67 46 68 39 69 41 70 42 71 43 72 44 73 68 74 69 75 77 76
REMARK SMILES IDX 70 77 72 78 78 79 71 80 73 81 74 82 75 83 76 84 53 85 54 86
REMARK SMILES IDX 62 87 55 88 57 89 63 90 56 91 58 92 59 93 60 94 61 95
REMARK H PARENT 19 5 24 29 83 48 51 59
REMARK Flexibility Score: inf
ROOT
ATOM      1  C   UNL A   1      36.691  22.268  25.691  1.00  0.00     0.116 C 
ENDROOT
BRANCH   1   2
ATOM      2  N   UNL A   1      35.669  21.615  26.490  1.00  0.00    -0.352 N 
ATOM      3  C   UNL A   1      34.302  21.657  26.464  1.00  0.00     0.254 C 
ATOM      4  O   UNL A   1      33.697  21.011  27.322  1.00  0.00    -0.269 OA
ATOM      5  H   UNL A   1      36.032  21.024  27.188  1.00  0.00     0.163 HD
BRANCH   3   6
ATOM      6  C   UNL A   1      33.492  22.352  25.429  1.00  0.00     0.078 A 
ATOM      7  C   UNL A   1      32.401  24.231  24.370  1.00  0.00     0.120 A 
ATOM      8  C   UNL A   1      31.978  23.430  23.307  1.00  0.00     0.045 A 
ATOM      9  C   UNL A   1      33.108  23.693  25.444  1.00  0.00     0.156 A 
ATOM     10  C   UNL A   1      32.295  22.080  23.320  1.00  0.00     0.043 A 
ATOM     11  F   UNL A   1      33.363  24.479  26.494  1.00  0.00    -0.205 F 
ATOM     12  Cl  UNL A   1      31.778  21.073  22.026  1.00  0.00    -0.084 Cl
ATOM     13  C   UNL A   1      33.058  21.546  24.357  1.00  0.00     0.037 A 
BRANCH   7  14
ATOM     14  S   UNL A   1      32.239  25.982  24.246  1.00  0.00     0.245 S 
ATOM     15  O   UNL A   1      33.566  26.538  24.126  1.00  0.00    -0.207 OA
ATOM     16  O   UNL A   1      31.383  26.370  25.351  1.00  0.00    -0.207 OA
BRANCH  14  17
ATOM     17  N   UNL A   1      31.441  26.285  22.757  1.00  0.00    -0.201 NA
ATOM     18  C   UNL A   1      32.366  26.732  21.679  1.00  0.00     0.124 C 
BRANCH  17  19
ATOM     19  C   UNL A   1      30.288  27.244  22.879  1.00  0.00     0.102 C 
BRANCH  19  20
ATOM     20  C   UNL A   1      30.659  28.677  22.489  1.00  0.00     0.017 C 
BRANCH  20  21
ATOM     21  C   UNL A   1      29.511  29.674  22.293  1.00  0.00     0.001 C 
BRANCH  21  22
ATOM     22  C   UNL A   1      29.150  30.544  23.502  1.00  0.00    -0.003 C 
ATOM     23  C   UNL A   1      28.406  31.820  23.145  1.00  0.00     0.004 C 
ENDBRANCH  21  22
ENDBRANCH  20  21
ENDBRANCH  19  20
ENDBRANCH  17  19
ENDBRANCH  14  17
ENDBRANCH   7  14
ENDBRANCH   3   6
ENDBRANCH   1   2
BRANCH   1  24
ATOM     24  C   UNL A   1      37.158  21.341  24.565  1.00  0.00     0.023 C 
BRANCH  24  25
ATOM     25  C   UNL A   1      38.049  20.183  25.029  1.00  0.00     0.023 C 
BRANCH  25  26
ATOM     26  C   UNL A   1      39.167  20.581  25.987  1.00  0.00     0.116 C 
BRANCH  26  27
ATOM     27  N   UNL A   1      40.277  19.640  25.988  1.00  0.00    -0.352 N 
ATOM     28  C   UNL A   1      41.616  19.892  26.172  1.00  0.00     0.251 C 
ATOM     29  H   UNL A   1      40.038  18.698  25.835  1.00  0.00     0.163 HD
ATOM     30  O   UNL A   1      42.437  18.990  26.029  1.00  0.00    -0.269 OA
BRANCH  28  31
ATOM     31  C   UNL A   1      42.065  21.261  26.504  1.00  0.00     0.039 A 
ATOM     32  C   UNL A   1      42.283  22.167  25.461  1.00  0.00     0.014 A 
ATOM     33  C   UNL A   1      42.255  21.656  27.830  1.00  0.00     0.014 A 
ATOM     34  C   UNL A   1      42.627  23.488  25.752  1.00  0.00     0.010 A 
ATOM     35  C   UNL A   1      42.541  22.986  28.121  1.00  0.00     0.010 A 
ATOM     36  C   UNL A   1      42.728  23.915  27.087  1.00  0.00    -0.014 A 
BRANCH  36  37
ATOM     37  C   UNL A   1      43.010  25.332  27.425  1.00  0.00     0.031 A 
ATOM     38  C   UNL A   1      44.406  25.876  27.304  1.00  0.00     0.074 A 
ATOM     39  C   UNL A   1      42.028  26.097  27.940  1.00  0.00     0.049 A 
ATOM     40  N   UNL A   1      44.859  27.060  27.621  1.00  0.00    -0.248 NA
ATOM     41  C   UNL A   1      45.435  24.959  26.785  1.00  0.00     0.031 C 
ATOM     42  C   UNL A   1      40.654  25.657  28.188  1.00  0.00     0.029 A 
ATOM     43  N   UNL A   1      42.044  27.397  28.380  1.00  0.00    -0.354 N 
ATOM     44  C   UNL A   1      46.225  27.021  27.379  1.00  0.00     0.074 A 
ATOM     45  C   UNL A   1      46.535  25.687  26.913  1.00  0.00     0.031 C 
ATOM     46  C   UNL A   1      39.959  26.668  28.734  1.00  0.00     0.029 A 
ATOM     47  C   UNL A   1      40.840  27.820  28.894  1.00  0.00     0.049 A 
ATOM     48  H   UNL A   1      42.841  27.972  28.332  1.00  0.00     0.167 HD
ATOM     49  C   UNL A   1      47.137  28.015  27.502  1.00  0.00     0.034 A 
ATOM     50  C   UNL A   1      40.487  29.004  29.432  1.00  0.00     0.034 A 
ATOM     51  C   UNL A   1      46.816  29.358  27.904  1.00  0.00     0.049 A 
ATOM     52  C   UNL A   1      41.502  30.113  29.490  1.00  0.00     0.074 A 
ATOM     53  C   UNL A   1      47.648  30.461  27.963  1.00  0.00     0.029 A 
ATOM     54  N   UNL A   1      45.561  29.781  28.311  1.00  0.00    -0.354 N 
ATOM     55  N   UNL A   1      42.753  30.106  29.097  1.00  0.00    -0.248 NA
ATOM     56  C   UNL A   1      41.049  31.403  30.030  1.00  0.00     0.031 C 
ATOM     57  C   UNL A   1      46.895  31.554  28.407  1.00  0.00     0.029 A 
ATOM     58  C   UNL A   1      45.594  31.129  28.623  1.00  0.00     0.049 A 
ATOM     59  H   UNL A   1      44.763  29.208  28.370  1.00  0.00     0.167 HD
ATOM     60  C   UNL A   1      43.226  31.396  29.311  1.00  0.00     0.074 A 
ATOM     61  C   UNL A   1      42.122  32.163  29.851  1.00  0.00     0.031 C 
ATOM     62  C   UNL A   1      44.469  31.893  29.098  1.00  0.00     0.034 A 
BRANCH  49  63
ATOM     63  C   UNL A   1      48.559  27.704  27.122  1.00  0.00     0.023 A 
ATOM     64  C   UNL A   1      48.921  27.707  25.758  1.00  0.00     0.012 A 
ATOM     65  C   UNL A   1      49.542  27.457  28.098  1.00  0.00     0.148 A 
ATOM     66  C   UNL A   1      50.232  27.436  25.371  1.00  0.00     0.002 A 
ATOM     67  C   UNL A   1      50.856  27.224  27.704  1.00  0.00     0.091 A 
ATOM     68  F   UNL A   1      49.175  27.429  29.387  1.00  0.00    -0.205 F 
ATOM     69  C   UNL A   1      51.200  27.205  26.343  1.00  0.00     0.022 A 
BRANCH  67  70
ATOM     70  S   UNL A   1      52.182  26.982  28.894  1.00  0.00     0.127 S 
ATOM     71  O   UNL A   1      53.292  26.595  28.025  1.00  0.00    -0.237 OA
ATOM     72  O   UNL A   1      52.313  28.312  29.492  1.00  0.00    -0.237 OA
ATOM     73  O   UNL A   1      51.706  25.956  29.809  1.00  0.00    -0.744 OA
ENDBRANCH  67  70
ENDBRANCH  49  63
BRANCH  50  74
ATOM     74  C   UNL A   1      39.079  29.228  29.864  1.00  0.00     0.023 A 
ATOM     75  C   UNL A   1      38.712  28.909  31.185  1.00  0.00     0.012 A 
ATOM     76  C   UNL A   1      38.121  29.794  29.002  1.00  0.00     0.148 A 
ATOM     77  C   UNL A   1      37.410  29.129  31.634  1.00  0.00     0.002 A 
ATOM     78  C   UNL A   1      36.839  30.055  29.470  1.00  0.00     0.091 A 
ATOM     79  F   UNL A   1      38.485  30.076  27.742  1.00  0.00    -0.205 F 
ATOM     80  C   UNL A   1      36.476  29.712  30.782  1.00  0.00     0.022 A 
BRANCH  78  81
ATOM     81  S   UNL A   1      35.616  30.920  28.477  1.00  0.00     0.127 S 
ATOM     82  O   UNL A   1      36.455  31.777  27.645  1.00  0.00    -0.237 OA
ATOM     83  O   UNL A   1      34.961  29.821  27.767  1.00  0.00    -0.237 OA
ATOM     84  O   UNL A   1      34.756  31.604  29.436  1.00  0.00    -0.744 OA
ENDBRANCH  78  81
ENDBRANCH  50  74
BRANCH  62  85
ATOM     85  C   UNL A   1      44.706  33.343  29.428  1.00  0.00     0.023 A 
ATOM     86  C   UNL A   1      45.191  33.691  30.703  1.00  0.00     0.012 A 
ATOM     87  C   UNL A   1      44.532  34.345  28.454  1.00  0.00     0.148 A 
ATOM     88  C   UNL A   1      45.480  35.019  31.012  1.00  0.00     0.002 A 
ATOM     89  C   UNL A   1      44.859  35.662  28.756  1.00  0.00     0.091 A 
ATOM     90  F   UNL A   1      44.046  33.996  27.253  1.00  0.00    -0.205 F 
ATOM     91  C   UNL A   1      45.325  36.002  30.036  1.00  0.00     0.022 A 
BRANCH  89  92
ATOM     92  S   UNL A   1      44.771  36.971  27.528  1.00  0.00     0.127 S 
ATOM     93  O   UNL A   1      45.684  36.477  26.499  1.00  0.00    -0.237 OA
ATOM     94  O   UNL A   1      43.357  36.952  27.147  1.00  0.00    -0.237 OA
ATOM     95  O   UNL A   1      45.188  38.184  28.216  1.00  0.00    -0.744 OA
ENDBRANCH  89  92
ENDBRANCH  62  85
ENDBRANCH  36  37
ENDBRANCH  28  31
ENDBRANCH  26  27
ENDBRANCH  25  26
ENDBRANCH  24  25
ENDBRANCH   1  24
TORSDOF 20
ENDMDL
