MODEL 1
REMARK VINA RESULT:     -12.0      0.000      0.000
REMARK SMILES CCN1C(=O)CC[C@H](C(=O)NCCCCNC(=O)c2ccc(-c3c4nc(c(-c5cccc(S(=O)(=O)[O-])c5F)c5ccc([nH]5)c(-c5cccc(S(=O)(=O)[O-])c5F)c5nc(c(-c6cccc(S(=O)(=O)[O-])c6F)c6ccc3[nH]6)C=C5)C=C4)cc2)[C@@H]1c1ccc(OC)cc1
REMARK SMILES IDX 14 1 13 2 12 3 11 4 9 5 10 6 8 8 3 9 4 10 82 11 5 12 6 13
REMARK SMILES IDX 7 14 2 15 1 16 83 17 84 18 90 19 85 20 89 21 86 22 87 23
REMARK SMILES IDX 88 24 15 25 16 26 17 27 18 29 19 30 20 31 81 32 21 33 80 34
REMARK SMILES IDX 22 35 23 36 24 37 74 38 25 39 79 40 73 41 75 42 26 43 78 44
REMARK SMILES IDX 72 45 71 46 27 48 59 49 39 50 58 51 40 52 43 53 57 54 76 55
REMARK SMILES IDX 41 56 42 57 56 59 77 60 44 61 28 62 29 63 37 64 30 65 32 66
REMARK SMILES IDX 38 67 31 68 33 69 34 70 35 71 36 72 60 73 61 74 69 75 62 76
REMARK SMILES IDX 64 77 70 78 63 79 65 80 66 81 67 82 68 83 45 84 46 85 54 86
REMARK SMILES IDX 47 87 49 88 55 89 48 90 50 91 51 92 52 93 53 94
REMARK H PARENT 11 7 16 28 75 47 43 58
REMARK Flexibility Score: inf
ROOT
ATOM      1  C   UNL A   1      31.683  31.850  26.878  1.00  0.00     0.023 C 
ENDROOT
BRANCH   1   2
ATOM      2  C   UNL A   1      31.947  30.384  26.542  1.00  0.00     0.023 C 
BRANCH   2   3
ATOM      3  C   UNL A   1      33.413  29.988  26.581  1.00  0.00     0.116 C 
BRANCH   3   4
ATOM      4  N   UNL A   1      33.932  29.525  25.309  1.00  0.00    -0.356 N 
ATOM      5  C   UNL A   1      33.288  28.941  24.262  1.00  0.00     0.225 C 
ATOM      6  O   UNL A   1      33.868  28.936  23.171  1.00  0.00    -0.275 OA
ATOM      7  H   UNL A   1      34.900  29.654  25.183  1.00  0.00     0.163 HD
BRANCH   5   8
ATOM      8  C   UNL A   1      31.908  28.299  24.380  1.00  0.00     0.106 C 
ATOM      9  N   UNL A   1      30.508  26.287  24.985  1.00  0.00    -0.335 N 
ATOM     10  C   UNL A   1      29.525  26.654  24.071  1.00  0.00     0.223 C 
ATOM     11  C   UNL A   1      31.874  26.878  24.988  1.00  0.00     0.128 C 
ATOM     12  O   UNL A   1      28.526  25.962  23.860  1.00  0.00    -0.275 OA
ATOM     13  C   UNL A   1      29.625  28.015  23.421  1.00  0.00     0.101 C 
ATOM     14  C   UNL A   1      31.034  28.483  23.149  1.00  0.00     0.026 C 
BRANCH   9  15
ATOM     15  C   UNL A   1      30.237  25.054  25.745  1.00  0.00     0.117 C 
ATOM     16  C   UNL A   1      30.669  23.739  25.116  1.00  0.00     0.027 C 
ENDBRANCH   9  15
BRANCH  11  17
ATOM     17  C   UNL A   1      32.928  25.895  24.480  1.00  0.00    -0.024 A 
ATOM     18  C   UNL A   1      32.960  25.433  23.156  1.00  0.00     0.010 A 
ATOM     19  C   UNL A   1      33.905  25.410  25.373  1.00  0.00     0.010 A 
ATOM     20  C   UNL A   1      33.949  24.539  22.737  1.00  0.00     0.047 A 
ATOM     21  C   UNL A   1      34.903  24.525  24.946  1.00  0.00     0.047 A 
ATOM     22  C   UNL A   1      34.937  24.104  23.620  1.00  0.00     0.118 A 
BRANCH  22  23
ATOM     23  O   UNL A   1      35.869  23.265  23.079  1.00  0.00    -0.497 OA
ATOM     24  C   UNL A   1      36.701  22.580  24.009  1.00  0.00     0.278 C 
ENDBRANCH  22  23
ENDBRANCH  11  17
ENDBRANCH   5   8
ENDBRANCH   3   4
ENDBRANCH   2   3
ENDBRANCH   1   2
BRANCH   1  25
ATOM     25  C   UNL A   1      32.907  32.672  27.280  1.00  0.00     0.116 C 
BRANCH  25  26
ATOM     26  N   UNL A   1      32.597  34.050  27.632  1.00  0.00    -0.352 N 
ATOM     27  C   UNL A   1      33.154  34.843  28.608  1.00  0.00     0.251 C 
ATOM     28  H   UNL A   1      31.890  34.474  27.097  1.00  0.00     0.163 HD
ATOM     29  O   UNL A   1      32.691  35.956  28.830  1.00  0.00    -0.269 OA
BRANCH  27  30
ATOM     30  C   UNL A   1      34.299  34.346  29.401  1.00  0.00     0.039 A 
ATOM     31  C   UNL A   1      34.040  33.674  30.598  1.00  0.00     0.014 A 
ATOM     32  C   UNL A   1      35.618  34.534  28.973  1.00  0.00     0.014 A 
ATOM     33  C   UNL A   1      35.099  33.130  31.327  1.00  0.00     0.010 A 
ATOM     34  C   UNL A   1      36.666  33.940  29.667  1.00  0.00     0.010 A 
ATOM     35  C   UNL A   1      36.415  33.229  30.847  1.00  0.00    -0.014 A 
BRANCH  35  36
ATOM     36  C   UNL A   1      37.532  32.544  31.538  1.00  0.00     0.031 A 
ATOM     37  C   UNL A   1      38.224  31.374  30.900  1.00  0.00     0.074 A 
ATOM     38  C   UNL A   1      37.859  32.936  32.785  1.00  0.00     0.049 A 
ATOM     39  N   UNL A   1      39.208  30.650  31.363  1.00  0.00    -0.248 NA
ATOM     40  C   UNL A   1      37.733  30.944  29.579  1.00  0.00     0.031 C 
ATOM     41  C   UNL A   1      37.182  33.994  33.542  1.00  0.00     0.029 A 
ATOM     42  N   UNL A   1      38.821  32.477  33.646  1.00  0.00    -0.354 N 
ATOM     43  C   UNL A   1      39.454  29.679  30.401  1.00  0.00     0.074 A 
ATOM     44  C   UNL A   1      38.481  29.874  29.347  1.00  0.00     0.031 C 
ATOM     45  C   UNL A   1      37.748  34.097  34.755  1.00  0.00     0.029 A 
ATOM     46  C   UNL A   1      38.810  33.104  34.871  1.00  0.00     0.049 A 
ATOM     47  H   UNL A   1      39.460  31.764  33.411  1.00  0.00     0.167 HD
ATOM     48  C   UNL A   1      40.424  28.736  30.379  1.00  0.00     0.034 A 
ATOM     49  C   UNL A   1      39.567  32.897  35.965  1.00  0.00     0.034 A 
ATOM     50  C   UNL A   1      41.393  28.560  31.428  1.00  0.00     0.049 A 
ATOM     51  C   UNL A   1      40.659  31.863  35.900  1.00  0.00     0.074 A 
ATOM     52  C   UNL A   1      42.455  27.673  31.480  1.00  0.00     0.029 A 
ATOM     53  N   UNL A   1      41.415  29.279  32.613  1.00  0.00    -0.354 N 
ATOM     54  N   UNL A   1      40.981  31.063  34.913  1.00  0.00    -0.248 NA
ATOM     55  C   UNL A   1      41.522  31.734  37.083  1.00  0.00     0.031 C 
ATOM     56  C   UNL A   1      43.105  27.843  32.707  1.00  0.00     0.029 A 
ATOM     57  C   UNL A   1      42.470  28.857  33.404  1.00  0.00     0.049 A 
ATOM     58  H   UNL A   1      40.774  29.986  32.857  1.00  0.00     0.167 HD
ATOM     59  C   UNL A   1      42.104  30.365  35.339  1.00  0.00     0.074 A 
ATOM     60  C   UNL A   1      42.422  30.856  36.664  1.00  0.00     0.031 C 
ATOM     61  C   UNL A   1      42.801  29.395  34.698  1.00  0.00     0.034 A 
BRANCH  48  62
ATOM     62  C   UNL A   1      40.534  27.866  29.153  1.00  0.00     0.023 A 
ATOM     63  C   UNL A   1      39.650  26.777  29.003  1.00  0.00     0.012 A 
ATOM     64  C   UNL A   1      41.443  28.163  28.120  1.00  0.00     0.148 A 
ATOM     65  C   UNL A   1      39.689  25.981  27.859  1.00  0.00     0.002 A 
ATOM     66  C   UNL A   1      41.446  27.392  26.963  1.00  0.00     0.091 A 
ATOM     67  F   UNL A   1      42.286  29.193  28.287  1.00  0.00    -0.205 F 
ATOM     68  C   UNL A   1      40.578  26.294  26.836  1.00  0.00     0.022 A 
BRANCH  66  69
ATOM     69  S   UNL A   1      42.497  27.753  25.552  1.00  0.00     0.127 S 
ATOM     70  O   UNL A   1      42.281  26.575  24.714  1.00  0.00    -0.237 OA
ATOM     71  O   UNL A   1      41.902  28.986  25.035  1.00  0.00    -0.237 OA
ATOM     72  O   UNL A   1      43.846  27.899  26.080  1.00  0.00    -0.744 OA
ENDBRANCH  66  69
ENDBRANCH  48  62
BRANCH  49  73
ATOM     73  C   UNL A   1      39.354  33.716  37.191  1.00  0.00     0.023 A 
ATOM     74  C   UNL A   1      39.874  35.023  37.258  1.00  0.00     0.012 A 
ATOM     75  C   UNL A   1      38.628  33.208  38.286  1.00  0.00     0.148 A 
ATOM     76  C   UNL A   1      39.715  35.792  38.412  1.00  0.00     0.002 A 
ATOM     77  C   UNL A   1      38.423  34.001  39.408  1.00  0.00     0.091 A 
ATOM     78  F   UNL A   1      38.148  31.959  38.206  1.00  0.00    -0.205 F 
ATOM     79  C   UNL A   1      38.984  35.286  39.484  1.00  0.00     0.022 A 
BRANCH  77  80
ATOM     80  S   UNL A   1      37.377  33.476  40.771  1.00  0.00     0.127 S 
ATOM     81  O   UNL A   1      38.165  32.394  41.353  1.00  0.00    -0.237 OA
ATOM     82  O   UNL A   1      37.303  34.692  41.583  1.00  0.00    -0.237 OA
ATOM     83  O   UNL A   1      36.112  33.088  40.163  1.00  0.00    -0.744 OA
ENDBRANCH  77  80
ENDBRANCH  49  73
BRANCH  61  84
ATOM     84  C   UNL A   1      44.006  28.827  35.401  1.00  0.00     0.023 A 
ATOM     85  C   UNL A   1      45.282  29.376  35.165  1.00  0.00     0.012 A 
ATOM     86  C   UNL A   1      43.860  27.793  36.347  1.00  0.00     0.148 A 
ATOM     87  C   UNL A   1      46.401  28.877  35.831  1.00  0.00     0.002 A 
ATOM     88  C   UNL A   1      44.970  27.338  37.046  1.00  0.00     0.091 A 
ATOM     89  F   UNL A   1      42.639  27.274  36.544  1.00  0.00    -0.205 F 
ATOM     90  C   UNL A   1      46.244  27.869  36.779  1.00  0.00     0.022 A 
BRANCH  88  91
ATOM     91  S   UNL A   1      44.851  26.113  38.354  1.00  0.00     0.127 S 
ATOM     92  O   UNL A   1      44.387  24.938  37.618  1.00  0.00    -0.237 OA
ATOM     93  O   UNL A   1      46.233  26.031  38.826  1.00  0.00    -0.237 OA
ATOM     94  O   UNL A   1      43.910  26.652  39.325  1.00  0.00    -0.744 OA
ENDBRANCH  88  91
ENDBRANCH  61  84
ENDBRANCH  35  36
ENDBRANCH  27  30
ENDBRANCH  25  26
ENDBRANCH   1  25
TORSDOF 17
ENDMDL
MODEL 2
REMARK VINA RESULT:     -11.7      6.052     11.871
REMARK SMILES CCN1C(=O)CC[C@H](C(=O)NCCCCNC(=O)c2ccc(-c3c4nc(c(-c5cccc(S(=O)(=O)[O-])c5F)c5ccc([nH]5)c(-c5cccc(S(=O)(=O)[O-])c5F)c5nc(c(-c6cccc(S(=O)(=O)[O-])c6F)c6ccc3[nH]6)C=C5)C=C4)cc2)[C@@H]1c1ccc(OC)cc1
REMARK SMILES IDX 14 1 13 2 12 3 11 4 9 5 10 6 8 8 3 9 4 10 82 11 5 12 6 13
REMARK SMILES IDX 7 14 2 15 1 16 83 17 84 18 90 19 85 20 89 21 86 22 87 23
REMARK SMILES IDX 88 24 15 25 16 26 17 27 18 29 19 30 20 31 81 32 21 33 80 34
REMARK SMILES IDX 22 35 23 36 24 37 74 38 25 39 79 40 73 41 75 42 26 43 78 44
REMARK SMILES IDX 72 45 71 46 27 48 59 49 39 50 58 51 40 52 43 53 57 54 76 55
REMARK SMILES IDX 41 56 42 57 56 59 77 60 44 61 28 62 29 63 37 64 30 65 32 66
REMARK SMILES IDX 38 67 31 68 33 69 34 70 35 71 36 72 60 73 61 74 69 75 62 76
REMARK SMILES IDX 64 77 70 78 63 79 65 80 66 81 67 82 68 83 45 84 46 85 54 86
REMARK SMILES IDX 47 87 49 88 55 89 48 90 50 91 51 92 52 93 53 94
REMARK H PARENT 11 7 16 28 75 47 43 58
REMARK Flexibility Score: inf
ROOT
ATOM      1  C   UNL A   1      39.251  20.794  25.664  1.00  0.00     0.023 C 
ENDROOT
BRANCH   1   2
ATOM      2  C   UNL A   1      39.114  22.208  26.224  1.00  0.00     0.023 C 
BRANCH   2   3
ATOM      3  C   UNL A   1      37.897  22.964  25.721  1.00  0.00     0.116 C 
BRANCH   3   4
ATOM      4  N   UNL A   1      37.448  22.552  24.405  1.00  0.00    -0.356 N 
ATOM      5  C   UNL A   1      36.362  22.951  23.688  1.00  0.00     0.225 C 
ATOM      6  O   UNL A   1      36.365  22.714  22.475  1.00  0.00    -0.275 OA
ATOM      7  H   UNL A   1      38.017  21.882  23.962  1.00  0.00     0.163 HD
BRANCH   5   8
ATOM      8  C   UNL A   1      35.161  23.658  24.309  1.00  0.00     0.106 C 
ATOM      9  N   UNL A   1      33.079  23.532  25.734  1.00  0.00    -0.335 N 
ATOM     10  C   UNL A   1      32.499  24.588  25.037  1.00  0.00     0.223 C 
ATOM     11  C   UNL A   1      34.278  22.798  25.241  1.00  0.00     0.128 C 
ATOM     12  O   UNL A   1      31.352  24.980  25.267  1.00  0.00    -0.275 OA
ATOM     13  C   UNL A   1      33.358  25.362  24.064  1.00  0.00     0.101 C 
ATOM     14  C   UNL A   1      34.389  24.535  23.335  1.00  0.00     0.026 C 
BRANCH   9  15
ATOM     15  C   UNL A   1      32.263  22.964  26.821  1.00  0.00     0.117 C 
ATOM     16  C   UNL A   1      33.002  22.356  28.002  1.00  0.00     0.027 C 
ENDBRANCH   9  15
BRANCH  11  17
ATOM     17  C   UNL A   1      33.930  21.395  24.744  1.00  0.00    -0.024 A 
ATOM     18  C   UNL A   1      32.785  21.122  23.981  1.00  0.00     0.010 A 
ATOM     19  C   UNL A   1      34.776  20.317  25.075  1.00  0.00     0.010 A 
ATOM     20  C   UNL A   1      32.512  19.823  23.545  1.00  0.00     0.047 A 
ATOM     21  C   UNL A   1      34.508  19.019  24.623  1.00  0.00     0.047 A 
ATOM     22  C   UNL A   1      33.384  18.775  23.839  1.00  0.00     0.118 A 
BRANCH  22  23
ATOM     23  O   UNL A   1      33.028  17.562  23.321  1.00  0.00    -0.497 OA
ATOM     24  C   UNL A   1      33.605  16.424  23.952  1.00  0.00     0.278 C 
ENDBRANCH  22  23
ENDBRANCH  11  17
ENDBRANCH   5   8
ENDBRANCH   3   4
ENDBRANCH   2   3
ENDBRANCH   1   2
BRANCH   1  25
ATOM     25  C   UNL A   1      39.830  19.752  26.621  1.00  0.00     0.116 C 
BRANCH  25  26
ATOM     26  N   UNL A   1      41.024  19.091  26.115  1.00  0.00    -0.352 N 
ATOM     27  C   UNL A   1      42.254  19.630  25.818  1.00  0.00     0.251 C 
ATOM     28  H   UNL A   1      40.939  18.123  25.963  1.00  0.00     0.163 HD
ATOM     29  O   UNL A   1      43.118  18.933  25.299  1.00  0.00    -0.269 OA
BRANCH  27  30
ATOM     30  C   UNL A   1      42.528  21.054  26.109  1.00  0.00     0.039 A 
ATOM     31  C   UNL A   1      42.670  21.447  27.442  1.00  0.00     0.014 A 
ATOM     32  C   UNL A   1      42.649  21.996  25.083  1.00  0.00     0.014 A 
ATOM     33  C   UNL A   1      43.004  22.769  27.739  1.00  0.00     0.010 A 
ATOM     34  C   UNL A   1      43.040  23.298  25.376  1.00  0.00     0.010 A 
ATOM     35  C   UNL A   1      43.226  23.694  26.705  1.00  0.00    -0.014 A 
BRANCH  35  36
ATOM     36  C   UNL A   1      43.709  25.063  26.999  1.00  0.00     0.031 A 
ATOM     37  C   UNL A   1      42.781  26.096  27.571  1.00  0.00     0.074 A 
ATOM     38  C   UNL A   1      44.974  25.388  26.667  1.00  0.00     0.049 A 
ATOM     39  N   UNL A   1      43.028  27.342  27.878  1.00  0.00    -0.248 NA
ATOM     40  C   UNL A   1      41.386  25.686  27.806  1.00  0.00     0.031 C 
ATOM     41  C   UNL A   1      45.931  24.493  26.010  1.00  0.00     0.029 A 
ATOM     42  N   UNL A   1      45.665  26.564  26.809  1.00  0.00    -0.354 N 
ATOM     43  C   UNL A   1      41.828  27.867  28.338  1.00  0.00     0.074 A 
ATOM     44  C   UNL A   1      40.837  26.819  28.222  1.00  0.00     0.031 C 
ATOM     45  C   UNL A   1      47.081  25.153  25.802  1.00  0.00     0.029 A 
ATOM     46  C   UNL A   1      46.939  26.520  26.290  1.00  0.00     0.049 A 
ATOM     47  H   UNL A   1      45.285  27.364  27.240  1.00  0.00     0.167 HD
ATOM     48  C   UNL A   1      41.582  29.098  28.845  1.00  0.00     0.034 A 
ATOM     49  C   UNL A   1      47.882  27.478  26.212  1.00  0.00     0.034 A 
ATOM     50  C   UNL A   1      42.579  30.128  28.966  1.00  0.00     0.049 A 
ATOM     51  C   UNL A   1      47.592  28.827  26.812  1.00  0.00     0.074 A 
ATOM     52  C   UNL A   1      42.451  31.391  29.519  1.00  0.00     0.029 A 
ATOM     53  N   UNL A   1      43.888  30.018  28.520  1.00  0.00    -0.354 N 
ATOM     54  N   UNL A   1      46.496  29.253  27.393  1.00  0.00    -0.248 NA
ATOM     55  C   UNL A   1      48.681  29.813  26.789  1.00  0.00     0.031 C 
ATOM     56  C   UNL A   1      43.678  32.051  29.388  1.00  0.00     0.029 A 
ATOM     57  C   UNL A   1      44.578  31.188  28.784  1.00  0.00     0.049 A 
ATOM     58  H   UNL A   1      44.270  29.224  28.081  1.00  0.00     0.167 HD
ATOM     59  C   UNL A   1      46.776  30.539  27.837  1.00  0.00     0.074 A 
ATOM     60  C   UNL A   1      48.153  30.812  27.480  1.00  0.00     0.031 C 
ATOM     61  C   UNL A   1      45.964  31.421  28.469  1.00  0.00     0.034 A 
BRANCH  48  62
ATOM     62  C   UNL A   1      40.199  29.379  29.374  1.00  0.00     0.023 A 
ATOM     63  C   UNL A   1      39.193  29.799  28.478  1.00  0.00     0.012 A 
ATOM     64  C   UNL A   1      39.869  29.155  30.724  1.00  0.00     0.148 A 
ATOM     65  C   UNL A   1      37.891  30.019  28.922  1.00  0.00     0.002 A 
ATOM     66  C   UNL A   1      38.557  29.334  31.151  1.00  0.00     0.091 A 
ATOM     67  F   UNL A   1      40.841  28.771  31.564  1.00  0.00    -0.205 F 
ATOM     68  C   UNL A   1      37.571  29.776  30.254  1.00  0.00     0.022 A 
BRANCH  66  69
ATOM     69  S   UNL A   1      38.020  28.978  32.827  1.00  0.00     0.127 S 
ATOM     70  O   UNL A   1      36.658  29.512  32.820  1.00  0.00    -0.237 OA
ATOM     71  O   UNL A   1      38.102  27.518  32.871  1.00  0.00    -0.237 OA
ATOM     72  O   UNL A   1      38.951  29.670  33.706  1.00  0.00    -0.744 OA
ENDBRANCH  66  69
ENDBRANCH  48  62
BRANCH  49  73
ATOM     73  C   UNL A   1      49.202  27.182  25.588  1.00  0.00     0.023 A 
ATOM     74  C   UNL A   1      50.240  26.642  26.370  1.00  0.00     0.012 A 
ATOM     75  C   UNL A   1      49.428  27.421  24.218  1.00  0.00     0.148 A 
ATOM     76  C   UNL A   1      51.495  26.391  25.812  1.00  0.00     0.002 A 
ATOM     77  C   UNL A   1      50.661  27.113  23.656  1.00  0.00     0.091 A 
ATOM     78  F   UNL A   1      48.430  27.942  23.490  1.00  0.00    -0.205 F 
ATOM     79  C   UNL A   1      51.703  26.618  24.454  1.00  0.00     0.022 A 
BRANCH  77  80
ATOM     80  S   UNL A   1      50.965  27.246  21.890  1.00  0.00     0.127 S 
ATOM     81  O   UNL A   1      52.285  26.633  21.768  1.00  0.00    -0.237 OA
ATOM     82  O   UNL A   1      49.865  26.459  21.332  1.00  0.00    -0.237 OA
ATOM     83  O   UNL A   1      50.893  28.669  21.589  1.00  0.00    -0.744 OA
ENDBRANCH  77  80
ENDBRANCH  49  73
BRANCH  61  84
ATOM     84  C   UNL A   1      46.553  32.752  28.859  1.00  0.00     0.023 A 
ATOM     85  C   UNL A   1      47.202  32.897  30.101  1.00  0.00     0.012 A 
ATOM     86  C   UNL A   1      46.521  33.837  27.962  1.00  0.00     0.148 A 
ATOM     87  C   UNL A   1      47.776  34.116  30.461  1.00  0.00     0.002 A 
ATOM     88  C   UNL A   1      47.141  35.031  28.304  1.00  0.00     0.091 A 
ATOM     89  F   UNL A   1      45.884  33.681  26.792  1.00  0.00    -0.205 F 
ATOM     90  C   UNL A   1      47.757  35.177  29.559  1.00  0.00     0.022 A 
BRANCH  88  91
ATOM     91  S   UNL A   1      47.254  36.419  27.170  1.00  0.00     0.127 S 
ATOM     92  O   UNL A   1      48.023  37.383  27.956  1.00  0.00    -0.237 OA
ATOM     93  O   UNL A   1      47.979  35.836  26.041  1.00  0.00    -0.237 OA
ATOM     94  O   UNL A   1      45.883  36.809  26.873  1.00  0.00    -0.744 OA
ENDBRANCH  88  91
ENDBRANCH  61  84
ENDBRANCH  35  36
ENDBRANCH  27  30
ENDBRANCH  25  26
ENDBRANCH   1  25
TORSDOF 17
ENDMDL
MODEL 3
REMARK VINA RESULT:     -11.7      1.225      2.730
REMARK SMILES CCN1C(=O)CC[C@H](C(=O)NCCCCNC(=O)c2ccc(-c3c4nc(c(-c5cccc(S(=O)(=O)[O-])c5F)c5ccc([nH]5)c(-c5cccc(S(=O)(=O)[O-])c5F)c5nc(c(-c6cccc(S(=O)(=O)[O-])c6F)c6ccc3[nH]6)C=C5)C=C4)cc2)[C@@H]1c1ccc(OC)cc1
REMARK SMILES IDX 14 1 13 2 12 3 11 4 9 5 10 6 8 8 3 9 4 10 82 11 5 12 6 13
REMARK SMILES IDX 7 14 2 15 1 16 83 17 84 18 90 19 85 20 89 21 86 22 87 23
REMARK SMILES IDX 88 24 15 25 16 26 17 27 18 29 19 30 20 31 81 32 21 33 80 34
REMARK SMILES IDX 22 35 23 36 24 37 74 38 25 39 79 40 73 41 75 42 26 43 78 44
REMARK SMILES IDX 72 45 71 46 27 48 59 49 39 50 58 51 40 52 43 53 57 54 76 55
REMARK SMILES IDX 41 56 42 57 56 59 77 60 44 61 28 62 29 63 37 64 30 65 32 66
REMARK SMILES IDX 38 67 31 68 33 69 34 70 35 71 36 72 60 73 61 74 69 75 62 76
REMARK SMILES IDX 64 77 70 78 63 79 65 80 66 81 67 82 68 83 45 84 46 85 54 86
REMARK SMILES IDX 47 87 49 88 55 89 48 90 50 91 51 92 52 93 53 94
REMARK H PARENT 11 7 16 28 75 47 43 58
REMARK Flexibility Score: inf
ROOT
ATOM      1  C   UNL A   1      33.260  31.615  27.732  1.00  0.00     0.023 C 
ENDROOT
BRANCH   1   2
ATOM      2  C   UNL A   1      34.445  30.658  27.842  1.00  0.00     0.023 C 
BRANCH   2   3
ATOM      3  C   UNL A   1      34.120  29.217  27.489  1.00  0.00     0.116 C 
BRANCH   3   4
ATOM      4  N   UNL A   1      32.708  28.895  27.567  1.00  0.00    -0.356 N 
ATOM      5  C   UNL A   1      32.049  27.762  27.198  1.00  0.00     0.225 C 
ATOM      6  O   UNL A   1      30.915  27.591  27.658  1.00  0.00    -0.275 OA
ATOM      7  H   UNL A   1      32.140  29.603  27.946  1.00  0.00     0.163 HD
BRANCH   5   8
ATOM      8  C   UNL A   1      32.639  26.719  26.253  1.00  0.00     0.106 C 
ATOM      9  N   UNL A   1      33.179  26.005  23.892  1.00  0.00    -0.335 N 
ATOM     10  C   UNL A   1      33.076  24.661  24.240  1.00  0.00     0.223 C 
ATOM     11  C   UNL A   1      32.675  27.106  24.757  1.00  0.00     0.128 C 
ATOM     12  O   UNL A   1      33.194  23.753  23.413  1.00  0.00    -0.275 OA
ATOM     13  C   UNL A   1      32.953  24.308  25.704  1.00  0.00     0.101 C 
ATOM     14  C   UNL A   1      32.169  25.299  26.529  1.00  0.00     0.026 C 
BRANCH   9  15
ATOM     15  C   UNL A   1      33.519  26.270  22.483  1.00  0.00     0.117 C 
ATOM     16  C   UNL A   1      32.514  25.832  21.431  1.00  0.00     0.027 C 
ENDBRANCH   9  15
BRANCH  11  17
ATOM     17  C   UNL A   1      31.412  27.752  24.191  1.00  0.00    -0.024 A 
ATOM     18  C   UNL A   1      30.267  27.012  23.854  1.00  0.00     0.010 A 
ATOM     19  C   UNL A   1      31.385  29.144  23.975  1.00  0.00     0.010 A 
ATOM     20  C   UNL A   1      29.132  27.649  23.344  1.00  0.00     0.047 A 
ATOM     21  C   UNL A   1      30.241  29.781  23.479  1.00  0.00     0.047 A 
ATOM     22  C   UNL A   1      29.105  29.033  23.181  1.00  0.00     0.118 A 
BRANCH  22  23
ATOM     23  O   UNL A   1      27.924  29.538  22.714  1.00  0.00    -0.497 OA
ATOM     24  C   UNL A   1      27.993  30.225  21.469  1.00  0.00     0.278 C 
ENDBRANCH  22  23
ENDBRANCH  11  17
ENDBRANCH   5   8
ENDBRANCH   3   4
ENDBRANCH   2   3
ENDBRANCH   1   2
BRANCH   1  25
ATOM     25  C   UNL A   1      33.554  32.969  27.086  1.00  0.00     0.116 C 
BRANCH  25  26
ATOM     26  N   UNL A   1      32.908  34.089  27.753  1.00  0.00    -0.352 N 
ATOM     27  C   UNL A   1      33.190  34.651  28.975  1.00  0.00     0.251 C 
ATOM     28  H   UNL A   1      32.164  34.502  27.260  1.00  0.00     0.163 HD
ATOM     29  O   UNL A   1      32.466  35.532  29.426  1.00  0.00    -0.269 OA
BRANCH  27  30
ATOM     30  C   UNL A   1      34.356  34.181  29.755  1.00  0.00     0.039 A 
ATOM     31  C   UNL A   1      34.126  33.448  30.922  1.00  0.00     0.014 A 
ATOM     32  C   UNL A   1      35.665  34.453  29.343  1.00  0.00     0.014 A 
ATOM     33  C   UNL A   1      35.209  32.929  31.634  1.00  0.00     0.010 A 
ATOM     34  C   UNL A   1      36.739  33.886  30.019  1.00  0.00     0.010 A 
ATOM     35  C   UNL A   1      36.520  33.115  31.167  1.00  0.00    -0.014 A 
BRANCH  35  36
ATOM     36  C   UNL A   1      37.668  32.459  31.837  1.00  0.00     0.031 A 
ATOM     37  C   UNL A   1      38.371  31.301  31.190  1.00  0.00     0.074 A 
ATOM     38  C   UNL A   1      38.014  32.867  33.073  1.00  0.00     0.049 A 
ATOM     39  N   UNL A   1      39.381  30.602  31.635  1.00  0.00    -0.248 NA
ATOM     40  C   UNL A   1      37.860  30.851  29.884  1.00  0.00     0.031 C 
ATOM     41  C   UNL A   1      37.332  33.915  33.839  1.00  0.00     0.029 A 
ATOM     42  N   UNL A   1      39.006  32.435  33.915  1.00  0.00    -0.354 N 
ATOM     43  C   UNL A   1      39.627  29.630  30.673  1.00  0.00     0.074 A 
ATOM     44  C   UNL A   1      38.626  29.796  29.641  1.00  0.00     0.031 C 
ATOM     45  C   UNL A   1      37.922  34.039  35.038  1.00  0.00     0.029 A 
ATOM     46  C   UNL A   1      39.009  33.071  35.135  1.00  0.00     0.049 A 
ATOM     47  H   UNL A   1      39.655  31.736  33.670  1.00  0.00     0.167 HD
ATOM     48  C   UNL A   1      40.617  28.709  30.636  1.00  0.00     0.034 A 
ATOM     49  C   UNL A   1      39.795  32.887  36.213  1.00  0.00     0.034 A 
ATOM     50  C   UNL A   1      41.613  28.561  31.663  1.00  0.00     0.049 A 
ATOM     51  C   UNL A   1      40.909  31.878  36.130  1.00  0.00     0.074 A 
ATOM     52  C   UNL A   1      42.696  27.699  31.696  1.00  0.00     0.029 A 
ATOM     53  N   UNL A   1      41.646  29.289  32.842  1.00  0.00    -0.354 N 
ATOM     54  N   UNL A   1      41.225  31.079  35.140  1.00  0.00    -0.248 NA
ATOM     55  C   UNL A   1      41.801  31.777  37.293  1.00  0.00     0.031 C 
ATOM     56  C   UNL A   1      43.371  27.892  32.906  1.00  0.00     0.029 A 
ATOM     57  C   UNL A   1      42.728  28.896  33.612  1.00  0.00     0.049 A 
ATOM     58  H   UNL A   1      40.996  29.983  33.096  1.00  0.00     0.167 HD
ATOM     59  C   UNL A   1      42.373  30.409  35.544  1.00  0.00     0.074 A 
ATOM     60  C   UNL A   1      42.710  30.915  36.859  1.00  0.00     0.031 C 
ATOM     61  C   UNL A   1      43.077  29.450  34.894  1.00  0.00     0.034 A 
BRANCH  48  62
ATOM     62  C   UNL A   1      40.718  27.833  29.413  1.00  0.00     0.023 A 
ATOM     63  C   UNL A   1      39.882  26.702  29.307  1.00  0.00     0.012 A 
ATOM     64  C   UNL A   1      41.570  28.163  28.341  1.00  0.00     0.148 A 
ATOM     65  C   UNL A   1      39.912  25.898  28.169  1.00  0.00     0.002 A 
ATOM     66  C   UNL A   1      41.563  27.381  27.190  1.00  0.00     0.091 A 
ATOM     67  F   UNL A   1      42.369  29.232  28.466  1.00  0.00    -0.205 F 
ATOM     68  C   UNL A   1      40.743  26.243  27.108  1.00  0.00     0.022 A 
BRANCH  66  69
ATOM     69  S   UNL A   1      42.538  27.778  25.735  1.00  0.00     0.127 S 
ATOM     70  O   UNL A   1      42.159  26.699  24.823  1.00  0.00    -0.237 OA
ATOM     71  O   UNL A   1      42.019  29.096  25.370  1.00  0.00    -0.237 OA
ATOM     72  O   UNL A   1      43.929  27.765  26.165  1.00  0.00    -0.744 OA
ENDBRANCH  66  69
ENDBRANCH  48  62
BRANCH  49  73
ATOM     73  C   UNL A   1      39.592  33.710  37.438  1.00  0.00     0.023 A 
ATOM     74  C   UNL A   1      40.183  34.985  37.532  1.00  0.00     0.012 A 
ATOM     75  C   UNL A   1      38.805  33.238  38.507  1.00  0.00     0.148 A 
ATOM     76  C   UNL A   1      40.033  35.755  38.686  1.00  0.00     0.002 A 
ATOM     77  C   UNL A   1      38.612  34.035  39.629  1.00  0.00     0.091 A 
ATOM     78  F   UNL A   1      38.257  32.019  38.403  1.00  0.00    -0.205 F 
ATOM     79  C   UNL A   1      39.242  35.285  39.731  1.00  0.00     0.022 A 
BRANCH  77  80
ATOM     80  S   UNL A   1      37.497  33.562  40.956  1.00  0.00     0.127 S 
ATOM     81  O   UNL A   1      38.290  32.568  41.672  1.00  0.00    -0.237 OA
ATOM     82  O   UNL A   1      37.310  34.831  41.662  1.00  0.00    -0.237 OA
ATOM     83  O   UNL A   1      36.296  33.066  40.296  1.00  0.00    -0.744 OA
ENDBRANCH  77  80
ENDBRANCH  49  73
BRANCH  61  84
ATOM     84  C   UNL A   1      44.310  28.914  35.573  1.00  0.00     0.023 A 
ATOM     85  C   UNL A   1      45.566  29.501  35.317  1.00  0.00     0.012 A 
ATOM     86  C   UNL A   1      44.211  27.872  36.515  1.00  0.00     0.148 A 
ATOM     87  C   UNL A   1      46.710  29.032  35.961  1.00  0.00     0.002 A 
ATOM     88  C   UNL A   1      45.346  27.446  37.192  1.00  0.00     0.091 A 
ATOM     89  F   UNL A   1      43.009  27.317  36.730  1.00  0.00    -0.205 F 
ATOM     90  C   UNL A   1      46.599  28.015  36.906  1.00  0.00     0.022 A 
BRANCH  88  91
ATOM     91  S   UNL A   1      45.286  26.211  38.495  1.00  0.00     0.127 S 
ATOM     92  O   UNL A   1      44.347  26.820  39.437  1.00  0.00    -0.237 OA
ATOM     93  O   UNL A   1      44.766  25.041  37.787  1.00  0.00    -0.237 OA
ATOM     94  O   UNL A   1      46.652  26.069  38.979  1.00  0.00    -0.744 OA
ENDBRANCH  88  91
ENDBRANCH  61  84
ENDBRANCH  35  36
ENDBRANCH  27  30
ENDBRANCH  25  26
ENDBRANCH   1  25
TORSDOF 17
ENDMDL
