MODEL 1
REMARK VINA RESULT:     -12.8      0.000      0.000
REMARK SMILES O=C(NCCCCNC(=O)c1ccc(-c2c3nc(c(-c4cccc(S(=O)(=O)[O-])c4F)c4ccc([nH]4)c(-c4cccc(S(=O)(=O)[O-])c4F)c4nc(c(-c5cccc(S(=O)(=O)[O-])c5F)c5ccc2[nH]5)C=C4)C=C3)cc1)C1=Cc2cc(Cl)ccc2O[C@@H]1C(F)(F)F
REMARK SMILES IDX 6 1 5 2 4 3 3 4 1 5 2 6 74 8 75 9 84 10 76 11 83 12 77 13
REMARK SMILES IDX 82 14 78 15 81 16 79 17 80 18 85 19 86 20 87 21 88 22 7 23
REMARK SMILES IDX 8 24 9 25 10 27 11 28 12 29 73 30 13 31 72 32 14 33 15 34
REMARK SMILES IDX 16 35 66 36 17 37 71 38 65 39 67 40 18 41 70 42 64 43 63 44
REMARK SMILES IDX 19 46 51 47 31 48 50 49 32 50 35 51 49 52 68 53 33 54 34 55
REMARK SMILES IDX 48 57 69 58 36 59 20 60 21 61 29 62 22 63 24 64 30 65 23 66
REMARK SMILES IDX 25 67 26 68 27 69 28 70 52 71 53 72 61 73 54 74 56 75 62 76
REMARK SMILES IDX 55 77 57 78 58 79 59 80 60 81 37 82 38 83 46 84 39 85 41 86
REMARK SMILES IDX 47 87 40 88 42 89 43 90 44 91 45 92
REMARK H PARENT 3 7 8 26 67 45 35 56
REMARK Flexibility Score: inf
ROOT
ATOM      1  C   UNL A   1      31.626  28.751  27.141  1.00  0.00     0.023 C 
ENDROOT
BRANCH   1   2
ATOM      2  C   UNL A   1      31.156  27.507  26.398  1.00  0.00     0.023 C 
BRANCH   2   3
ATOM      3  C   UNL A   1      32.027  26.268  26.567  1.00  0.00     0.116 C 
BRANCH   3   4
ATOM      4  N   UNL A   1      31.297  25.027  26.789  1.00  0.00    -0.352 N 
ATOM      5  O   UNL A   1      30.597  22.930  26.362  1.00  0.00    -0.270 OA
ATOM      6  C   UNL A   1      31.049  23.989  25.931  1.00  0.00     0.251 C 
ATOM      7  H   UNL A   1      30.925  24.918  27.693  1.00  0.00     0.163 HD
BRANCH   6   8
ATOM      8  C   UNL A   1      31.398  24.066  24.482  1.00  0.00     0.067 C 
ATOM      9  C   UNL A   1      30.653  24.799  23.639  1.00  0.00     0.025 C 
ATOM     10  C   UNL A   1      32.864  23.849  24.198  1.00  0.00     0.314 C 
ATOM     11  C   UNL A   1      31.390  25.953  23.086  1.00  0.00     0.019 A 
ATOM     12  O   UNL A   1      33.544  25.084  23.849  1.00  0.00    -0.475 OA
ATOM     13  C   UNL A   1      30.648  27.051  22.634  1.00  0.00     0.032 A 
ATOM     14  C   UNL A   1      32.768  26.084  23.322  1.00  0.00     0.128 A 
ATOM     15  C   UNL A   1      31.273  28.289  22.500  1.00  0.00     0.041 A 
ATOM     16  C   UNL A   1      33.390  27.319  23.149  1.00  0.00     0.048 A 
ATOM     17  Cl  UNL A   1      30.330  29.672  22.106  1.00  0.00    -0.084 Cl
ATOM     18  C   UNL A   1      32.636  28.430  22.764  1.00  0.00     0.024 A 
BRANCH  10  19
ATOM     19  C   UNL A   1      33.067  22.780  23.111  1.00  0.00     0.429 C 
ATOM     20  F   UNL A   1      33.545  23.322  21.965  1.00  0.00    -0.167 F 
ATOM     21  F   UNL A   1      33.954  21.830  23.495  1.00  0.00    -0.167 F 
ATOM     22  F   UNL A   1      31.915  22.138  22.795  1.00  0.00    -0.167 F 
ENDBRANCH  10  19
ENDBRANCH   6   8
ENDBRANCH   3   4
ENDBRANCH   2   3
ENDBRANCH   1   2
BRANCH   1  23
ATOM     23  C   UNL A   1      32.459  29.756  26.345  1.00  0.00     0.116 C 
BRANCH  23  24
ATOM     24  N   UNL A   1      32.290  31.150  26.735  1.00  0.00    -0.352 N 
ATOM     25  C   UNL A   1      33.187  31.990  27.367  1.00  0.00     0.251 C 
ATOM     26  H   UNL A   1      31.416  31.548  26.518  1.00  0.00     0.163 HD
ATOM     27  O   UNL A   1      32.874  33.143  27.626  1.00  0.00    -0.269 OA
BRANCH  25  28
ATOM     28  C   UNL A   1      34.514  31.470  27.776  1.00  0.00     0.039 A 
ATOM     29  C   UNL A   1      35.552  32.377  28.001  1.00  0.00     0.014 A 
ATOM     30  C   UNL A   1      34.712  30.106  28.007  1.00  0.00     0.014 A 
ATOM     31  C   UNL A   1      36.752  31.930  28.562  1.00  0.00     0.010 A 
ATOM     32  C   UNL A   1      35.873  29.677  28.645  1.00  0.00     0.010 A 
ATOM     33  C   UNL A   1      36.901  30.585  28.943  1.00  0.00    -0.014 A 
BRANCH  33  34
ATOM     34  C   UNL A   1      38.096  30.132  29.705  1.00  0.00     0.031 A 
ATOM     35  C   UNL A   1      38.333  30.592  31.118  1.00  0.00     0.074 A 
ATOM     36  C   UNL A   1      39.024  29.373  29.087  1.00  0.00     0.049 A 
ATOM     37  N   UNL A   1      39.310  30.280  31.931  1.00  0.00    -0.248 NA
ATOM     38  C   UNL A   1      37.370  31.551  31.680  1.00  0.00     0.031 C 
ATOM     39  C   UNL A   1      38.976  28.949  27.684  1.00  0.00     0.029 A 
ATOM     40  N   UNL A   1      40.198  28.832  29.552  1.00  0.00    -0.354 N 
ATOM     41  C   UNL A   1      39.101  31.029  33.082  1.00  0.00     0.074 A 
ATOM     42  C   UNL A   1      37.925  31.840  32.849  1.00  0.00     0.031 C 
ATOM     43  C   UNL A   1      40.051  28.193  27.413  1.00  0.00     0.029 A 
ATOM     44  C   UNL A   1      40.875  28.088  28.613  1.00  0.00     0.049 A 
ATOM     45  H   UNL A   1      40.524  28.964  30.471  1.00  0.00     0.167 HD
ATOM     46  C   UNL A   1      39.799  31.019  34.243  1.00  0.00     0.034 A 
ATOM     47  C   UNL A   1      42.020  27.383  28.712  1.00  0.00     0.034 A 
ATOM     48  C   UNL A   1      40.931  30.168  34.496  1.00  0.00     0.049 A 
ATOM     49  C   UNL A   1      42.729  27.322  30.037  1.00  0.00     0.074 A 
ATOM     50  C   UNL A   1      41.632  29.995  35.677  1.00  0.00     0.029 A 
ATOM     51  N   UNL A   1      41.535  29.354  33.551  1.00  0.00    -0.354 N 
ATOM     52  N   UNL A   1      42.399  27.878  31.177  1.00  0.00    -0.248 NA
ATOM     53  C   UNL A   1      43.948  26.500  30.100  1.00  0.00     0.031 C 
ATOM     54  C   UNL A   1      42.668  29.084  35.440  1.00  0.00     0.029 A 
ATOM     55  C   UNL A   1      42.604  28.682  34.116  1.00  0.00     0.049 A 
ATOM     56  H   UNL A   1      41.245  29.266  32.614  1.00  0.00     0.167 HD
ATOM     57  C   UNL A   1      43.344  27.445  32.100  1.00  0.00     0.074 A 
ATOM     58  C   UNL A   1      44.247  26.561  31.390  1.00  0.00     0.031 C 
ATOM     59  C   UNL A   1      43.464  27.763  33.414  1.00  0.00     0.034 A 
BRANCH  46  60
ATOM     60  C   UNL A   1      39.311  31.912  35.355  1.00  0.00     0.023 A 
ATOM     61  C   UNL A   1      38.358  31.418  36.271  1.00  0.00     0.012 A 
ATOM     62  C   UNL A   1      39.814  33.216  35.518  1.00  0.00     0.148 A 
ATOM     63  C   UNL A   1      37.884  32.222  37.306  1.00  0.00     0.002 A 
ATOM     64  C   UNL A   1      39.367  33.998  36.579  1.00  0.00     0.091 A 
ATOM     65  F   UNL A   1      40.700  33.680  34.624  1.00  0.00    -0.205 F 
ATOM     66  C   UNL A   1      38.395  33.507  37.466  1.00  0.00     0.022 A 
BRANCH  64  67
ATOM     67  S   UNL A   1      40.024  35.637  36.908  1.00  0.00     0.127 S 
ATOM     68  O   UNL A   1      39.360  35.974  38.165  1.00  0.00    -0.237 OA
ATOM     69  O   UNL A   1      41.460  35.380  37.027  1.00  0.00    -0.237 OA
ATOM     70  O   UNL A   1      39.652  36.450  35.758  1.00  0.00    -0.744 OA
ENDBRANCH  64  67
ENDBRANCH  46  60
BRANCH  47  71
ATOM     71  C   UNL A   1      42.500  26.578  27.553  1.00  0.00     0.023 A 
ATOM     72  C   UNL A   1      43.368  27.178  26.619  1.00  0.00     0.012 A 
ATOM     73  C   UNL A   1      42.137  25.228  27.383  1.00  0.00     0.148 A 
ATOM     74  C   UNL A   1      43.843  26.461  25.523  1.00  0.00     0.002 A 
ATOM     75  C   UNL A   1      42.655  24.503  26.315  1.00  0.00     0.091 A 
ATOM     76  F   UNL A   1      41.302  24.678  28.274  1.00  0.00    -0.205 F 
ATOM     77  C   UNL A   1      43.496  25.121  25.376  1.00  0.00     0.022 A 
BRANCH  75  78
ATOM     78  S   UNL A   1      42.366  22.741  26.116  1.00  0.00     0.127 S 
ATOM     79  O   UNL A   1      43.026  22.471  24.842  1.00  0.00    -0.237 OA
ATOM     80  O   UNL A   1      43.043  22.188  27.290  1.00  0.00    -0.237 OA
ATOM     81  O   UNL A   1      40.918  22.579  26.129  1.00  0.00    -0.744 OA
ENDBRANCH  75  78
ENDBRANCH  47  71
BRANCH  59  82
ATOM     82  C   UNL A   1      44.600  27.136  34.178  1.00  0.00     0.023 A 
ATOM     83  C   UNL A   1      45.861  27.764  34.195  1.00  0.00     0.012 A 
ATOM     84  C   UNL A   1      44.407  25.956  34.923  1.00  0.00     0.148 A 
ATOM     85  C   UNL A   1      46.922  27.207  34.907  1.00  0.00     0.002 A 
ATOM     86  C   UNL A   1      45.458  25.432  35.669  1.00  0.00     0.091 A 
ATOM     87  F   UNL A   1      43.209  25.355  34.879  1.00  0.00    -0.205 F 
ATOM     88  C   UNL A   1      46.719  26.049  35.653  1.00  0.00     0.022 A 
BRANCH  86  89
ATOM     89  S   UNL A   1      45.243  23.998  36.729  1.00  0.00     0.127 S 
ATOM     90  O   UNL A   1      46.606  23.766  37.202  1.00  0.00    -0.237 OA
ATOM     91  O   UNL A   1      44.320  24.492  37.751  1.00  0.00    -0.237 OA
ATOM     92  O   UNL A   1      44.683  22.960  35.873  1.00  0.00    -0.744 OA
ENDBRANCH  86  89
ENDBRANCH  59  82
ENDBRANCH  33  34
ENDBRANCH  25  28
ENDBRANCH  23  24
ENDBRANCH   1  23
TORSDOF 15
ENDMDL
MODEL 2
REMARK VINA RESULT:     -12.8      1.768      2.665
REMARK SMILES O=C(NCCCCNC(=O)c1ccc(-c2c3nc(c(-c4cccc(S(=O)(=O)[O-])c4F)c4ccc([nH]4)c(-c4cccc(S(=O)(=O)[O-])c4F)c4nc(c(-c5cccc(S(=O)(=O)[O-])c5F)c5ccc2[nH]5)C=C4)C=C3)cc1)C1=Cc2cc(Cl)ccc2O[C@@H]1C(F)(F)F
REMARK SMILES IDX 6 1 5 2 4 3 3 4 1 5 2 6 74 8 75 9 84 10 76 11 83 12 77 13
REMARK SMILES IDX 82 14 78 15 81 16 79 17 80 18 85 19 86 20 87 21 88 22 7 23
REMARK SMILES IDX 8 24 9 25 10 27 11 28 12 29 73 30 13 31 72 32 14 33 15 34
REMARK SMILES IDX 16 35 66 36 17 37 71 38 65 39 67 40 18 41 70 42 64 43 63 44
REMARK SMILES IDX 19 46 51 47 31 48 50 49 32 50 35 51 49 52 68 53 33 54 34 55
REMARK SMILES IDX 48 57 69 58 36 59 20 60 21 61 29 62 22 63 24 64 30 65 23 66
REMARK SMILES IDX 25 67 26 68 27 69 28 70 52 71 53 72 61 73 54 74 56 75 62 76
REMARK SMILES IDX 55 77 57 78 58 79 59 80 60 81 37 82 38 83 46 84 39 85 41 86
REMARK SMILES IDX 47 87 40 88 42 89 43 90 44 91 45 92
REMARK H PARENT 3 7 8 26 67 45 35 56
REMARK Flexibility Score: inf
ROOT
ATOM      1  C   UNL A   1      31.682  29.045  27.032  1.00  0.00     0.023 C 
ENDROOT
BRANCH   1   2
ATOM      2  C   UNL A   1      32.101  27.585  26.923  1.00  0.00     0.023 C 
BRANCH   2   3
ATOM      3  C   UNL A   1      31.335  26.752  25.901  1.00  0.00     0.116 C 
BRANCH   3   4
ATOM      4  N   UNL A   1      30.641  25.594  26.447  1.00  0.00    -0.352 N 
ATOM      5  O   UNL A   1      30.421  23.521  27.300  1.00  0.00    -0.270 OA
ATOM      6  C   UNL A   1      31.081  24.309  26.626  1.00  0.00     0.251 C 
ATOM      7  H   UNL A   1      29.713  25.759  26.730  1.00  0.00     0.163 HD
BRANCH   6   8
ATOM      8  C   UNL A   1      32.401  23.851  26.101  1.00  0.00     0.067 C 
ATOM      9  C   UNL A   1      32.975  22.735  26.579  1.00  0.00     0.025 C 
ATOM     10  C   UNL A   1      32.678  24.293  24.684  1.00  0.00     0.314 C 
ATOM     11  C   UNL A   1      33.070  21.665  25.565  1.00  0.00     0.019 A 
ATOM     12  O   UNL A   1      32.556  23.202  23.734  1.00  0.00    -0.475 OA
ATOM     13  C   UNL A   1      33.152  20.342  26.013  1.00  0.00     0.032 A 
ATOM     14  C   UNL A   1      32.744  21.936  24.227  1.00  0.00     0.128 A 
ATOM     15  C   UNL A   1      32.830  19.304  25.142  1.00  0.00     0.041 A 
ATOM     16  C   UNL A   1      32.459  20.888  23.353  1.00  0.00     0.048 A 
ATOM     17  Cl  UNL A   1      32.770  17.691  25.735  1.00  0.00    -0.084 Cl
ATOM     18  C   UNL A   1      32.474  19.572  23.819  1.00  0.00     0.024 A 
BRANCH  10  19
ATOM     19  C   UNL A   1      34.054  24.972  24.574  1.00  0.00     0.429 C 
ATOM     20  F   UNL A   1      34.577  25.231  25.797  1.00  0.00    -0.167 F 
ATOM     21  F   UNL A   1      34.951  24.193  23.922  1.00  0.00    -0.167 F 
ATOM     22  F   UNL A   1      33.999  26.150  23.908  1.00  0.00    -0.167 F 
ENDBRANCH  10  19
ENDBRANCH   6   8
ENDBRANCH   3   4
ENDBRANCH   2   3
ENDBRANCH   1   2
BRANCH   1  23
ATOM     23  C   UNL A   1      32.545  30.066  26.291  1.00  0.00     0.116 C 
BRANCH  23  24
ATOM     24  N   UNL A   1      32.399  31.446  26.739  1.00  0.00    -0.352 N 
ATOM     25  C   UNL A   1      33.304  32.239  27.418  1.00  0.00     0.251 C 
ATOM     26  H   UNL A   1      31.536  31.870  26.529  1.00  0.00     0.163 HD
ATOM     27  O   UNL A   1      33.010  33.386  27.724  1.00  0.00    -0.269 OA
BRANCH  25  28
ATOM     28  C   UNL A   1      34.615  31.674  27.820  1.00  0.00     0.039 A 
ATOM     29  C   UNL A   1      35.702  32.539  27.969  1.00  0.00     0.014 A 
ATOM     30  C   UNL A   1      34.753  30.317  28.119  1.00  0.00     0.014 A 
ATOM     31  C   UNL A   1      36.894  32.062  28.523  1.00  0.00     0.010 A 
ATOM     32  C   UNL A   1      35.909  29.864  28.749  1.00  0.00     0.010 A 
ATOM     33  C   UNL A   1      36.988  30.733  28.971  1.00  0.00    -0.014 A 
BRANCH  33  34
ATOM     34  C   UNL A   1      38.181  30.261  29.725  1.00  0.00     0.031 A 
ATOM     35  C   UNL A   1      38.434  30.714  31.137  1.00  0.00     0.074 A 
ATOM     36  C   UNL A   1      39.094  29.489  29.100  1.00  0.00     0.049 A 
ATOM     37  N   UNL A   1      39.410  30.386  31.944  1.00  0.00    -0.248 NA
ATOM     38  C   UNL A   1      37.488  31.687  31.707  1.00  0.00     0.031 C 
ATOM     39  C   UNL A   1      39.030  29.068  27.697  1.00  0.00     0.029 A 
ATOM     40  N   UNL A   1      40.262  28.929  29.557  1.00  0.00    -0.354 N 
ATOM     41  C   UNL A   1      39.219  31.136  33.097  1.00  0.00     0.074 A 
ATOM     42  C   UNL A   1      38.054  31.966  32.872  1.00  0.00     0.031 C 
ATOM     43  C   UNL A   1      40.092  28.296  27.418  1.00  0.00     0.029 A 
ATOM     44  C   UNL A   1      40.922  28.177  28.613  1.00  0.00     0.049 A 
ATOM     45  H   UNL A   1      40.596  29.056  30.475  1.00  0.00     0.167 HD
ATOM     46  C   UNL A   1      39.924  31.114  34.254  1.00  0.00     0.034 A 
ATOM     47  C   UNL A   1      42.057  27.455  28.704  1.00  0.00     0.034 A 
ATOM     48  C   UNL A   1      41.045  30.247  34.499  1.00  0.00     0.049 A 
ATOM     49  C   UNL A   1      42.773  27.381  30.024  1.00  0.00     0.074 A 
ATOM     50  C   UNL A   1      41.751  30.061  35.675  1.00  0.00     0.029 A 
ATOM     51  N   UNL A   1      41.630  29.425  33.549  1.00  0.00    -0.354 N 
ATOM     52  N   UNL A   1      42.458  27.939  31.167  1.00  0.00    -0.248 NA
ATOM     53  C   UNL A   1      43.979  26.541  30.078  1.00  0.00     0.031 C 
ATOM     54  C   UNL A   1      42.771  29.135  35.431  1.00  0.00     0.029 A 
ATOM     55  C   UNL A   1      42.693  28.735  34.106  1.00  0.00     0.049 A 
ATOM     56  H   UNL A   1      41.334  29.343  32.614  1.00  0.00     0.167 HD
ATOM     57  C   UNL A   1      43.402  27.492  32.084  1.00  0.00     0.074 A 
ATOM     58  C   UNL A   1      44.287  26.595  31.367  1.00  0.00     0.031 C 
ATOM     59  C   UNL A   1      43.535  27.805  33.397  1.00  0.00     0.034 A 
BRANCH  46  60
ATOM     60  C   UNL A   1      39.456  32.013  35.370  1.00  0.00     0.023 A 
ATOM     61  C   UNL A   1      38.527  31.521  36.311  1.00  0.00     0.012 A 
ATOM     62  C   UNL A   1      39.956  33.320  35.513  1.00  0.00     0.148 A 
ATOM     63  C   UNL A   1      38.071  32.329  37.351  1.00  0.00     0.002 A 
ATOM     64  C   UNL A   1      39.529  34.107  36.578  1.00  0.00     0.091 A 
ATOM     65  F   UNL A   1      40.819  33.782  34.597  1.00  0.00    -0.205 F 
ATOM     66  C   UNL A   1      38.580  33.618  37.490  1.00  0.00     0.022 A 
BRANCH  64  67
ATOM     67  S   UNL A   1      40.185  35.752  36.881  1.00  0.00     0.127 S 
ATOM     68  O   UNL A   1      39.660  36.494  35.736  1.00  0.00    -0.237 OA
ATOM     69  O   UNL A   1      39.575  36.101  38.164  1.00  0.00    -0.237 OA
ATOM     70  O   UNL A   1      41.632  35.599  36.925  1.00  0.00    -0.744 OA
ENDBRANCH  64  67
ENDBRANCH  46  60
BRANCH  47  71
ATOM     71  C   UNL A   1      42.517  26.644  27.541  1.00  0.00     0.023 A 
ATOM     72  C   UNL A   1      43.349  27.248  26.576  1.00  0.00     0.012 A 
ATOM     73  C   UNL A   1      42.173  25.287  27.396  1.00  0.00     0.148 A 
ATOM     74  C   UNL A   1      43.805  26.526  25.475  1.00  0.00     0.002 A 
ATOM     75  C   UNL A   1      42.673  24.559  26.322  1.00  0.00     0.091 A 
ATOM     76  F   UNL A   1      41.372  24.733  28.316  1.00  0.00    -0.205 F 
ATOM     77  C   UNL A   1      43.477  25.179  25.352  1.00  0.00     0.022 A 
BRANCH  75  78
ATOM     78  S   UNL A   1      42.408  22.790  26.151  1.00  0.00     0.127 S 
ATOM     79  O   UNL A   1      43.089  22.269  27.333  1.00  0.00    -0.237 OA
ATOM     80  O   UNL A   1      40.948  22.696  26.191  1.00  0.00    -0.237 OA
ATOM     81  O   UNL A   1      42.996  22.428  24.867  1.00  0.00    -0.744 OA
ENDBRANCH  75  78
ENDBRANCH  47  71
BRANCH  59  82
ATOM     82  C   UNL A   1      44.665  27.160  34.154  1.00  0.00     0.023 A 
ATOM     83  C   UNL A   1      45.958  27.717  34.087  1.00  0.00     0.012 A 
ATOM     84  C   UNL A   1      44.441  26.035  34.973  1.00  0.00     0.148 A 
ATOM     85  C   UNL A   1      47.016  27.143  34.790  1.00  0.00     0.002 A 
ATOM     86  C   UNL A   1      45.491  25.497  35.708  1.00  0.00     0.091 A 
ATOM     87  F   UNL A   1      43.211  25.501  35.008  1.00  0.00    -0.205 F 
ATOM     88  C   UNL A   1      46.782  26.041  35.609  1.00  0.00     0.022 A 
BRANCH  86  89
ATOM     89  S   UNL A   1      45.244  24.138  36.857  1.00  0.00     0.127 S 
ATOM     90  O   UNL A   1      44.814  23.064  35.964  1.00  0.00    -0.237 OA
ATOM     91  O   UNL A   1      46.578  23.958  37.429  1.00  0.00    -0.237 OA
ATOM     92  O   UNL A   1      44.246  24.609  37.809  1.00  0.00    -0.744 OA
ENDBRANCH  86  89
ENDBRANCH  59  82
ENDBRANCH  33  34
ENDBRANCH  25  28
ENDBRANCH  23  24
ENDBRANCH   1  23
TORSDOF 15
ENDMDL
MODEL 3
REMARK VINA RESULT:     -12.7      1.683      2.348
REMARK SMILES O=C(NCCCCNC(=O)c1ccc(-c2c3nc(c(-c4cccc(S(=O)(=O)[O-])c4F)c4ccc([nH]4)c(-c4cccc(S(=O)(=O)[O-])c4F)c4nc(c(-c5cccc(S(=O)(=O)[O-])c5F)c5ccc2[nH]5)C=C4)C=C3)cc1)C1=Cc2cc(Cl)ccc2O[C@@H]1C(F)(F)F
REMARK SMILES IDX 6 1 5 2 4 3 3 4 1 5 2 6 74 8 75 9 84 10 76 11 83 12 77 13
REMARK SMILES IDX 82 14 78 15 81 16 79 17 80 18 85 19 86 20 87 21 88 22 7 23
REMARK SMILES IDX 8 24 9 25 10 27 11 28 12 29 73 30 13 31 72 32 14 33 15 34
REMARK SMILES IDX 16 35 66 36 17 37 71 38 65 39 67 40 18 41 70 42 64 43 63 44
REMARK SMILES IDX 19 46 51 47 31 48 50 49 32 50 35 51 49 52 68 53 33 54 34 55
REMARK SMILES IDX 48 57 69 58 36 59 20 60 21 61 29 62 22 63 24 64 30 65 23 66
REMARK SMILES IDX 25 67 26 68 27 69 28 70 52 71 53 72 61 73 54 74 56 75 62 76
REMARK SMILES IDX 55 77 57 78 58 79 59 80 60 81 37 82 38 83 46 84 39 85 41 86
REMARK SMILES IDX 47 87 40 88 42 89 43 90 44 91 45 92
REMARK H PARENT 3 7 8 26 67 45 35 56
REMARK Flexibility Score: inf
ROOT
ATOM      1  C   UNL A   1      31.624  28.652  25.773  1.00  0.00     0.023 C 
ENDROOT
BRANCH   1   2
ATOM      2  C   UNL A   1      31.633  27.407  26.651  1.00  0.00     0.023 C 
BRANCH   2   3
ATOM      3  C   UNL A   1      30.901  26.195  26.086  1.00  0.00     0.116 C 
BRANCH   3   4
ATOM      4  N   UNL A   1      31.061  24.967  26.851  1.00  0.00    -0.352 N 
ATOM      5  O   UNL A   1      32.032  23.041  27.500  1.00  0.00    -0.270 OA
ATOM      6  C   UNL A   1      31.881  23.892  26.626  1.00  0.00     0.251 C 
ATOM      7  H   UNL A   1      30.494  24.897  27.652  1.00  0.00     0.163 HD
BRANCH   6   8
ATOM      8  C   UNL A   1      32.680  23.762  25.373  1.00  0.00     0.067 C 
ATOM      9  C   UNL A   1      33.795  24.490  25.197  1.00  0.00     0.025 C 
ATOM     10  C   UNL A   1      32.544  22.417  24.701  1.00  0.00     0.314 C 
ATOM     11  C   UNL A   1      35.014  23.658  25.144  1.00  0.00     0.019 A 
ATOM     12  O   UNL A   1      33.729  21.595  24.873  1.00  0.00    -0.475 OA
ATOM     13  C   UNL A   1      36.234  24.258  25.477  1.00  0.00     0.032 A 
ATOM     14  C   UNL A   1      34.907  22.258  25.102  1.00  0.00     0.128 A 
ATOM     15  C   UNL A   1      37.313  23.456  25.843  1.00  0.00     0.041 A 
ATOM     16  C   UNL A   1      36.004  21.465  25.434  1.00  0.00     0.048 A 
ATOM     17  Cl  UNL A   1      38.759  24.194  26.410  1.00  0.00    -0.084 Cl
ATOM     18  C   UNL A   1      37.201  22.065  25.832  1.00  0.00     0.024 A 
BRANCH  10  19
ATOM     19  C   UNL A   1      32.190  22.574  23.212  1.00  0.00     0.429 C 
ATOM     20  F   UNL A   1      33.270  22.944  22.483  1.00  0.00    -0.167 F 
ATOM     21  F   UNL A   1      31.734  21.416  22.677  1.00  0.00    -0.167 F 
ATOM     22  F   UNL A   1      31.231  23.508  23.004  1.00  0.00    -0.167 F 
ENDBRANCH  10  19
ENDBRANCH   6   8
ENDBRANCH   3   4
ENDBRANCH   2   3
ENDBRANCH   1   2
BRANCH   1  23
ATOM     23  C   UNL A   1      32.826  29.588  25.894  1.00  0.00     0.116 C 
BRANCH  23  24
ATOM     24  N   UNL A   1      32.537  30.900  26.460  1.00  0.00    -0.352 N 
ATOM     25  C   UNL A   1      33.325  31.686  27.279  1.00  0.00     0.251 C 
ATOM     26  H   UNL A   1      31.658  31.278  26.226  1.00  0.00     0.163 HD
ATOM     27  O   UNL A   1      32.918  32.770  27.670  1.00  0.00    -0.269 OA
BRANCH  25  28
ATOM     28  C   UNL A   1      34.647  31.183  27.724  1.00  0.00     0.039 A 
ATOM     29  C   UNL A   1      35.696  32.093  27.877  1.00  0.00     0.014 A 
ATOM     30  C   UNL A   1      34.830  29.839  28.059  1.00  0.00     0.014 A 
ATOM     31  C   UNL A   1      36.892  31.676  28.469  1.00  0.00     0.010 A 
ATOM     32  C   UNL A   1      35.988  29.447  28.727  1.00  0.00     0.010 A 
ATOM     33  C   UNL A   1      37.027  30.362  28.952  1.00  0.00    -0.014 A 
BRANCH  33  34
ATOM     34  C   UNL A   1      38.219  29.956  29.744  1.00  0.00     0.031 A 
ATOM     35  C   UNL A   1      38.433  30.472  31.140  1.00  0.00     0.074 A 
ATOM     36  C   UNL A   1      39.164  29.186  29.166  1.00  0.00     0.049 A 
ATOM     37  N   UNL A   1      39.404  30.204  31.976  1.00  0.00    -0.248 NA
ATOM     38  C   UNL A   1      37.450  31.438  31.655  1.00  0.00     0.031 C 
ATOM     39  C   UNL A   1      39.138  28.709  27.779  1.00  0.00     0.029 A 
ATOM     40  N   UNL A   1      40.339  28.680  29.664  1.00  0.00    -0.354 N 
ATOM     41  C   UNL A   1      39.171  30.993  33.095  1.00  0.00     0.074 A 
ATOM     42  C   UNL A   1      37.987  31.779  32.818  1.00  0.00     0.031 C 
ATOM     43  C   UNL A   1      40.227  27.958  27.550  1.00  0.00     0.029 A 
ATOM     44  C   UNL A   1      41.038  27.910  28.762  1.00  0.00     0.049 A 
ATOM     45  H   UNL A   1      40.653  28.852  30.581  1.00  0.00     0.167 HD
ATOM     46  C   UNL A   1      39.856  31.038  34.264  1.00  0.00     0.034 A 
ATOM     47  C   UNL A   1      42.191  27.226  28.900  1.00  0.00     0.034 A 
ATOM     48  C   UNL A   1      40.996  30.213  34.562  1.00  0.00     0.049 A 
ATOM     49  C   UNL A   1      42.885  27.225  30.235  1.00  0.00     0.074 A 
ATOM     50  C   UNL A   1      41.685  30.094  35.756  1.00  0.00     0.029 A 
ATOM     51  N   UNL A   1      41.622  29.372  33.655  1.00  0.00    -0.354 N 
ATOM     52  N   UNL A   1      42.534  27.819  31.349  1.00  0.00    -0.248 NA
ATOM     53  C   UNL A   1      44.114  26.423  30.343  1.00  0.00     0.031 C 
ATOM     54  C   UNL A   1      42.736  29.190  35.566  1.00  0.00     0.029 A 
ATOM     55  C   UNL A   1      42.694  28.736  34.257  1.00  0.00     0.049 A 
ATOM     56  H   UNL A   1      41.344  29.244  32.719  1.00  0.00     0.167 HD
ATOM     57  C   UNL A   1      43.474  27.435  32.299  1.00  0.00     0.074 A 
ATOM     58  C   UNL A   1      44.397  26.537  31.633  1.00  0.00     0.031 C 
ATOM     59  C   UNL A   1      43.574  27.804  33.600  1.00  0.00     0.034 A 
BRANCH  46  60
ATOM     60  C   UNL A   1      39.342  31.965  35.335  1.00  0.00     0.023 A 
ATOM     61  C   UNL A   1      38.353  31.507  36.231  1.00  0.00     0.012 A 
ATOM     62  C   UNL A   1      39.857  33.266  35.482  1.00  0.00     0.148 A 
ATOM     63  C   UNL A   1      37.855  32.343  37.228  1.00  0.00     0.002 A 
ATOM     64  C   UNL A   1      39.385  34.081  36.507  1.00  0.00     0.091 A 
ATOM     65  F   UNL A   1      40.778  33.696  34.607  1.00  0.00    -0.205 F 
ATOM     66  C   UNL A   1      38.378  33.626  37.372  1.00  0.00     0.022 A 
BRANCH  64  67
ATOM     67  S   UNL A   1      40.053  35.720  36.815  1.00  0.00     0.127 S 
ATOM     68  O   UNL A   1      39.384  36.080  38.064  1.00  0.00    -0.237 OA
ATOM     69  O   UNL A   1      41.486  35.455  36.946  1.00  0.00    -0.237 OA
ATOM     70  O   UNL A   1      39.693  36.519  35.652  1.00  0.00    -0.744 OA
ENDBRANCH  64  67
ENDBRANCH  46  60
BRANCH  47  71
ATOM     71  C   UNL A   1      42.695  26.384  27.779  1.00  0.00     0.023 A 
ATOM     72  C   UNL A   1      43.522  26.975  26.802  1.00  0.00     0.012 A 
ATOM     73  C   UNL A   1      42.397  25.011  27.686  1.00  0.00     0.148 A 
ATOM     74  C   UNL A   1      44.017  26.223  25.738  1.00  0.00     0.002 A 
ATOM     75  C   UNL A   1      42.937  24.256  26.649  1.00  0.00     0.091 A 
ATOM     76  F   UNL A   1      41.600  24.470  28.616  1.00  0.00    -0.205 F 
ATOM     77  C   UNL A   1      43.735  24.863  25.667  1.00  0.00     0.022 A 
BRANCH  75  78
ATOM     78  S   UNL A   1      42.731  22.474  26.548  1.00  0.00     0.127 S 
ATOM     79  O   UNL A   1      41.438  22.360  25.878  1.00  0.00    -0.237 OA
ATOM     80  O   UNL A   1      43.882  22.081  25.735  1.00  0.00    -0.237 OA
ATOM     81  O   UNL A   1      42.779  21.996  27.924  1.00  0.00    -0.744 OA
ENDBRANCH  75  78
ENDBRANCH  47  71
BRANCH  59  82
ATOM     82  C   UNL A   1      44.709  27.222  34.401  1.00  0.00     0.023 A 
ATOM     83  C   UNL A   1      45.969  27.852  34.385  1.00  0.00     0.012 A 
ATOM     84  C   UNL A   1      44.517  26.085  35.210  1.00  0.00     0.148 A 
ATOM     85  C   UNL A   1      47.029  27.338  35.130  1.00  0.00     0.002 A 
ATOM     86  C   UNL A   1      45.566  25.606  35.986  1.00  0.00     0.091 A 
ATOM     87  F   UNL A   1      43.319  25.481  35.197  1.00  0.00    -0.205 F 
ATOM     88  C   UNL A   1      46.826  26.222  35.939  1.00  0.00     0.022 A 
BRANCH  86  89
ATOM     89  S   UNL A   1      45.351  24.231  37.124  1.00  0.00     0.127 S 
ATOM     90  O   UNL A   1      44.910  23.165  36.228  1.00  0.00    -0.237 OA
ATOM     91  O   UNL A   1      46.699  24.053  37.665  1.00  0.00    -0.237 OA
ATOM     92  O   UNL A   1      44.371  24.685  38.102  1.00  0.00    -0.744 OA
ENDBRANCH  86  89
ENDBRANCH  59  82
ENDBRANCH  33  34
ENDBRANCH  25  28
ENDBRANCH  23  24
ENDBRANCH   1  23
TORSDOF 15
ENDMDL
