MODEL 1
REMARK VINA RESULT:     -11.3      0.000      0.000
REMARK SMILES CCN(CC)c1ccc([C@@H]2c3[nH]c4ccccc4c3C[C@@H](C(=O)NCCCCNC(=O)c3ccc(-c4c5nc(c(-c6cccc(S(=O)(=O)[O-])c6F)c6ccc([nH]6)c(-c6cccc(S(=O)(=O)[O-])c6F)c6nc(c(-c7cccc(S(=O)(=O)[O-])c7F)c7ccc4[nH]7)C=C6)C=C5)cc3)N2C(C)=O)cc1
REMARK SMILES IDX 26 1 25 2 24 3 22 4 23 5 21 7 10 8 11 9 95 10 12 11 19 12
REMARK SMILES IDX 13 13 18 15 20 16 14 17 17 18 15 19 16 20 9 21 6 22 7 23
REMARK SMILES IDX 100 24 8 25 99 26 3 27 2 28 1 29 4 30 5 31 96 32 97 33 98 34
REMARK SMILES IDX 27 35 28 36 29 37 30 38 31 40 32 41 33 42 94 43 34 44 93 45
REMARK SMILES IDX 35 46 36 47 37 48 87 49 38 50 92 51 86 52 88 53 39 54 91 55
REMARK SMILES IDX 85 56 84 57 40 59 72 60 52 61 71 62 53 63 56 64 70 65 89 66
REMARK SMILES IDX 54 67 55 68 69 70 90 71 57 72 41 73 42 74 50 75 43 76 45 77
REMARK SMILES IDX 51 78 44 79 46 80 47 81 48 82 49 83 73 84 74 85 82 86 75 87
REMARK SMILES IDX 77 88 83 89 76 90 78 91 79 92 80 93 81 94 58 95 59 96 67 97
REMARK SMILES IDX 60 98 62 99 68 100 61 101 63 102 64 103 65 104 66 105
REMARK H PARENT 24 6 12 14 29 39 88 58 56 69
REMARK Flexibility Score: inf
ROOT
ATOM      1  C   UNL A   1      35.573  31.432  27.972  1.00  0.00     0.023 C 
ENDROOT
BRANCH   1   2
ATOM      2  C   UNL A   1      35.588  29.901  28.053  1.00  0.00     0.116 C 
BRANCH   2   3
ATOM      3  N   UNL A   1      34.252  29.259  28.001  1.00  0.00    -0.354 N 
ATOM      4  C   UNL A   1      33.361  28.791  27.074  1.00  0.00     0.243 C 
ATOM      5  O   UNL A   1      32.381  28.205  27.564  1.00  0.00    -0.273 OA
ATOM      6  H   UNL A   1      33.899  29.133  28.911  1.00  0.00     0.163 HD
BRANCH   4   7
ATOM      7  C   UNL A   1      33.344  29.063  25.524  1.00  0.00     0.179 C 
ATOM      8  C   UNL A   1      32.389  26.845  25.093  1.00  0.00     0.163 C 
ATOM      9  C   UNL A   1      31.146  27.604  24.661  1.00  0.00     0.047 A 
ATOM     10  N   UNL A   1      33.431  27.796  24.703  1.00  0.00    -0.318 N 
ATOM     11  N   UNL A   1      29.923  27.106  24.309  1.00  0.00    -0.356 N 
ATOM     12  C   UNL A   1      31.047  28.996  24.606  1.00  0.00    -0.014 A 
ATOM     13  C   UNL A   1      29.176  28.107  23.731  1.00  0.00     0.046 A 
ATOM     14  H   UNL A   1      29.625  26.178  24.447  1.00  0.00     0.166 HD
ATOM     15  C   UNL A   1      29.843  29.312  23.944  1.00  0.00     0.003 A 
ATOM     16  C   UNL A   1      32.149  29.907  25.051  1.00  0.00     0.073 C 
ATOM     17  C   UNL A   1      27.967  28.031  23.043  1.00  0.00     0.026 A 
ATOM     18  C   UNL A   1      29.281  30.508  23.472  1.00  0.00     0.010 A 
ATOM     19  C   UNL A   1      27.453  29.224  22.528  1.00  0.00     0.002 A 
ATOM     20  C   UNL A   1      28.093  30.444  22.742  1.00  0.00     0.001 A 
BRANCH   8  21
ATOM     21  C   UNL A   1      32.579  25.381  24.766  1.00  0.00    -0.019 A 
ATOM     22  C   UNL A   1      32.797  22.530  24.686  1.00  0.00     0.037 A 
ATOM     23  C   UNL A   1      31.681  23.206  24.194  1.00  0.00     0.026 A 
ATOM     24  C   UNL A   1      33.879  23.338  25.058  1.00  0.00     0.026 A 
ATOM     25  C   UNL A   1      31.582  24.595  24.202  1.00  0.00     0.008 A 
ATOM     26  C   UNL A   1      33.776  24.737  25.110  1.00  0.00     0.008 A 
BRANCH  22  27
ATOM     27  N   UNL A   1      32.820  21.146  24.816  1.00  0.00    -0.372 N 
BRANCH  27  28
ATOM     28  C   UNL A   1      32.197  20.327  23.762  1.00  0.00     0.113 C 
ATOM     29  C   UNL A   1      32.150  21.036  22.415  1.00  0.00     0.027 C 
ENDBRANCH  27  28
BRANCH  27  30
ATOM     30  C   UNL A   1      33.787  20.474  25.698  1.00  0.00     0.113 C 
ATOM     31  C   UNL A   1      35.081  20.060  24.997  1.00  0.00     0.027 C 
ENDBRANCH  27  30
ENDBRANCH  22  27
ENDBRANCH   8  21
BRANCH  10  32
ATOM     32  C   UNL A   1      33.788  27.752  23.347  1.00  0.00     0.220 C 
ATOM     33  C   UNL A   1      34.354  28.969  22.664  1.00  0.00     0.114 C 
ATOM     34  O   UNL A   1      33.615  26.762  22.629  1.00  0.00    -0.275 OA
ENDBRANCH  10  32
ENDBRANCH   4   7
ENDBRANCH   2   3
ENDBRANCH   1   2
BRANCH   1  35
ATOM     35  C   UNL A   1      34.245  32.176  28.075  1.00  0.00     0.023 C 
BRANCH  35  36
ATOM     36  C   UNL A   1      34.303  33.699  28.018  1.00  0.00     0.116 C 
BRANCH  36  37
ATOM     37  N   UNL A   1      33.407  34.424  28.920  1.00  0.00    -0.352 N 
ATOM     38  C   UNL A   1      33.525  34.642  30.289  1.00  0.00     0.251 C 
ATOM     39  H   UNL A   1      32.606  34.810  28.498  1.00  0.00     0.163 HD
ATOM     40  O   UNL A   1      32.685  35.294  30.885  1.00  0.00    -0.269 OA
BRANCH  38  41
ATOM     41  C   UNL A   1      34.651  34.025  31.043  1.00  0.00     0.039 A 
ATOM     42  C   UNL A   1      34.439  32.836  31.750  1.00  0.00     0.014 A 
ATOM     43  C   UNL A   1      35.929  34.572  30.991  1.00  0.00     0.014 A 
ATOM     44  C   UNL A   1      35.532  32.135  32.282  1.00  0.00     0.010 A 
ATOM     45  C   UNL A   1      37.020  33.810  31.393  1.00  0.00     0.010 A 
ATOM     46  C   UNL A   1      36.842  32.583  32.049  1.00  0.00    -0.014 A 
BRANCH  46  47
ATOM     47  C   UNL A   1      38.047  31.812  32.475  1.00  0.00     0.031 A 
ATOM     48  C   UNL A   1      38.731  32.153  33.778  1.00  0.00     0.074 A 
ATOM     49  C   UNL A   1      38.610  30.908  31.646  1.00  0.00     0.049 A 
ATOM     50  N   UNL A   1      39.866  31.715  34.258  1.00  0.00    -0.248 NA
ATOM     51  C   UNL A   1      38.080  33.166  34.627  1.00  0.00     0.031 C 
ATOM     52  C   UNL A   1      38.123  30.554  30.309  1.00  0.00     0.029 A 
ATOM     53  N   UNL A   1      39.739  30.138  31.794  1.00  0.00    -0.354 N 
ATOM     54  C   UNL A   1      40.093  32.445  35.421  1.00  0.00     0.074 A 
ATOM     55  C   UNL A   1      39.009  33.393  35.542  1.00  0.00     0.031 C 
ATOM     56  C   UNL A   1      38.934  29.629  29.771  1.00  0.00     0.029 A 
ATOM     57  C   UNL A   1      40.016  29.340  30.706  1.00  0.00     0.049 A 
ATOM     58  H   UNL A   1      40.299  30.156  32.603  1.00  0.00     0.167 HD
ATOM     59  C   UNL A   1      41.084  32.312  36.334  1.00  0.00     0.034 A 
ATOM     60  C   UNL A   1      41.025  28.472  30.487  1.00  0.00     0.034 A 
ATOM     61  C   UNL A   1      42.105  31.305  36.265  1.00  0.00     0.049 A 
ATOM     62  C   UNL A   1      42.053  28.260  31.569  1.00  0.00     0.074 A 
ATOM     63  C   UNL A   1      43.089  31.009  37.191  1.00  0.00     0.029 A 
ATOM     64  N   UNL A   1      42.265  30.416  35.213  1.00  0.00    -0.354 N 
ATOM     65  N   UNL A   1      42.160  28.854  32.734  1.00  0.00    -0.248 NA
ATOM     66  C   UNL A   1      43.072  27.228  31.327  1.00  0.00     0.031 C 
ATOM     67  C   UNL A   1      43.848  29.943  36.695  1.00  0.00     0.029 A 
ATOM     68  C   UNL A   1      43.322  29.563  35.470  1.00  0.00     0.049 A 
ATOM     69  H   UNL A   1      41.707  30.396  34.402  1.00  0.00     0.167 HD
ATOM     70  C   UNL A   1      43.225  28.236  33.380  1.00  0.00     0.074 A 
ATOM     71  C   UNL A   1      43.719  27.211  32.484  1.00  0.00     0.031 C 
ATOM     72  C   UNL A   1      43.757  28.503  34.598  1.00  0.00     0.034 A 
BRANCH  59  73
ATOM     73  C   UNL A   1      41.057  33.230  37.530  1.00  0.00     0.023 A 
ATOM     74  C   UNL A   1      40.160  32.971  38.588  1.00  0.00     0.012 A 
ATOM     75  C   UNL A   1      41.932  34.330  37.625  1.00  0.00     0.148 A 
ATOM     76  C   UNL A   1      40.096  33.817  39.693  1.00  0.00     0.002 A 
ATOM     77  C   UNL A   1      41.899  35.140  38.755  1.00  0.00     0.091 A 
ATOM     78  F   UNL A   1      42.766  34.576  36.604  1.00  0.00    -0.205 F 
ATOM     79  C   UNL A   1      40.970  34.895  39.781  1.00  0.00     0.022 A 
BRANCH  77  80
ATOM     80  S   UNL A   1      43.041  36.504  39.006  1.00  0.00     0.127 S 
ATOM     81  O   UNL A   1      42.568  37.055  40.274  1.00  0.00    -0.237 OA
ATOM     82  O   UNL A   1      44.329  35.814  39.083  1.00  0.00    -0.237 OA
ATOM     83  O   UNL A   1      42.887  37.373  37.848  1.00  0.00    -0.744 OA
ENDBRANCH  77  80
ENDBRANCH  59  73
BRANCH  60  84
ATOM     84  C   UNL A   1      41.060  27.657  29.237  1.00  0.00     0.023 A 
ATOM     85  C   UNL A   1      40.265  26.496  29.153  1.00  0.00     0.012 A 
ATOM     86  C   UNL A   1      41.853  28.023  28.133  1.00  0.00     0.148 A 
ATOM     87  C   UNL A   1      40.290  25.693  28.012  1.00  0.00     0.002 A 
ATOM     88  C   UNL A   1      41.832  27.249  26.977  1.00  0.00     0.091 A 
ATOM     89  F   UNL A   1      42.609  29.126  28.232  1.00  0.00    -0.205 F 
ATOM     90  C   UNL A   1      41.067  26.074  26.921  1.00  0.00     0.022 A 
BRANCH  88  91
ATOM     91  S   UNL A   1      42.701  27.726  25.480  1.00  0.00     0.127 S 
ATOM     92  O   UNL A   1      41.903  28.858  25.016  1.00  0.00    -0.237 OA
ATOM     93  O   UNL A   1      44.025  28.076  25.996  1.00  0.00    -0.237 OA
ATOM     94  O   UNL A   1      42.686  26.547  24.624  1.00  0.00    -0.744 OA
ENDBRANCH  88  91
ENDBRANCH  60  84
BRANCH  72  95
ATOM     95  C   UNL A   1      44.899  27.641  35.069  1.00  0.00     0.023 A 
ATOM     96  C   UNL A   1      44.638  26.431  35.739  1.00  0.00     0.012 A 
ATOM     97  C   UNL A   1      46.231  27.998  34.780  1.00  0.00     0.148 A 
ATOM     98  C   UNL A   1      45.686  25.606  36.145  1.00  0.00     0.002 A 
ATOM     99  C   UNL A   1      47.267  27.148  35.142  1.00  0.00     0.091 A 
ATOM    100  F   UNL A   1      46.461  29.166  34.160  1.00  0.00    -0.205 F 
ATOM    101  C   UNL A   1      46.998  25.958  35.837  1.00  0.00     0.022 A 
BRANCH  99 102
ATOM    102  S   UNL A   1      48.975  27.477  34.692  1.00  0.00     0.127 S 
ATOM    103  O   UNL A   1      48.942  27.295  33.243  1.00  0.00    -0.237 OA
ATOM    104  O   UNL A   1      49.153  28.862  35.129  1.00  0.00    -0.237 OA
ATOM    105  O   UNL A   1      49.774  26.507  35.431  1.00  0.00    -0.744 OA
ENDBRANCH  99 102
ENDBRANCH  72  95
ENDBRANCH  46  47
ENDBRANCH  38  41
ENDBRANCH  36  37
ENDBRANCH  35  36
ENDBRANCH   1  35
TORSDOF 19
ENDMDL
MODEL 2
REMARK VINA RESULT:     -10.9      4.933      9.703
REMARK SMILES CCN(CC)c1ccc([C@@H]2c3[nH]c4ccccc4c3C[C@@H](C(=O)NCCCCNC(=O)c3ccc(-c4c5nc(c(-c6cccc(S(=O)(=O)[O-])c6F)c6ccc([nH]6)c(-c6cccc(S(=O)(=O)[O-])c6F)c6nc(c(-c7cccc(S(=O)(=O)[O-])c7F)c7ccc4[nH]7)C=C6)C=C5)cc3)N2C(C)=O)cc1
REMARK SMILES IDX 26 1 25 2 24 3 22 4 23 5 21 7 10 8 11 9 95 10 12 11 19 12
REMARK SMILES IDX 13 13 18 15 20 16 14 17 17 18 15 19 16 20 9 21 6 22 7 23
REMARK SMILES IDX 100 24 8 25 99 26 3 27 2 28 1 29 4 30 5 31 96 32 97 33 98 34
REMARK SMILES IDX 27 35 28 36 29 37 30 38 31 40 32 41 33 42 94 43 34 44 93 45
REMARK SMILES IDX 35 46 36 47 37 48 87 49 38 50 92 51 86 52 88 53 39 54 91 55
REMARK SMILES IDX 85 56 84 57 40 59 72 60 52 61 71 62 53 63 56 64 70 65 89 66
REMARK SMILES IDX 54 67 55 68 69 70 90 71 57 72 41 73 42 74 50 75 43 76 45 77
REMARK SMILES IDX 51 78 44 79 46 80 47 81 48 82 49 83 73 84 74 85 82 86 75 87
REMARK SMILES IDX 77 88 83 89 76 90 78 91 79 92 80 93 81 94 58 95 59 96 67 97
REMARK SMILES IDX 60 98 62 99 68 100 61 101 63 102 64 103 65 104 66 105
REMARK H PARENT 24 6 12 14 29 39 88 58 56 69
REMARK Flexibility Score: inf
ROOT
ATOM      1  C   UNL A   1      40.100  21.244  26.423  1.00  0.00     0.023 C 
ENDROOT
BRANCH   1   2
ATOM      2  C   UNL A   1      38.781  21.788  25.858  1.00  0.00     0.116 C 
BRANCH   2   3
ATOM      3  N   UNL A   1      38.263  22.999  26.540  1.00  0.00    -0.354 N 
ATOM      4  C   UNL A   1      37.263  23.921  26.400  1.00  0.00     0.243 C 
ATOM      5  O   UNL A   1      37.170  24.719  27.348  1.00  0.00    -0.273 OA
ATOM      6  H   UNL A   1      38.805  23.200  27.337  1.00  0.00     0.163 HD
BRANCH   4   7
ATOM      7  C   UNL A   1      36.368  24.194  25.133  1.00  0.00     0.179 C 
ATOM      8  C   UNL A   1      34.946  22.265  25.657  1.00  0.00     0.163 C 
ATOM      9  C   UNL A   1      33.866  23.298  25.934  1.00  0.00     0.047 A 
ATOM     10  N   UNL A   1      35.701  22.944  24.604  1.00  0.00    -0.318 N 
ATOM     11  N   UNL A   1      32.611  23.104  26.437  1.00  0.00    -0.356 N 
ATOM     12  C   UNL A   1      34.022  24.674  25.753  1.00  0.00    -0.014 A 
ATOM     13  C   UNL A   1      31.874  24.254  26.273  1.00  0.00     0.046 A 
ATOM     14  H   UNL A   1      32.286  22.272  26.852  1.00  0.00     0.166 HD
ATOM     15  C   UNL A   1      32.750  25.267  25.884  1.00  0.00     0.003 A 
ATOM     16  C   UNL A   1      35.317  25.298  25.336  1.00  0.00     0.073 C 
ATOM     17  C   UNL A   1      30.508  24.468  26.440  1.00  0.00     0.026 A 
ATOM     18  C   UNL A   1      32.257  26.563  25.668  1.00  0.00     0.010 A 
ATOM     19  C   UNL A   1      30.027  25.750  26.162  1.00  0.00     0.002 A 
ATOM     20  C   UNL A   1      30.884  26.784  25.789  1.00  0.00     0.001 A 
BRANCH   8  21
ATOM     21  C   UNL A   1      34.618  20.799  25.490  1.00  0.00    -0.019 A 
ATOM     22  C   UNL A   1      33.793  18.185  24.673  1.00  0.00     0.037 A 
ATOM     23  C   UNL A   1      35.119  18.607  24.591  1.00  0.00     0.026 A 
ATOM     24  C   UNL A   1      32.923  19.052  25.346  1.00  0.00     0.026 A 
ATOM     25  C   UNL A   1      35.533  19.868  25.014  1.00  0.00     0.008 A 
ATOM     26  C   UNL A   1      33.317  20.341  25.739  1.00  0.00     0.008 A 
BRANCH  22  27
ATOM     27  N   UNL A   1      33.365  16.990  24.107  1.00  0.00    -0.372 N 
BRANCH  27  28
ATOM     28  C   UNL A   1      33.219  16.914  22.644  1.00  0.00     0.113 C 
ATOM     29  C   UNL A   1      32.374  18.045  22.076  1.00  0.00     0.027 C 
ENDBRANCH  27  28
BRANCH  27  30
ATOM     30  C   UNL A   1      33.472  15.715  24.833  1.00  0.00     0.113 C 
ATOM     31  C   UNL A   1      32.387  15.510  25.891  1.00  0.00     0.027 C 
ENDBRANCH  27  30
ENDBRANCH  22  27
ENDBRANCH   8  21
BRANCH  10  32
ATOM     32  C   UNL A   1      35.154  22.821  23.318  1.00  0.00     0.220 C 
ATOM     33  C   UNL A   1      33.686  22.541  23.133  1.00  0.00     0.114 C 
ATOM     34  O   UNL A   1      35.827  22.874  22.283  1.00  0.00    -0.275 OA
ENDBRANCH  10  32
ENDBRANCH   4   7
ENDBRANCH   2   3
ENDBRANCH   1   2
BRANCH   1  35
ATOM     35  C   UNL A   1      40.508  19.805  26.122  1.00  0.00     0.023 C 
BRANCH  35  36
ATOM     36  C   UNL A   1      41.924  19.395  26.512  1.00  0.00     0.116 C 
BRANCH  36  37
ATOM     37  N   UNL A   1      42.943  19.478  25.465  1.00  0.00    -0.352 N 
ATOM     38  C   UNL A   1      43.720  20.564  25.076  1.00  0.00     0.251 C 
ATOM     39  H   UNL A   1      43.099  18.645  24.963  1.00  0.00     0.163 HD
ATOM     40  O   UNL A   1      44.546  20.448  24.188  1.00  0.00    -0.269 OA
BRANCH  38  41
ATOM     41  C   UNL A   1      43.501  21.895  25.709  1.00  0.00     0.039 A 
ATOM     42  C   UNL A   1      43.818  22.078  27.059  1.00  0.00     0.014 A 
ATOM     43  C   UNL A   1      43.061  22.979  24.956  1.00  0.00     0.014 A 
ATOM     44  C   UNL A   1      43.821  23.369  27.608  1.00  0.00     0.010 A 
ATOM     45  C   UNL A   1      43.199  24.267  25.459  1.00  0.00     0.010 A 
ATOM     46  C   UNL A   1      43.576  24.486  26.792  1.00  0.00    -0.014 A 
BRANCH  46  47
ATOM     47  C   UNL A   1      43.693  25.888  27.287  1.00  0.00     0.031 A 
ATOM     48  C   UNL A   1      45.048  26.554  27.341  1.00  0.00     0.074 A 
ATOM     49  C   UNL A   1      42.622  26.520  27.815  1.00  0.00     0.049 A 
ATOM     50  N   UNL A   1      45.390  27.699  27.873  1.00  0.00    -0.248 NA
ATOM     51  C   UNL A   1      46.182  25.803  26.771  1.00  0.00     0.031 C 
ATOM     52  C   UNL A   1      41.272  25.960  27.932  1.00  0.00     0.029 A 
ATOM     53  N   UNL A   1      42.507  27.766  28.383  1.00  0.00    -0.354 N 
ATOM     54  C   UNL A   1      46.775  27.770  27.762  1.00  0.00     0.074 A 
ATOM     55  C   UNL A   1      47.215  26.530  27.166  1.00  0.00     0.031 C 
ATOM     56  C   UNL A   1      40.466  26.863  28.514  1.00  0.00     0.029 A 
ATOM     57  C   UNL A   1      41.240  28.055  28.840  1.00  0.00     0.049 A 
ATOM     58  H   UNL A   1      43.261  28.394  28.457  1.00  0.00     0.167 HD
ATOM     59  C   UNL A   1      47.607  28.790  28.080  1.00  0.00     0.034 A 
ATOM     60  C   UNL A   1      40.756  29.157  29.450  1.00  0.00     0.034 A 
ATOM     61  C   UNL A   1      47.159  30.060  28.580  1.00  0.00     0.049 A 
ATOM     62  C   UNL A   1      41.681  30.323  29.690  1.00  0.00     0.074 A 
ATOM     63  C   UNL A   1      47.903  31.200  28.828  1.00  0.00     0.029 A 
ATOM     64  N   UNL A   1      45.844  30.364  28.894  1.00  0.00    -0.354 N 
ATOM     65  N   UNL A   1      42.962  30.427  29.433  1.00  0.00    -0.248 NA
ATOM     66  C   UNL A   1      41.083  31.539  30.261  1.00  0.00     0.031 C 
ATOM     67  C   UNL A   1      47.036  32.192  29.299  1.00  0.00     0.029 A 
ATOM     68  C   UNL A   1      45.750  31.675  29.322  1.00  0.00     0.049 A 
ATOM     69  H   UNL A   1      45.087  29.738  28.821  1.00  0.00     0.167 HD
ATOM     70  C   UNL A   1      43.313  31.731  29.766  1.00  0.00     0.074 A 
ATOM     71  C   UNL A   1      42.105  32.383  30.227  1.00  0.00     0.031 C 
ATOM     72  C   UNL A   1      44.528  32.330  29.712  1.00  0.00     0.034 A 
BRANCH  59  73
ATOM     73  C   UNL A   1      49.079  28.598  27.816  1.00  0.00     0.023 A 
ATOM     74  C   UNL A   1      49.613  28.951  26.559  1.00  0.00     0.012 A 
ATOM     75  C   UNL A   1      49.939  28.096  28.812  1.00  0.00     0.148 A 
ATOM     76  C   UNL A   1      50.964  28.759  26.278  1.00  0.00     0.002 A 
ATOM     77  C   UNL A   1      51.297  27.958  28.542  1.00  0.00     0.091 A 
ATOM     78  F   UNL A   1      49.415  27.747  29.995  1.00  0.00    -0.205 F 
ATOM     79  C   UNL A   1      51.807  28.272  27.271  1.00  0.00     0.022 A 
BRANCH  77  80
ATOM     80  S   UNL A   1      52.482  27.419  29.780  1.00  0.00     0.127 S 
ATOM     81  O   UNL A   1      52.303  28.431  30.820  1.00  0.00    -0.237 OA
ATOM     82  O   UNL A   1      51.977  26.090  30.128  1.00  0.00    -0.237 OA
ATOM     83  O   UNL A   1      53.780  27.421  29.120  1.00  0.00    -0.744 OA
ENDBRANCH  77  80
ENDBRANCH  59  73
BRANCH  60  84
ATOM     84  C   UNL A   1      39.305  29.257  29.783  1.00  0.00     0.023 A 
ATOM     85  C   UNL A   1      38.867  28.864  31.064  1.00  0.00     0.012 A 
ATOM     86  C   UNL A   1      38.362  29.746  28.859  1.00  0.00     0.148 A 
ATOM     87  C   UNL A   1      37.515  28.916  31.405  1.00  0.00     0.002 A 
ATOM     88  C   UNL A   1      37.023  29.848  29.223  1.00  0.00     0.091 A 
ATOM     89  F   UNL A   1      38.794  30.108  27.642  1.00  0.00    -0.205 F 
ATOM     90  C   UNL A   1      36.594  29.417  30.488  1.00  0.00     0.022 A 
BRANCH  88  91
ATOM     91  S   UNL A   1      35.786  30.594  28.156  1.00  0.00     0.127 S 
ATOM     92  O   UNL A   1      34.718  30.903  29.104  1.00  0.00    -0.237 OA
ATOM     93  O   UNL A   1      36.501  31.759  27.632  1.00  0.00    -0.237 OA
ATOM     94  O   UNL A   1      35.471  29.585  27.154  1.00  0.00    -0.744 OA
ENDBRANCH  88  91
ENDBRANCH  60  84
BRANCH  72  95
ATOM     95  C   UNL A   1      44.613  33.782  30.103  1.00  0.00     0.023 A 
ATOM     96  C   UNL A   1      44.454  34.785  29.128  1.00  0.00     0.012 A 
ATOM     97  C   UNL A   1      44.776  34.150  31.453  1.00  0.00     0.148 A 
ATOM     98  C   UNL A   1      44.492  36.132  29.485  1.00  0.00     0.002 A 
ATOM     99  C   UNL A   1      44.762  35.492  31.809  1.00  0.00     0.091 A 
ATOM    100  F   UNL A   1      44.947  33.180  32.366  1.00  0.00    -0.205 F 
ATOM    101  C   UNL A   1      44.634  36.486  30.825  1.00  0.00     0.022 A 
BRANCH  99 102
ATOM    102  S   UNL A   1      44.835  36.027  33.522  1.00  0.00     0.127 S 
ATOM    103  O   UNL A   1      44.745  37.480  33.386  1.00  0.00    -0.237 OA
ATOM    104  O   UNL A   1      43.648  35.395  34.099  1.00  0.00    -0.237 OA
ATOM    105  O   UNL A   1      46.098  35.520  34.043  1.00  0.00    -0.744 OA
ENDBRANCH  99 102
ENDBRANCH  72  95
ENDBRANCH  46  47
ENDBRANCH  38  41
ENDBRANCH  36  37
ENDBRANCH  35  36
ENDBRANCH   1  35
TORSDOF 19
ENDMDL
MODEL 3
REMARK VINA RESULT:     -10.9      5.260     10.192
REMARK SMILES CCN(CC)c1ccc([C@@H]2c3[nH]c4ccccc4c3C[C@@H](C(=O)NCCCCNC(=O)c3ccc(-c4c5nc(c(-c6cccc(S(=O)(=O)[O-])c6F)c6ccc([nH]6)c(-c6cccc(S(=O)(=O)[O-])c6F)c6nc(c(-c7cccc(S(=O)(=O)[O-])c7F)c7ccc4[nH]7)C=C6)C=C5)cc3)N2C(C)=O)cc1
REMARK SMILES IDX 26 1 25 2 24 3 22 4 23 5 21 7 10 8 11 9 95 10 12 11 19 12
REMARK SMILES IDX 13 13 18 15 20 16 14 17 17 18 15 19 16 20 9 21 6 22 7 23
REMARK SMILES IDX 100 24 8 25 99 26 3 27 2 28 1 29 4 30 5 31 96 32 97 33 98 34
REMARK SMILES IDX 27 35 28 36 29 37 30 38 31 40 32 41 33 42 94 43 34 44 93 45
REMARK SMILES IDX 35 46 36 47 37 48 87 49 38 50 92 51 86 52 88 53 39 54 91 55
REMARK SMILES IDX 85 56 84 57 40 59 72 60 52 61 71 62 53 63 56 64 70 65 89 66
REMARK SMILES IDX 54 67 55 68 69 70 90 71 57 72 41 73 42 74 50 75 43 76 45 77
REMARK SMILES IDX 51 78 44 79 46 80 47 81 48 82 49 83 73 84 74 85 82 86 75 87
REMARK SMILES IDX 77 88 83 89 76 90 78 91 79 92 80 93 81 94 58 95 59 96 67 97
REMARK SMILES IDX 60 98 62 99 68 100 61 101 63 102 64 103 65 104 66 105
REMARK H PARENT 24 6 12 14 29 39 88 58 56 69
REMARK Flexibility Score: inf
ROOT
ATOM      1  C   UNL A   1      39.692  22.530  26.594  1.00  0.00     0.023 C 
ENDROOT
BRANCH   1   2
ATOM      2  C   UNL A   1      38.608  23.541  26.990  1.00  0.00     0.116 C 
BRANCH   2   3
ATOM      3  N   UNL A   1      37.606  23.828  25.934  1.00  0.00    -0.354 N 
ATOM      4  C   UNL A   1      36.274  23.642  25.689  1.00  0.00     0.243 C 
ATOM      5  O   UNL A   1      35.864  24.198  24.656  1.00  0.00    -0.273 OA
ATOM      6  H   UNL A   1      38.031  24.296  25.179  1.00  0.00     0.163 HD
BRANCH   4   7
ATOM      7  C   UNL A   1      35.276  22.683  26.440  1.00  0.00     0.179 C 
ATOM      8  C   UNL A   1      33.412  23.438  25.035  1.00  0.00     0.163 C 
ATOM      9  C   UNL A   1      33.438  22.029  24.466  1.00  0.00     0.047 A 
ATOM     10  N   UNL A   1      33.847  23.179  26.408  1.00  0.00    -0.318 N 
ATOM     11  N   UNL A   1      32.714  21.516  23.427  1.00  0.00    -0.356 N 
ATOM     12  C   UNL A   1      34.284  21.010  24.911  1.00  0.00    -0.014 A 
ATOM     13  C   UNL A   1      32.840  20.146  23.418  1.00  0.00     0.046 A 
ATOM     14  H   UNL A   1      32.186  22.045  22.785  1.00  0.00     0.166 HD
ATOM     15  C   UNL A   1      33.854  19.808  24.314  1.00  0.00     0.003 A 
ATOM     16  C   UNL A   1      35.330  21.224  25.960  1.00  0.00     0.073 C 
ATOM     17  C   UNL A   1      32.137  19.191  22.688  1.00  0.00     0.026 A 
ATOM     18  C   UNL A   1      34.206  18.460  24.484  1.00  0.00     0.010 A 
ATOM     19  C   UNL A   1      32.461  17.851  22.915  1.00  0.00     0.002 A 
ATOM     20  C   UNL A   1      33.482  17.489  23.792  1.00  0.00     0.001 A 
BRANCH   8  21
ATOM     21  C   UNL A   1      32.241  24.366  24.804  1.00  0.00    -0.019 A 
ATOM     22  C   UNL A   1      30.356  26.350  23.972  1.00  0.00     0.037 A 
ATOM     23  C   UNL A   1      30.276  25.023  23.551  1.00  0.00     0.026 A 
ATOM     24  C   UNL A   1      31.307  26.612  24.967  1.00  0.00     0.026 A 
ATOM     25  C   UNL A   1      31.173  24.045  23.976  1.00  0.00     0.008 A 
ATOM     26  C   UNL A   1      32.242  25.648  25.372  1.00  0.00     0.008 A 
BRANCH  22  27
ATOM     27  N   UNL A   1      29.556  27.345  23.424  1.00  0.00    -0.372 N 
BRANCH  27  28
ATOM     28  C   UNL A   1      30.082  28.134  22.298  1.00  0.00     0.113 C 
ATOM     29  C   UNL A   1      31.013  29.253  22.746  1.00  0.00     0.027 C 
ENDBRANCH  27  28
BRANCH  27  30
ATOM     30  C   UNL A   1      28.097  27.351  23.617  1.00  0.00     0.113 C 
ATOM     31  C   UNL A   1      27.411  28.623  23.121  1.00  0.00     0.027 C 
ENDBRANCH  27  30
ENDBRANCH  22  27
ENDBRANCH   8  21
BRANCH  10  32
ATOM     32  C   UNL A   1      32.834  22.735  27.271  1.00  0.00     0.220 C 
ATOM     33  C   UNL A   1      31.467  22.397  26.737  1.00  0.00     0.114 C 
ATOM     34  O   UNL A   1      32.971  22.650  28.496  1.00  0.00    -0.275 OA
ENDBRANCH  10  32
ENDBRANCH   4   7
ENDBRANCH   2   3
ENDBRANCH   1   2
BRANCH   1  35
ATOM     35  C   UNL A   1      40.962  23.023  25.909  1.00  0.00     0.023 C 
BRANCH  35  36
ATOM     36  C   UNL A   1      42.169  22.091  25.943  1.00  0.00     0.116 C 
BRANCH  36  37
ATOM     37  N   UNL A   1      43.230  22.354  24.970  1.00  0.00    -0.352 N 
ATOM     38  C   UNL A   1      43.983  23.509  24.780  1.00  0.00     0.251 C 
ATOM     39  H   UNL A   1      43.439  21.608  24.363  1.00  0.00     0.163 HD
ATOM     40  O   UNL A   1      44.851  23.547  23.926  1.00  0.00    -0.269 OA
BRANCH  38  41
ATOM     41  C   UNL A   1      43.686  24.727  25.584  1.00  0.00     0.039 A 
ATOM     42  C   UNL A   1      44.135  24.808  26.906  1.00  0.00     0.014 A 
ATOM     43  C   UNL A   1      43.037  25.818  25.013  1.00  0.00     0.014 A 
ATOM     44  C   UNL A   1      44.052  26.024  27.600  1.00  0.00     0.010 A 
ATOM     45  C   UNL A   1      43.082  27.053  25.648  1.00  0.00     0.010 A 
ATOM     46  C   UNL A   1      43.585  27.179  26.951  1.00  0.00    -0.014 A 
BRANCH  46  47
ATOM     47  C   UNL A   1      43.595  28.526  27.593  1.00  0.00     0.031 A 
ATOM     48  C   UNL A   1      44.880  29.317  27.654  1.00  0.00     0.074 A 
ATOM     49  C   UNL A   1      42.502  28.984  28.239  1.00  0.00     0.049 A 
ATOM     50  N   UNL A   1      45.141  30.428  28.294  1.00  0.00    -0.248 NA
ATOM     51  C   UNL A   1      46.045  28.751  26.951  1.00  0.00     0.031 C 
ATOM     52  C   UNL A   1      41.221  28.280  28.358  1.00  0.00     0.029 A 
ATOM     53  N   UNL A   1      42.300  30.145  28.947  1.00  0.00    -0.354 N 
ATOM     54  C   UNL A   1      46.503  30.652  28.124  1.00  0.00     0.074 A 
ATOM     55  C   UNL A   1      47.025  29.534  27.374  1.00  0.00     0.031 C 
ATOM     56  C   UNL A   1      40.368  29.029  29.075  1.00  0.00     0.029 A 
ATOM     57  C   UNL A   1      41.041  30.253  29.495  1.00  0.00     0.049 A 
ATOM     58  H   UNL A   1      42.993  30.836  29.054  1.00  0.00     0.167 HD
ATOM     59  C   UNL A   1      47.250  31.713  28.513  1.00  0.00     0.034 A 
ATOM     60  C   UNL A   1      40.490  31.228  30.246  1.00  0.00     0.034 A 
ATOM     61  C   UNL A   1      46.713  32.871  29.173  1.00  0.00     0.049 A 
ATOM     62  C   UNL A   1      41.310  32.451  30.569  1.00  0.00     0.074 A 
ATOM     63  C   UNL A   1      47.357  34.047  29.510  1.00  0.00     0.029 A 
ATOM     64  N   UNL A   1      45.395  33.003  29.581  1.00  0.00    -0.354 N 
ATOM     65  N   UNL A   1      42.558  32.713  30.263  1.00  0.00    -0.248 NA
ATOM     66  C   UNL A   1      40.633  33.532  31.300  1.00  0.00     0.031 C 
ATOM     67  C   UNL A   1      46.427  34.891  30.129  1.00  0.00     0.029 A 
ATOM     68  C   UNL A   1      45.200  34.245  30.157  1.00  0.00     0.049 A 
ATOM     69  H   UNL A   1      44.700  32.313  29.477  1.00  0.00     0.167 HD
ATOM     70  C   UNL A   1      42.801  34.003  30.723  1.00  0.00     0.074 A 
ATOM     71  C   UNL A   1      41.565  34.475  31.312  1.00  0.00     0.031 C 
ATOM     72  C   UNL A   1      43.946  34.726  30.676  1.00  0.00     0.034 A 
BRANCH  59  73
ATOM     73  C   UNL A   1      48.716  31.702  28.158  1.00  0.00     0.023 A 
ATOM     74  C   UNL A   1      49.613  30.936  28.931  1.00  0.00     0.012 A 
ATOM     75  C   UNL A   1      49.203  32.421  27.050  1.00  0.00     0.148 A 
ATOM     76  C   UNL A   1      50.977  30.927  28.641  1.00  0.00     0.002 A 
ATOM     77  C   UNL A   1      50.557  32.365  26.735  1.00  0.00     0.091 A 
ATOM     78  F   UNL A   1      48.342  33.160  26.335  1.00  0.00    -0.205 F 
ATOM     79  C   UNL A   1      51.447  31.634  27.539  1.00  0.00     0.022 A 
BRANCH  77  80
ATOM     80  S   UNL A   1      51.251  33.170  25.286  1.00  0.00     0.127 S 
ATOM     81  O   UNL A   1      50.199  34.129  24.951  1.00  0.00    -0.237 OA
ATOM     82  O   UNL A   1      52.473  33.769  25.825  1.00  0.00    -0.237 OA
ATOM     83  O   UNL A   1      51.472  32.116  24.308  1.00  0.00    -0.744 OA
ENDBRANCH  77  80
ENDBRANCH  59  73
BRANCH  60  84
ATOM     84  C   UNL A   1      39.058  31.143  30.658  1.00  0.00     0.023 A 
ATOM     85  C   UNL A   1      38.719  30.401  31.807  1.00  0.00     0.012 A 
ATOM     86  C   UNL A   1      38.038  31.795  29.940  1.00  0.00     0.148 A 
ATOM     87  C   UNL A   1      37.389  30.275  32.210  1.00  0.00     0.002 A 
ATOM     88  C   UNL A   1      36.719  31.711  30.378  1.00  0.00     0.091 A 
ATOM     89  F   UNL A   1      38.376  32.490  28.845  1.00  0.00    -0.205 F 
ATOM     90  C   UNL A   1      36.390  30.936  31.501  1.00  0.00     0.022 A 
BRANCH  88  91
ATOM     91  S   UNL A   1      35.384  32.628  29.602  1.00  0.00     0.127 S 
ATOM     92  O   UNL A   1      35.148  31.849  28.390  1.00  0.00    -0.237 OA
ATOM     93  O   UNL A   1      34.327  32.533  30.611  1.00  0.00    -0.237 OA
ATOM     94  O   UNL A   1      35.899  33.976  29.400  1.00  0.00    -0.744 OA
ENDBRANCH  88  91
ENDBRANCH  60  84
BRANCH  72  95
ATOM     95  C   UNL A   1      43.913  36.129  31.222  1.00  0.00     0.023 A 
ATOM     96  C   UNL A   1      44.074  36.351  32.604  1.00  0.00     0.012 A 
ATOM     97  C   UNL A   1      43.797  37.231  30.353  1.00  0.00     0.148 A 
ATOM     98  C   UNL A   1      44.084  37.648  33.115  1.00  0.00     0.002 A 
ATOM     99  C   UNL A   1      43.858  38.522  30.864  1.00  0.00     0.091 A 
ATOM    100  F   UNL A   1      43.622  37.000  29.043  1.00  0.00    -0.205 F 
ATOM    101  C   UNL A   1      43.988  38.732  32.246  1.00  0.00     0.022 A 
BRANCH  99 102
ATOM    102  S   UNL A   1      43.846  39.971  29.802  1.00  0.00     0.127 S 
ATOM    103  O   UNL A   1      42.513  39.896  29.209  1.00  0.00    -0.237 OA
ATOM    104  O   UNL A   1      44.028  41.063  30.760  1.00  0.00    -0.237 OA
ATOM    105  O   UNL A   1      44.958  39.794  28.877  1.00  0.00    -0.744 OA
ENDBRANCH  99 102
ENDBRANCH  72  95
ENDBRANCH  46  47
ENDBRANCH  38  41
ENDBRANCH  36  37
ENDBRANCH  35  36
ENDBRANCH   1  35
TORSDOF 19
ENDMDL
