MODEL 1
REMARK VINA RESULT:     -12.5      0.000      0.000
REMARK SMILES C[C@@H]1CN(C(=O)Nc2ccc(O)c(C(=O)NCCCCNC(=O)c3ccc(-c4c5nc(c(-c6cccc(S(=O)(=O)[O-])c6F)c6ccc([nH]6)c(-c6cccc(S(=O)(=O)[O-])c6F)c6nc(c(-c7cccc(S(=O)(=O)[O-])c7F)c7ccc4[nH]7)C=C6)C=C5)cc3)c2)C[C@@H]1C
REMARK SMILES IDX 19 1 18 2 17 3 16 4 14 5 15 6 13 8 8 9 9 10 87 11 10 12
REMARK SMILES IDX 11 13 7 14 5 15 6 16 4 18 1 19 2 20 3 21 89 22 88 23 90 24
REMARK SMILES IDX 12 25 20 27 21 28 22 29 23 31 24 32 25 33 86 34 26 35 85 36
REMARK SMILES IDX 27 37 28 38 29 39 79 40 30 41 84 42 78 43 80 44 31 45 83 46
REMARK SMILES IDX 77 47 76 48 32 50 64 51 44 52 63 53 45 54 48 55 62 56 81 57
REMARK SMILES IDX 46 58 47 59 61 61 82 62 49 63 33 64 34 65 42 66 35 67 37 68
REMARK SMILES IDX 43 69 36 70 38 71 39 72 40 73 41 74 65 75 66 76 74 77 67 78
REMARK SMILES IDX 69 79 75 80 68 81 70 82 71 83 72 84 73 85 50 86 51 87 59 88
REMARK SMILES IDX 52 89 54 90 60 91 53 92 55 93 56 94 57 95 58 96
REMARK H PARENT 16 7 7 17 12 26 21 30 80 49 48 60
REMARK Flexibility Score: inf
ROOT
ATOM      1  C   UNL A   1      31.770  28.965  26.524  1.00  0.00     0.023 C 
ENDROOT
BRANCH   1   2
ATOM      2  C   UNL A   1      32.344  27.597  26.876  1.00  0.00     0.023 C 
BRANCH   2   3
ATOM      3  C   UNL A   1      31.819  26.423  26.045  1.00  0.00     0.116 C 
BRANCH   3   4
ATOM      4  N   UNL A   1      31.230  26.889  24.811  1.00  0.00    -0.352 N 
ATOM      5  C   UNL A   1      31.272  26.410  23.529  1.00  0.00     0.255 C 
ATOM      6  O   UNL A   1      30.637  27.056  22.689  1.00  0.00    -0.269 OA
ATOM      7  H   UNL A   1      30.694  27.709  24.912  1.00  0.00     0.163 HD
BRANCH   5   8
ATOM      8  C   UNL A   1      31.947  25.155  23.070  1.00  0.00     0.083 A 
ATOM      9  C   UNL A   1      32.080  22.747  23.499  1.00  0.00     0.043 A 
ATOM     10  C   UNL A   1      32.875  22.576  22.374  1.00  0.00     0.030 A 
ATOM     11  C   UNL A   1      31.557  24.007  23.792  1.00  0.00     0.044 A 
ATOM     12  C   UNL A   1      33.281  23.687  21.648  1.00  0.00     0.049 A 
ATOM     13  C   UNL A   1      32.851  24.969  22.015  1.00  0.00     0.128 A 
BRANCH   9  14
ATOM     14  N   UNL A   1      31.778  21.685  24.354  1.00  0.00    -0.308 N 
ATOM     15  C   UNL A   1      32.598  20.830  25.027  1.00  0.00     0.321 C 
ATOM     16  O   UNL A   1      32.154  19.717  25.323  1.00  0.00    -0.248 OA
ATOM     17  H   UNL A   1      30.816  21.530  24.494  1.00  0.00     0.171 HD
BRANCH  15  18
ATOM     18  N   UNL A   1      33.819  21.266  25.491  1.00  0.00    -0.324 N 
ATOM     19  C   UNL A   1      37.356  22.344  25.042  1.00  0.00     0.010 C 
ATOM     20  C   UNL A   1      36.073  21.951  25.749  1.00  0.00     0.010 C 
ATOM     21  C   UNL A   1      35.135  21.133  24.867  1.00  0.00     0.125 C 
ATOM     22  C   UNL A   1      35.159  23.073  26.253  1.00  0.00     0.010 C 
ATOM     23  C   UNL A   1      33.867  22.287  26.536  1.00  0.00     0.125 C 
ATOM     24  C   UNL A   1      34.905  24.194  25.240  1.00  0.00     0.010 C 
ENDBRANCH  15  18
ENDBRANCH   9  14
BRANCH  13  25
ATOM     25  O   UNL A   1      33.346  25.987  21.265  1.00  0.00    -0.507 OA
ATOM     26  H   UNL A   1      34.005  26.552  21.619  1.00  0.00     0.293 HD
ENDBRANCH  13  25
ENDBRANCH   5   8
ENDBRANCH   3   4
ENDBRANCH   2   3
ENDBRANCH   1   2
BRANCH   1  27
ATOM     27  C   UNL A   1      32.789  29.981  26.039  1.00  0.00     0.116 C 
BRANCH  27  28
ATOM     28  N   UNL A   1      32.531  31.340  26.496  1.00  0.00    -0.352 N 
ATOM     29  C   UNL A   1      33.301  32.118  27.336  1.00  0.00     0.251 C 
ATOM     30  H   UNL A   1      31.702  31.756  26.164  1.00  0.00     0.163 HD
ATOM     31  O   UNL A   1      32.919  33.215  27.694  1.00  0.00    -0.269 OA
BRANCH  29  32
ATOM     32  C   UNL A   1      34.580  31.558  27.825  1.00  0.00     0.039 A 
ATOM     33  C   UNL A   1      35.667  32.417  28.001  1.00  0.00     0.014 A 
ATOM     34  C   UNL A   1      34.668  30.212  28.186  1.00  0.00     0.014 A 
ATOM     35  C   UNL A   1      36.825  31.936  28.613  1.00  0.00     0.010 A 
ATOM     36  C   UNL A   1      35.788  29.759  28.869  1.00  0.00     0.010 A 
ATOM     37  C   UNL A   1      36.878  30.615  29.087  1.00  0.00    -0.014 A 
BRANCH  37  38
ATOM     38  C   UNL A   1      38.060  30.103  29.821  1.00  0.00     0.031 A 
ATOM     39  C   UNL A   1      38.332  30.569  31.223  1.00  0.00     0.074 A 
ATOM     40  C   UNL A   1      38.938  29.298  29.191  1.00  0.00     0.049 A 
ATOM     41  N   UNL A   1      39.336  30.278  32.009  1.00  0.00    -0.248 NA
ATOM     42  C   UNL A   1      37.365  31.512  31.809  1.00  0.00     0.031 C 
ATOM     43  C   UNL A   1      38.826  28.844  27.803  1.00  0.00     0.029 A 
ATOM     44  N   UNL A   1      40.109  28.735  29.629  1.00  0.00    -0.354 N 
ATOM     45  C   UNL A   1      39.140  31.026  33.163  1.00  0.00     0.074 A 
ATOM     46  C   UNL A   1      37.948  31.819  32.958  1.00  0.00     0.031 C 
ATOM     47  C   UNL A   1      39.874  28.056  27.512  1.00  0.00     0.029 A 
ATOM     48  C   UNL A   1      40.743  27.969  28.680  1.00  0.00     0.049 A 
ATOM     49  H   UNL A   1      40.462  28.867  30.539  1.00  0.00     0.167 HD
ATOM     50  C   UNL A   1      39.863  31.025  34.308  1.00  0.00     0.034 A 
ATOM     51  C   UNL A   1      41.892  27.268  28.749  1.00  0.00     0.034 A 
ATOM     52  C   UNL A   1      41.018  30.198  34.524  1.00  0.00     0.049 A 
ATOM     53  C   UNL A   1      42.659  27.254  30.043  1.00  0.00     0.074 A 
ATOM     54  C   UNL A   1      41.770  30.052  35.676  1.00  0.00     0.029 A 
ATOM     55  N   UNL A   1      41.591  29.377  33.565  1.00  0.00    -0.354 N 
ATOM     56  N   UNL A   1      42.371  27.839  31.181  1.00  0.00    -0.248 NA
ATOM     57  C   UNL A   1      43.892  26.453  30.075  1.00  0.00     0.031 C 
ATOM     58  C   UNL A   1      42.806  29.150  35.408  1.00  0.00     0.029 A 
ATOM     59  C   UNL A   1      42.691  28.724  34.094  1.00  0.00     0.049 A 
ATOM     60  H   UNL A   1      41.263  29.273  32.642  1.00  0.00     0.167 HD
ATOM     61  C   UNL A   1      43.364  27.450  32.073  1.00  0.00     0.074 A 
ATOM     62  C   UNL A   1      44.252  26.565  31.347  1.00  0.00     0.031 C 
ATOM     63  C   UNL A   1      43.532  27.803  33.371  1.00  0.00     0.034 A 
BRANCH  50  64
ATOM     64  C   UNL A   1      39.374  31.901  35.431  1.00  0.00     0.023 A 
ATOM     65  C   UNL A   1      39.718  33.269  35.440  1.00  0.00     0.012 A 
ATOM     66  C   UNL A   1      38.573  31.385  36.467  1.00  0.00     0.148 A 
ATOM     67  C   UNL A   1      39.314  34.099  36.484  1.00  0.00     0.002 A 
ATOM     68  C   UNL A   1      38.136  32.230  37.483  1.00  0.00     0.091 A 
ATOM     69  F   UNL A   1      38.277  30.078  36.462  1.00  0.00    -0.205 F 
ATOM     70  C   UNL A   1      38.516  33.582  37.500  1.00  0.00     0.022 A 
BRANCH  68  71
ATOM     71  S   UNL A   1      37.043  31.666  38.793  1.00  0.00     0.127 S 
ATOM     72  O   UNL A   1      37.859  31.902  39.982  1.00  0.00    -0.237 OA
ATOM     73  O   UNL A   1      35.897  32.565  38.654  1.00  0.00    -0.237 OA
ATOM     74  O   UNL A   1      36.753  30.272  38.489  1.00  0.00    -0.744 OA
ENDBRANCH  68  71
ENDBRANCH  50  64
BRANCH  51  75
ATOM     75  C   UNL A   1      42.322  26.435  27.591  1.00  0.00     0.023 A 
ATOM     76  C   UNL A   1      43.163  27.008  26.617  1.00  0.00     0.012 A 
ATOM     77  C   UNL A   1      41.950  25.083  27.469  1.00  0.00     0.148 A 
ATOM     78  C   UNL A   1      43.608  26.256  25.529  1.00  0.00     0.002 A 
ATOM     79  C   UNL A   1      42.437  24.326  26.409  1.00  0.00     0.091 A 
ATOM     80  F   UNL A   1      41.143  24.560  28.403  1.00  0.00    -0.205 F 
ATOM     81  C   UNL A   1      43.254  24.915  25.430  1.00  0.00     0.022 A 
BRANCH  79  82
ATOM     82  S   UNL A   1      42.136  22.561  26.259  1.00  0.00     0.127 S 
ATOM     83  O   UNL A   1      42.758  22.048  27.478  1.00  0.00    -0.237 OA
ATOM     84  O   UNL A   1      40.675  22.505  26.242  1.00  0.00    -0.237 OA
ATOM     85  O   UNL A   1      42.769  22.158  25.011  1.00  0.00    -0.744 OA
ENDBRANCH  79  82
ENDBRANCH  51  75
BRANCH  63  86
ATOM     86  C   UNL A   1      44.706  27.213  34.107  1.00  0.00     0.023 A 
ATOM     87  C   UNL A   1      45.939  27.894  34.112  1.00  0.00     0.012 A 
ATOM     88  C   UNL A   1      44.565  26.029  34.856  1.00  0.00     0.148 A 
ATOM     89  C   UNL A   1      47.022  27.391  34.831  1.00  0.00     0.002 A 
ATOM     90  C   UNL A   1      45.636  25.557  35.606  1.00  0.00     0.091 A 
ATOM     91  F   UNL A   1      43.389  25.384  34.820  1.00  0.00    -0.205 F 
ATOM     92  C   UNL A   1      46.868  26.231  35.587  1.00  0.00     0.022 A 
BRANCH  90  93
ATOM     93  S   UNL A   1      45.497  24.125  36.682  1.00  0.00     0.127 S 
ATOM     94  O   UNL A   1      46.823  24.083  37.296  1.00  0.00    -0.237 OA
ATOM     95  O   UNL A   1      44.417  24.519  37.589  1.00  0.00    -0.237 OA
ATOM     96  O   UNL A   1      45.171  23.003  35.812  1.00  0.00    -0.744 OA
ENDBRANCH  90  93
ENDBRANCH  63  86
ENDBRANCH  37  38
ENDBRANCH  29  32
ENDBRANCH  27  28
ENDBRANCH   1  27
TORSDOF 17
ENDMDL
MODEL 2
REMARK VINA RESULT:     -12.5      2.306      8.170
REMARK SMILES C[C@@H]1CN(C(=O)Nc2ccc(O)c(C(=O)NCCCCNC(=O)c3ccc(-c4c5nc(c(-c6cccc(S(=O)(=O)[O-])c6F)c6ccc([nH]6)c(-c6cccc(S(=O)(=O)[O-])c6F)c6nc(c(-c7cccc(S(=O)(=O)[O-])c7F)c7ccc4[nH]7)C=C6)C=C5)cc3)c2)C[C@@H]1C
REMARK SMILES IDX 19 1 18 2 17 3 16 4 14 5 15 6 13 8 8 9 9 10 87 11 10 12
REMARK SMILES IDX 11 13 7 14 5 15 6 16 4 18 1 19 2 20 3 21 89 22 88 23 90 24
REMARK SMILES IDX 12 25 20 27 21 28 22 29 23 31 24 32 25 33 86 34 26 35 85 36
REMARK SMILES IDX 27 37 28 38 29 39 79 40 30 41 84 42 78 43 80 44 31 45 83 46
REMARK SMILES IDX 77 47 76 48 32 50 64 51 44 52 63 53 45 54 48 55 62 56 81 57
REMARK SMILES IDX 46 58 47 59 61 61 82 62 49 63 33 64 34 65 42 66 35 67 37 68
REMARK SMILES IDX 43 69 36 70 38 71 39 72 40 73 41 74 65 75 66 76 74 77 67 78
REMARK SMILES IDX 69 79 75 80 68 81 70 82 71 83 72 84 73 85 50 86 51 87 59 88
REMARK SMILES IDX 52 89 54 90 60 91 53 92 55 93 56 94 57 95 58 96
REMARK H PARENT 16 7 7 17 12 26 21 30 80 49 48 60
REMARK Flexibility Score: inf
ROOT
ATOM      1  C   UNL A   1      32.043  31.586  26.632  1.00  0.00     0.023 C 
ENDROOT
BRANCH   1   2
ATOM      2  C   UNL A   1      32.006  30.116  27.033  1.00  0.00     0.023 C 
BRANCH   2   3
ATOM      3  C   UNL A   1      33.244  29.295  26.661  1.00  0.00     0.116 C 
BRANCH   3   4
ATOM      4  N   UNL A   1      33.541  29.422  25.252  1.00  0.00    -0.352 N 
ATOM      5  C   UNL A   1      32.964  28.882  24.135  1.00  0.00     0.255 C 
ATOM      6  O   UNL A   1      33.467  29.207  23.054  1.00  0.00    -0.269 OA
ATOM      7  H   UNL A   1      34.307  30.010  25.059  1.00  0.00     0.163 HD
BRANCH   5   8
ATOM      8  C   UNL A   1      31.752  28.004  24.096  1.00  0.00     0.083 A 
ATOM      9  C   UNL A   1      30.562  26.271  25.354  1.00  0.00     0.043 A 
ATOM     10  C   UNL A   1      29.501  26.331  24.460  1.00  0.00     0.030 A 
ATOM     11  C   UNL A   1      31.632  27.156  25.218  1.00  0.00     0.044 A 
ATOM     12  C   UNL A   1      29.592  27.149  23.344  1.00  0.00     0.049 A 
ATOM     13  C   UNL A   1      30.724  27.951  23.143  1.00  0.00     0.128 A 
BRANCH   9  14
ATOM     14  N   UNL A   1      30.590  25.349  26.402  1.00  0.00    -0.308 N 
ATOM     15  C   UNL A   1      30.885  24.018  26.402  1.00  0.00     0.321 C 
ATOM     16  O   UNL A   1      30.401  23.320  27.297  1.00  0.00    -0.248 OA
ATOM     17  H   UNL A   1      30.360  25.720  27.284  1.00  0.00     0.171 HD
BRANCH  15  18
ATOM     18  N   UNL A   1      31.818  23.518  25.521  1.00  0.00    -0.324 N 
ATOM     19  C   UNL A   1      33.381  23.202  22.155  1.00  0.00     0.010 C 
ATOM     20  C   UNL A   1      33.115  22.938  23.624  1.00  0.00     0.010 C 
ATOM     21  C   UNL A   1      31.727  23.389  24.068  1.00  0.00     0.125 C 
ATOM     22  C   UNL A   1      34.027  23.616  24.652  1.00  0.00     0.010 C 
ATOM     23  C   UNL A   1      33.213  23.406  25.941  1.00  0.00     0.125 C 
ATOM     24  C   UNL A   1      34.276  25.106  24.400  1.00  0.00     0.010 C 
ENDBRANCH  15  18
ENDBRANCH   9  14
BRANCH  13  25
ATOM     25  O   UNL A   1      30.730  28.676  21.995  1.00  0.00    -0.507 OA
ATOM     26  H   UNL A   1      31.215  29.476  21.950  1.00  0.00     0.293 HD
ENDBRANCH  13  25
ENDBRANCH   5   8
ENDBRANCH   3   4
ENDBRANCH   2   3
ENDBRANCH   1   2
BRANCH   1  27
ATOM     27  C   UNL A   1      33.056  32.430  27.387  1.00  0.00     0.116 C 
BRANCH  27  28
ATOM     28  N   UNL A   1      32.617  33.797  27.633  1.00  0.00    -0.352 N 
ATOM     29  C   UNL A   1      33.109  34.698  28.555  1.00  0.00     0.251 C 
ATOM     30  H   UNL A   1      31.876  34.120  27.069  1.00  0.00     0.163 HD
ATOM     31  O   UNL A   1      32.590  35.788  28.701  1.00  0.00    -0.269 OA
BRANCH  29  32
ATOM     32  C   UNL A   1      34.253  34.280  29.395  1.00  0.00     0.039 A 
ATOM     33  C   UNL A   1      33.999  33.620  30.598  1.00  0.00     0.014 A 
ATOM     34  C   UNL A   1      35.562  34.467  28.945  1.00  0.00     0.014 A 
ATOM     35  C   UNL A   1      35.064  33.078  31.318  1.00  0.00     0.010 A 
ATOM     36  C   UNL A   1      36.610  33.856  29.619  1.00  0.00     0.010 A 
ATOM     37  C   UNL A   1      36.372  33.158  30.813  1.00  0.00    -0.014 A 
BRANCH  37  38
ATOM     38  C   UNL A   1      37.512  32.514  31.510  1.00  0.00     0.031 A 
ATOM     39  C   UNL A   1      38.238  31.370  30.862  1.00  0.00     0.074 A 
ATOM     40  C   UNL A   1      37.827  32.896  32.763  1.00  0.00     0.049 A 
ATOM     41  N   UNL A   1      39.221  30.646  31.329  1.00  0.00    -0.248 NA
ATOM     42  C   UNL A   1      37.777  30.964  29.523  1.00  0.00     0.031 C 
ATOM     43  C   UNL A   1      37.141  33.939  33.529  1.00  0.00     0.029 A 
ATOM     44  N   UNL A   1      38.793  32.436  33.621  1.00  0.00    -0.354 N 
ATOM     45  C   UNL A   1      39.473  29.681  30.362  1.00  0.00     0.074 A 
ATOM     46  C   UNL A   1      38.509  29.882  29.302  1.00  0.00     0.031 C 
ATOM     47  C   UNL A   1      37.722  34.052  34.735  1.00  0.00     0.029 A 
ATOM     48  C   UNL A   1      38.802  33.076  34.838  1.00  0.00     0.049 A 
ATOM     49  H   UNL A   1      39.422  31.715  33.387  1.00  0.00     0.167 HD
ATOM     50  C   UNL A   1      40.443  28.738  30.336  1.00  0.00     0.034 A 
ATOM     51  C   UNL A   1      39.598  32.901  35.911  1.00  0.00     0.034 A 
ATOM     52  C   UNL A   1      41.429  28.575  31.369  1.00  0.00     0.049 A 
ATOM     53  C   UNL A   1      40.692  31.871  35.845  1.00  0.00     0.074 A 
ATOM     54  C   UNL A   1      42.509  27.712  31.401  1.00  0.00     0.029 A 
ATOM     55  N   UNL A   1      41.453  29.292  32.556  1.00  0.00    -0.354 N 
ATOM     56  N   UNL A   1      41.019  31.075  34.855  1.00  0.00    -0.248 NA
ATOM     57  C   UNL A   1      41.549  31.737  37.032  1.00  0.00     0.031 C 
ATOM     58  C   UNL A   1      43.180  27.899  32.615  1.00  0.00     0.029 A 
ATOM     59  C   UNL A   1      42.526  28.888  33.332  1.00  0.00     0.049 A 
ATOM     60  H   UNL A   1      40.802  29.986  32.809  1.00  0.00     0.167 HD
ATOM     61  C   UNL A   1      42.141  30.374  35.282  1.00  0.00     0.074 A 
ATOM     62  C   UNL A   1      42.446  30.850  36.617  1.00  0.00     0.031 C 
ATOM     63  C   UNL A   1      42.846  29.413  34.636  1.00  0.00     0.034 A 
BRANCH  50  64
ATOM     64  C   UNL A   1      40.516  27.859  29.115  1.00  0.00     0.023 A 
ATOM     65  C   UNL A   1      39.659  26.743  29.016  1.00  0.00     0.012 A 
ATOM     66  C   UNL A   1      41.414  28.134  28.066  1.00  0.00     0.148 A 
ATOM     67  C   UNL A   1      39.728  25.887  27.917  1.00  0.00     0.002 A 
ATOM     68  C   UNL A   1      41.445  27.300  26.952  1.00  0.00     0.091 A 
ATOM     69  F   UNL A   1      42.242  29.181  28.186  1.00  0.00    -0.205 F 
ATOM     70  C   UNL A   1      40.613  26.171  26.882  1.00  0.00     0.022 A 
BRANCH  68  71
ATOM     71  S   UNL A   1      42.503  27.632  25.539  1.00  0.00     0.127 S 
ATOM     72  O   UNL A   1      42.253  26.462  24.700  1.00  0.00    -0.237 OA
ATOM     73  O   UNL A   1      41.948  28.882  25.018  1.00  0.00    -0.237 OA
ATOM     74  O   UNL A   1      43.850  27.752  26.077  1.00  0.00    -0.744 OA
ENDBRANCH  68  71
ENDBRANCH  50  64
BRANCH  51  75
ATOM     75  C   UNL A   1      39.458  33.799  37.091  1.00  0.00     0.023 A 
ATOM     76  C   UNL A   1      39.899  35.132  36.987  1.00  0.00     0.012 A 
ATOM     77  C   UNL A   1      38.856  33.365  38.288  1.00  0.00     0.148 A 
ATOM     78  C   UNL A   1      39.765  36.013  38.061  1.00  0.00     0.002 A 
ATOM     79  C   UNL A   1      38.681  34.262  39.337  1.00  0.00     0.091 A 
ATOM     80  F   UNL A   1      38.450  32.090  38.369  1.00  0.00    -0.205 F 
ATOM     81  C   UNL A   1      39.148  35.582  39.231  1.00  0.00     0.022 A 
BRANCH  79  82
ATOM     82  S   UNL A   1      37.790  33.836  40.838  1.00  0.00     0.127 S 
ATOM     83  O   UNL A   1      37.608  35.146  41.459  1.00  0.00    -0.237 OA
ATOM     84  O   UNL A   1      36.570  33.233  40.302  1.00  0.00    -0.237 OA
ATOM     85  O   UNL A   1      38.654  32.910  41.559  1.00  0.00    -0.744 OA
ENDBRANCH  79  82
ENDBRANCH  51  75
BRANCH  63  86
ATOM     86  C   UNL A   1      44.038  28.827  35.345  1.00  0.00     0.023 A 
ATOM     87  C   UNL A   1      45.320  29.364  35.114  1.00  0.00     0.012 A 
ATOM     88  C   UNL A   1      43.877  27.800  36.296  1.00  0.00     0.148 A 
ATOM     89  C   UNL A   1      46.427  28.870  35.801  1.00  0.00     0.002 A 
ATOM     90  C   UNL A   1      44.980  27.343  37.008  1.00  0.00     0.091 A 
ATOM     91  F   UNL A   1      42.652  27.288  36.485  1.00  0.00    -0.205 F 
ATOM     92  C   UNL A   1      46.257  27.870  36.755  1.00  0.00     0.022 A 
BRANCH  90  93
ATOM     93  S   UNL A   1      44.835  26.127  38.322  1.00  0.00     0.127 S 
ATOM     94  O   UNL A   1      44.176  25.019  37.631  1.00  0.00    -0.237 OA
ATOM     95  O   UNL A   1      46.234  25.879  38.675  1.00  0.00    -0.237 OA
ATOM     96  O   UNL A   1      44.054  26.765  39.373  1.00  0.00    -0.744 OA
ENDBRANCH  90  93
ENDBRANCH  63  86
ENDBRANCH  37  38
ENDBRANCH  29  32
ENDBRANCH  27  28
ENDBRANCH   1  27
TORSDOF 17
ENDMDL
MODEL 3
REMARK VINA RESULT:     -12.3      1.668      2.398
REMARK SMILES C[C@@H]1CN(C(=O)Nc2ccc(O)c(C(=O)NCCCCNC(=O)c3ccc(-c4c5nc(c(-c6cccc(S(=O)(=O)[O-])c6F)c6ccc([nH]6)c(-c6cccc(S(=O)(=O)[O-])c6F)c6nc(c(-c7cccc(S(=O)(=O)[O-])c7F)c7ccc4[nH]7)C=C6)C=C5)cc3)c2)C[C@@H]1C
REMARK SMILES IDX 19 1 18 2 17 3 16 4 14 5 15 6 13 8 8 9 9 10 87 11 10 12
REMARK SMILES IDX 11 13 7 14 5 15 6 16 4 18 1 19 2 20 3 21 89 22 88 23 90 24
REMARK SMILES IDX 12 25 20 27 21 28 22 29 23 31 24 32 25 33 86 34 26 35 85 36
REMARK SMILES IDX 27 37 28 38 29 39 79 40 30 41 84 42 78 43 80 44 31 45 83 46
REMARK SMILES IDX 77 47 76 48 32 50 64 51 44 52 63 53 45 54 48 55 62 56 81 57
REMARK SMILES IDX 46 58 47 59 61 61 82 62 49 63 33 64 34 65 42 66 35 67 37 68
REMARK SMILES IDX 43 69 36 70 38 71 39 72 40 73 41 74 65 75 66 76 74 77 67 78
REMARK SMILES IDX 69 79 75 80 68 81 70 82 71 83 72 84 73 85 50 86 51 87 59 88
REMARK SMILES IDX 52 89 54 90 60 91 53 92 55 93 56 94 57 95 58 96
REMARK H PARENT 16 7 7 17 12 26 21 30 80 49 48 60
REMARK Flexibility Score: inf
ROOT
ATOM      1  C   UNL A   1      31.403  32.317  26.859  1.00  0.00     0.023 C 
ENDROOT
BRANCH   1   2
ATOM      2  C   UNL A   1      31.427  31.008  26.077  1.00  0.00     0.023 C 
BRANCH   2   3
ATOM      3  C   UNL A   1      32.724  30.200  26.175  1.00  0.00     0.116 C 
BRANCH   3   4
ATOM      4  N   UNL A   1      33.248  29.906  24.860  1.00  0.00    -0.352 N 
ATOM      5  C   UNL A   1      32.908  28.972  23.919  1.00  0.00     0.255 C 
ATOM      6  O   UNL A   1      33.565  28.993  22.873  1.00  0.00    -0.269 OA
ATOM      7  H   UNL A   1      33.992  30.490  24.590  1.00  0.00     0.163 HD
BRANCH   5   8
ATOM      8  C   UNL A   1      31.784  27.986  24.009  1.00  0.00     0.083 A 
ATOM      9  C   UNL A   1      30.864  26.208  25.420  1.00  0.00     0.043 A 
ATOM     10  C   UNL A   1      29.736  26.132  24.613  1.00  0.00     0.030 A 
ATOM     11  C   UNL A   1      31.832  27.179  25.166  1.00  0.00     0.044 A 
ATOM     12  C   UNL A   1      29.663  26.908  23.465  1.00  0.00     0.049 A 
ATOM     13  C   UNL A   1      30.696  27.799  23.145  1.00  0.00     0.128 A 
BRANCH   9  14
ATOM     14  N   UNL A   1      31.059  25.337  26.493  1.00  0.00    -0.308 N 
ATOM     15  C   UNL A   1      31.370  24.010  26.511  1.00  0.00     0.321 C 
ATOM     16  O   UNL A   1      31.033  23.352  27.500  1.00  0.00    -0.248 OA
ATOM     17  H   UNL A   1      30.956  25.748  27.382  1.00  0.00     0.171 HD
BRANCH  15  18
ATOM     18  N   UNL A   1      32.170  23.475  25.527  1.00  0.00    -0.324 N 
ATOM     19  C   UNL A   1      35.458  22.819  23.904  1.00  0.00     0.010 C 
ATOM     20  C   UNL A   1      33.955  22.838  24.103  1.00  0.00     0.010 C 
ATOM     21  C   UNL A   1      33.501  23.903  25.097  1.00  0.00     0.125 C 
ATOM     22  C   UNL A   1      33.286  21.571  24.646  1.00  0.00     0.010 C 
ATOM     23  C   UNL A   1      31.904  22.122  25.041  1.00  0.00     0.125 C 
ATOM     24  C   UNL A   1      33.989  20.945  25.854  1.00  0.00     0.010 C 
ENDBRANCH  15  18
ENDBRANCH   9  14
BRANCH  13  25
ATOM     25  O   UNL A   1      30.545  28.473  21.976  1.00  0.00    -0.507 OA
ATOM     26  H   UNL A   1      30.114  29.304  21.966  1.00  0.00     0.293 HD
ENDBRANCH  13  25
ENDBRANCH   5   8
ENDBRANCH   3   4
ENDBRANCH   2   3
ENDBRANCH   1   2
BRANCH   1  27
ATOM     27  C   UNL A   1      32.762  32.967  27.060  1.00  0.00     0.116 C 
BRANCH  27  28
ATOM     28  N   UNL A   1      32.718  34.190  27.849  1.00  0.00    -0.352 N 
ATOM     29  C   UNL A   1      33.568  34.582  28.863  1.00  0.00     0.251 C 
ATOM     30  H   UNL A   1      31.991  34.818  27.631  1.00  0.00     0.163 HD
ATOM     31  O   UNL A   1      33.363  35.605  29.489  1.00  0.00    -0.269 OA
BRANCH  29  32
ATOM     32  C   UNL A   1      34.706  33.698  29.199  1.00  0.00     0.039 A 
ATOM     33  C   UNL A   1      35.986  34.060  28.777  1.00  0.00     0.014 A 
ATOM     34  C   UNL A   1      34.510  32.570  29.998  1.00  0.00     0.014 A 
ATOM     35  C   UNL A   1      37.086  33.326  29.223  1.00  0.00     0.010 A 
ATOM     36  C   UNL A   1      35.609  31.893  30.506  1.00  0.00     0.010 A 
ATOM     37  C   UNL A   1      36.907  32.262  30.122  1.00  0.00    -0.014 A 
BRANCH  37  38
ATOM     38  C   UNL A   1      38.063  31.521  30.684  1.00  0.00     0.031 A 
ATOM     39  C   UNL A   1      38.618  31.903  32.027  1.00  0.00     0.074 A 
ATOM     40  C   UNL A   1      38.669  30.574  29.942  1.00  0.00     0.049 A 
ATOM     41  N   UNL A   1      39.649  31.412  32.662  1.00  0.00    -0.248 NA
ATOM     42  C   UNL A   1      37.943  33.003  32.736  1.00  0.00     0.031 C 
ATOM     43  C   UNL A   1      38.274  30.174  28.590  1.00  0.00     0.029 A 
ATOM     44  N   UNL A   1      39.761  29.790  30.213  1.00  0.00    -0.354 N 
ATOM     45  C   UNL A   1      39.768  32.163  33.824  1.00  0.00     0.074 A 
ATOM     46  C   UNL A   1      38.733  33.173  33.785  1.00  0.00     0.031 C 
ATOM     47  C   UNL A   1      39.099  29.205  28.159  1.00  0.00     0.029 A 
ATOM     48  C   UNL A   1      40.095  28.933  29.191  1.00  0.00     0.049 A 
ATOM     49  H   UNL A   1      40.260  29.837  31.061  1.00  0.00     0.167 HD
ATOM     50  C   UNL A   1      40.634  32.005  34.853  1.00  0.00     0.034 A 
ATOM     51  C   UNL A   1      41.086  28.025  29.101  1.00  0.00     0.034 A 
ATOM     52  C   UNL A   1      41.628  30.968  34.909  1.00  0.00     0.049 A 
ATOM     53  C   UNL A   1      42.013  27.842  30.271  1.00  0.00     0.074 A 
ATOM     54  C   UNL A   1      42.496  30.662  35.942  1.00  0.00     0.029 A 
ATOM     55  N   UNL A   1      41.889  30.070  33.886  1.00  0.00    -0.354 N 
ATOM     56  N   UNL A   1      42.010  28.452  31.432  1.00  0.00    -0.248 NA
ATOM     57  C   UNL A   1      43.062  26.820  30.132  1.00  0.00     0.031 C 
ATOM     58  C   UNL A   1      43.291  29.583  35.537  1.00  0.00     0.029 A 
ATOM     59  C   UNL A   1      42.908  29.209  34.258  1.00  0.00     0.049 A 
ATOM     60  H   UNL A   1      41.418  30.046  33.022  1.00  0.00     0.167 HD
ATOM     61  C   UNL A   1      43.027  27.865  32.175  1.00  0.00     0.074 A 
ATOM     62  C   UNL A   1      43.616  26.840  31.338  1.00  0.00     0.031 C 
ATOM     63  C   UNL A   1      43.445  28.158  33.431  1.00  0.00     0.034 A 
BRANCH  50  64
ATOM     64  C   UNL A   1      40.489  32.939  36.026  1.00  0.00     0.023 A 
ATOM     65  C   UNL A   1      41.230  34.139  36.048  1.00  0.00     0.012 A 
ATOM     66  C   UNL A   1      39.621  32.644  37.094  1.00  0.00     0.148 A 
ATOM     67  C   UNL A   1      41.147  35.007  37.136  1.00  0.00     0.002 A 
ATOM     68  C   UNL A   1      39.511  33.537  38.155  1.00  0.00     0.091 A 
ATOM     69  F   UNL A   1      38.945  31.487  37.074  1.00  0.00    -0.205 F 
ATOM     70  C   UNL A   1      40.282  34.710  38.184  1.00  0.00     0.022 A 
BRANCH  68  71
ATOM     71  S   UNL A   1      38.365  33.272  39.514  1.00  0.00     0.127 S 
ATOM     72  O   UNL A   1      39.023  32.195  40.251  1.00  0.00    -0.237 OA
ATOM     73  O   UNL A   1      38.377  34.568  40.192  1.00  0.00    -0.237 OA
ATOM     74  O   UNL A   1      37.093  32.931  38.893  1.00  0.00    -0.744 OA
ENDBRANCH  68  71
ENDBRANCH  50  64
BRANCH  51  75
ATOM     75  C   UNL A   1      41.177  27.145  27.902  1.00  0.00     0.023 A 
ATOM     76  C   UNL A   1      41.772  27.652  26.730  1.00  0.00     0.012 A 
ATOM     77  C   UNL A   1      40.728  25.810  27.923  1.00  0.00     0.148 A 
ATOM     78  C   UNL A   1      41.899  26.854  25.593  1.00  0.00     0.002 A 
ATOM     79  C   UNL A   1      40.902  25.006  26.802  1.00  0.00     0.091 A 
ATOM     80  F   UNL A   1      40.158  25.350  29.046  1.00  0.00    -0.205 F 
ATOM     81  C   UNL A   1      41.474  25.530  25.631  1.00  0.00     0.022 A 
BRANCH  79  82
ATOM     82  S   UNL A   1      40.498  23.255  26.793  1.00  0.00     0.127 S 
ATOM     83  O   UNL A   1      39.100  23.274  26.368  1.00  0.00    -0.237 OA
ATOM     84  O   UNL A   1      41.438  22.735  25.800  1.00  0.00    -0.237 OA
ATOM     85  O   UNL A   1      40.738  22.789  28.152  1.00  0.00    -0.744 OA
ENDBRANCH  79  82
ENDBRANCH  51  75
BRANCH  63  86
ATOM     86  C   UNL A   1      44.577  27.342  33.997  1.00  0.00     0.023 A 
ATOM     87  C   UNL A   1      45.905  27.778  33.822  1.00  0.00     0.012 A 
ATOM     88  C   UNL A   1      44.321  26.189  34.765  1.00  0.00     0.148 A 
ATOM     89  C   UNL A   1      46.963  27.064  34.383  1.00  0.00     0.002 A 
ATOM     90  C   UNL A   1      45.378  25.508  35.358  1.00  0.00     0.091 A 
ATOM     91  F   UNL A   1      43.051  25.778  34.900  1.00  0.00    -0.205 F 
ATOM     92  C   UNL A   1      46.700  25.938  35.160  1.00  0.00     0.022 A 
BRANCH  90  93
ATOM     93  S   UNL A   1      45.122  24.106  36.451  1.00  0.00     0.127 S 
ATOM     94  O   UNL A   1      46.495  23.755  36.812  1.00  0.00    -0.237 OA
ATOM     95  O   UNL A   1      44.337  24.694  37.537  1.00  0.00    -0.237 OA
ATOM     96  O   UNL A   1      44.407  23.111  35.662  1.00  0.00    -0.744 OA
ENDBRANCH  90  93
ENDBRANCH  63  86
ENDBRANCH  37  38
ENDBRANCH  29  32
ENDBRANCH  27  28
ENDBRANCH   1  27
TORSDOF 17
ENDMDL
