MODEL 1
REMARK VINA RESULT:     -11.5      0.000      0.000
REMARK SMILES Cc1ccc(C#N)cc1Nc1cc(C)c(N)c(C(=O)NCCCCNC(=O)c2ccc(-c3c4nc(c(-c5cccc(S(=O)(=O)[O-])c5F)c5ccc([nH]5)c(-c5cccc(S(=O)(=O)[O-])c5F)c5nc(c(-c6cccc(S(=O)(=O)[O-])c6F)c6ccc3[nH]6)C=C5)C=C4)cc2)c1
REMARK SMILES IDX 22 1 21 2 20 3 18 4 19 5 17 7 11 8 12 9 91 10 13 11 14 12
REMARK SMILES IDX 15 13 10 14 9 16 1 17 2 18 3 19 4 20 8 21 5 22 6 23 7 24
REMARK SMILES IDX 16 25 23 28 24 29 25 30 26 31 27 33 28 34 29 35 90 36 30 37
REMARK SMILES IDX 89 38 31 39 32 40 33 41 83 42 34 43 88 44 82 45 84 46 35 47
REMARK SMILES IDX 87 48 81 49 80 50 36 52 68 53 48 54 67 55 49 56 52 57 66 58
REMARK SMILES IDX 85 59 50 60 51 61 65 63 86 64 53 65 37 66 38 67 46 68 39 69
REMARK SMILES IDX 41 70 47 71 40 72 42 73 43 74 44 75 45 76 69 77 70 78 78 79
REMARK SMILES IDX 71 80 73 81 79 82 72 83 74 84 75 85 76 86 77 87 54 88 55 89
REMARK SMILES IDX 63 90 56 91 58 92 64 93 57 94 59 95 60 96 61 97 62 98
REMARK H PARENT 20 6 10 15 16 26 16 27 25 32 84 51 52 62
REMARK Flexibility Score: inf
ROOT
ATOM      1  C   UNL A   1      37.329  22.108  24.535  1.00  0.00     0.023 C 
ENDROOT
BRANCH   1   2
ATOM      2  C   UNL A   1      37.145  23.308  25.468  1.00  0.00     0.116 C 
BRANCH   2   3
ATOM      3  N   UNL A   1      36.107  23.025  26.440  1.00  0.00    -0.352 N 
ATOM      4  C   UNL A   1      34.735  23.047  26.411  1.00  0.00     0.253 C 
ATOM      5  O   UNL A   1      34.182  22.795  27.486  1.00  0.00    -0.269 OA
ATOM      6  H   UNL A   1      36.466  22.758  27.316  1.00  0.00     0.163 HD
BRANCH   4   7
ATOM      7  C   UNL A   1      33.906  23.286  25.174  1.00  0.00     0.065 A 
ATOM      8  C   UNL A   1      33.013  24.818  23.492  1.00  0.00     0.040 A 
ATOM      9  C   UNL A   1      32.566  23.735  22.747  1.00  0.00     0.031 A 
ATOM     10  C   UNL A   1      33.595  24.576  24.735  1.00  0.00     0.042 A 
ATOM     11  C   UNL A   1      32.742  22.415  23.203  1.00  0.00    -0.025 A 
ATOM     12  C   UNL A   1      32.153  21.323  22.350  1.00  0.00     0.047 C 
ATOM     13  C   UNL A   1      33.458  22.177  24.399  1.00  0.00     0.047 A 
BRANCH   8  14
ATOM     14  N   UNL A   1      32.992  26.120  22.962  1.00  0.00    -0.355 N 
ATOM     15  H   UNL A   1      33.589  26.286  22.196  1.00  0.00     0.167 HD
BRANCH  14  16
ATOM     16  C   UNL A   1      32.214  27.223  23.396  1.00  0.00     0.043 A 
ATOM     17  C   UNL A   1      34.220  28.182  24.642  1.00  0.00     0.046 C 
ATOM     18  C   UNL A   1      32.786  28.241  24.189  1.00  0.00    -0.027 A 
ATOM     19  C   UNL A   1      31.998  29.327  24.613  1.00  0.00     0.007 A 
ATOM     20  C   UNL A   1      30.655  29.423  24.252  1.00  0.00     0.020 A 
ATOM     21  C   UNL A   1      30.864  27.355  23.018  1.00  0.00     0.045 A 
ATOM     22  C   UNL A   1      30.083  28.433  23.456  1.00  0.00     0.054 A 
BRANCH  22  23
ATOM     23  C   UNL A   1      28.690  28.503  23.115  1.00  0.00     0.099 C 
ATOM     24  N   UNL A   1      27.563  28.573  22.859  1.00  0.00    -0.192 NA
ENDBRANCH  22  23
ENDBRANCH  14  16
ENDBRANCH   8  14
BRANCH  13  25
ATOM     25  N   UNL A   1      33.665  20.871  24.839  1.00  0.00    -0.398 N 
ATOM     26  H   UNL A   1      34.338  20.305  24.399  1.00  0.00     0.156 HD
ATOM     27  H   UNL A   1      33.138  20.517  25.592  1.00  0.00     0.156 HD
ENDBRANCH  13  25
ENDBRANCH   4   7
ENDBRANCH   2   3
ENDBRANCH   1   2
BRANCH   1  28
ATOM     28  C   UNL A   1      37.787  20.845  25.267  1.00  0.00     0.023 C 
BRANCH  28  29
ATOM     29  C   UNL A   1      39.085  21.011  26.045  1.00  0.00     0.116 C 
BRANCH  29  30
ATOM     30  N   UNL A   1      39.930  19.823  26.027  1.00  0.00    -0.352 N 
ATOM     31  C   UNL A   1      41.300  19.762  26.159  1.00  0.00     0.251 C 
ATOM     32  H   UNL A   1      39.467  18.962  25.906  1.00  0.00     0.163 HD
ATOM     33  O   UNL A   1      41.901  18.705  26.010  1.00  0.00    -0.269 OA
BRANCH  31  34
ATOM     34  C   UNL A   1      42.018  21.023  26.432  1.00  0.00     0.039 A 
ATOM     35  C   UNL A   1      42.237  21.411  27.754  1.00  0.00     0.014 A 
ATOM     36  C   UNL A   1      42.318  21.883  25.375  1.00  0.00     0.014 A 
ATOM     37  C   UNL A   1      42.543  22.736  28.026  1.00  0.00     0.010 A 
ATOM     38  C   UNL A   1      42.742  23.183  25.654  1.00  0.00     0.010 A 
ATOM     39  C   UNL A   1      42.795  23.641  26.981  1.00  0.00    -0.014 A 
BRANCH  39  40
ATOM     40  C   UNL A   1      43.107  25.057  27.304  1.00  0.00     0.031 A 
ATOM     41  C   UNL A   1      42.074  25.963  27.926  1.00  0.00     0.074 A 
ATOM     42  C   UNL A   1      44.350  25.520  27.065  1.00  0.00     0.049 A 
ATOM     43  N   UNL A   1      42.189  27.223  28.261  1.00  0.00    -0.248 NA
ATOM     44  C   UNL A   1      40.745  25.393  28.211  1.00  0.00     0.031 C 
ATOM     45  C   UNL A   1      45.439  24.739  26.469  1.00  0.00     0.029 A 
ATOM     46  N   UNL A   1      44.914  26.747  27.299  1.00  0.00    -0.354 N 
ATOM     47  C   UNL A   1      40.945  27.607  28.748  1.00  0.00     0.074 A 
ATOM     48  C   UNL A   1      40.084  26.448  28.669  1.00  0.00     0.031 C 
ATOM     49  C   UNL A   1      46.547  25.492  26.421  1.00  0.00     0.029 A 
ATOM     50  C   UNL A   1      46.230  26.828  26.912  1.00  0.00     0.049 A 
ATOM     51  H   UNL A   1      44.424  27.498  27.706  1.00  0.00     0.167 HD
ATOM     52  C   UNL A   1      40.561  28.812  29.228  1.00  0.00     0.034 A 
ATOM     53  C   UNL A   1      47.088  27.865  26.919  1.00  0.00     0.034 A 
ATOM     54  C   UNL A   1      41.432  29.950  29.347  1.00  0.00     0.049 A 
ATOM     55  C   UNL A   1      46.627  29.194  27.435  1.00  0.00     0.074 A 
ATOM     56  C   UNL A   1      41.138  31.196  29.874  1.00  0.00     0.029 A 
ATOM     57  N   UNL A   1      42.752  29.989  28.933  1.00  0.00    -0.354 N 
ATOM     58  N   UNL A   1      45.466  29.514  27.949  1.00  0.00    -0.248 NA
ATOM     59  C   UNL A   1      47.593  30.300  27.386  1.00  0.00     0.031 C 
ATOM     60  C   UNL A   1      42.271  32.001  29.745  1.00  0.00     0.029 A 
ATOM     61  C   UNL A   1      43.282  31.244  29.176  1.00  0.00     0.049 A 
ATOM     62  H   UNL A   1      43.241  29.237  28.527  1.00  0.00     0.167 HD
ATOM     63  C   UNL A   1      45.567  30.851  28.309  1.00  0.00     0.074 A 
ATOM     64  C   UNL A   1      46.907  31.280  27.962  1.00  0.00     0.031 C 
ATOM     65  C   UNL A   1      44.627  31.650  28.868  1.00  0.00     0.034 A 
BRANCH  52  66
ATOM     66  C   UNL A   1      39.143  28.986  29.698  1.00  0.00     0.023 A 
ATOM     67  C   UNL A   1      38.799  28.635  31.017  1.00  0.00     0.012 A 
ATOM     68  C   UNL A   1      38.197  29.640  28.882  1.00  0.00     0.148 A 
ATOM     69  C   UNL A   1      37.533  28.934  31.520  1.00  0.00     0.002 A 
ATOM     70  C   UNL A   1      36.947  29.958  29.398  1.00  0.00     0.091 A 
ATOM     71  F   UNL A   1      38.551  29.960  27.629  1.00  0.00    -0.205 F 
ATOM     72  C   UNL A   1      36.614  29.606  30.717  1.00  0.00     0.022 A 
BRANCH  70  73
ATOM     73  S   UNL A   1      35.706  30.858  28.462  1.00  0.00     0.127 S 
ATOM     74  O   UNL A   1      35.059  29.777  27.719  1.00  0.00    -0.237 OA
ATOM     75  O   UNL A   1      34.888  31.444  29.522  1.00  0.00    -0.237 OA
ATOM     76  O   UNL A   1      36.433  31.817  27.643  1.00  0.00    -0.744 OA
ENDBRANCH  70  73
ENDBRANCH  52  66
BRANCH  53  77
ATOM     77  C   UNL A   1      48.480  27.657  26.440  1.00  0.00     0.023 A 
ATOM     78  C   UNL A   1      49.473  27.268  27.356  1.00  0.00     0.012 A 
ATOM     79  C   UNL A   1      48.799  27.765  25.072  1.00  0.00     0.148 A 
ATOM     80  C   UNL A   1      50.767  26.992  26.919  1.00  0.00     0.002 A 
ATOM     81  C   UNL A   1      50.082  27.456  24.638  1.00  0.00     0.091 A 
ATOM     82  F   UNL A   1      47.829  28.128  24.223  1.00  0.00    -0.205 F 
ATOM     83  C   UNL A   1      51.070  27.075  25.561  1.00  0.00     0.022 A 
BRANCH  81  84
ATOM     84  S   UNL A   1      50.546  27.459  22.904  1.00  0.00     0.127 S 
ATOM     85  O   UNL A   1      50.557  28.889  22.604  1.00  0.00    -0.237 OA
ATOM     86  O   UNL A   1      51.865  26.828  22.947  1.00  0.00    -0.237 OA
ATOM     87  O   UNL A   1      49.523  26.685  22.215  1.00  0.00    -0.744 OA
ENDBRANCH  81  84
ENDBRANCH  53  77
BRANCH  65  88
ATOM     88  C   UNL A   1      44.997  33.072  29.181  1.00  0.00     0.023 A 
ATOM     89  C   UNL A   1      45.623  33.377  30.404  1.00  0.00     0.012 A 
ATOM     90  C   UNL A   1      44.848  34.075  28.202  1.00  0.00     0.148 A 
ATOM     91  C   UNL A   1      46.097  34.664  30.649  1.00  0.00     0.002 A 
ATOM     92  C   UNL A   1      45.351  35.346  28.441  1.00  0.00     0.091 A 
ATOM     93  F   UNL A   1      44.246  33.754  27.047  1.00  0.00    -0.205 F 
ATOM     94  C   UNL A   1      45.975  35.643  29.664  1.00  0.00     0.022 A 
BRANCH  92  95
ATOM     95  S   UNL A   1      45.291  36.658  27.216  1.00  0.00     0.127 S 
ATOM     96  O   UNL A   1      45.953  37.754  27.923  1.00  0.00    -0.237 OA
ATOM     97  O   UNL A   1      46.065  36.087  26.114  1.00  0.00    -0.237 OA
ATOM     98  O   UNL A   1      43.881  36.877  26.924  1.00  0.00    -0.744 OA
ENDBRANCH  92  95
ENDBRANCH  65  88
ENDBRANCH  39  40
ENDBRANCH  31  34
ENDBRANCH  29  30
ENDBRANCH  28  29
ENDBRANCH   1  28
TORSDOF 18
ENDMDL
MODEL 2
REMARK VINA RESULT:     -11.5      1.747      7.764
REMARK SMILES Cc1ccc(C#N)cc1Nc1cc(C)c(N)c(C(=O)NCCCCNC(=O)c2ccc(-c3c4nc(c(-c5cccc(S(=O)(=O)[O-])c5F)c5ccc([nH]5)c(-c5cccc(S(=O)(=O)[O-])c5F)c5nc(c(-c6cccc(S(=O)(=O)[O-])c6F)c6ccc3[nH]6)C=C5)C=C4)cc2)c1
REMARK SMILES IDX 22 1 21 2 20 3 18 4 19 5 17 7 11 8 12 9 91 10 13 11 14 12
REMARK SMILES IDX 15 13 10 14 9 16 1 17 2 18 3 19 4 20 8 21 5 22 6 23 7 24
REMARK SMILES IDX 16 25 23 28 24 29 25 30 26 31 27 33 28 34 29 35 90 36 30 37
REMARK SMILES IDX 89 38 31 39 32 40 33 41 83 42 34 43 88 44 82 45 84 46 35 47
REMARK SMILES IDX 87 48 81 49 80 50 36 52 68 53 48 54 67 55 49 56 52 57 66 58
REMARK SMILES IDX 85 59 50 60 51 61 65 63 86 64 53 65 37 66 38 67 46 68 39 69
REMARK SMILES IDX 41 70 47 71 40 72 42 73 43 74 44 75 45 76 69 77 70 78 78 79
REMARK SMILES IDX 71 80 73 81 79 82 72 83 74 84 75 85 76 86 77 87 54 88 55 89
REMARK SMILES IDX 63 90 56 91 58 92 64 93 57 94 59 95 60 96 61 97 62 98
REMARK H PARENT 20 6 10 15 16 26 16 27 25 32 84 51 52 62
REMARK Flexibility Score: inf
ROOT
ATOM      1  C   UNL A   1      37.334  22.429  24.696  1.00  0.00     0.023 C 
ENDROOT
BRANCH   1   2
ATOM      2  C   UNL A   1      36.628  23.375  25.671  1.00  0.00     0.116 C 
BRANCH   2   3
ATOM      3  N   UNL A   1      35.881  22.610  26.650  1.00  0.00    -0.352 N 
ATOM      4  C   UNL A   1      34.612  22.088  26.692  1.00  0.00     0.253 C 
ATOM      5  O   UNL A   1      34.307  21.534  27.753  1.00  0.00    -0.269 OA
ATOM      6  H   UNL A   1      36.398  22.424  27.466  1.00  0.00     0.163 HD
BRANCH   4   7
ATOM      7  C   UNL A   1      33.641  22.097  25.539  1.00  0.00     0.065 A 
ATOM      8  C   UNL A   1      32.233  23.335  23.971  1.00  0.00     0.040 A 
ATOM      9  C   UNL A   1      32.015  22.169  23.249  1.00  0.00     0.031 A 
ATOM     10  C   UNL A   1      32.968  23.259  25.152  1.00  0.00     0.042 A 
ATOM     11  C   UNL A   1      32.567  20.942  23.665  1.00  0.00    -0.025 A 
ATOM     12  C   UNL A   1      32.206  19.729  22.848  1.00  0.00     0.047 C 
ATOM     13  C   UNL A   1      33.426  20.904  24.788  1.00  0.00     0.047 A 
BRANCH   8  14
ATOM     14  N   UNL A   1      31.829  24.584  23.468  1.00  0.00    -0.355 N 
ATOM     15  H   UNL A   1      30.933  24.617  23.059  1.00  0.00     0.167 HD
BRANCH  14  16
ATOM     16  C   UNL A   1      32.555  25.801  23.478  1.00  0.00     0.043 A 
ATOM     17  C   UNL A   1      32.657  25.795  20.932  1.00  0.00     0.046 C 
ATOM     18  C   UNL A   1      32.948  26.417  22.271  1.00  0.00    -0.027 A 
ATOM     19  C   UNL A   1      33.671  27.624  22.301  1.00  0.00     0.007 A 
ATOM     20  C   UNL A   1      33.999  28.235  23.511  1.00  0.00     0.020 A 
ATOM     21  C   UNL A   1      32.870  26.451  24.688  1.00  0.00     0.045 A 
ATOM     22  C   UNL A   1      33.601  27.646  24.709  1.00  0.00     0.054 A 
BRANCH  22  23
ATOM     23  C   UNL A   1      33.971  28.245  25.960  1.00  0.00     0.099 C 
ATOM     24  N   UNL A   1      34.283  28.709  26.974  1.00  0.00    -0.192 NA
ENDBRANCH  22  23
ENDBRANCH  14  16
ENDBRANCH   8  14
BRANCH  13  25
ATOM     25  N   UNL A   1      34.002  19.700  25.185  1.00  0.00    -0.398 N 
ATOM     26  H   UNL A   1      34.981  19.607  25.208  1.00  0.00     0.156 HD
ATOM     27  H   UNL A   1      33.429  18.941  25.442  1.00  0.00     0.156 HD
ENDBRANCH  13  25
ENDBRANCH   4   7
ENDBRANCH   2   3
ENDBRANCH   1   2
BRANCH   1  28
ATOM     28  C   UNL A   1      37.866  21.163  25.369  1.00  0.00     0.023 C 
BRANCH  28  29
ATOM     29  C   UNL A   1      39.292  21.284  25.887  1.00  0.00     0.116 C 
BRANCH  29  30
ATOM     30  N   UNL A   1      40.011  20.016  25.917  1.00  0.00    -0.352 N 
ATOM     31  C   UNL A   1      41.361  19.817  26.104  1.00  0.00     0.251 C 
ATOM     32  H   UNL A   1      39.467  19.205  25.787  1.00  0.00     0.163 HD
ATOM     33  O   UNL A   1      41.855  18.702  25.990  1.00  0.00    -0.269 OA
BRANCH  31  34
ATOM     34  C   UNL A   1      42.195  21.002  26.389  1.00  0.00     0.039 A 
ATOM     35  C   UNL A   1      42.419  21.374  27.715  1.00  0.00     0.014 A 
ATOM     36  C   UNL A   1      42.604  21.822  25.338  1.00  0.00     0.014 A 
ATOM     37  C   UNL A   1      42.849  22.663  27.991  1.00  0.00     0.010 A 
ATOM     38  C   UNL A   1      43.148  23.075  25.623  1.00  0.00     0.010 A 
ATOM     39  C   UNL A   1      43.214  23.533  26.950  1.00  0.00    -0.014 A 
BRANCH  39  40
ATOM     40  C   UNL A   1      43.657  24.913  27.276  1.00  0.00     0.031 A 
ATOM     41  C   UNL A   1      45.094  25.335  27.096  1.00  0.00     0.074 A 
ATOM     42  C   UNL A   1      42.744  25.805  27.707  1.00  0.00     0.049 A 
ATOM     43  N   UNL A   1      45.640  26.499  27.340  1.00  0.00    -0.248 NA
ATOM     44  C   UNL A   1      46.042  24.334  26.575  1.00  0.00     0.031 C 
ATOM     45  C   UNL A   1      41.321  25.518  27.919  1.00  0.00     0.029 A 
ATOM     46  N   UNL A   1      42.866  27.130  28.035  1.00  0.00    -0.354 N 
ATOM     47  C   UNL A   1      46.992  26.359  27.053  1.00  0.00     0.074 A 
ATOM     48  C   UNL A   1      47.192  24.996  26.612  1.00  0.00     0.031 C 
ATOM     49  C   UNL A   1      40.698  26.640  28.303  1.00  0.00     0.029 A 
ATOM     50  C   UNL A   1      41.683  27.706  28.435  1.00  0.00     0.049 A 
ATOM     51  H   UNL A   1      43.717  27.623  27.988  1.00  0.00     0.167 HD
ATOM     52  C   UNL A   1      47.974  27.286  27.138  1.00  0.00     0.034 A 
ATOM     53  C   UNL A   1      41.416  28.945  28.889  1.00  0.00     0.034 A 
ATOM     54  C   UNL A   1      47.766  28.652  27.535  1.00  0.00     0.049 A 
ATOM     55  C   UNL A   1      42.529  29.943  28.994  1.00  0.00     0.074 A 
ATOM     56  C   UNL A   1      48.698  29.673  27.596  1.00  0.00     0.029 A 
ATOM     57  N   UNL A   1      46.555  29.187  27.941  1.00  0.00    -0.354 N 
ATOM     58  N   UNL A   1      43.786  29.804  28.655  1.00  0.00    -0.248 NA
ATOM     59  C   UNL A   1      42.188  31.268  29.529  1.00  0.00     0.031 C 
ATOM     60  C   UNL A   1      48.059  30.817  28.075  1.00  0.00     0.029 A 
ATOM     61  C   UNL A   1      46.721  30.519  28.272  1.00  0.00     0.049 A 
ATOM     62  H   UNL A   1      45.705  28.693  27.987  1.00  0.00     0.167 HD
ATOM     63  C   UNL A   1      44.384  31.031  28.912  1.00  0.00     0.074 A 
ATOM     64  C   UNL A   1      43.349  31.904  29.426  1.00  0.00     0.031 C 
ATOM     65  C   UNL A   1      45.678  31.392  28.742  1.00  0.00     0.034 A 
BRANCH  52  66
ATOM     66  C   UNL A   1      49.379  26.888  26.773  1.00  0.00     0.023 A 
ATOM     67  C   UNL A   1      50.100  26.025  27.619  1.00  0.00     0.012 A 
ATOM     68  C   UNL A   1      49.917  27.246  25.521  1.00  0.00     0.148 A 
ATOM     69  C   UNL A   1      51.339  25.519  27.223  1.00  0.00     0.002 A 
ATOM     70  C   UNL A   1      51.139  26.719  25.122  1.00  0.00     0.091 A 
ATOM     71  F   UNL A   1      49.210  28.072  24.736  1.00  0.00    -0.205 F 
ATOM     72  C   UNL A   1      51.850  25.855  25.971  1.00  0.00     0.022 A 
BRANCH  70  73
ATOM     73  S   UNL A   1      51.867  27.054  23.514  1.00  0.00     0.127 S 
ATOM     74  O   UNL A   1      52.275  28.451  23.664  1.00  0.00    -0.237 OA
ATOM     75  O   UNL A   1      52.972  26.098  23.472  1.00  0.00    -0.237 OA
ATOM     76  O   UNL A   1      50.814  26.824  22.536  1.00  0.00    -0.744 OA
ENDBRANCH  70  73
ENDBRANCH  52  66
BRANCH  53  77
ATOM     77  C   UNL A   1      40.018  29.299  29.247  1.00  0.00     0.023 A 
ATOM     78  C   UNL A   1      39.084  29.543  28.224  1.00  0.00     0.012 A 
ATOM     79  C   UNL A   1      39.596  29.314  30.591  1.00  0.00     0.148 A 
ATOM     80  C   UNL A   1      37.750  29.801  28.533  1.00  0.00     0.002 A 
ATOM     81  C   UNL A   1      38.258  29.538  30.890  1.00  0.00     0.091 A 
ATOM     82  F   UNL A   1      40.506  29.069  31.543  1.00  0.00    -0.205 F 
ATOM     83  C   UNL A   1      37.334  29.788  29.862  1.00  0.00     0.022 A 
BRANCH  81  84
ATOM     84  S   UNL A   1      37.614  29.466  32.564  1.00  0.00     0.127 S 
ATOM     85  O   UNL A   1      38.559  30.317  33.282  1.00  0.00    -0.237 OA
ATOM     86  O   UNL A   1      36.277  30.036  32.394  1.00  0.00    -0.237 OA
ATOM     87  O   UNL A   1      37.632  28.059  32.939  1.00  0.00    -0.744 OA
ENDBRANCH  81  84
ENDBRANCH  53  77
BRANCH  65  88
ATOM     88  C   UNL A   1      46.073  32.802  29.081  1.00  0.00     0.023 A 
ATOM     89  C   UNL A   1      46.655  33.081  30.332  1.00  0.00     0.012 A 
ATOM     90  C   UNL A   1      45.994  33.814  28.105  1.00  0.00     0.148 A 
ATOM     91  C   UNL A   1      47.155  34.353  30.606  1.00  0.00     0.002 A 
ATOM     92  C   UNL A   1      46.522  35.070  28.374  1.00  0.00     0.091 A 
ATOM     93  F   UNL A   1      45.433  33.518  26.923  1.00  0.00    -0.205 F 
ATOM     94  C   UNL A   1      47.101  35.341  29.625  1.00  0.00     0.022 A 
BRANCH  92  95
ATOM     95  S   UNL A   1      46.550  36.390  27.157  1.00  0.00     0.127 S 
ATOM     96  O   UNL A   1      47.305  35.773  26.068  1.00  0.00    -0.237 OA
ATOM     97  O   UNL A   1      45.127  36.585  26.881  1.00  0.00    -0.237 OA
ATOM     98  O   UNL A   1      47.209  37.520  27.799  1.00  0.00    -0.744 OA
ENDBRANCH  92  95
ENDBRANCH  65  88
ENDBRANCH  39  40
ENDBRANCH  31  34
ENDBRANCH  29  30
ENDBRANCH  28  29
ENDBRANCH   1  28
TORSDOF 18
ENDMDL
MODEL 3
REMARK VINA RESULT:     -11.4      5.798     11.082
REMARK SMILES Cc1ccc(C#N)cc1Nc1cc(C)c(N)c(C(=O)NCCCCNC(=O)c2ccc(-c3c4nc(c(-c5cccc(S(=O)(=O)[O-])c5F)c5ccc([nH]5)c(-c5cccc(S(=O)(=O)[O-])c5F)c5nc(c(-c6cccc(S(=O)(=O)[O-])c6F)c6ccc3[nH]6)C=C5)C=C4)cc2)c1
REMARK SMILES IDX 22 1 21 2 20 3 18 4 19 5 17 7 11 8 12 9 91 10 13 11 14 12
REMARK SMILES IDX 15 13 10 14 9 16 1 17 2 18 3 19 4 20 8 21 5 22 6 23 7 24
REMARK SMILES IDX 16 25 23 28 24 29 25 30 26 31 27 33 28 34 29 35 90 36 30 37
REMARK SMILES IDX 89 38 31 39 32 40 33 41 83 42 34 43 88 44 82 45 84 46 35 47
REMARK SMILES IDX 87 48 81 49 80 50 36 52 68 53 48 54 67 55 49 56 52 57 66 58
REMARK SMILES IDX 85 59 50 60 51 61 65 63 86 64 53 65 37 66 38 67 46 68 39 69
REMARK SMILES IDX 41 70 47 71 40 72 42 73 43 74 44 75 45 76 69 77 70 78 78 79
REMARK SMILES IDX 71 80 73 81 79 82 72 83 74 84 75 85 76 86 77 87 54 88 55 89
REMARK SMILES IDX 63 90 56 91 58 92 64 93 57 94 59 95 60 96 61 97 62 98
REMARK H PARENT 20 6 10 15 16 26 16 27 25 32 84 51 52 62
REMARK Flexibility Score: inf
ROOT
ATOM      1  C   UNL A   1      32.175  30.077  25.683  1.00  0.00     0.023 C 
ENDROOT
BRANCH   1   2
ATOM      2  C   UNL A   1      33.489  29.317  25.487  1.00  0.00     0.116 C 
BRANCH   2   3
ATOM      3  N   UNL A   1      33.771  29.170  24.073  1.00  0.00    -0.352 N 
ATOM      4  C   UNL A   1      33.091  28.625  23.012  1.00  0.00     0.253 C 
ATOM      5  O   UNL A   1      33.699  28.633  21.937  1.00  0.00    -0.269 OA
ATOM      6  H   UNL A   1      34.645  29.543  23.815  1.00  0.00     0.163 HD
BRANCH   4   7
ATOM      7  C   UNL A   1      31.677  28.104  23.075  1.00  0.00     0.065 A 
ATOM      8  C   UNL A   1      30.069  26.452  23.885  1.00  0.00     0.040 A 
ATOM      9  C   UNL A   1      29.026  27.235  23.406  1.00  0.00     0.031 A 
ATOM     10  C   UNL A   1      31.377  26.857  23.631  1.00  0.00     0.042 A 
ATOM     11  C   UNL A   1      29.277  28.442  22.725  1.00  0.00    -0.025 A 
ATOM     12  C   UNL A   1      28.076  29.172  22.185  1.00  0.00     0.047 C 
ATOM     13  C   UNL A   1      30.604  28.911  22.596  1.00  0.00     0.047 A 
BRANCH   8  14
ATOM     14  N   UNL A   1      29.819  25.341  24.710  1.00  0.00    -0.355 N 
ATOM     15  H   UNL A   1      28.871  25.121  24.866  1.00  0.00     0.167 HD
BRANCH  14  16
ATOM     16  C   UNL A   1      30.767  24.499  25.343  1.00  0.00     0.043 A 
ATOM     17  C   UNL A   1      31.476  26.405  26.878  1.00  0.00     0.046 C 
ATOM     18  C   UNL A   1      31.563  24.979  26.405  1.00  0.00    -0.027 A 
ATOM     19  C   UNL A   1      32.502  24.129  27.019  1.00  0.00     0.007 A 
ATOM     20  C   UNL A   1      32.651  22.807  26.604  1.00  0.00     0.020 A 
ATOM     21  C   UNL A   1      30.914  23.151  24.961  1.00  0.00     0.045 A 
ATOM     22  C   UNL A   1      31.859  22.315  25.570  1.00  0.00     0.054 A 
BRANCH  22  23
ATOM     23  C   UNL A   1      32.036  20.967  25.109  1.00  0.00     0.099 C 
ATOM     24  N   UNL A   1      32.161  19.883  24.722  1.00  0.00    -0.192 NA
ENDBRANCH  22  23
ENDBRANCH  14  16
ENDBRANCH   8  14
BRANCH  13  25
ATOM     25  N   UNL A   1      30.857  30.121  21.953  1.00  0.00    -0.398 N 
ATOM     26  H   UNL A   1      31.741  30.293  21.558  1.00  0.00     0.156 HD
ATOM     27  H   UNL A   1      30.149  30.804  21.893  1.00  0.00     0.156 HD
ENDBRANCH  13  25
ENDBRANCH   4   7
ENDBRANCH   2   3
ENDBRANCH   1   2
BRANCH   1  28
ATOM     28  C   UNL A   1      32.133  30.875  26.987  1.00  0.00     0.023 C 
BRANCH  28  29
ATOM     29  C   UNL A   1      33.255  31.894  27.131  1.00  0.00     0.116 C 
BRANCH  29  30
ATOM     30  N   UNL A   1      32.781  33.258  27.329  1.00  0.00    -0.352 N 
ATOM     31  C   UNL A   1      33.206  34.170  28.270  1.00  0.00     0.251 C 
ATOM     32  H   UNL A   1      32.072  33.565  26.717  1.00  0.00     0.163 HD
ATOM     33  O   UNL A   1      32.641  35.248  28.403  1.00  0.00    -0.269 OA
BRANCH  31  34
ATOM     34  C   UNL A   1      34.328  33.777  29.146  1.00  0.00     0.039 A 
ATOM     35  C   UNL A   1      35.629  34.132  28.789  1.00  0.00     0.014 A 
ATOM     36  C   UNL A   1      34.090  32.920  30.221  1.00  0.00     0.014 A 
ATOM     37  C   UNL A   1      36.694  33.457  29.364  1.00  0.00     0.010 A 
ATOM     38  C   UNL A   1      35.173  32.332  30.876  1.00  0.00     0.010 A 
ATOM     39  C   UNL A   1      36.482  32.544  30.411  1.00  0.00    -0.014 A 
BRANCH  39  40
ATOM     40  C   UNL A   1      37.642  31.825  30.996  1.00  0.00     0.031 A 
ATOM     41  C   UNL A   1      38.426  30.819  30.192  1.00  0.00     0.074 A 
ATOM     42  C   UNL A   1      38.014  32.112  32.260  1.00  0.00     0.049 A 
ATOM     43  N   UNL A   1      39.459  30.105  30.561  1.00  0.00    -0.248 NA
ATOM     44  C   UNL A   1      38.006  30.579  28.800  1.00  0.00     0.031 C 
ATOM     45  C   UNL A   1      37.338  33.069  33.140  1.00  0.00     0.029 A 
ATOM     46  N   UNL A   1      39.051  31.639  33.022  1.00  0.00    -0.354 N 
ATOM     47  C   UNL A   1      39.781  29.302  29.473  1.00  0.00     0.074 A 
ATOM     48  C   UNL A   1      38.837  29.614  28.423  1.00  0.00     0.031 C 
ATOM     49  C   UNL A   1      37.998  33.142  34.304  1.00  0.00     0.029 A 
ATOM     50  C   UNL A   1      39.098  32.186  34.282  1.00  0.00     0.049 A 
ATOM     51  H   UNL A   1      39.700  30.973  32.698  1.00  0.00     0.167 HD
ATOM     52  C   UNL A   1      40.780  28.397  29.357  1.00  0.00     0.034 A 
ATOM     53  C   UNL A   1      39.914  31.931  35.323  1.00  0.00     0.034 A 
ATOM     54  C   UNL A   1      41.745  28.120  30.387  1.00  0.00     0.049 A 
ATOM     55  C   UNL A   1      40.997  30.907  35.172  1.00  0.00     0.074 A 
ATOM     56  C   UNL A   1      42.825  27.256  30.332  1.00  0.00     0.029 A 
ATOM     57  N   UNL A   1      41.747  28.690  31.648  1.00  0.00    -0.354 N 
ATOM     58  N   UNL A   1      41.320  30.208  34.112  1.00  0.00    -0.248 NA
ATOM     59  C   UNL A   1      41.834  30.643  36.350  1.00  0.00     0.031 C 
ATOM     60  C   UNL A   1      43.459  27.274  31.575  1.00  0.00     0.029 A 
ATOM     61  C   UNL A   1      42.799  28.181  32.389  1.00  0.00     0.049 A 
ATOM     62  H   UNL A   1      41.098  29.356  31.971  1.00  0.00     0.167 HD
ATOM     63  C   UNL A   1      42.415  29.440  34.486  1.00  0.00     0.074 A 
ATOM     64  C   UNL A   1      42.705  29.765  35.867  1.00  0.00     0.031 C 
ATOM     65  C   UNL A   1      43.107  28.540  33.748  1.00  0.00     0.034 A 
BRANCH  52  66
ATOM     66  C   UNL A   1      40.925  27.639  28.065  1.00  0.00     0.023 A 
ATOM     67  C   UNL A   1      41.531  28.262  26.958  1.00  0.00     0.012 A 
ATOM     68  C   UNL A   1      40.600  26.269  28.003  1.00  0.00     0.148 A 
ATOM     69  C   UNL A   1      41.817  27.530  25.805  1.00  0.00     0.002 A 
ATOM     70  C   UNL A   1      40.912  25.540  26.861  1.00  0.00     0.091 A 
ATOM     71  F   UNL A   1      40.021  25.703  29.071  1.00  0.00    -0.205 F 
ATOM     72  C   UNL A   1      41.520  26.169  25.763  1.00  0.00     0.022 A 
BRANCH  70  73
ATOM     73  S   UNL A   1      40.610  23.775  26.720  1.00  0.00     0.127 S 
ATOM     74  O   UNL A   1      39.196  23.750  26.343  1.00  0.00    -0.237 OA
ATOM     75  O   UNL A   1      41.532  23.391  25.652  1.00  0.00    -0.237 OA
ATOM     76  O   UNL A   1      40.907  23.206  28.026  1.00  0.00    -0.744 OA
ENDBRANCH  70  73
ENDBRANCH  52  66
BRANCH  53  77
ATOM     77  C   UNL A   1      39.736  32.694  36.585  1.00  0.00     0.023 A 
ATOM     78  C   UNL A   1      40.469  33.878  36.785  1.00  0.00     0.012 A 
ATOM     79  C   UNL A   1      38.787  32.294  37.547  1.00  0.00     0.148 A 
ATOM     80  C   UNL A   1      40.263  34.652  37.926  1.00  0.00     0.002 A 
ATOM     81  C   UNL A   1      38.563  33.087  38.665  1.00  0.00     0.091 A 
ATOM     82  F   UNL A   1      38.098  31.167  37.324  1.00  0.00    -0.205 F 
ATOM     83  C   UNL A   1      39.304  34.263  38.859  1.00  0.00     0.022 A 
BRANCH  81  84
ATOM     84  S   UNL A   1      37.298  32.711  39.882  1.00  0.00     0.127 S 
ATOM     85  O   UNL A   1      37.759  31.424  40.400  1.00  0.00    -0.237 OA
ATOM     86  O   UNL A   1      37.435  33.833  40.810  1.00  0.00    -0.237 OA
ATOM     87  O   UNL A   1      36.039  32.674  39.152  1.00  0.00    -0.744 OA
ENDBRANCH  81  84
ENDBRANCH  53  77
BRANCH  65  88
ATOM     88  C   UNL A   1      44.276  27.846  34.386  1.00  0.00     0.023 A 
ATOM     89  C   UNL A   1      45.539  28.468  34.390  1.00  0.00     0.012 A 
ATOM     90  C   UNL A   1      44.085  26.646  35.099  1.00  0.00     0.148 A 
ATOM     91  C   UNL A   1      46.598  27.903  35.098  1.00  0.00     0.002 A 
ATOM     92  C   UNL A   1      45.136  26.107  35.828  1.00  0.00     0.091 A 
ATOM     93  F   UNL A   1      42.872  26.077  35.076  1.00  0.00    -0.205 F 
ATOM     94  C   UNL A   1      46.394  26.733  35.827  1.00  0.00     0.022 A 
BRANCH  92  95
ATOM     95  S   UNL A   1      44.959  24.635  36.842  1.00  0.00     0.127 S 
ATOM     96  O   UNL A   1      46.272  24.554  37.479  1.00  0.00    -0.237 OA
ATOM     97  O   UNL A   1      43.866  25.010  37.739  1.00  0.00    -0.237 OA
ATOM     98  O   UNL A   1      44.651  23.546  35.926  1.00  0.00    -0.744 OA
ENDBRANCH  92  95
ENDBRANCH  65  88
ENDBRANCH  39  40
ENDBRANCH  31  34
ENDBRANCH  29  30
ENDBRANCH  28  29
ENDBRANCH   1  28
TORSDOF 18
ENDMDL
