MODEL 1
REMARK VINA RESULT:     -12.4      0.000      0.000
REMARK SMILES CC(=O)NCCc1c[nH]c2ccc(C(=O)NCCCCNC(=O)c3ccc(-c4c5nc(c(-c6cccc(S(=O)(=O)[O-])c6F)c6ccc([nH]6)c(-c6cccc(S(=O)(=O)[O-])c6F)c6nc(c(-c7cccc(S(=O)(=O)[O-])c7F)c7ccc4[nH]7)C=C6)C=C5)cc3)cc12
REMARK SMILES IDX 18 1 17 2 16 3 14 4 15 5 13 7 7 8 8 9 88 10 9 11 10 12 87 13
REMARK SMILES IDX 11 15 12 16 6 17 5 18 4 19 1 20 2 21 3 22 19 24 20 25 21 26
REMARK SMILES IDX 22 27 23 29 24 30 25 31 86 32 26 33 85 34 27 35 28 36 29 37
REMARK SMILES IDX 79 38 30 39 84 40 78 41 80 42 31 43 83 44 77 45 76 46 32 48
REMARK SMILES IDX 64 49 44 50 63 51 45 52 48 53 62 54 81 55 46 56 47 57 61 59
REMARK SMILES IDX 82 60 49 61 33 62 34 63 42 64 35 65 37 66 43 67 36 68 38 69
REMARK SMILES IDX 39 70 40 71 41 72 65 73 66 74 74 75 67 76 69 77 75 78 68 79
REMARK SMILES IDX 70 80 71 81 72 82 73 83 50 84 51 85 59 86 52 87 54 88 60 89
REMARK SMILES IDX 53 90 55 91 56 92 57 93 58 94
REMARK H PARENT 16 6 9 14 4 23 21 28 80 47 48 58
REMARK Flexibility Score: inf
ROOT
ATOM      1  C   UNL A   1      32.019  30.199  26.888  1.00  0.00     0.023 C 
ENDROOT
BRANCH   1   2
ATOM      2  C   UNL A   1      33.462  29.720  27.056  1.00  0.00     0.116 C 
BRANCH   2   3
ATOM      3  N   UNL A   1      34.047  29.398  25.772  1.00  0.00    -0.352 N 
ATOM      4  C   UNL A   1      33.653  28.582  24.744  1.00  0.00     0.251 C 
ATOM      5  O   UNL A   1      34.397  28.533  23.761  1.00  0.00    -0.269 OA
ATOM      6  H   UNL A   1      34.901  29.858  25.604  1.00  0.00     0.163 HD
BRANCH   4   7
ATOM      7  C   UNL A   1      32.386  27.788  24.723  1.00  0.00     0.040 A 
ATOM      8  C   UNL A   1      28.813  28.038  23.317  1.00  0.00    -0.021 A 
ATOM      9  C   UNL A   1      27.955  26.988  23.592  1.00  0.00     0.087 A 
ATOM     10  C   UNL A   1      30.054  27.734  23.964  1.00  0.00     0.003 A 
ATOM     11  N   UNL A   1      28.627  26.071  24.354  1.00  0.00    -0.361 N 
ATOM     12  C   UNL A   1      29.923  26.482  24.558  1.00  0.00     0.046 A 
ATOM     13  C   UNL A   1      31.293  28.397  24.071  1.00  0.00     0.024 A 
ATOM     14  H   UNL A   1      28.239  25.238  24.706  1.00  0.00     0.166 HD
ATOM     15  C   UNL A   1      30.984  25.838  25.196  1.00  0.00     0.027 A 
ATOM     16  C   UNL A   1      32.220  26.500  25.235  1.00  0.00     0.016 A 
BRANCH   8  17
ATOM     17  C   UNL A   1      28.525  29.235  22.460  1.00  0.00     0.059 C 
BRANCH  17  18
ATOM     18  C   UNL A   1      27.501  30.197  23.059  1.00  0.00     0.120 C 
BRANCH  18  19
ATOM     19  N   UNL A   1      28.052  31.520  23.304  1.00  0.00    -0.356 N 
ATOM     20  C   UNL A   1      27.933  32.300  20.973  1.00  0.00     0.114 C 
ATOM     21  C   UNL A   1      28.254  32.538  22.422  1.00  0.00     0.216 C 
ATOM     22  O   UNL A   1      28.672  33.622  22.824  1.00  0.00    -0.275 OA
ATOM     23  H   UNL A   1      28.318  31.704  24.234  1.00  0.00     0.163 HD
ENDBRANCH  18  19
ENDBRANCH  17  18
ENDBRANCH   8  17
ENDBRANCH   4   7
ENDBRANCH   2   3
ENDBRANCH   1   2
BRANCH   1  24
ATOM     24  C   UNL A   1      31.872  31.718  26.743  1.00  0.00     0.023 C 
BRANCH  24  25
ATOM     25  C   UNL A   1      32.965  32.541  27.419  1.00  0.00     0.116 C 
BRANCH  25  26
ATOM     26  N   UNL A   1      32.570  33.919  27.678  1.00  0.00    -0.352 N 
ATOM     27  C   UNL A   1      33.105  34.800  28.590  1.00  0.00     0.251 C 
ATOM     28  H   UNL A   1      31.827  34.264  27.133  1.00  0.00     0.163 HD
ATOM     29  O   UNL A   1      32.600  35.901  28.760  1.00  0.00    -0.269 OA
BRANCH  27  30
ATOM     30  C   UNL A   1      34.271  34.375  29.392  1.00  0.00     0.039 A 
ATOM     31  C   UNL A   1      34.051  33.775  30.634  1.00  0.00     0.014 A 
ATOM     32  C   UNL A   1      35.567  34.522  28.893  1.00  0.00     0.014 A 
ATOM     33  C   UNL A   1      35.131  33.255  31.348  1.00  0.00     0.010 A 
ATOM     34  C   UNL A   1      36.634  33.950  29.577  1.00  0.00     0.010 A 
ATOM     35  C   UNL A   1      36.427  33.306  30.807  1.00  0.00    -0.014 A 
BRANCH  35  36
ATOM     36  C   UNL A   1      37.578  32.671  31.494  1.00  0.00     0.031 A 
ATOM     37  C   UNL A   1      38.285  31.506  30.858  1.00  0.00     0.074 A 
ATOM     38  C   UNL A   1      37.915  33.074  32.735  1.00  0.00     0.049 A 
ATOM     39  N   UNL A   1      39.249  30.766  31.339  1.00  0.00    -0.248 NA
ATOM     40  C   UNL A   1      37.829  31.102  29.518  1.00  0.00     0.031 C 
ATOM     41  C   UNL A   1      37.249  34.139  33.488  1.00  0.00     0.029 A 
ATOM     42  N   UNL A   1      38.880  32.614  33.595  1.00  0.00    -0.354 N 
ATOM     43  C   UNL A   1      39.489  29.788  30.383  1.00  0.00     0.074 A 
ATOM     44  C   UNL A   1      38.550  30.010  29.305  1.00  0.00     0.031 C 
ATOM     45  C   UNL A   1      37.823  34.249  34.697  1.00  0.00     0.029 A 
ATOM     46  C   UNL A   1      38.880  33.250  34.815  1.00  0.00     0.049 A 
ATOM     47  H   UNL A   1      39.512  31.898  33.361  1.00  0.00     0.167 HD
ATOM     48  C   UNL A   1      40.429  28.813  30.386  1.00  0.00     0.034 A 
ATOM     49  C   UNL A   1      39.645  33.047  35.907  1.00  0.00     0.034 A 
ATOM     50  C   UNL A   1      41.396  28.631  31.433  1.00  0.00     0.049 A 
ATOM     51  C   UNL A   1      40.717  31.993  35.860  1.00  0.00     0.074 A 
ATOM     52  C   UNL A   1      42.446  27.732  31.488  1.00  0.00     0.029 A 
ATOM     53  N   UNL A   1      41.435  29.365  32.608  1.00  0.00    -0.354 N 
ATOM     54  N   UNL A   1      41.036  31.185  34.878  1.00  0.00    -0.248 NA
ATOM     55  C   UNL A   1      41.560  31.847  37.056  1.00  0.00     0.031 C 
ATOM     56  C   UNL A   1      43.117  27.919  32.701  1.00  0.00     0.029 A 
ATOM     57  C   UNL A   1      42.491  28.941  33.396  1.00  0.00     0.049 A 
ATOM     58  H   UNL A   1      40.805  30.084  32.847  1.00  0.00     0.167 HD
ATOM     59  C   UNL A   1      42.136  30.461  35.322  1.00  0.00     0.074 A 
ATOM     60  C   UNL A   1      42.441  30.940  36.655  1.00  0.00     0.031 C 
ATOM     61  C   UNL A   1      42.821  29.475  34.692  1.00  0.00     0.034 A 
BRANCH  48  62
ATOM     62  C   UNL A   1      40.501  27.910  29.184  1.00  0.00     0.023 A 
ATOM     63  C   UNL A   1      39.608  26.823  29.085  1.00  0.00     0.012 A 
ATOM     64  C   UNL A   1      41.403  28.161  28.132  1.00  0.00     0.148 A 
ATOM     65  C   UNL A   1      39.630  25.982  27.974  1.00  0.00     0.002 A 
ATOM     66  C   UNL A   1      41.392  27.342  27.008  1.00  0.00     0.091 A 
ATOM     67  F   UNL A   1      42.260  29.185  28.254  1.00  0.00    -0.205 F 
ATOM     68  C   UNL A   1      40.515  26.247  26.933  1.00  0.00     0.022 A 
BRANCH  66  69
ATOM     69  S   UNL A   1      42.443  27.644  25.583  1.00  0.00     0.127 S 
ATOM     70  O   UNL A   1      43.772  27.653  26.192  1.00  0.00    -0.237 OA
ATOM     71  O   UNL A   1      42.166  26.477  24.742  1.00  0.00    -0.237 OA
ATOM     72  O   UNL A   1      42.000  28.912  25.021  1.00  0.00    -0.744 OA
ENDBRANCH  66  69
ENDBRANCH  48  62
BRANCH  49  73
ATOM     73  C   UNL A   1      39.479  33.919  37.104  1.00  0.00     0.023 A 
ATOM     74  C   UNL A   1      39.906  35.260  37.037  1.00  0.00     0.012 A 
ATOM     75  C   UNL A   1      38.881  33.447  38.287  1.00  0.00     0.148 A 
ATOM     76  C   UNL A   1      39.767  36.107  38.138  1.00  0.00     0.002 A 
ATOM     77  C   UNL A   1      38.700  34.310  39.363  1.00  0.00     0.091 A 
ATOM     78  F   UNL A   1      38.495  32.164  38.338  1.00  0.00    -0.205 F 
ATOM     79  C   UNL A   1      39.155  35.636  39.295  1.00  0.00     0.022 A 
BRANCH  77  80
ATOM     80  S   UNL A   1      37.804  33.820  40.841  1.00  0.00     0.127 S 
ATOM     81  O   UNL A   1      38.785  32.978  41.521  1.00  0.00    -0.237 OA
ATOM     82  O   UNL A   1      37.547  35.109  41.486  1.00  0.00    -0.237 OA
ATOM     83  O   UNL A   1      36.606  33.145  40.361  1.00  0.00    -0.744 OA
ENDBRANCH  77  80
ENDBRANCH  49  73
BRANCH  61  84
ATOM     84  C   UNL A   1      43.992  28.864  35.414  1.00  0.00     0.023 A 
ATOM     85  C   UNL A   1      45.273  29.429  35.264  1.00  0.00     0.012 A 
ATOM     86  C   UNL A   1      43.807  27.791  36.309  1.00  0.00     0.148 A 
ATOM     87  C   UNL A   1      46.358  28.920  35.976  1.00  0.00     0.002 A 
ATOM     88  C   UNL A   1      44.885  27.317  37.047  1.00  0.00     0.091 A 
ATOM     89  F   UNL A   1      42.583  27.255  36.421  1.00  0.00    -0.205 F 
ATOM     90  C   UNL A   1      46.163  27.875  36.875  1.00  0.00     0.022 A 
BRANCH  88  91
ATOM     91  S   UNL A   1      44.704  26.037  38.294  1.00  0.00     0.127 S 
ATOM     92  O   UNL A   1      43.906  26.722  39.310  1.00  0.00    -0.237 OA
ATOM     93  O   UNL A   1      43.991  24.987  37.565  1.00  0.00    -0.237 OA
ATOM     94  O   UNL A   1      46.057  25.677  38.695  1.00  0.00    -0.744 OA
ENDBRANCH  88  91
ENDBRANCH  61  84
ENDBRANCH  35  36
ENDBRANCH  27  30
ENDBRANCH  25  26
ENDBRANCH  24  25
ENDBRANCH   1  24
TORSDOF 17
ENDMDL
MODEL 2
REMARK VINA RESULT:     -12.3      4.016      5.793
REMARK SMILES CC(=O)NCCc1c[nH]c2ccc(C(=O)NCCCCNC(=O)c3ccc(-c4c5nc(c(-c6cccc(S(=O)(=O)[O-])c6F)c6ccc([nH]6)c(-c6cccc(S(=O)(=O)[O-])c6F)c6nc(c(-c7cccc(S(=O)(=O)[O-])c7F)c7ccc4[nH]7)C=C6)C=C5)cc3)cc12
REMARK SMILES IDX 18 1 17 2 16 3 14 4 15 5 13 7 7 8 8 9 88 10 9 11 10 12 87 13
REMARK SMILES IDX 11 15 12 16 6 17 5 18 4 19 1 20 2 21 3 22 19 24 20 25 21 26
REMARK SMILES IDX 22 27 23 29 24 30 25 31 86 32 26 33 85 34 27 35 28 36 29 37
REMARK SMILES IDX 79 38 30 39 84 40 78 41 80 42 31 43 83 44 77 45 76 46 32 48
REMARK SMILES IDX 64 49 44 50 63 51 45 52 48 53 62 54 81 55 46 56 47 57 61 59
REMARK SMILES IDX 82 60 49 61 33 62 34 63 42 64 35 65 37 66 43 67 36 68 38 69
REMARK SMILES IDX 39 70 40 71 41 72 65 73 66 74 74 75 67 76 69 77 75 78 68 79
REMARK SMILES IDX 70 80 71 81 72 82 73 83 50 84 51 85 59 86 52 87 54 88 60 89
REMARK SMILES IDX 53 90 55 91 56 92 57 93 58 94
REMARK H PARENT 16 6 9 14 4 23 21 28 80 47 48 58
REMARK Flexibility Score: inf
ROOT
ATOM      1  C   UNL A   1      32.252  27.027  26.580  1.00  0.00     0.023 C 
ENDROOT
BRANCH   1   2
ATOM      2  C   UNL A   1      31.579  26.039  25.625  1.00  0.00     0.116 C 
BRANCH   2   3
ATOM      3  N   UNL A   1      30.776  25.085  26.359  1.00  0.00    -0.352 N 
ATOM      4  C   UNL A   1      30.998  23.795  26.766  1.00  0.00     0.251 C 
ATOM      5  O   UNL A   1      30.087  23.248  27.393  1.00  0.00    -0.269 OA
ATOM      6  H   UNL A   1      29.892  25.432  26.618  1.00  0.00     0.163 HD
BRANCH   4   7
ATOM      7  C   UNL A   1      32.263  23.032  26.532  1.00  0.00     0.040 A 
ATOM      8  C   UNL A   1      33.470  19.892  24.665  1.00  0.00    -0.021 A 
ATOM      9  C   UNL A   1      34.813  19.579  24.767  1.00  0.00     0.087 A 
ATOM     10  C   UNL A   1      33.262  21.065  25.459  1.00  0.00     0.003 A 
ATOM     11  N   UNL A   1      35.415  20.513  25.566  1.00  0.00    -0.361 N 
ATOM     12  C   UNL A   1      34.498  21.456  25.966  1.00  0.00     0.046 A 
ATOM     13  C   UNL A   1      32.134  21.854  25.768  1.00  0.00     0.024 A 
ATOM     14  H   UNL A   1      36.366  20.510  25.819  1.00  0.00     0.166 HD
ATOM     15  C   UNL A   1      34.670  22.624  26.710  1.00  0.00     0.027 A 
ATOM     16  C   UNL A   1      33.538  23.417  26.951  1.00  0.00     0.016 A 
BRANCH   8  17
ATOM     17  C   UNL A   1      32.440  19.181  23.838  1.00  0.00     0.059 C 
BRANCH  17  18
ATOM     18  C   UNL A   1      32.802  17.736  23.502  1.00  0.00     0.120 C 
BRANCH  18  19
ATOM     19  N   UNL A   1      32.275  16.788  24.470  1.00  0.00    -0.356 N 
ATOM     20  C   UNL A   1      34.446  15.839  25.131  1.00  0.00     0.114 C 
ATOM     21  C   UNL A   1      32.952  15.915  25.267  1.00  0.00     0.216 C 
ATOM     22  O   UNL A   1      32.339  15.229  26.082  1.00  0.00    -0.275 OA
ATOM     23  H   UNL A   1      31.294  16.773  24.560  1.00  0.00     0.163 HD
ENDBRANCH  18  19
ENDBRANCH  17  18
ENDBRANCH   8  17
ENDBRANCH   4   7
ENDBRANCH   2   3
ENDBRANCH   1   2
BRANCH   1  24
ATOM     24  C   UNL A   1      31.732  28.465  26.469  1.00  0.00     0.023 C 
BRANCH  24  25
ATOM     25  C   UNL A   1      32.767  29.495  26.024  1.00  0.00     0.116 C 
BRANCH  25  26
ATOM     26  N   UNL A   1      32.396  30.864  26.356  1.00  0.00    -0.352 N 
ATOM     27  C   UNL A   1      33.088  31.769  27.128  1.00  0.00     0.251 C 
ATOM     28  H   UNL A   1      31.544  31.182  25.980  1.00  0.00     0.163 HD
ATOM     29  O   UNL A   1      32.598  32.857  27.397  1.00  0.00    -0.269 OA
BRANCH  27  30
ATOM     30  C   UNL A   1      34.410  31.386  27.664  1.00  0.00     0.039 A 
ATOM     31  C   UNL A   1      35.363  32.384  27.882  1.00  0.00     0.014 A 
ATOM     32  C   UNL A   1      34.683  30.057  27.998  1.00  0.00     0.014 A 
ATOM     33  C   UNL A   1      36.569  32.060  28.503  1.00  0.00     0.010 A 
ATOM     34  C   UNL A   1      35.860  29.747  28.671  1.00  0.00     0.010 A 
ATOM     35  C   UNL A   1      36.811  30.745  28.936  1.00  0.00    -0.014 A 
BRANCH  35  36
ATOM     36  C   UNL A   1      38.039  30.392  29.690  1.00  0.00     0.031 A 
ATOM     37  C   UNL A   1      39.028  29.422  29.107  1.00  0.00     0.074 A 
ATOM     38  C   UNL A   1      38.206  30.861  30.943  1.00  0.00     0.049 A 
ATOM     39  N   UNL A   1      40.109  28.923  29.646  1.00  0.00    -0.248 NA
ATOM     40  C   UNL A   1      38.751  28.924  27.749  1.00  0.00     0.031 C 
ATOM     41  C   UNL A   1      37.272  31.743  31.647  1.00  0.00     0.029 A 
ATOM     42  N   UNL A   1      39.202  30.634  31.858  1.00  0.00    -0.354 N 
ATOM     43  C   UNL A   1      40.619  28.028  28.716  1.00  0.00     0.074 A 
ATOM     44  C   UNL A   1      39.714  28.028  27.587  1.00  0.00     0.031 C 
ATOM     45  C   UNL A   1      37.739  31.980  32.883  1.00  0.00     0.029 A 
ATOM     46  C   UNL A   1      38.990  31.252  33.069  1.00  0.00     0.049 A 
ATOM     47  H   UNL A   1      39.994  30.082  31.667  1.00  0.00     0.167 HD
ATOM     48  C   UNL A   1      41.756  27.294  28.780  1.00  0.00     0.034 A 
ATOM     49  C   UNL A   1      39.720  31.229  34.202  1.00  0.00     0.034 A 
ATOM     50  C   UNL A   1      42.681  27.339  29.879  1.00  0.00     0.049 A 
ATOM     51  C   UNL A   1      41.007  30.451  34.224  1.00  0.00     0.074 A 
ATOM     52  C   UNL A   1      43.905  26.706  30.001  1.00  0.00     0.029 A 
ATOM     53  N   UNL A   1      42.486  28.062  31.046  1.00  0.00    -0.354 N 
ATOM     54  N   UNL A   1      41.556  29.738  33.271  1.00  0.00    -0.248 NA
ATOM     55  C   UNL A   1      41.794  30.502  35.465  1.00  0.00     0.031 C 
ATOM     56  C   UNL A   1      44.448  27.041  31.245  1.00  0.00     0.029 A 
ATOM     57  C   UNL A   1      43.566  27.891  31.894  1.00  0.00     0.049 A 
ATOM     58  H   UNL A   1      41.695  28.615  31.243  1.00  0.00     0.167 HD
ATOM     59  C   UNL A   1      42.767  29.286  33.781  1.00  0.00     0.074 A 
ATOM     60  C   UNL A   1      42.881  29.822  35.122  1.00  0.00     0.031 C 
ATOM     61  C   UNL A   1      43.694  28.485  33.199  1.00  0.00     0.034 A 
BRANCH  48  62
ATOM     62  C   UNL A   1      42.099  26.433  27.594  1.00  0.00     0.023 A 
ATOM     63  C   UNL A   1      42.826  26.995  26.524  1.00  0.00     0.012 A 
ATOM     64  C   UNL A   1      41.758  25.068  27.557  1.00  0.00     0.148 A 
ATOM     65  C   UNL A   1      43.182  26.221  25.422  1.00  0.00     0.002 A 
ATOM     66  C   UNL A   1      42.151  24.292  26.472  1.00  0.00     0.091 A 
ATOM     67  F   UNL A   1      41.046  24.557  28.572  1.00  0.00    -0.205 F 
ATOM     68  C   UNL A   1      42.853  24.868  25.400  1.00  0.00     0.022 A 
BRANCH  66  69
ATOM     69  S   UNL A   1      41.839  22.525  26.384  1.00  0.00     0.127 S 
ATOM     70  O   UNL A   1      42.525  22.164  25.145  1.00  0.00    -0.237 OA
ATOM     71  O   UNL A   1      42.486  22.035  27.603  1.00  0.00    -0.237 OA
ATOM     72  O   UNL A   1      40.390  22.375  26.367  1.00  0.00    -0.744 OA
ENDBRANCH  66  69
ENDBRANCH  48  62
BRANCH  49  73
ATOM     73  C   UNL A   1      39.293  32.039  35.378  1.00  0.00     0.023 A 
ATOM     74  C   UNL A   1      38.445  31.455  36.339  1.00  0.00     0.012 A 
ATOM     75  C   UNL A   1      39.740  33.361  35.569  1.00  0.00     0.148 A 
ATOM     76  C   UNL A   1      38.024  32.182  37.453  1.00  0.00     0.002 A 
ATOM     77  C   UNL A   1      39.358  34.062  36.708  1.00  0.00     0.091 A 
ATOM     78  F   UNL A   1      40.534  33.906  34.636  1.00  0.00    -0.205 F 
ATOM     79  C   UNL A   1      38.488  33.480  37.643  1.00  0.00     0.022 A 
BRANCH  77  80
ATOM     80  S   UNL A   1      40.014  35.689  37.093  1.00  0.00     0.127 S 
ATOM     81  O   UNL A   1      39.603  36.463  35.925  1.00  0.00    -0.237 OA
ATOM     82  O   UNL A   1      39.307  36.021  38.331  1.00  0.00    -0.237 OA
ATOM     83  O   UNL A   1      41.449  35.498  37.260  1.00  0.00    -0.744 OA
ENDBRANCH  77  80
ENDBRANCH  49  73
BRANCH  61  84
ATOM     84  C   UNL A   1      44.933  28.160  33.990  1.00  0.00     0.023 A 
ATOM     85  C   UNL A   1      46.047  29.018  33.921  1.00  0.00     0.012 A 
ATOM     86  C   UNL A   1      44.959  27.058  34.868  1.00  0.00     0.148 A 
ATOM     87  C   UNL A   1      47.179  28.771  34.695  1.00  0.00     0.002 A 
ATOM     88  C   UNL A   1      46.074  26.843  35.669  1.00  0.00     0.091 A 
ATOM     89  F   UNL A   1      43.895  26.243  34.903  1.00  0.00    -0.205 F 
ATOM     90  C   UNL A   1      47.188  27.693  35.577  1.00  0.00     0.022 A 
BRANCH  88  91
ATOM     91  S   UNL A   1      46.133  25.535  36.899  1.00  0.00     0.127 S 
ATOM     92  O   UNL A   1      44.982  25.864  37.739  1.00  0.00    -0.237 OA
ATOM     93  O   UNL A   1      45.967  24.330  36.083  1.00  0.00    -0.237 OA
ATOM     94  O   UNL A   1      47.434  25.650  37.542  1.00  0.00    -0.744 OA
ENDBRANCH  88  91
ENDBRANCH  61  84
ENDBRANCH  35  36
ENDBRANCH  27  30
ENDBRANCH  25  26
ENDBRANCH  24  25
ENDBRANCH   1  24
TORSDOF 17
ENDMDL
MODEL 3
REMARK VINA RESULT:     -12.2      4.067      9.387
REMARK SMILES CC(=O)NCCc1c[nH]c2ccc(C(=O)NCCCCNC(=O)c3ccc(-c4c5nc(c(-c6cccc(S(=O)(=O)[O-])c6F)c6ccc([nH]6)c(-c6cccc(S(=O)(=O)[O-])c6F)c6nc(c(-c7cccc(S(=O)(=O)[O-])c7F)c7ccc4[nH]7)C=C6)C=C5)cc3)cc12
REMARK SMILES IDX 18 1 17 2 16 3 14 4 15 5 13 7 7 8 8 9 88 10 9 11 10 12 87 13
REMARK SMILES IDX 11 15 12 16 6 17 5 18 4 19 1 20 2 21 3 22 19 24 20 25 21 26
REMARK SMILES IDX 22 27 23 29 24 30 25 31 86 32 26 33 85 34 27 35 28 36 29 37
REMARK SMILES IDX 79 38 30 39 84 40 78 41 80 42 31 43 83 44 77 45 76 46 32 48
REMARK SMILES IDX 64 49 44 50 63 51 45 52 48 53 62 54 81 55 46 56 47 57 61 59
REMARK SMILES IDX 82 60 49 61 33 62 34 63 42 64 35 65 37 66 43 67 36 68 38 69
REMARK SMILES IDX 39 70 40 71 41 72 65 73 66 74 74 75 67 76 69 77 75 78 68 79
REMARK SMILES IDX 70 80 71 81 72 82 73 83 50 84 51 85 59 86 52 87 54 88 60 89
REMARK SMILES IDX 53 90 55 91 56 92 57 93 58 94
REMARK H PARENT 16 6 9 14 4 23 21 28 80 47 48 58
REMARK Flexibility Score: inf
ROOT
ATOM      1  C   UNL A   1      32.411  27.409  26.768  1.00  0.00     0.023 C 
ENDROOT
BRANCH   1   2
ATOM      2  C   UNL A   1      31.948  26.357  25.759  1.00  0.00     0.116 C 
BRANCH   2   3
ATOM      3  N   UNL A   1      31.108  25.367  26.399  1.00  0.00    -0.352 N 
ATOM      4  C   UNL A   1      31.294  24.046  26.713  1.00  0.00     0.251 C 
ATOM      5  O   UNL A   1      30.357  23.473  27.275  1.00  0.00    -0.269 OA
ATOM      6  H   UNL A   1      30.224  25.713  26.662  1.00  0.00     0.163 HD
BRANCH   4   7
ATOM      7  C   UNL A   1      32.550  23.276  26.453  1.00  0.00     0.040 A 
ATOM      8  C   UNL A   1      33.651  19.934  24.899  1.00  0.00    -0.021 A 
ATOM      9  C   UNL A   1      35.006  19.655  24.905  1.00  0.00     0.087 A 
ATOM     10  C   UNL A   1      33.491  21.198  25.551  1.00  0.00     0.003 A 
ATOM     11  N   UNL A   1      35.658  20.695  25.511  1.00  0.00    -0.361 N 
ATOM     12  C   UNL A   1      34.760  21.670  25.875  1.00  0.00     0.046 A 
ATOM     13  C   UNL A   1      32.379  22.006  25.867  1.00  0.00     0.024 A 
ATOM     14  H   UNL A   1      36.629  20.738  25.665  1.00  0.00     0.166 HD
ATOM     15  C   UNL A   1      34.973  22.928  26.440  1.00  0.00     0.027 A 
ATOM     16  C   UNL A   1      33.849  23.730  26.689  1.00  0.00     0.016 A 
BRANCH   8  17
ATOM     17  C   UNL A   1      32.564  19.106  24.280  1.00  0.00     0.059 C 
BRANCH  17  18
ATOM     18  C   UNL A   1      33.073  17.904  23.488  1.00  0.00     0.120 C 
BRANCH  18  19
ATOM     19  N   UNL A   1      32.663  16.636  24.069  1.00  0.00    -0.356 N 
ATOM     20  C   UNL A   1      34.862  16.037  24.996  1.00  0.00     0.114 C 
ATOM     21  C   UNL A   1      33.402  15.747  24.789  1.00  0.00     0.216 C 
ATOM     22  O   UNL A   1      32.865  14.748  25.263  1.00  0.00    -0.275 OA
ATOM     23  H   UNL A   1      31.722  16.385  23.920  1.00  0.00     0.163 HD
ENDBRANCH  18  19
ENDBRANCH  17  18
ENDBRANCH   8  17
ENDBRANCH   4   7
ENDBRANCH   2   3
ENDBRANCH   1   2
BRANCH   1  24
ATOM     24  C   UNL A   1      31.804  28.800  26.551  1.00  0.00     0.023 C 
BRANCH  24  25
ATOM     25  C   UNL A   1      32.758  29.837  25.964  1.00  0.00     0.116 C 
BRANCH  25  26
ATOM     26  N   UNL A   1      32.477  31.195  26.410  1.00  0.00    -0.352 N 
ATOM     27  C   UNL A   1      33.213  31.976  27.271  1.00  0.00     0.251 C 
ATOM     28  H   UNL A   1      31.658  31.606  26.050  1.00  0.00     0.163 HD
ATOM     29  O   UNL A   1      32.796  33.070  27.627  1.00  0.00    -0.269 OA
BRANCH  27  30
ATOM     30  C   UNL A   1      34.493  31.453  27.792  1.00  0.00     0.039 A 
ATOM     31  C   UNL A   1      35.566  32.334  27.947  1.00  0.00     0.014 A 
ATOM     32  C   UNL A   1      34.610  30.115  28.173  1.00  0.00     0.014 A 
ATOM     33  C   UNL A   1      36.741  31.887  28.554  1.00  0.00     0.010 A 
ATOM     34  C   UNL A   1      35.759  29.687  28.831  1.00  0.00     0.010 A 
ATOM     35  C   UNL A   1      36.832  30.569  29.033  1.00  0.00    -0.014 A 
BRANCH  35  36
ATOM     36  C   UNL A   1      38.027  30.096  29.773  1.00  0.00     0.031 A 
ATOM     37  C   UNL A   1      38.318  30.624  31.150  1.00  0.00     0.074 A 
ATOM     38  C   UNL A   1      38.904  29.275  29.161  1.00  0.00     0.049 A 
ATOM     39  N   UNL A   1      39.353  30.399  31.917  1.00  0.00    -0.248 NA
ATOM     40  C   UNL A   1      37.330  31.549  31.731  1.00  0.00     0.031 C 
ATOM     41  C   UNL A   1      38.772  28.763  27.796  1.00  0.00     0.029 A 
ATOM     42  N   UNL A   1      40.097  28.756  29.596  1.00  0.00    -0.354 N 
ATOM     43  C   UNL A   1      39.162  31.180  33.049  1.00  0.00     0.074 A 
ATOM     44  C   UNL A   1      37.926  31.909  32.859  1.00  0.00     0.031 C 
ATOM     45  C   UNL A   1      39.841  28.004  27.505  1.00  0.00     0.029 A 
ATOM     46  C   UNL A   1      40.745  27.995  28.650  1.00  0.00     0.049 A 
ATOM     47  H   UNL A   1      40.455  28.912  30.499  1.00  0.00     0.167 HD
ATOM     48  C   UNL A   1      39.930  31.261  34.162  1.00  0.00     0.034 A 
ATOM     49  C   UNL A   1      41.935  27.364  28.701  1.00  0.00     0.034 A 
ATOM     50  C   UNL A   1      41.127  30.493  34.370  1.00  0.00     0.049 A 
ATOM     51  C   UNL A   1      42.739  27.426  29.971  1.00  0.00     0.074 A 
ATOM     52  C   UNL A   1      41.926  30.434  35.498  1.00  0.00     0.029 A 
ATOM     53  N   UNL A   1      41.697  29.648  33.430  1.00  0.00    -0.354 N 
ATOM     54  N   UNL A   1      42.460  28.041  31.094  1.00  0.00    -0.248 NA
ATOM     55  C   UNL A   1      44.004  26.677  29.995  1.00  0.00     0.031 C 
ATOM     56  C   UNL A   1      42.983  29.556  35.238  1.00  0.00     0.029 A 
ATOM     57  C   UNL A   1      42.837  29.062  33.952  1.00  0.00     0.049 A 
ATOM     58  H   UNL A   1      41.343  29.489  32.526  1.00  0.00     0.167 HD
ATOM     59  C   UNL A   1      43.493  27.726  31.969  1.00  0.00     0.074 A 
ATOM     60  C   UNL A   1      44.395  26.849  31.251  1.00  0.00     0.031 C 
ATOM     61  C   UNL A   1      43.688  28.139  33.246  1.00  0.00     0.034 A 
BRANCH  48  62
ATOM     62  C   UNL A   1      39.457  32.160  35.272  1.00  0.00     0.023 A 
ATOM     63  C   UNL A   1      38.579  31.645  36.248  1.00  0.00     0.012 A 
ATOM     64  C   UNL A   1      39.917  33.486  35.388  1.00  0.00     0.148 A 
ATOM     65  C   UNL A   1      38.141  32.442  37.303  1.00  0.00     0.002 A 
ATOM     66  C   UNL A   1      39.507  34.263  36.466  1.00  0.00     0.091 A 
ATOM     67  F   UNL A   1      40.733  33.966  34.438  1.00  0.00    -0.205 F 
ATOM     68  C   UNL A   1      38.612  33.747  37.417  1.00  0.00     0.022 A 
BRANCH  66  69
ATOM     69  S   UNL A   1      40.115  35.931  36.741  1.00  0.00     0.127 S 
ATOM     70  O   UNL A   1      41.546  35.697  36.925  1.00  0.00    -0.237 OA
ATOM     71  O   UNL A   1      39.763  36.599  35.486  1.00  0.00    -0.237 OA
ATOM     72  O   UNL A   1      39.403  36.428  37.910  1.00  0.00    -0.744 OA
ENDBRANCH  66  69
ENDBRANCH  48  62
BRANCH  49  73
ATOM     73  C   UNL A   1      42.395  26.549  27.541  1.00  0.00     0.023 A 
ATOM     74  C   UNL A   1      43.205  27.153  26.560  1.00  0.00     0.012 A 
ATOM     75  C   UNL A   1      42.067  25.186  27.417  1.00  0.00     0.148 A 
ATOM     76  C   UNL A   1      43.655  26.422  25.459  1.00  0.00     0.002 A 
ATOM     77  C   UNL A   1      42.561  24.451  26.345  1.00  0.00     0.091 A 
ATOM     78  F   UNL A   1      41.282  24.631  28.353  1.00  0.00    -0.205 F 
ATOM     79  C   UNL A   1      43.342  25.070  25.357  1.00  0.00     0.022 A 
BRANCH  77  80
ATOM     80  S   UNL A   1      42.313  22.676  26.208  1.00  0.00     0.127 S 
ATOM     81  O   UNL A   1      42.979  22.377  24.943  1.00  0.00    -0.237 OA
ATOM     82  O   UNL A   1      43.003  22.177  27.399  1.00  0.00    -0.237 OA
ATOM     83  O   UNL A   1      40.870  22.484  26.232  1.00  0.00    -0.744 OA
ENDBRANCH  77  80
ENDBRANCH  49  73
BRANCH  61  84
ATOM     84  C   UNL A   1      44.904  27.626  33.970  1.00  0.00     0.023 A 
ATOM     85  C   UNL A   1      46.118  28.333  33.875  1.00  0.00     0.012 A 
ATOM     86  C   UNL A   1      44.819  26.500  34.813  1.00  0.00     0.148 A 
ATOM     87  C   UNL A   1      47.238  27.912  34.590  1.00  0.00     0.002 A 
ATOM     88  C   UNL A   1      45.928  26.113  35.556  1.00  0.00     0.091 A 
ATOM     89  F   UNL A   1      43.659  25.831  34.872  1.00  0.00    -0.205 F 
ATOM     90  C   UNL A   1      47.141  26.812  35.439  1.00  0.00     0.022 A 
BRANCH  88  91
ATOM     91  S   UNL A   1      45.863  24.766  36.742  1.00  0.00     0.127 S 
ATOM     92  O   UNL A   1      46.227  23.619  35.912  1.00  0.00    -0.237 OA
ATOM     93  O   UNL A   1      46.881  25.158  37.719  1.00  0.00    -0.237 OA
ATOM     94  O   UNL A   1      44.503  24.758  37.263  1.00  0.00    -0.744 OA
ENDBRANCH  88  91
ENDBRANCH  61  84
ENDBRANCH  35  36
ENDBRANCH  27  30
ENDBRANCH  25  26
ENDBRANCH  24  25
ENDBRANCH   1  24
TORSDOF 17
ENDMDL
