MODEL 1
REMARK VINA RESULT:     -12.8      0.000      0.000
REMARK SMILES O=C(NCCCCNC(=O)[C@@H]1CC=CC[C@@H]1C(=O)Nc1sc2c(c1C(=O)N1CCCCC1)CCCC2)c1ccc(-c2c3nc(c(-c4cccc(S(=O)(=O)[O-])c4F)c4ccc([nH]4)c(-c4cccc(S(=O)(=O)[O-])c4F)c4nc(c(-c5cccc(S(=O)(=O)[O-])c5F)c5ccc2[nH]5)C=C4)C=C3)cc1
REMARK SMILES IDX 5 1 4 2 3 3 1 4 2 5 37 7 38 8 99 9 39 10 98 11 40 12 41 13
REMARK SMILES IDX 42 14 92 15 43 16 97 17 91 18 93 19 44 20 96 21 90 22 89 23
REMARK SMILES IDX 45 25 77 26 57 27 76 28 58 29 61 30 75 31 94 32 59 33 60 34
REMARK SMILES IDX 74 36 95 37 62 38 46 39 47 40 55 41 48 42 50 43 56 44 49 45
REMARK SMILES IDX 51 46 52 47 53 48 54 49 78 50 79 51 87 52 80 53 82 54 88 55
REMARK SMILES IDX 81 56 83 57 84 58 85 59 86 60 63 61 64 62 72 63 65 64 67 65
REMARK SMILES IDX 73 66 66 67 68 68 69 69 70 70 71 71 6 72 7 73 8 74 9 75
REMARK SMILES IDX 10 77 11 78 12 79 16 80 13 81 15 82 14 83 17 84 18 85 19 86
REMARK SMILES IDX 20 88 21 89 24 90 22 91 23 92 36 93 33 94 35 95 34 96 25 97
REMARK SMILES IDX 26 98 27 99 28 100 32 101 29 102 31 103 30 104
REMARK H PARENT 3 6 93 24 61 35 8 76 19 87
REMARK Flexibility Score: inf
ROOT
ATOM      1  C   UNL A   1      32.056  31.541  27.149  1.00  0.00     0.023 C 
ENDROOT
BRANCH   1   2
ATOM      2  C   UNL A   1      33.143  32.607  27.085  1.00  0.00     0.116 C 
BRANCH   2   3
ATOM      3  N   UNL A   1      32.728  33.871  27.673  1.00  0.00    -0.352 N 
ATOM      4  O   UNL A   1      32.629  35.499  29.222  1.00  0.00    -0.269 OA
ATOM      5  C   UNL A   1      33.217  34.519  28.785  1.00  0.00     0.251 C 
ATOM      6  H   UNL A   1      31.990  34.329  27.210  1.00  0.00     0.163 HD
BRANCH   5   7
ATOM      7  C   UNL A   1      34.433  34.007  29.456  1.00  0.00     0.039 A 
ATOM      8  C   UNL A   1      35.706  34.428  29.058  1.00  0.00     0.014 A 
ATOM      9  C   UNL A   1      34.291  33.094  30.503  1.00  0.00     0.014 A 
ATOM     10  C   UNL A   1      36.837  33.834  29.608  1.00  0.00     0.010 A 
ATOM     11  C   UNL A   1      35.429  32.558  31.108  1.00  0.00     0.010 A 
ATOM     12  C   UNL A   1      36.710  32.899  30.645  1.00  0.00    -0.014 A 
BRANCH  12  13
ATOM     13  C   UNL A   1      37.917  32.320  31.287  1.00  0.00     0.031 A 
ATOM     14  C   UNL A   1      38.644  31.167  30.657  1.00  0.00     0.074 A 
ATOM     15  C   UNL A   1      38.314  32.799  32.481  1.00  0.00     0.049 A 
ATOM     16  N   UNL A   1      39.646  30.470  31.126  1.00  0.00    -0.248 NA
ATOM     17  C   UNL A   1      38.177  30.731  29.332  1.00  0.00     0.031 C 
ATOM     18  C   UNL A   1      37.667  33.896  33.204  1.00  0.00     0.029 A 
ATOM     19  N   UNL A   1      39.328  32.401  33.315  1.00  0.00    -0.354 N 
ATOM     20  C   UNL A   1      39.898  29.482  30.183  1.00  0.00     0.074 A 
ATOM     21  C   UNL A   1      38.941  29.669  29.113  1.00  0.00     0.031 C 
ATOM     22  C   UNL A   1      38.284  34.071  34.380  1.00  0.00     0.029 A 
ATOM     23  C   UNL A   1      39.330  33.063  34.521  1.00  0.00     0.049 A 
ATOM     24  H   UNL A   1      39.988  31.711  33.074  1.00  0.00     0.167 HD
ATOM     25  C   UNL A   1      40.843  28.511  30.205  1.00  0.00     0.034 A 
ATOM     26  C   UNL A   1      40.056  32.856  35.635  1.00  0.00     0.034 A 
ATOM     27  C   UNL A   1      41.800  28.344  31.268  1.00  0.00     0.049 A 
ATOM     28  C   UNL A   1      41.095  31.772  35.641  1.00  0.00     0.074 A 
ATOM     29  C   UNL A   1      42.845  27.441  31.350  1.00  0.00     0.029 A 
ATOM     30  N   UNL A   1      41.815  29.079  32.443  1.00  0.00    -0.354 N 
ATOM     31  N   UNL A   1      41.403  30.924  34.691  1.00  0.00    -0.248 NA
ATOM     32  C   UNL A   1      41.908  31.635  36.858  1.00  0.00     0.031 C 
ATOM     33  C   UNL A   1      43.463  27.600  32.594  1.00  0.00     0.029 A 
ATOM     34  C   UNL A   1      42.836  28.637  33.267  1.00  0.00     0.049 A 
ATOM     35  H   UNL A   1      41.191  29.809  32.661  1.00  0.00     0.167 HD
ATOM     36  C   UNL A   1      42.469  30.179  35.175  1.00  0.00     0.074 A 
ATOM     37  C   UNL A   1      42.756  30.677  36.505  1.00  0.00     0.031 C 
ATOM     38  C   UNL A   1      43.146  29.172  34.570  1.00  0.00     0.034 A 
BRANCH  25  39
ATOM     39  C   UNL A   1      40.889  27.552  29.042  1.00  0.00     0.023 A 
ATOM     40  C   UNL A   1      40.030  26.434  29.013  1.00  0.00     0.012 A 
ATOM     41  C   UNL A   1      41.761  27.777  27.958  1.00  0.00     0.148 A 
ATOM     42  C   UNL A   1      40.075  25.530  27.953  1.00  0.00     0.002 A 
ATOM     43  C   UNL A   1      41.766  26.897  26.880  1.00  0.00     0.091 A 
ATOM     44  F   UNL A   1      42.584  28.834  28.005  1.00  0.00    -0.205 F 
ATOM     45  C   UNL A   1      40.935  25.766  26.884  1.00  0.00     0.022 A 
BRANCH  43  46
ATOM     46  S   UNL A   1      42.780  27.166  25.422  1.00  0.00     0.127 S 
ATOM     47  O   UNL A   1      44.105  27.340  26.013  1.00  0.00    -0.237 OA
ATOM     48  O   UNL A   1      42.602  25.913  24.686  1.00  0.00    -0.237 OA
ATOM     49  O   UNL A   1      42.224  28.338  24.760  1.00  0.00    -0.744 OA
ENDBRANCH  43  46
ENDBRANCH  25  39
BRANCH  26  50
ATOM     50  C   UNL A   1      39.818  33.721  36.822  1.00  0.00     0.023 A 
ATOM     51  C   UNL A   1      40.159  35.085  36.769  1.00  0.00     0.012 A 
ATOM     52  C   UNL A   1      39.169  33.215  37.967  1.00  0.00     0.148 A 
ATOM     53  C   UNL A   1      39.872  35.928  37.842  1.00  0.00     0.002 A 
ATOM     54  C   UNL A   1      38.835  34.071  39.007  1.00  0.00     0.091 A 
ATOM     55  F   UNL A   1      38.855  31.912  37.992  1.00  0.00    -0.205 F 
ATOM     56  C   UNL A   1      39.199  35.426  38.954  1.00  0.00     0.022 A 
BRANCH  54  57
ATOM     57  S   UNL A   1      37.847  33.548  40.412  1.00  0.00     0.127 S 
ATOM     58  O   UNL A   1      36.648  33.030  39.757  1.00  0.00    -0.237 OA
ATOM     59  O   UNL A   1      38.707  32.530  41.018  1.00  0.00    -0.237 OA
ATOM     60  O   UNL A   1      37.651  34.738  41.228  1.00  0.00    -0.744 OA
ENDBRANCH  54  57
ENDBRANCH  26  50
BRANCH  38  61
ATOM     61  C   UNL A   1      44.314  28.565  35.300  1.00  0.00     0.023 A 
ATOM     62  C   UNL A   1      45.612  29.081  35.118  1.00  0.00     0.012 A 
ATOM     63  C   UNL A   1      44.097  27.555  36.260  1.00  0.00     0.148 A 
ATOM     64  C   UNL A   1      46.678  28.590  35.873  1.00  0.00     0.002 A 
ATOM     65  C   UNL A   1      45.154  27.110  37.043  1.00  0.00     0.091 A 
ATOM     66  F   UNL A   1      42.856  27.066  36.401  1.00  0.00    -0.205 F 
ATOM     67  C   UNL A   1      46.447  27.618  36.844  1.00  0.00     0.022 A 
BRANCH  65  68
ATOM     68  S   UNL A   1      44.932  25.938  38.387  1.00  0.00     0.127 S 
ATOM     69  O   UNL A   1      44.278  24.822  37.704  1.00  0.00    -0.237 OA
ATOM     70  O   UNL A   1      46.311  25.678  38.798  1.00  0.00    -0.237 OA
ATOM     71  O   UNL A   1      44.118  26.615  39.386  1.00  0.00    -0.744 OA
ENDBRANCH  65  68
ENDBRANCH  38  61
ENDBRANCH  12  13
ENDBRANCH   5   7
ENDBRANCH   2   3
ENDBRANCH   1   2
BRANCH   1  72
ATOM     72  C   UNL A   1      32.562  30.104  27.212  1.00  0.00     0.023 C 
BRANCH  72  73
ATOM     73  C   UNL A   1      31.958  29.157  26.179  1.00  0.00     0.116 C 
BRANCH  73  74
ATOM     74  N   UNL A   1      31.429  27.922  26.743  1.00  0.00    -0.356 N 
ATOM     75  C   UNL A   1      31.434  26.657  26.199  1.00  0.00     0.224 C 
ATOM     76  H   UNL A   1      31.012  28.002  27.631  1.00  0.00     0.163 HD
ATOM     77  O   UNL A   1      31.307  25.694  26.950  1.00  0.00    -0.275 OA
BRANCH  75  78
ATOM     78  C   UNL A   1      31.648  26.539  24.699  1.00  0.00     0.095 C 
ATOM     79  C   UNL A   1      30.323  26.668  23.917  1.00  0.00     0.041 C 
ATOM     80  C   UNL A   1      32.497  25.343  24.168  1.00  0.00     0.095 C 
ATOM     81  C   UNL A   1      30.526  26.544  22.431  1.00  0.00    -0.030 C 
ATOM     82  C   UNL A   1      32.881  25.814  22.741  1.00  0.00     0.041 C 
ATOM     83  C   UNL A   1      31.701  26.190  21.894  1.00  0.00    -0.030 C 
BRANCH  80  84
ATOM     84  C   UNL A   1      31.733  23.998  24.268  1.00  0.00     0.229 C 
ATOM     85  O   UNL A   1      30.577  23.904  23.834  1.00  0.00    -0.274 OA
ATOM     86  N   UNL A   1      32.230  22.844  24.805  1.00  0.00    -0.317 N 
ATOM     87  H   UNL A   1      31.577  22.116  24.918  1.00  0.00     0.170 HD
BRANCH  86  88
ATOM     88  C   UNL A   1      33.510  22.550  25.212  1.00  0.00     0.108 A 
ATOM     89  S   UNL A   1      34.341  23.673  26.181  1.00  0.00    -0.122 S 
ATOM     90  C   UNL A   1      34.210  21.360  25.011  1.00  0.00     0.078 A 
ATOM     91  C   UNL A   1      35.806  22.868  25.863  1.00  0.00     0.011 A 
ATOM     92  C   UNL A   1      35.608  21.585  25.368  1.00  0.00    -0.019 A 
ATOM     93  C   UNL A   1      37.133  23.523  26.105  1.00  0.00     0.047 C 
ATOM     94  C   UNL A   1      36.786  20.682  25.138  1.00  0.00     0.037 C 
ATOM     95  C   UNL A   1      38.254  22.733  25.415  1.00  0.00     0.006 C 
ATOM     96  C   UNL A   1      38.106  21.238  25.687  1.00  0.00     0.005 C 
BRANCH  90  97
ATOM     97  C   UNL A   1      33.548  20.221  24.324  1.00  0.00     0.257 C 
ATOM     98  O   UNL A   1      32.856  20.392  23.319  1.00  0.00    -0.269 OA
ATOM     99  N   UNL A   1      33.842  18.934  24.754  1.00  0.00    -0.339 N 
ATOM    100  C   UNL A   1      34.338  17.980  23.768  1.00  0.00     0.120 C 
ATOM    101  C   UNL A   1      33.241  18.390  25.964  1.00  0.00     0.120 C 
ATOM    102  C   UNL A   1      33.362  16.839  23.492  1.00  0.00     0.022 C 
ATOM    103  C   UNL A   1      32.246  17.268  25.679  1.00  0.00     0.022 C 
ATOM    104  C   UNL A   1      32.882  16.202  24.793  1.00  0.00     0.004 C 
ENDBRANCH  90  97
ENDBRANCH  86  88
ENDBRANCH  80  84
ENDBRANCH  75  78
ENDBRANCH  73  74
ENDBRANCH  72  73
ENDBRANCH   1  72
TORSDOF 17
ENDMDL
MODEL 2
REMARK VINA RESULT:     -11.9      2.449      7.681
REMARK SMILES O=C(NCCCCNC(=O)[C@@H]1CC=CC[C@@H]1C(=O)Nc1sc2c(c1C(=O)N1CCCCC1)CCCC2)c1ccc(-c2c3nc(c(-c4cccc(S(=O)(=O)[O-])c4F)c4ccc([nH]4)c(-c4cccc(S(=O)(=O)[O-])c4F)c4nc(c(-c5cccc(S(=O)(=O)[O-])c5F)c5ccc2[nH]5)C=C4)C=C3)cc1
REMARK SMILES IDX 5 1 4 2 3 3 1 4 2 5 37 7 38 8 99 9 39 10 98 11 40 12 41 13
REMARK SMILES IDX 42 14 92 15 43 16 97 17 91 18 93 19 44 20 96 21 90 22 89 23
REMARK SMILES IDX 45 25 77 26 57 27 76 28 58 29 61 30 75 31 94 32 59 33 60 34
REMARK SMILES IDX 74 36 95 37 62 38 46 39 47 40 55 41 48 42 50 43 56 44 49 45
REMARK SMILES IDX 51 46 52 47 53 48 54 49 78 50 79 51 87 52 80 53 82 54 88 55
REMARK SMILES IDX 81 56 83 57 84 58 85 59 86 60 63 61 64 62 72 63 65 64 67 65
REMARK SMILES IDX 73 66 66 67 68 68 69 69 70 70 71 71 6 72 7 73 8 74 9 75
REMARK SMILES IDX 10 77 11 78 12 79 16 80 13 81 15 82 14 83 17 84 18 85 19 86
REMARK SMILES IDX 20 88 21 89 24 90 22 91 23 92 36 93 33 94 35 95 34 96 25 97
REMARK SMILES IDX 26 98 27 99 28 100 32 101 29 102 31 103 30 104
REMARK H PARENT 3 6 93 24 61 35 8 76 19 87
REMARK Flexibility Score: inf
ROOT
ATOM      1  C   UNL A   1      32.979  30.453  26.512  1.00  0.00     0.023 C 
ENDROOT
BRANCH   1   2
ATOM      2  C   UNL A   1      33.962  30.781  27.630  1.00  0.00     0.116 C 
BRANCH   2   3
ATOM      3  N   UNL A   1      33.959  32.191  27.985  1.00  0.00    -0.352 N 
ATOM      4  O   UNL A   1      34.562  34.041  29.114  1.00  0.00    -0.269 OA
ATOM      5  C   UNL A   1      34.820  32.886  28.804  1.00  0.00     0.251 C 
ATOM      6  H   UNL A   1      33.238  32.726  27.583  1.00  0.00     0.163 HD
BRANCH   5   7
ATOM      7  C   UNL A   1      36.036  32.220  29.325  1.00  0.00     0.039 A 
ATOM      8  C   UNL A   1      37.310  32.630  28.918  1.00  0.00     0.014 A 
ATOM      9  C   UNL A   1      35.892  31.171  30.235  1.00  0.00     0.014 A 
ATOM     10  C   UNL A   1      38.430  31.905  29.312  1.00  0.00     0.010 A 
ATOM     11  C   UNL A   1      37.025  30.495  30.691  1.00  0.00     0.010 A 
ATOM     12  C   UNL A   1      38.300  30.835  30.209  1.00  0.00    -0.014 A 
BRANCH  12  13
ATOM     13  C   UNL A   1      39.501  30.108  30.691  1.00  0.00     0.031 A 
ATOM     14  C   UNL A   1      40.278  30.609  31.876  1.00  0.00     0.074 A 
ATOM     15  C   UNL A   1      39.927  29.027  30.011  1.00  0.00     0.049 A 
ATOM     16  N   UNL A   1      41.405  30.165  32.368  1.00  0.00    -0.248 NA
ATOM     17  C   UNL A   1      39.723  31.768  32.592  1.00  0.00     0.031 C 
ATOM     18  C   UNL A   1      39.271  28.467  28.828  1.00  0.00     0.029 A 
ATOM     19  N   UNL A   1      41.031  28.233  30.189  1.00  0.00    -0.354 N 
ATOM     20  C   UNL A   1      41.723  31.018  33.418  1.00  0.00     0.074 A 
ATOM     21  C   UNL A   1      40.669  32.007  33.490  1.00  0.00     0.031 C 
ATOM     22  C   UNL A   1      39.994  27.434  28.373  1.00  0.00     0.029 A 
ATOM     23  C   UNL A   1      41.192  27.297  29.195  1.00  0.00     0.049 A 
ATOM     24  H   UNL A   1      41.647  28.324  30.952  1.00  0.00     0.167 HD
ATOM     25  C   UNL A   1      42.794  30.976  34.248  1.00  0.00     0.034 A 
ATOM     26  C   UNL A   1      42.208  26.452  28.940  1.00  0.00     0.034 A 
ATOM     27  C   UNL A   1      43.829  29.978  34.175  1.00  0.00     0.049 A 
ATOM     28  C   UNL A   1      43.388  26.423  29.868  1.00  0.00     0.074 A 
ATOM     29  C   UNL A   1      44.914  29.803  35.016  1.00  0.00     0.029 A 
ATOM     30  N   UNL A   1      43.921  29.001  33.196  1.00  0.00    -0.354 N 
ATOM     31  N   UNL A   1      43.614  27.157  30.931  1.00  0.00    -0.248 NA
ATOM     32  C   UNL A   1      44.436  25.434  29.584  1.00  0.00     0.031 C 
ATOM     33  C   UNL A   1      45.686  28.749  34.517  1.00  0.00     0.029 A 
ATOM     34  C   UNL A   1      45.056  28.233  33.396  1.00  0.00     0.049 A 
ATOM     35  H   UNL A   1      43.275  28.872  32.464  1.00  0.00     0.167 HD
ATOM     36  C   UNL A   1      44.808  26.693  31.467  1.00  0.00     0.074 A 
ATOM     37  C   UNL A   1      45.258  25.614  30.612  1.00  0.00     0.031 C 
ATOM     38  C   UNL A   1      45.470  27.127  32.568  1.00  0.00     0.034 A 
BRANCH  25  39
ATOM     39  C   UNL A   1      42.900  32.043  35.308  1.00  0.00     0.023 A 
ATOM     40  C   UNL A   1      43.533  33.269  35.017  1.00  0.00     0.012 A 
ATOM     41  C   UNL A   1      42.340  31.846  36.586  1.00  0.00     0.148 A 
ATOM     42  C   UNL A   1      43.654  34.257  35.993  1.00  0.00     0.002 A 
ATOM     43  C   UNL A   1      42.421  32.855  37.540  1.00  0.00     0.091 A 
ATOM     44  F   UNL A   1      41.755  30.670  36.856  1.00  0.00    -0.205 F 
ATOM     45  C   UNL A   1      43.091  34.054  37.251  1.00  0.00     0.022 A 
BRANCH  43  46
ATOM     46  S   UNL A   1      41.653  32.715  39.158  1.00  0.00     0.127 S 
ATOM     47  O   UNL A   1      41.949  34.023  39.739  1.00  0.00    -0.237 OA
ATOM     48  O   UNL A   1      40.245  32.506  38.816  1.00  0.00    -0.237 OA
ATOM     49  O   UNL A   1      42.291  31.577  39.805  1.00  0.00    -0.744 OA
ENDBRANCH  43  46
ENDBRANCH  25  39
BRANCH  26  50
ATOM     50  C   UNL A   1      42.123  25.558  27.753  1.00  0.00     0.023 A 
ATOM     51  C   UNL A   1      42.427  26.065  26.477  1.00  0.00     0.012 A 
ATOM     52  C   UNL A   1      41.835  24.186  27.901  1.00  0.00     0.148 A 
ATOM     53  C   UNL A   1      42.429  25.224  25.364  1.00  0.00     0.002 A 
ATOM     54  C   UNL A   1      41.895  23.344  26.799  1.00  0.00     0.091 A 
ATOM     55  F   UNL A   1      41.549  23.728  29.128  1.00  0.00    -0.205 F 
ATOM     56  C   UNL A   1      42.177  23.864  25.526  1.00  0.00     0.022 A 
BRANCH  54  57
ATOM     57  S   UNL A   1      41.726  21.561  26.931  1.00  0.00     0.127 S 
ATOM     58  O   UNL A   1      40.402  21.432  27.536  1.00  0.00    -0.237 OA
ATOM     59  O   UNL A   1      41.807  21.150  25.530  1.00  0.00    -0.237 OA
ATOM     60  O   UNL A   1      42.838  21.115  27.759  1.00  0.00    -0.744 OA
ENDBRANCH  54  57
ENDBRANCH  26  50
BRANCH  38  61
ATOM     61  C   UNL A   1      46.728  26.405  32.968  1.00  0.00     0.023 A 
ATOM     62  C   UNL A   1      47.988  26.920  32.607  1.00  0.00     0.012 A 
ATOM     63  C   UNL A   1      46.655  25.273  33.806  1.00  0.00     0.148 A 
ATOM     64  C   UNL A   1      49.157  26.310  33.065  1.00  0.00     0.002 A 
ATOM     65  C   UNL A   1      47.821  24.705  34.301  1.00  0.00     0.091 A 
ATOM     66  F   UNL A   1      45.444  24.790  34.120  1.00  0.00    -0.205 F 
ATOM     67  C   UNL A   1      49.073  25.215  33.923  1.00  0.00     0.022 A 
BRANCH  65  68
ATOM     68  S   UNL A   1      47.810  23.360  35.492  1.00  0.00     0.127 S 
ATOM     69  O   UNL A   1      46.833  22.447  34.901  1.00  0.00    -0.237 OA
ATOM     70  O   UNL A   1      49.194  22.891  35.438  1.00  0.00    -0.237 OA
ATOM     71  O   UNL A   1      47.417  23.948  36.765  1.00  0.00    -0.744 OA
ENDBRANCH  65  68
ENDBRANCH  38  61
ENDBRANCH  12  13
ENDBRANCH   5   7
ENDBRANCH   2   3
ENDBRANCH   1   2
BRANCH   1  72
ATOM     72  C   UNL A   1      31.823  29.542  26.913  1.00  0.00     0.023 C 
BRANCH  72  73
ATOM     73  C   UNL A   1      32.179  28.066  27.061  1.00  0.00     0.116 C 
BRANCH  73  74
ATOM     74  N   UNL A   1      31.025  27.177  27.099  1.00  0.00    -0.356 N 
ATOM     75  C   UNL A   1      30.638  26.231  26.176  1.00  0.00     0.224 C 
ATOM     76  H   UNL A   1      30.445  27.264  27.890  1.00  0.00     0.163 HD
ATOM     77  O   UNL A   1      29.890  25.328  26.540  1.00  0.00    -0.275 OA
BRANCH  75  78
ATOM     78  C   UNL A   1      31.208  26.345  24.772  1.00  0.00     0.095 C 
ATOM     79  C   UNL A   1      30.097  26.519  23.713  1.00  0.00     0.041 C 
ATOM     80  C   UNL A   1      32.256  25.285  24.315  1.00  0.00     0.095 C 
ATOM     81  C   UNL A   1      30.654  26.624  22.319  1.00  0.00    -0.030 C 
ATOM     82  C   UNL A   1      32.924  25.979  23.099  1.00  0.00     0.041 C 
ATOM     83  C   UNL A   1      31.948  26.414  22.045  1.00  0.00    -0.030 C 
BRANCH  80  84
ATOM     84  C   UNL A   1      31.609  23.902  24.050  1.00  0.00     0.229 C 
ATOM     85  O   UNL A   1      30.504  23.828  23.495  1.00  0.00    -0.274 OA
ATOM     86  N   UNL A   1      32.161  22.695  24.374  1.00  0.00    -0.317 N 
ATOM     87  H   UNL A   1      31.567  21.918  24.264  1.00  0.00     0.170 HD
BRANCH  86  88
ATOM     88  C   UNL A   1      33.425  22.407  24.832  1.00  0.00     0.108 A 
ATOM     89  S   UNL A   1      34.274  23.596  25.699  1.00  0.00    -0.122 S 
ATOM     90  C   UNL A   1      34.091  21.183  24.762  1.00  0.00     0.078 A 
ATOM     91  C   UNL A   1      35.719  22.722  25.490  1.00  0.00     0.011 A 
ATOM     92  C   UNL A   1      35.489  21.402  25.121  1.00  0.00    -0.019 A 
ATOM     93  C   UNL A   1      37.060  23.360  25.690  1.00  0.00     0.047 C 
ATOM     94  C   UNL A   1      36.643  20.447  25.005  1.00  0.00     0.037 C 
ATOM     95  C   UNL A   1      38.168  22.473  25.103  1.00  0.00     0.006 C 
ATOM     96  C   UNL A   1      37.970  21.017  25.520  1.00  0.00     0.005 C 
BRANCH  90  97
ATOM     97  C   UNL A   1      33.406  20.001  24.181  1.00  0.00     0.257 C 
ATOM     98  O   UNL A   1      32.628  20.112  23.231  1.00  0.00    -0.269 OA
ATOM     99  N   UNL A   1      33.769  18.741  24.635  1.00  0.00    -0.339 N 
ATOM    100  C   UNL A   1      34.207  17.757  23.650  1.00  0.00     0.120 C 
ATOM    101  C   UNL A   1      33.286  18.233  25.912  1.00  0.00     0.120 C 
ATOM    102  C   UNL A   1      33.243  16.583  23.504  1.00  0.00     0.022 C 
ATOM    103  C   UNL A   1      32.301  17.078  25.758  1.00  0.00     0.022 C 
ATOM    104  C   UNL A   1      32.891  15.991  24.865  1.00  0.00     0.004 C 
ENDBRANCH  90  97
ENDBRANCH  86  88
ENDBRANCH  80  84
ENDBRANCH  75  78
ENDBRANCH  73  74
ENDBRANCH  72  73
ENDBRANCH   1  72
TORSDOF 17
ENDMDL
MODEL 3
REMARK VINA RESULT:     -11.8      6.287     11.199
REMARK SMILES O=C(NCCCCNC(=O)[C@@H]1CC=CC[C@@H]1C(=O)Nc1sc2c(c1C(=O)N1CCCCC1)CCCC2)c1ccc(-c2c3nc(c(-c4cccc(S(=O)(=O)[O-])c4F)c4ccc([nH]4)c(-c4cccc(S(=O)(=O)[O-])c4F)c4nc(c(-c5cccc(S(=O)(=O)[O-])c5F)c5ccc2[nH]5)C=C4)C=C3)cc1
REMARK SMILES IDX 5 1 4 2 3 3 1 4 2 5 37 7 38 8 99 9 39 10 98 11 40 12 41 13
REMARK SMILES IDX 42 14 92 15 43 16 97 17 91 18 93 19 44 20 96 21 90 22 89 23
REMARK SMILES IDX 45 25 77 26 57 27 76 28 58 29 61 30 75 31 94 32 59 33 60 34
REMARK SMILES IDX 74 36 95 37 62 38 46 39 47 40 55 41 48 42 50 43 56 44 49 45
REMARK SMILES IDX 51 46 52 47 53 48 54 49 78 50 79 51 87 52 80 53 82 54 88 55
REMARK SMILES IDX 81 56 83 57 84 58 85 59 86 60 63 61 64 62 72 63 65 64 67 65
REMARK SMILES IDX 73 66 66 67 68 68 69 69 70 70 71 71 6 72 7 73 8 74 9 75
REMARK SMILES IDX 10 77 11 78 12 79 16 80 13 81 15 82 14 83 17 84 18 85 19 86
REMARK SMILES IDX 20 88 21 89 24 90 22 91 23 92 36 93 33 94 35 95 34 96 25 97
REMARK SMILES IDX 26 98 27 99 28 100 32 101 29 102 31 103 30 104
REMARK H PARENT 3 6 93 24 61 35 8 76 19 87
REMARK Flexibility Score: inf
ROOT
ATOM      1  C   UNL A   1      41.348  34.231  39.806  1.00  0.00     0.023 C 
ENDROOT
BRANCH   1   2
ATOM      2  C   UNL A   1      42.611  34.988  40.198  1.00  0.00     0.116 C 
BRANCH   2   3
ATOM      3  N   UNL A   1      42.547  36.402  39.863  1.00  0.00    -0.352 N 
ATOM      4  O   UNL A   1      42.845  38.247  38.611  1.00  0.00    -0.269 OA
ATOM      5  C   UNL A   1      42.791  37.025  38.660  1.00  0.00     0.251 C 
ATOM      6  H   UNL A   1      42.292  36.999  40.602  1.00  0.00     0.163 HD
BRANCH   5   7
ATOM      7  C   UNL A   1      43.015  36.212  37.444  1.00  0.00     0.039 A 
ATOM      8  C   UNL A   1      41.963  35.924  36.569  1.00  0.00     0.014 A 
ATOM      9  C   UNL A   1      44.300  35.735  37.179  1.00  0.00     0.014 A 
ATOM     10  C   UNL A   1      42.164  35.046  35.507  1.00  0.00     0.010 A 
ATOM     11  C   UNL A   1      44.517  34.919  36.068  1.00  0.00     0.010 A 
ATOM     12  C   UNL A   1      43.445  34.542  35.241  1.00  0.00    -0.014 A 
BRANCH  12  13
ATOM     13  C   UNL A   1      43.679  33.668  34.065  1.00  0.00     0.031 A 
ATOM     14  C   UNL A   1      43.678  34.235  32.674  1.00  0.00     0.074 A 
ATOM     15  C   UNL A   1      43.826  32.343  34.254  1.00  0.00     0.049 A 
ATOM     16  N   UNL A   1      43.758  33.608  31.529  1.00  0.00    -0.248 NA
ATOM     17  C   UNL A   1      43.557  35.696  32.552  1.00  0.00     0.031 C 
ATOM     18  C   UNL A   1      43.814  31.674  35.557  1.00  0.00     0.029 A 
ATOM     19  N   UNL A   1      43.972  31.318  33.354  1.00  0.00    -0.354 N 
ATOM     20  C   UNL A   1      43.646  34.588  30.550  1.00  0.00     0.074 A 
ATOM     21  C   UNL A   1      43.491  35.852  31.237  1.00  0.00     0.031 C 
ATOM     22  C   UNL A   1      43.927  30.352  35.372  1.00  0.00     0.029 A 
ATOM     23  C   UNL A   1      43.959  30.075  33.940  1.00  0.00     0.049 A 
ATOM     24  H   UNL A   1      44.078  31.460  32.385  1.00  0.00     0.167 HD
ATOM     25  C   UNL A   1      43.675  34.446  29.202  1.00  0.00     0.034 A 
ATOM     26  C   UNL A   1      43.928  28.845  33.393  1.00  0.00     0.034 A 
ATOM     27  C   UNL A   1      43.846  33.184  28.531  1.00  0.00     0.049 A 
ATOM     28  C   UNL A   1      43.956  28.709  31.898  1.00  0.00     0.074 A 
ATOM     29  C   UNL A   1      43.966  32.943  27.173  1.00  0.00     0.029 A 
ATOM     30  N   UNL A   1      43.899  31.951  29.161  1.00  0.00    -0.354 N 
ATOM     31  N   UNL A   1      43.974  29.652  30.987  1.00  0.00    -0.248 NA
ATOM     32  C   UNL A   1      43.992  27.344  31.353  1.00  0.00     0.031 C 
ATOM     33  C   UNL A   1      44.044  31.560  26.982  1.00  0.00     0.029 A 
ATOM     34  C   UNL A   1      44.027  30.942  28.222  1.00  0.00     0.049 A 
ATOM     35  H   UNL A   1      43.852  31.812  30.135  1.00  0.00     0.167 HD
ATOM     36  C   UNL A   1      44.063  28.999  29.765  1.00  0.00     0.074 A 
ATOM     37  C   UNL A   1      44.097  27.579  30.051  1.00  0.00     0.031 C 
ATOM     38  C   UNL A   1      44.110  29.533  28.519  1.00  0.00     0.034 A 
BRANCH  25  39
ATOM     39  C   UNL A   1      43.519  35.690  28.364  1.00  0.00     0.023 A 
ATOM     40  C   UNL A   1      42.233  36.144  28.006  1.00  0.00     0.012 A 
ATOM     41  C   UNL A   1      44.647  36.430  27.958  1.00  0.00     0.148 A 
ATOM     42  C   UNL A   1      42.075  37.282  27.216  1.00  0.00     0.002 A 
ATOM     43  C   UNL A   1      44.480  37.591  27.211  1.00  0.00     0.091 A 
ATOM     44  F   UNL A   1      45.865  35.978  28.290  1.00  0.00    -0.205 F 
ATOM     45  C   UNL A   1      43.196  38.010  26.826  1.00  0.00     0.022 A 
BRANCH  43  46
ATOM     46  S   UNL A   1      45.860  38.638  26.735  1.00  0.00     0.127 S 
ATOM     47  O   UNL A   1      46.642  37.732  25.896  1.00  0.00    -0.237 OA
ATOM     48  O   UNL A   1      45.193  39.719  26.007  1.00  0.00    -0.237 OA
ATOM     49  O   UNL A   1      46.495  39.051  27.979  1.00  0.00    -0.744 OA
ENDBRANCH  43  46
ENDBRANCH  25  39
BRANCH  26  50
ATOM     50  C   UNL A   1      43.884  27.657  34.287  1.00  0.00     0.023 A 
ATOM     51  C   UNL A   1      45.085  27.047  34.693  1.00  0.00     0.012 A 
ATOM     52  C   UNL A   1      42.661  27.192  34.811  1.00  0.00     0.148 A 
ATOM     53  C   UNL A   1      45.068  25.982  35.594  1.00  0.00     0.002 A 
ATOM     54  C   UNL A   1      42.656  26.169  35.750  1.00  0.00     0.091 A 
ATOM     55  F   UNL A   1      41.531  27.791  34.408  1.00  0.00    -0.205 F 
ATOM     56  C   UNL A   1      43.858  25.552  36.132  1.00  0.00     0.022 A 
BRANCH  54  57
ATOM     57  S   UNL A   1      41.165  25.645  36.603  1.00  0.00     0.127 S 
ATOM     58  O   UNL A   1      41.654  24.516  37.392  1.00  0.00    -0.237 OA
ATOM     59  O   UNL A   1      40.829  26.840  37.378  1.00  0.00    -0.237 OA
ATOM     60  O   UNL A   1      40.205  25.311  35.560  1.00  0.00    -0.744 OA
ENDBRANCH  54  57
ENDBRANCH  26  50
BRANCH  38  61
ATOM     61  C   UNL A   1      44.268  28.594  27.353  1.00  0.00     0.023 A 
ATOM     62  C   UNL A   1      43.139  28.170  26.626  1.00  0.00     0.012 A 
ATOM     63  C   UNL A   1      45.556  28.230  26.910  1.00  0.00     0.148 A 
ATOM     64  C   UNL A   1      43.291  27.385  25.481  1.00  0.00     0.002 A 
ATOM     65  C   UNL A   1      45.701  27.494  25.742  1.00  0.00     0.091 A 
ATOM     66  F   UNL A   1      46.614  28.630  27.631  1.00  0.00    -0.205 F 
ATOM     67  C   UNL A   1      44.570  27.062  25.032  1.00  0.00     0.022 A 
BRANCH  65  68
ATOM     68  S   UNL A   1      47.308  27.120  25.030  1.00  0.00     0.127 S 
ATOM     69  O   UNL A   1      47.659  28.393  24.402  1.00  0.00    -0.237 OA
ATOM     70  O   UNL A   1      48.097  26.785  26.215  1.00  0.00    -0.237 OA
ATOM     71  O   UNL A   1      47.096  26.012  24.109  1.00  0.00    -0.744 OA
ENDBRANCH  65  68
ENDBRANCH  38  61
ENDBRANCH  12  13
ENDBRANCH   5   7
ENDBRANCH   2   3
ENDBRANCH   1   2
BRANCH   1  72
ATOM     72  C   UNL A   1      41.583  32.853  39.195  1.00  0.00     0.023 C 
BRANCH  72  73
ATOM     73  C   UNL A   1      40.968  32.641  37.815  1.00  0.00     0.116 C 
BRANCH  73  74
ATOM     74  N   UNL A   1      39.552  32.298  37.842  1.00  0.00    -0.356 N 
ATOM     75  C   UNL A   1      38.685  32.146  36.783  1.00  0.00     0.224 C 
ATOM     76  H   UNL A   1      39.164  32.155  38.735  1.00  0.00     0.163 HD
ATOM     77  O   UNL A   1      37.660  31.491  36.953  1.00  0.00    -0.275 OA
BRANCH  75  78
ATOM     78  C   UNL A   1      39.084  32.764  35.454  1.00  0.00     0.095 C 
ATOM     79  C   UNL A   1      38.627  34.235  35.343  1.00  0.00     0.041 C 
ATOM     80  C   UNL A   1      38.756  31.977  34.147  1.00  0.00     0.095 C 
ATOM     81  C   UNL A   1      39.012  34.852  34.026  1.00  0.00    -0.030 C 
ATOM     82  C   UNL A   1      39.697  32.645  33.111  1.00  0.00     0.041 C 
ATOM     83  C   UNL A   1      39.533  34.134  33.022  1.00  0.00    -0.030 C 
BRANCH  80  84
ATOM     84  C   UNL A   1      37.242  31.998  33.819  1.00  0.00     0.229 C 
ATOM     85  O   UNL A   1      36.473  32.716  34.473  1.00  0.00    -0.274 OA
ATOM     86  N   UNL A   1      36.637  31.278  32.828  1.00  0.00    -0.317 N 
ATOM     87  H   UNL A   1      35.653  31.297  32.834  1.00  0.00     0.170 HD
BRANCH  86  88
ATOM     88  C   UNL A   1      37.202  30.531  31.822  1.00  0.00     0.108 A 
ATOM     89  S   UNL A   1      37.513  28.883  32.099  1.00  0.00    -0.122 S 
ATOM     90  C   UNL A   1      37.473  30.939  30.515  1.00  0.00     0.078 A 
ATOM     91  C   UNL A   1      38.518  28.838  30.727  1.00  0.00     0.011 A 
ATOM     92  C   UNL A   1      38.309  29.922  29.883  1.00  0.00    -0.019 A 
ATOM     93  C   UNL A   1      39.503  27.730  30.510  1.00  0.00     0.047 C 
ATOM     94  C   UNL A   1      39.024  29.991  28.563  1.00  0.00     0.037 C 
ATOM     95  C   UNL A   1      40.505  28.112  29.410  1.00  0.00     0.006 C 
ATOM     96  C   UNL A   1      39.781  28.706  28.204  1.00  0.00     0.005 C 
BRANCH  90  97
ATOM     97  C   UNL A   1      37.099  32.307  30.075  1.00  0.00     0.257 C 
ATOM     98  O   UNL A   1      37.930  33.216  30.029  1.00  0.00    -0.269 OA
ATOM     99  N   UNL A   1      35.820  32.511  29.577  1.00  0.00    -0.339 N 
ATOM    100  C   UNL A   1      35.688  33.097  28.247  1.00  0.00     0.120 C 
ATOM    101  C   UNL A   1      34.674  32.621  30.469  1.00  0.00     0.120 C 
ATOM    102  C   UNL A   1      35.073  34.493  28.264  1.00  0.00     0.022 C 
ATOM    103  C   UNL A   1      34.081  34.027  30.502  1.00  0.00     0.022 C 
ATOM    104  C   UNL A   1      33.789  34.516  29.087  1.00  0.00     0.004 C 
ENDBRANCH  90  97
ENDBRANCH  86  88
ENDBRANCH  80  84
ENDBRANCH  75  78
ENDBRANCH  73  74
ENDBRANCH  72  73
ENDBRANCH   1  72
TORSDOF 17
ENDMDL
