MODEL 1
REMARK VINA RESULT:     -11.8      0.000      0.000
REMARK SMILES Cc1nc(CCC(F)(F)F)[nH]c(=O)c1CCC(=O)NCCCCNC(=O)c1ccc(-c2c3nc(c(-c4cccc(S(=O)(=O)[O-])c4F)c4ccc([nH]4)c(-c4cccc(S(=O)(=O)[O-])c4F)c4nc(c(-c5cccc(S(=O)(=O)[O-])c5F)c5ccc2[nH]5)C=C4)C=C3)cc1
REMARK SMILES IDX 20 1 19 2 17 3 18 4 16 6 15 7 14 8 1 9 2 10 3 11 4 12 12 13
REMARK SMILES IDX 11 14 13 15 5 17 6 18 7 19 8 20 9 21 10 22 21 23 22 24 23 25
REMARK SMILES IDX 24 26 25 27 26 29 27 30 28 31 89 32 29 33 88 34 30 35 31 36
REMARK SMILES IDX 32 37 82 38 33 39 87 40 81 41 83 42 34 43 86 44 80 45 79 46
REMARK SMILES IDX 35 48 67 49 47 50 66 51 48 52 51 53 65 54 84 55 49 56 50 57
REMARK SMILES IDX 64 59 85 60 52 61 36 62 37 63 45 64 38 65 40 66 46 67 39 68
REMARK SMILES IDX 41 69 42 70 43 71 44 72 68 73 69 74 77 75 70 76 72 77 78 78
REMARK SMILES IDX 71 79 73 80 74 81 75 82 76 83 53 84 54 85 62 86 55 87 57 88
REMARK SMILES IDX 63 89 56 90 58 91 59 92 60 93 61 94
REMARK H PARENT 19 5 11 16 24 28 83 47 51 58
REMARK Flexibility Score: inf
ROOT
ATOM      1  C   UNL A   1      33.361  26.724  26.235  1.00  0.00     0.116 C 
ENDROOT
BRANCH   1   2
ATOM      2  N   UNL A   1      33.520  25.431  25.589  1.00  0.00    -0.356 N 
ATOM      3  C   UNL A   1      33.746  25.072  24.299  1.00  0.00     0.220 C 
ATOM      4  O   UNL A   1      33.843  23.872  24.031  1.00  0.00    -0.275 OA
ATOM      5  H   UNL A   1      33.451  24.667  26.206  1.00  0.00     0.163 HD
BRANCH   3   6
ATOM      6  C   UNL A   1      33.913  26.107  23.207  1.00  0.00     0.105 C 
BRANCH   6   7
ATOM      7  C   UNL A   1      32.761  26.077  22.189  1.00  0.00     0.053 C 
BRANCH   7   8
ATOM      8  C   UNL A   1      31.570  26.830  22.715  1.00  0.00     0.039 A 
ATOM      9  C   UNL A   1      30.331  24.861  23.607  1.00  0.00     0.067 C 
ATOM     10  C   UNL A   1      30.449  26.322  23.264  1.00  0.00     0.048 A 
ATOM     11  N   UNL A   1      29.294  27.052  23.454  1.00  0.00    -0.240 NA
ATOM     12  C   UNL A   1      29.299  28.301  23.115  1.00  0.00     0.109 A 
ATOM     13  C   UNL A   1      31.624  28.299  22.602  1.00  0.00     0.254 A 
ATOM     14  N   UNL A   1      30.427  28.935  22.708  1.00  0.00    -0.310 N 
ATOM     15  O   UNL A   1      32.669  28.900  22.398  1.00  0.00    -0.269 OA
ATOM     16  H   UNL A   1      30.378  29.892  22.480  1.00  0.00     0.171 HD
BRANCH  12  17
ATOM     17  C   UNL A   1      27.991  29.068  23.044  1.00  0.00     0.084 C 
BRANCH  17  18
ATOM     18  C   UNL A   1      27.968  30.403  22.308  1.00  0.00     0.123 C 
BRANCH  18  19
ATOM     19  C   UNL A   1      28.040  31.627  23.195  1.00  0.00     0.389 C 
ATOM     20  F   UNL A   1      28.253  32.755  22.494  1.00  0.00    -0.171 F 
ATOM     21  F   UNL A   1      26.899  31.778  23.896  1.00  0.00    -0.171 F 
ATOM     22  F   UNL A   1      29.051  31.515  24.084  1.00  0.00    -0.171 F 
ENDBRANCH  18  19
ENDBRANCH  17  18
ENDBRANCH  12  17
ENDBRANCH   7   8
ENDBRANCH   6   7
ENDBRANCH   3   6
ENDBRANCH   1   2
BRANCH   1  23
ATOM     23  C   UNL A   1      31.887  27.016  26.532  1.00  0.00     0.023 C 
BRANCH  23  24
ATOM     24  C   UNL A   1      31.403  28.432  26.245  1.00  0.00     0.023 C 
BRANCH  24  25
ATOM     25  C   UNL A   1      32.471  29.499  26.055  1.00  0.00     0.116 C 
BRANCH  25  26
ATOM     26  N   UNL A   1      32.123  30.829  26.544  1.00  0.00    -0.352 N 
ATOM     27  C   UNL A   1      32.888  31.760  27.222  1.00  0.00     0.251 C 
ATOM     28  H   UNL A   1      31.196  31.109  26.362  1.00  0.00     0.163 HD
ATOM     29  O   UNL A   1      32.402  32.844  27.539  1.00  0.00    -0.269 OA
BRANCH  27  30
ATOM     30  C   UNL A   1      34.279  31.434  27.610  1.00  0.00     0.039 A 
ATOM     31  C   UNL A   1      35.230  32.452  27.706  1.00  0.00     0.014 A 
ATOM     32  C   UNL A   1      34.621  30.131  27.957  1.00  0.00     0.014 A 
ATOM     33  C   UNL A   1      36.478  32.183  28.283  1.00  0.00     0.010 A 
ATOM     34  C   UNL A   1      35.792  29.903  28.665  1.00  0.00     0.010 A 
ATOM     35  C   UNL A   1      36.741  30.922  28.843  1.00  0.00    -0.014 A 
BRANCH  35  36
ATOM     36  C   UNL A   1      37.972  30.615  29.629  1.00  0.00     0.031 A 
ATOM     37  C   UNL A   1      39.003  29.673  29.052  1.00  0.00     0.074 A 
ATOM     38  C   UNL A   1      38.093  31.031  30.909  1.00  0.00     0.049 A 
ATOM     39  N   UNL A   1      39.985  29.052  29.651  1.00  0.00    -0.248 NA
ATOM     40  C   UNL A   1      38.862  29.328  27.626  1.00  0.00     0.031 C 
ATOM     41  C   UNL A   1      37.131  31.864  31.633  1.00  0.00     0.029 A 
ATOM     42  N   UNL A   1      39.065  30.769  31.844  1.00  0.00    -0.354 N 
ATOM     43  C   UNL A   1      40.513  28.180  28.705  1.00  0.00     0.074 A 
ATOM     44  C   UNL A   1      39.718  28.326  27.506  1.00  0.00     0.031 C 
ATOM     45  C   UNL A   1      37.564  32.055  32.889  1.00  0.00     0.029 A 
ATOM     46  C   UNL A   1      38.812  31.323  33.079  1.00  0.00     0.049 A 
ATOM     47  H   UNL A   1      39.870  30.235  31.650  1.00  0.00     0.167 HD
ATOM     48  C   UNL A   1      41.585  27.359  28.805  1.00  0.00     0.034 A 
ATOM     49  C   UNL A   1      39.497  31.241  34.237  1.00  0.00     0.034 A 
ATOM     50  C   UNL A   1      42.454  27.317  29.948  1.00  0.00     0.049 A 
ATOM     51  C   UNL A   1      40.768  30.435  34.278  1.00  0.00     0.074 A 
ATOM     52  C   UNL A   1      43.636  26.615  30.107  1.00  0.00     0.029 A 
ATOM     53  N   UNL A   1      42.252  28.032  31.118  1.00  0.00    -0.354 N 
ATOM     54  N   UNL A   1      41.319  29.716  33.331  1.00  0.00    -0.248 NA
ATOM     55  C   UNL A   1      41.530  30.453  35.536  1.00  0.00     0.031 C 
ATOM     56  C   UNL A   1      44.157  26.919  31.368  1.00  0.00     0.029 A 
ATOM     57  C   UNL A   1      43.299  27.810  31.993  1.00  0.00     0.049 A 
ATOM     58  H   UNL A   1      41.477  28.613  31.299  1.00  0.00     0.167 HD
ATOM     59  C   UNL A   1      42.507  29.229  33.864  1.00  0.00     0.074 A 
ATOM     60  C   UNL A   1      42.607  29.752  35.211  1.00  0.00     0.031 C 
ATOM     61  C   UNL A   1      43.421  28.402  33.299  1.00  0.00     0.034 A 
BRANCH  48  62
ATOM     62  C   UNL A   1      41.935  26.512  27.609  1.00  0.00     0.023 A 
ATOM     63  C   UNL A   1      42.552  27.114  26.492  1.00  0.00     0.012 A 
ATOM     64  C   UNL A   1      41.697  25.124  27.600  1.00  0.00     0.148 A 
ATOM     65  C   UNL A   1      42.884  26.359  25.369  1.00  0.00     0.002 A 
ATOM     66  C   UNL A   1      42.075  24.368  26.495  1.00  0.00     0.091 A 
ATOM     67  F   UNL A   1      41.093  24.570  28.661  1.00  0.00    -0.205 F 
ATOM     68  C   UNL A   1      42.655  24.986  25.374  1.00  0.00     0.022 A 
BRANCH  66  69
ATOM     69  S   UNL A   1      41.899  22.581  26.434  1.00  0.00     0.127 S 
ATOM     70  O   UNL A   1      42.490  22.271  25.133  1.00  0.00    -0.237 OA
ATOM     71  O   UNL A   1      42.698  22.154  27.583  1.00  0.00    -0.237 OA
ATOM     72  O   UNL A   1      40.473  22.315  26.555  1.00  0.00    -0.744 OA
ENDBRANCH  66  69
ENDBRANCH  48  62
BRANCH  49  73
ATOM     73  C   UNL A   1      39.046  32.011  35.432  1.00  0.00     0.023 A 
ATOM     74  C   UNL A   1      39.291  33.400  35.478  1.00  0.00     0.012 A 
ATOM     75  C   UNL A   1      38.365  31.401  36.502  1.00  0.00     0.148 A 
ATOM     76  C   UNL A   1      38.897  34.157  36.583  1.00  0.00     0.002 A 
ATOM     77  C   UNL A   1      37.932  32.172  37.576  1.00  0.00     0.091 A 
ATOM     78  F   UNL A   1      38.153  30.078  36.449  1.00  0.00    -0.205 F 
ATOM     79  C   UNL A   1      38.211  33.546  37.626  1.00  0.00     0.022 A 
BRANCH  77  80
ATOM     80  S   UNL A   1      36.929  31.487  38.902  1.00  0.00     0.127 S 
ATOM     81  O   UNL A   1      37.805  31.654  40.058  1.00  0.00    -0.237 OA
ATOM     82  O   UNL A   1      35.756  32.363  38.883  1.00  0.00    -0.237 OA
ATOM     83  O   UNL A   1      36.651  30.113  38.502  1.00  0.00    -0.744 OA
ENDBRANCH  77  80
ENDBRANCH  49  73
BRANCH  61  84
ATOM     84  C   UNL A   1      44.635  28.042  34.110  1.00  0.00     0.023 A 
ATOM     85  C   UNL A   1      45.747  28.906  34.121  1.00  0.00     0.012 A 
ATOM     86  C   UNL A   1      44.637  26.899  34.933  1.00  0.00     0.148 A 
ATOM     87  C   UNL A   1      46.852  28.627  34.921  1.00  0.00     0.002 A 
ATOM     88  C   UNL A   1      45.724  26.649  35.762  1.00  0.00     0.091 A 
ATOM     89  F   UNL A   1      43.577  26.078  34.892  1.00  0.00    -0.205 F 
ATOM     90  C   UNL A   1      46.836  27.507  35.751  1.00  0.00     0.022 A 
BRANCH  88  91
ATOM     91  S   UNL A   1      45.745  25.283  36.927  1.00  0.00     0.127 S 
ATOM     92  O   UNL A   1      44.559  25.560  37.734  1.00  0.00    -0.237 OA
ATOM     93  O   UNL A   1      45.627  24.119  36.048  1.00  0.00    -0.237 OA
ATOM     94  O   UNL A   1      47.019  25.379  37.628  1.00  0.00    -0.744 OA
ENDBRANCH  88  91
ENDBRANCH  61  84
ENDBRANCH  35  36
ENDBRANCH  27  30
ENDBRANCH  25  26
ENDBRANCH  24  25
ENDBRANCH  23  24
ENDBRANCH   1  23
TORSDOF 19
ENDMDL
MODEL 2
REMARK VINA RESULT:     -11.8      1.459      7.704
REMARK SMILES Cc1nc(CCC(F)(F)F)[nH]c(=O)c1CCC(=O)NCCCCNC(=O)c1ccc(-c2c3nc(c(-c4cccc(S(=O)(=O)[O-])c4F)c4ccc([nH]4)c(-c4cccc(S(=O)(=O)[O-])c4F)c4nc(c(-c5cccc(S(=O)(=O)[O-])c5F)c5ccc2[nH]5)C=C4)C=C3)cc1
REMARK SMILES IDX 20 1 19 2 17 3 18 4 16 6 15 7 14 8 1 9 2 10 3 11 4 12 12 13
REMARK SMILES IDX 11 14 13 15 5 17 6 18 7 19 8 20 9 21 10 22 21 23 22 24 23 25
REMARK SMILES IDX 24 26 25 27 26 29 27 30 28 31 89 32 29 33 88 34 30 35 31 36
REMARK SMILES IDX 32 37 82 38 33 39 87 40 81 41 83 42 34 43 86 44 80 45 79 46
REMARK SMILES IDX 35 48 67 49 47 50 66 51 48 52 51 53 65 54 84 55 49 56 50 57
REMARK SMILES IDX 64 59 85 60 52 61 36 62 37 63 45 64 38 65 40 66 46 67 39 68
REMARK SMILES IDX 41 69 42 70 43 71 44 72 68 73 69 74 77 75 70 76 72 77 78 78
REMARK SMILES IDX 71 79 73 80 74 81 75 82 76 83 53 84 54 85 62 86 55 87 57 88
REMARK SMILES IDX 63 89 56 90 58 91 59 92 60 93 61 94
REMARK H PARENT 19 5 11 16 24 28 83 47 51 58
REMARK Flexibility Score: inf
ROOT
ATOM      1  C   UNL A   1      33.333  26.999  26.133  1.00  0.00     0.116 C 
ENDROOT
BRANCH   1   2
ATOM      2  N   UNL A   1      33.272  25.556  25.955  1.00  0.00    -0.356 N 
ATOM      3  C   UNL A   1      33.602  24.746  24.916  1.00  0.00     0.220 C 
ATOM      4  O   UNL A   1      33.445  23.530  25.047  1.00  0.00    -0.275 OA
ATOM      5  H   UNL A   1      32.923  25.074  26.738  1.00  0.00     0.163 HD
BRANCH   3   6
ATOM      6  C   UNL A   1      34.186  25.301  23.635  1.00  0.00     0.105 C 
BRANCH   6   7
ATOM      7  C   UNL A   1      33.153  25.359  22.497  1.00  0.00     0.053 C 
BRANCH   7   8
ATOM      8  C   UNL A   1      32.189  26.493  22.714  1.00  0.00     0.039 A 
ATOM      9  C   UNL A   1      30.298  25.126  23.588  1.00  0.00     0.067 C 
ATOM     10  C   UNL A   1      30.902  26.418  23.109  1.00  0.00     0.048 A 
ATOM     11  N   UNL A   1      30.011  27.466  23.007  1.00  0.00    -0.240 NA
ATOM     12  C   UNL A   1      30.444  28.591  22.536  1.00  0.00     0.109 A 
ATOM     13  C   UNL A   1      32.704  27.848  22.448  1.00  0.00     0.254 A 
ATOM     14  N   UNL A   1      31.757  28.806  22.267  1.00  0.00    -0.310 N 
ATOM     15  O   UNL A   1      33.901  28.088  22.367  1.00  0.00    -0.269 OA
ATOM     16  H   UNL A   1      32.034  29.687  21.927  1.00  0.00     0.171 HD
BRANCH  12  17
ATOM     17  C   UNL A   1      29.455  29.676  22.147  1.00  0.00     0.084 C 
BRANCH  17  18
ATOM     18  C   UNL A   1      28.278  29.954  23.075  1.00  0.00     0.123 C 
BRANCH  18  19
ATOM     19  C   UNL A   1      28.083  31.408  23.448  1.00  0.00     0.389 C 
ATOM     20  F   UNL A   1      26.915  31.622  24.078  1.00  0.00    -0.171 F 
ATOM     21  F   UNL A   1      29.078  31.833  24.252  1.00  0.00    -0.171 F 
ATOM     22  F   UNL A   1      28.089  32.189  22.346  1.00  0.00    -0.171 F 
ENDBRANCH  18  19
ENDBRANCH  17  18
ENDBRANCH  12  17
ENDBRANCH   7   8
ENDBRANCH   6   7
ENDBRANCH   3   6
ENDBRANCH   1   2
BRANCH   1  23
ATOM     23  C   UNL A   1      31.989  27.555  26.612  1.00  0.00     0.023 C 
BRANCH  23  24
ATOM     24  C   UNL A   1      31.563  28.899  26.035  1.00  0.00     0.023 C 
BRANCH  24  25
ATOM     25  C   UNL A   1      32.662  29.925  25.800  1.00  0.00     0.116 C 
BRANCH  25  26
ATOM     26  N   UNL A   1      32.481  31.203  26.480  1.00  0.00    -0.352 N 
ATOM     27  C   UNL A   1      33.334  31.897  27.320  1.00  0.00     0.251 C 
ATOM     28  H   UNL A   1      31.616  31.643  26.314  1.00  0.00     0.163 HD
ATOM     29  O   UNL A   1      32.991  32.980  27.787  1.00  0.00    -0.269 OA
BRANCH  27  30
ATOM     30  C   UNL A   1      34.640  31.311  27.696  1.00  0.00     0.039 A 
ATOM     31  C   UNL A   1      35.715  32.149  28.001  1.00  0.00     0.014 A 
ATOM     32  C   UNL A   1      34.778  29.933  27.826  1.00  0.00     0.014 A 
ATOM     33  C   UNL A   1      36.877  31.608  28.568  1.00  0.00     0.010 A 
ATOM     34  C   UNL A   1      35.861  29.422  28.526  1.00  0.00     0.010 A 
ATOM     35  C   UNL A   1      36.929  30.248  28.911  1.00  0.00    -0.014 A 
BRANCH  35  36
ATOM     36  C   UNL A   1      38.056  29.638  29.677  1.00  0.00     0.031 A 
ATOM     37  C   UNL A   1      38.252  30.011  31.127  1.00  0.00     0.074 A 
ATOM     38  C   UNL A   1      38.993  28.896  29.048  1.00  0.00     0.049 A 
ATOM     39  N   UNL A   1      39.296  29.835  31.894  1.00  0.00    -0.248 NA
ATOM     40  C   UNL A   1      37.152  30.745  31.779  1.00  0.00     0.031 C 
ATOM     41  C   UNL A   1      38.989  28.535  27.628  1.00  0.00     0.029 A 
ATOM     42  N   UNL A   1      40.161  28.345  29.520  1.00  0.00    -0.354 N 
ATOM     43  C   UNL A   1      39.016  30.515  33.075  1.00  0.00     0.074 A 
ATOM     44  C   UNL A   1      37.721  31.136  32.908  1.00  0.00     0.031 C 
ATOM     45  C   UNL A   1      40.088  27.816  27.349  1.00  0.00     0.029 A 
ATOM     46  C   UNL A   1      40.901  27.701  28.554  1.00  0.00     0.049 A 
ATOM     47  H   UNL A   1      40.442  28.405  30.462  1.00  0.00     0.167 HD
ATOM     48  C   UNL A   1      39.747  30.586  34.213  1.00  0.00     0.034 A 
ATOM     49  C   UNL A   1      42.104  27.096  28.626  1.00  0.00     0.034 A 
ATOM     50  C   UNL A   1      40.967  29.858  34.425  1.00  0.00     0.049 A 
ATOM     51  C   UNL A   1      42.829  27.068  29.946  1.00  0.00     0.074 A 
ATOM     52  C   UNL A   1      41.722  29.760  35.580  1.00  0.00     0.029 A 
ATOM     53  N   UNL A   1      41.592  29.073  33.469  1.00  0.00    -0.354 N 
ATOM     54  N   UNL A   1      42.484  27.612  31.088  1.00  0.00    -0.248 NA
ATOM     55  C   UNL A   1      44.092  26.315  29.997  1.00  0.00     0.031 C 
ATOM     56  C   UNL A   1      42.797  28.903  35.326  1.00  0.00     0.029 A 
ATOM     57  C   UNL A   1      42.710  28.467  34.013  1.00  0.00     0.049 A 
ATOM     58  H   UNL A   1      41.286  28.964  32.539  1.00  0.00     0.167 HD
ATOM     59  C   UNL A   1      43.465  27.238  31.999  1.00  0.00     0.074 A 
ATOM     60  C   UNL A   1      44.407  26.403  31.282  1.00  0.00     0.031 C 
ATOM     61  C   UNL A   1      43.590  27.576  33.306  1.00  0.00     0.034 A 
BRANCH  48  62
ATOM     62  C   UNL A   1      39.196  31.407  35.350  1.00  0.00     0.023 A 
ATOM     63  C   UNL A   1      38.274  30.821  36.243  1.00  0.00     0.012 A 
ATOM     64  C   UNL A   1      39.615  32.734  35.566  1.00  0.00     0.148 A 
ATOM     65  C   UNL A   1      37.744  31.554  37.302  1.00  0.00     0.002 A 
ATOM     66  C   UNL A   1      39.118  33.444  36.654  1.00  0.00     0.091 A 
ATOM     67  F   UNL A   1      40.478  33.283  34.698  1.00  0.00    -0.205 F 
ATOM     68  C   UNL A   1      38.173  32.860  37.513  1.00  0.00     0.022 A 
BRANCH  66  69
ATOM     69  S   UNL A   1      39.668  35.106  37.062  1.00  0.00     0.127 S 
ATOM     70  O   UNL A   1      41.112  34.915  37.191  1.00  0.00    -0.237 OA
ATOM     71  O   UNL A   1      39.256  35.865  35.882  1.00  0.00    -0.237 OA
ATOM     72  O   UNL A   1      38.971  35.467  38.289  1.00  0.00    -0.744 OA
ENDBRANCH  66  69
ENDBRANCH  48  62
BRANCH  49  73
ATOM     73  C   UNL A   1      42.662  26.392  27.437  1.00  0.00     0.023 A 
ATOM     74  C   UNL A   1      43.523  27.097  26.570  1.00  0.00     0.012 A 
ATOM     75  C   UNL A   1      42.374  25.041  27.165  1.00  0.00     0.148 A 
ATOM     76  C   UNL A   1      44.058  26.480  25.438  1.00  0.00     0.002 A 
ATOM     77  C   UNL A   1      42.952  24.419  26.062  1.00  0.00     0.091 A 
ATOM     78  F   UNL A   1      41.543  24.389  27.990  1.00  0.00    -0.205 F 
ATOM     79  C   UNL A   1      43.780  25.140  25.189  1.00  0.00     0.022 A 
BRANCH  77  80
ATOM     80  S   UNL A   1      42.749  22.662  25.741  1.00  0.00     0.127 S 
ATOM     81  O   UNL A   1      41.349  22.452  26.098  1.00  0.00    -0.237 OA
ATOM     82  O   UNL A   1      43.039  22.577  24.308  1.00  0.00    -0.237 OA
ATOM     83  O   UNL A   1      43.732  22.000  26.588  1.00  0.00    -0.744 OA
ENDBRANCH  77  80
ENDBRANCH  49  73
BRANCH  61  84
ATOM     84  C   UNL A   1      44.757  27.011  34.068  1.00  0.00     0.023 A 
ATOM     85  C   UNL A   1      45.993  27.686  34.051  1.00  0.00     0.012 A 
ATOM     86  C   UNL A   1      44.603  25.865  34.873  1.00  0.00     0.148 A 
ATOM     87  C   UNL A   1      47.065  27.217  34.808  1.00  0.00     0.002 A 
ATOM     88  C   UNL A   1      45.662  25.429  35.659  1.00  0.00     0.091 A 
ATOM     89  F   UNL A   1      43.424  25.225  34.858  1.00  0.00    -0.205 F 
ATOM     90  C   UNL A   1      46.897  26.098  35.621  1.00  0.00     0.022 A 
BRANCH  88  91
ATOM     91  S   UNL A   1      45.502  24.053  36.803  1.00  0.00     0.127 S 
ATOM     92  O   UNL A   1      45.083  22.972  35.914  1.00  0.00    -0.237 OA
ATOM     93  O   UNL A   1      46.863  23.921  37.326  1.00  0.00    -0.237 OA
ATOM     94  O   UNL A   1      44.517  24.473  37.792  1.00  0.00    -0.744 OA
ENDBRANCH  88  91
ENDBRANCH  61  84
ENDBRANCH  35  36
ENDBRANCH  27  30
ENDBRANCH  25  26
ENDBRANCH  24  25
ENDBRANCH  23  24
ENDBRANCH   1  23
TORSDOF 19
ENDMDL
MODEL 3
REMARK VINA RESULT:     -11.3      2.919      8.620
REMARK SMILES Cc1nc(CCC(F)(F)F)[nH]c(=O)c1CCC(=O)NCCCCNC(=O)c1ccc(-c2c3nc(c(-c4cccc(S(=O)(=O)[O-])c4F)c4ccc([nH]4)c(-c4cccc(S(=O)(=O)[O-])c4F)c4nc(c(-c5cccc(S(=O)(=O)[O-])c5F)c5ccc2[nH]5)C=C4)C=C3)cc1
REMARK SMILES IDX 20 1 19 2 17 3 18 4 16 6 15 7 14 8 1 9 2 10 3 11 4 12 12 13
REMARK SMILES IDX 11 14 13 15 5 17 6 18 7 19 8 20 9 21 10 22 21 23 22 24 23 25
REMARK SMILES IDX 24 26 25 27 26 29 27 30 28 31 89 32 29 33 88 34 30 35 31 36
REMARK SMILES IDX 32 37 82 38 33 39 87 40 81 41 83 42 34 43 86 44 80 45 79 46
REMARK SMILES IDX 35 48 67 49 47 50 66 51 48 52 51 53 65 54 84 55 49 56 50 57
REMARK SMILES IDX 64 59 85 60 52 61 36 62 37 63 45 64 38 65 40 66 46 67 39 68
REMARK SMILES IDX 41 69 42 70 43 71 44 72 68 73 69 74 77 75 70 76 72 77 78 78
REMARK SMILES IDX 71 79 73 80 74 81 75 82 76 83 53 84 54 85 62 86 55 87 57 88
REMARK SMILES IDX 63 89 56 90 58 91 59 92 60 93 61 94
REMARK H PARENT 19 5 11 16 24 28 83 47 51 58
REMARK Flexibility Score: inf
ROOT
ATOM      1  C   UNL A   1      32.756  28.559  23.451  1.00  0.00     0.116 C 
ENDROOT
BRANCH   1   2
ATOM      2  N   UNL A   1      31.307  28.446  23.399  1.00  0.00    -0.356 N 
ATOM      3  C   UNL A   1      30.457  27.424  23.677  1.00  0.00     0.220 C 
ATOM      4  O   UNL A   1      29.246  27.615  23.544  1.00  0.00    -0.275 OA
ATOM      5  H   UNL A   1      30.855  29.269  23.105  1.00  0.00     0.163 HD
BRANCH   3   6
ATOM      6  C   UNL A   1      30.963  26.087  24.173  1.00  0.00     0.105 C 
BRANCH   6   7
ATOM      7  C   UNL A   1      31.012  26.012  25.709  1.00  0.00     0.053 C 
BRANCH   7   8
ATOM      8  C   UNL A   1      31.849  24.845  26.156  1.00  0.00     0.039 A 
ATOM      9  C   UNL A   1      34.071  25.841  25.628  1.00  0.00     0.067 C 
ATOM     10  C   UNL A   1      33.185  24.702  26.055  1.00  0.00     0.048 A 
ATOM     11  N   UNL A   1      33.838  23.497  26.221  1.00  0.00    -0.240 NA
ATOM     12  C   UNL A   1      33.129  22.456  26.521  1.00  0.00     0.109 A 
ATOM     13  C   UNL A   1      31.122  23.714  26.761  1.00  0.00     0.254 A 
ATOM     14  N   UNL A   1      31.804  22.539  26.801  1.00  0.00    -0.310 N 
ATOM     15  O   UNL A   1      29.975  23.819  27.172  1.00  0.00    -0.269 OA
ATOM     16  H   UNL A   1      31.318  21.717  27.041  1.00  0.00     0.171 HD
BRANCH  12  17
ATOM     17  C   UNL A   1      33.751  21.073  26.441  1.00  0.00     0.084 C 
BRANCH  17  18
ATOM     18  C   UNL A   1      34.169  20.541  25.075  1.00  0.00     0.123 C 
BRANCH  18  19
ATOM     19  C   UNL A   1      33.604  19.183  24.715  1.00  0.00     0.389 C 
ATOM     20  F   UNL A   1      32.732  19.247  23.694  1.00  0.00    -0.171 F 
ATOM     21  F   UNL A   1      34.591  18.331  24.371  1.00  0.00    -0.171 F 
ATOM     22  F   UNL A   1      32.948  18.644  25.765  1.00  0.00    -0.171 F 
ENDBRANCH  18  19
ENDBRANCH  17  18
ENDBRANCH  12  17
ENDBRANCH   7   8
ENDBRANCH   6   7
ENDBRANCH   3   6
ENDBRANCH   1   2
BRANCH   1  23
ATOM     23  C   UNL A   1      33.208  29.299  24.714  1.00  0.00     0.023 C 
BRANCH  23  24
ATOM     24  C   UNL A   1      32.112  29.941  25.555  1.00  0.00     0.023 C 
BRANCH  24  25
ATOM     25  C   UNL A   1      32.463  30.284  26.995  1.00  0.00     0.116 C 
BRANCH  25  26
ATOM     26  N   UNL A   1      32.592  31.709  27.286  1.00  0.00    -0.352 N 
ATOM     27  C   UNL A   1      33.683  32.434  27.731  1.00  0.00     0.251 C 
ATOM     28  H   UNL A   1      31.774  32.238  27.143  1.00  0.00     0.163 HD
ATOM     29  O   UNL A   1      33.586  33.647  27.907  1.00  0.00    -0.269 OA
BRANCH  27  30
ATOM     30  C   UNL A   1      34.954  31.743  28.044  1.00  0.00     0.039 A 
ATOM     31  C   UNL A   1      36.138  32.478  28.145  1.00  0.00     0.014 A 
ATOM     32  C   UNL A   1      34.961  30.379  28.316  1.00  0.00     0.014 A 
ATOM     33  C   UNL A   1      37.291  31.868  28.655  1.00  0.00     0.010 A 
ATOM     34  C   UNL A   1      36.055  29.821  28.962  1.00  0.00     0.010 A 
ATOM     35  C   UNL A   1      37.238  30.553  29.145  1.00  0.00    -0.014 A 
BRANCH  35  36
ATOM     36  C   UNL A   1      38.372  29.899  29.862  1.00  0.00     0.031 A 
ATOM     37  C   UNL A   1      38.723  30.353  31.260  1.00  0.00     0.074 A 
ATOM     38  C   UNL A   1      39.186  29.034  29.219  1.00  0.00     0.049 A 
ATOM     39  N   UNL A   1      39.811  30.137  31.952  1.00  0.00    -0.248 NA
ATOM     40  C   UNL A   1      37.749  31.226  31.939  1.00  0.00     0.031 C 
ATOM     41  C   UNL A   1      39.030  28.578  27.836  1.00  0.00     0.029 A 
ATOM     42  N   UNL A   1      40.340  28.415  29.638  1.00  0.00    -0.354 N 
ATOM     43  C   UNL A   1      39.692  30.920  33.096  1.00  0.00     0.074 A 
ATOM     44  C   UNL A   1      38.444  31.642  32.986  1.00  0.00     0.031 C 
ATOM     45  C   UNL A   1      40.036  27.746  27.526  1.00  0.00     0.029 A 
ATOM     46  C   UNL A   1      40.938  27.642  28.668  1.00  0.00     0.049 A 
ATOM     47  H   UNL A   1      40.705  28.515  30.547  1.00  0.00     0.167 HD
ATOM     48  C   UNL A   1      40.522  31.004  34.162  1.00  0.00     0.034 A 
ATOM     49  C   UNL A   1      42.087  26.938  28.689  1.00  0.00     0.034 A 
ATOM     50  C   UNL A   1      41.690  30.186  34.332  1.00  0.00     0.049 A 
ATOM     51  C   UNL A   1      42.919  26.936  29.945  1.00  0.00     0.074 A 
ATOM     52  C   UNL A   1      42.531  30.101  35.427  1.00  0.00     0.029 A 
ATOM     53  N   UNL A   1      42.162  29.284  33.392  1.00  0.00    -0.354 N 
ATOM     54  N   UNL A   1      42.721  27.586  31.066  1.00  0.00    -0.248 NA
ATOM     55  C   UNL A   1      44.114  26.079  29.953  1.00  0.00     0.031 C 
ATOM     56  C   UNL A   1      43.505  29.135  35.155  1.00  0.00     0.029 A 
ATOM     57  C   UNL A   1      43.268  28.619  33.890  1.00  0.00     0.049 A 
ATOM     58  H   UNL A   1      41.769  29.138  32.501  1.00  0.00     0.167 HD
ATOM     59  C   UNL A   1      43.742  27.190  31.922  1.00  0.00     0.074 A 
ATOM     60  C   UNL A   1      44.545  26.226  31.198  1.00  0.00     0.031 C 
ATOM     61  C   UNL A   1      44.007  27.606  33.185  1.00  0.00     0.034 A 
BRANCH  48  62
ATOM     62  C   UNL A   1      40.141  31.948  35.274  1.00  0.00     0.023 A 
ATOM     63  C   UNL A   1      40.777  33.204  35.364  1.00  0.00     0.012 A 
ATOM     64  C   UNL A   1      39.132  31.619  36.201  1.00  0.00     0.148 A 
ATOM     65  C   UNL A   1      40.450  34.097  36.382  1.00  0.00     0.002 A 
ATOM     66  C   UNL A   1      38.777  32.534  37.186  1.00  0.00     0.091 A 
ATOM     67  F   UNL A   1      38.550  30.414  36.114  1.00  0.00    -0.205 F 
ATOM     68  C   UNL A   1      39.444  33.767  37.286  1.00  0.00     0.022 A 
BRANCH  66  69
ATOM     69  S   UNL A   1      37.439  32.241  38.348  1.00  0.00     0.127 S 
ATOM     70  O   UNL A   1      37.969  32.851  39.567  1.00  0.00    -0.237 OA
ATOM     71  O   UNL A   1      36.331  32.972  37.733  1.00  0.00    -0.237 OA
ATOM     72  O   UNL A   1      37.260  30.796  38.396  1.00  0.00    -0.744 OA
ENDBRANCH  66  69
ENDBRANCH  48  62
BRANCH  49  73
ATOM     73  C   UNL A   1      42.480  26.105  27.516  1.00  0.00     0.023 A 
ATOM     74  C   UNL A   1      43.272  26.686  26.504  1.00  0.00     0.012 A 
ATOM     75  C   UNL A   1      42.104  24.754  27.400  1.00  0.00     0.148 A 
ATOM     76  C   UNL A   1      43.651  25.947  25.383  1.00  0.00     0.002 A 
ATOM     77  C   UNL A   1      42.528  24.010  26.303  1.00  0.00     0.091 A 
ATOM     78  F   UNL A   1      41.339  24.221  28.363  1.00  0.00    -0.205 F 
ATOM     79  C   UNL A   1      43.287  24.608  25.287  1.00  0.00     0.022 A 
BRANCH  77  80
ATOM     80  S   UNL A   1      42.212  22.245  26.165  1.00  0.00     0.127 S 
ATOM     81  O   UNL A   1      40.762  22.213  26.003  1.00  0.00    -0.237 OA
ATOM     82  O   UNL A   1      42.976  21.890  24.968  1.00  0.00    -0.237 OA
ATOM     83  O   UNL A   1      42.732  21.664  27.396  1.00  0.00    -0.744 OA
ENDBRANCH  77  80
ENDBRANCH  49  73
BRANCH  61  84
ATOM     84  C   UNL A   1      45.184  26.992  33.892  1.00  0.00     0.023 A 
ATOM     85  C   UNL A   1      46.407  27.688  33.943  1.00  0.00     0.012 A 
ATOM     86  C   UNL A   1      45.050  25.772  34.584  1.00  0.00     0.148 A 
ATOM     87  C   UNL A   1      47.487  27.170  34.654  1.00  0.00     0.002 A 
ATOM     88  C   UNL A   1      46.117  25.282  35.327  1.00  0.00     0.091 A 
ATOM     89  F   UNL A   1      43.884  25.115  34.505  1.00  0.00    -0.205 F 
ATOM     90  C   UNL A   1      47.339  25.975  35.356  1.00  0.00     0.022 A 
BRANCH  88  91
ATOM     91  S   UNL A   1      45.983  23.801  36.334  1.00  0.00     0.127 S 
ATOM     92  O   UNL A   1      46.965  22.922  35.705  1.00  0.00    -0.237 OA
ATOM     93  O   UNL A   1      46.361  24.289  37.661  1.00  0.00    -0.237 OA
ATOM     94  O   UNL A   1      44.594  23.373  36.225  1.00  0.00    -0.744 OA
ENDBRANCH  88  91
ENDBRANCH  61  84
ENDBRANCH  35  36
ENDBRANCH  27  30
ENDBRANCH  25  26
ENDBRANCH  24  25
ENDBRANCH  23  24
ENDBRANCH   1  23
TORSDOF 19
ENDMDL
