MODEL 1
REMARK VINA RESULT:     -12.7      0.000      0.000
REMARK SMILES Cc1ccc([N+](=O)[O-])c(N[C@H]2[C@@H]3CC[C@@H](C3)[C@@H]2C(=O)NCCCCNC(=O)c2ccc(-c3c4nc(c(-c5cccc(S(=O)(=O)[O-])c5F)c5ccc([nH]5)c(-c5cccc(S(=O)(=O)[O-])c5F)c5nc(c(-c6cccc(S(=O)(=O)[O-])c6F)c6ccc3[nH]6)C=C5)C=C4)cc2)c1
REMARK SMILES IDX 22 1 21 2 20 3 18 4 19 5 17 7 11 8 12 9 13 10 16 11 15 12
REMARK SMILES IDX 14 13 10 14 9 16 1 17 2 18 3 19 91 20 4 21 5 22 6 23 7 24
REMARK SMILES IDX 8 25 23 26 24 27 25 28 26 29 27 31 28 32 29 33 90 34 30 35
REMARK SMILES IDX 89 36 31 37 32 38 33 39 83 40 34 41 88 42 82 43 84 44 35 45
REMARK SMILES IDX 87 46 81 47 80 48 36 50 68 51 48 52 67 53 49 54 52 55 66 56
REMARK SMILES IDX 85 57 50 58 51 59 65 61 86 62 53 63 37 64 38 65 46 66 39 67
REMARK SMILES IDX 41 68 47 69 40 70 42 71 43 72 44 73 45 74 69 75 70 76 78 77
REMARK SMILES IDX 71 78 73 79 79 80 72 81 74 82 75 83 76 84 77 85 54 86 55 87
REMARK SMILES IDX 63 88 56 89 58 90 64 91 57 92 59 93 60 94 61 95 62 96
REMARK H PARENT 20 6 10 15 25 30 84 49 52 60
REMARK Flexibility Score: inf
ROOT
ATOM      1  C   UNL A   1      35.947  20.719  25.131  1.00  0.00     0.023 C 
ENDROOT
BRANCH   1   2
ATOM      2  C   UNL A   1      35.198  21.462  26.258  1.00  0.00     0.116 C 
BRANCH   2   3
ATOM      3  N   UNL A   1      33.758  21.554  26.065  1.00  0.00    -0.356 N 
ATOM      4  C   UNL A   1      32.888  22.447  25.531  1.00  0.00     0.225 C 
ATOM      5  O   UNL A   1      31.705  22.071  25.551  1.00  0.00    -0.275 OA
ATOM      6  H   UNL A   1      33.293  20.759  26.412  1.00  0.00     0.163 HD
BRANCH   4   7
ATOM      7  C   UNL A   1      33.181  23.860  24.993  1.00  0.00     0.104 C 
ATOM      8  C   UNL A   1      32.079  24.653  24.311  1.00  0.00     0.095 C 
ATOM      9  C   UNL A   1      32.672  24.969  22.907  1.00  0.00     0.012 C 
ATOM     10  C   UNL A   1      32.974  23.690  22.083  1.00  0.00     0.006 C 
ATOM     11  C   UNL A   1      34.107  25.317  23.240  1.00  0.00     0.010 C 
ATOM     12  C   UNL A   1      34.364  24.001  23.994  1.00  0.00     0.004 C 
ATOM     13  C   UNL A   1      34.167  23.044  22.828  1.00  0.00     0.005 C 
BRANCH   8  14
ATOM     14  N   UNL A   1      31.618  25.828  25.098  1.00  0.00    -0.376 N 
ATOM     15  H   UNL A   1      30.912  25.552  25.727  1.00  0.00     0.161 HD
BRANCH  14  16
ATOM     16  C   UNL A   1      31.860  27.182  25.231  1.00  0.00     0.114 A 
ATOM     17  C   UNL A   1      34.407  29.117  27.399  1.00  0.00     0.044 C 
ATOM     18  C   UNL A   1      33.197  28.823  26.562  1.00  0.00    -0.049 A 
ATOM     19  C   UNL A   1      32.398  29.874  26.129  1.00  0.00     0.010 A 
ATOM     20  C   UNL A   1      32.885  27.507  26.159  1.00  0.00     0.036 A 
ATOM     21  C   UNL A   1      31.423  29.625  25.177  1.00  0.00     0.088 A 
ATOM     22  C   UNL A   1      31.230  28.314  24.678  1.00  0.00     0.292 A 
BRANCH  22  23
ATOM     23  N   UNL A   1      30.628  28.332  23.351  1.00  0.00     0.064 N 
ATOM     24  O   UNL A   1      29.598  27.655  23.181  1.00  0.00    -0.258 OA
ATOM     25  O   UNL A   1      31.076  29.148  22.534  1.00  0.00    -0.258 OA
ENDBRANCH  22  23
ENDBRANCH  14  16
ENDBRANCH   8  14
ENDBRANCH   4   7
ENDBRANCH   2   3
ENDBRANCH   1   2
BRANCH   1  26
ATOM     26  C   UNL A   1      37.403  21.117  24.901  1.00  0.00     0.023 C 
BRANCH  26  27
ATOM     27  C   UNL A   1      37.777  22.321  25.731  1.00  0.00     0.116 C 
BRANCH  27  28
ATOM     28  N   UNL A   1      39.020  22.149  26.453  1.00  0.00    -0.352 N 
ATOM     29  C   UNL A   1      40.049  23.043  26.661  1.00  0.00     0.251 C 
ATOM     30  H   UNL A   1      39.151  21.259  26.855  1.00  0.00     0.163 HD
ATOM     31  O   UNL A   1      41.174  22.571  26.840  1.00  0.00    -0.269 OA
BRANCH  29  32
ATOM     32  C   UNL A   1      39.788  24.496  26.838  1.00  0.00     0.039 A 
ATOM     33  C   UNL A   1      40.563  25.398  26.091  1.00  0.00     0.014 A 
ATOM     34  C   UNL A   1      39.024  24.976  27.890  1.00  0.00     0.014 A 
ATOM     35  C   UNL A   1      40.802  26.682  26.574  1.00  0.00     0.010 A 
ATOM     36  C   UNL A   1      39.338  26.186  28.436  1.00  0.00     0.010 A 
ATOM     37  C   UNL A   1      40.293  26.995  27.821  1.00  0.00    -0.014 A 
BRANCH  37  38
ATOM     38  C   UNL A   1      40.599  28.155  28.624  1.00  0.00     0.031 A 
ATOM     39  C   UNL A   1      39.671  29.296  28.559  1.00  0.00     0.074 A 
ATOM     40  C   UNL A   1      41.344  27.882  29.721  1.00  0.00     0.049 A 
ATOM     41  N   UNL A   1      39.836  30.406  29.184  1.00  0.00    -0.248 NA
ATOM     42  C   UNL A   1      38.434  29.244  27.787  1.00  0.00     0.031 C 
ATOM     43  C   UNL A   1      41.292  28.541  31.016  1.00  0.00     0.029 A 
ATOM     44  N   UNL A   1      42.365  26.933  29.881  1.00  0.00    -0.354 N 
ATOM     45  C   UNL A   1      38.612  31.048  29.192  1.00  0.00     0.074 A 
ATOM     46  C   UNL A   1      37.827  30.360  28.199  1.00  0.00     0.031 C 
ATOM     47  C   UNL A   1      42.390  28.204  31.714  1.00  0.00     0.029 A 
ATOM     48  C   UNL A   1      43.266  27.494  30.798  1.00  0.00     0.049 A 
ATOM     49  H   UNL A   1      42.434  26.055  29.441  1.00  0.00     0.167 HD
ATOM     50  C   UNL A   1      38.372  31.964  30.174  1.00  0.00     0.034 A 
ATOM     51  C   UNL A   1      44.510  27.926  30.423  1.00  0.00     0.034 A 
ATOM     52  C   UNL A   1      39.580  32.127  31.013  1.00  0.00     0.049 A 
ATOM     53  C   UNL A   1      44.663  29.440  30.531  1.00  0.00     0.074 A 
ATOM     54  C   UNL A   1      39.931  31.660  32.270  1.00  0.00     0.029 A 
ATOM     55  N   UNL A   1      40.761  32.576  30.426  1.00  0.00    -0.354 N 
ATOM     56  N   UNL A   1      43.695  30.260  30.844  1.00  0.00    -0.248 NA
ATOM     57  C   UNL A   1      45.917  30.152  30.305  1.00  0.00     0.031 C 
ATOM     58  C   UNL A   1      41.349  31.739  32.387  1.00  0.00     0.029 A 
ATOM     59  C   UNL A   1      41.862  32.288  31.222  1.00  0.00     0.049 A 
ATOM     60  H   UNL A   1      40.809  33.037  29.557  1.00  0.00     0.167 HD
ATOM     61  C   UNL A   1      44.102  31.562  30.716  1.00  0.00     0.074 A 
ATOM     62  C   UNL A   1      45.532  31.431  30.473  1.00  0.00     0.031 C 
ATOM     63  C   UNL A   1      43.218  32.615  30.764  1.00  0.00     0.034 A 
BRANCH  50  64
ATOM     64  C   UNL A   1      37.011  32.535  30.580  1.00  0.00     0.023 A 
ATOM     65  C   UNL A   1      36.548  32.221  31.880  1.00  0.00     0.012 A 
ATOM     66  C   UNL A   1      36.124  33.319  29.800  1.00  0.00     0.148 A 
ATOM     67  C   UNL A   1      35.282  32.594  32.351  1.00  0.00     0.002 A 
ATOM     68  C   UNL A   1      34.848  33.674  30.256  1.00  0.00     0.091 A 
ATOM     69  F   UNL A   1      36.506  33.787  28.615  1.00  0.00    -0.205 F 
ATOM     70  C   UNL A   1      34.421  33.307  31.532  1.00  0.00     0.022 A 
BRANCH  68  71
ATOM     71  S   UNL A   1      33.666  34.588  29.240  1.00  0.00     0.127 S 
ATOM     72  O   UNL A   1      33.294  33.593  28.233  1.00  0.00    -0.237 OA
ATOM     73  O   UNL A   1      32.609  34.905  30.199  1.00  0.00    -0.237 OA
ATOM     74  O   UNL A   1      34.383  35.740  28.705  1.00  0.00    -0.744 OA
ENDBRANCH  68  71
ENDBRANCH  50  64
BRANCH  51  75
ATOM     75  C   UNL A   1      45.152  27.036  29.405  1.00  0.00     0.023 A 
ATOM     76  C   UNL A   1      45.400  25.703  29.816  1.00  0.00     0.012 A 
ATOM     77  C   UNL A   1      45.057  27.313  28.028  1.00  0.00     0.148 A 
ATOM     78  C   UNL A   1      45.369  24.652  28.899  1.00  0.00     0.002 A 
ATOM     79  C   UNL A   1      45.015  26.255  27.119  1.00  0.00     0.091 A 
ATOM     80  F   UNL A   1      44.897  28.586  27.645  1.00  0.00    -0.205 F 
ATOM     81  C   UNL A   1      45.124  24.925  27.559  1.00  0.00     0.022 A 
BRANCH  79  82
ATOM     82  S   UNL A   1      44.649  26.498  25.375  1.00  0.00     0.127 S 
ATOM     83  O   UNL A   1      43.897  25.288  25.060  1.00  0.00    -0.237 OA
ATOM     84  O   UNL A   1      43.853  27.723  25.400  1.00  0.00    -0.237 OA
ATOM     85  O   UNL A   1      45.945  26.633  24.727  1.00  0.00    -0.744 OA
ENDBRANCH  79  82
ENDBRANCH  51  75
BRANCH  63  86
ATOM     86  C   UNL A   1      43.536  34.059  30.373  1.00  0.00     0.023 A 
ATOM     87  C   UNL A   1      43.939  35.030  31.309  1.00  0.00     0.012 A 
ATOM     88  C   UNL A   1      43.556  34.472  29.011  1.00  0.00     0.148 A 
ATOM     89  C   UNL A   1      44.260  36.342  30.943  1.00  0.00     0.002 A 
ATOM     90  C   UNL A   1      44.006  35.737  28.639  1.00  0.00     0.091 A 
ATOM     91  F   UNL A   1      43.101  33.656  28.050  1.00  0.00    -0.205 F 
ATOM     92  C   UNL A   1      44.318  36.692  29.604  1.00  0.00     0.022 A 
BRANCH  90  93
ATOM     93  S   UNL A   1      44.357  36.134  26.919  1.00  0.00     0.127 S 
ATOM     94  O   UNL A   1      43.020  36.391  26.389  1.00  0.00    -0.237 OA
ATOM     95  O   UNL A   1      45.204  37.323  27.040  1.00  0.00    -0.237 OA
ATOM     96  O   UNL A   1      45.048  34.964  26.393  1.00  0.00    -0.744 OA
ENDBRANCH  90  93
ENDBRANCH  63  86
ENDBRANCH  37  38
ENDBRANCH  29  32
ENDBRANCH  27  28
ENDBRANCH  26  27
ENDBRANCH   1  26
TORSDOF 17
ENDMDL
MODEL 2
REMARK VINA RESULT:     -12.5      3.722      9.161
REMARK SMILES Cc1ccc([N+](=O)[O-])c(N[C@H]2[C@@H]3CC[C@@H](C3)[C@@H]2C(=O)NCCCCNC(=O)c2ccc(-c3c4nc(c(-c5cccc(S(=O)(=O)[O-])c5F)c5ccc([nH]5)c(-c5cccc(S(=O)(=O)[O-])c5F)c5nc(c(-c6cccc(S(=O)(=O)[O-])c6F)c6ccc3[nH]6)C=C5)C=C4)cc2)c1
REMARK SMILES IDX 22 1 21 2 20 3 18 4 19 5 17 7 11 8 12 9 13 10 16 11 15 12
REMARK SMILES IDX 14 13 10 14 9 16 1 17 2 18 3 19 91 20 4 21 5 22 6 23 7 24
REMARK SMILES IDX 8 25 23 26 24 27 25 28 26 29 27 31 28 32 29 33 90 34 30 35
REMARK SMILES IDX 89 36 31 37 32 38 33 39 83 40 34 41 88 42 82 43 84 44 35 45
REMARK SMILES IDX 87 46 81 47 80 48 36 50 68 51 48 52 67 53 49 54 52 55 66 56
REMARK SMILES IDX 85 57 50 58 51 59 65 61 86 62 53 63 37 64 38 65 46 66 39 67
REMARK SMILES IDX 41 68 47 69 40 70 42 71 43 72 44 73 45 74 69 75 70 76 78 77
REMARK SMILES IDX 71 78 73 79 79 80 72 81 74 82 75 83 76 84 77 85 54 86 55 87
REMARK SMILES IDX 63 88 56 89 58 90 64 91 57 92 59 93 60 94 61 95 62 96
REMARK H PARENT 20 6 10 15 25 30 84 49 52 60
REMARK Flexibility Score: inf
ROOT
ATOM      1  C   UNL A   1      33.992  28.786  25.795  1.00  0.00     0.023 C 
ENDROOT
BRANCH   1   2
ATOM      2  C   UNL A   1      33.661  27.328  26.181  1.00  0.00     0.116 C 
BRANCH   2   3
ATOM      3  N   UNL A   1      32.249  26.988  26.097  1.00  0.00    -0.356 N 
ATOM      4  C   UNL A   1      31.456  26.260  25.272  1.00  0.00     0.225 C 
ATOM      5  O   UNL A   1      30.267  26.217  25.626  1.00  0.00    -0.275 OA
ATOM      6  H   UNL A   1      31.733  27.392  26.832  1.00  0.00     0.163 HD
BRANCH   4   7
ATOM      7  C   UNL A   1      31.835  25.569  23.949  1.00  0.00     0.104 C 
ATOM      8  C   UNL A   1      33.292  25.257  23.650  1.00  0.00     0.095 C 
ATOM      9  C   UNL A   1      33.552  25.991  22.302  1.00  0.00     0.012 C 
ATOM     10  C   UNL A   1      33.365  27.527  22.410  1.00  0.00     0.006 C 
ATOM     11  C   UNL A   1      32.281  25.703  21.533  1.00  0.00     0.010 C 
ATOM     12  C   UNL A   1      31.362  26.255  22.636  1.00  0.00     0.004 C 
ATOM     13  C   UNL A   1      31.840  27.699  22.611  1.00  0.00     0.005 C 
BRANCH   8  14
ATOM     14  N   UNL A   1      33.603  23.803  23.665  1.00  0.00    -0.376 N 
ATOM     15  H   UNL A   1      33.032  23.332  23.016  1.00  0.00     0.161 HD
BRANCH  14  16
ATOM     16  C   UNL A   1      34.436  22.899  24.298  1.00  0.00     0.114 A 
ATOM     17  C   UNL A   1      37.886  23.353  25.978  1.00  0.00     0.044 C 
ATOM     18  C   UNL A   1      36.709  22.696  25.319  1.00  0.00    -0.049 A 
ATOM     19  C   UNL A   1      36.633  21.308  25.290  1.00  0.00     0.010 A 
ATOM     20  C   UNL A   1      35.651  23.456  24.777  1.00  0.00     0.036 A 
ATOM     21  C   UNL A   1      35.449  20.712  24.891  1.00  0.00     0.088 A 
ATOM     22  C   UNL A   1      34.347  21.507  24.491  1.00  0.00     0.292 A 
BRANCH  22  23
ATOM     23  N   UNL A   1      33.086  20.797  24.667  1.00  0.00     0.064 N 
ATOM     24  O   UNL A   1      32.157  21.081  23.892  1.00  0.00    -0.258 OA
ATOM     25  O   UNL A   1      33.076  19.845  25.458  1.00  0.00    -0.258 OA
ENDBRANCH  22  23
ENDBRANCH  14  16
ENDBRANCH   8  14
ENDBRANCH   4   7
ENDBRANCH   2   3
ENDBRANCH   1   2
BRANCH   1  26
ATOM     26  C   UNL A   1      32.939  29.838  26.135  1.00  0.00     0.023 C 
BRANCH  26  27
ATOM     27  C   UNL A   1      33.202  30.454  27.489  1.00  0.00     0.116 C 
BRANCH  27  28
ATOM     28  N   UNL A   1      34.181  31.520  27.446  1.00  0.00    -0.352 N 
ATOM     29  C   UNL A   1      35.403  31.618  28.075  1.00  0.00     0.251 C 
ATOM     30  H   UNL A   1      33.936  32.291  26.883  1.00  0.00     0.163 HD
ATOM     31  O   UNL A   1      35.822  32.753  28.314  1.00  0.00    -0.269 OA
BRANCH  29  32
ATOM     32  C   UNL A   1      36.258  30.422  28.297  1.00  0.00     0.039 A 
ATOM     33  C   UNL A   1      36.356  29.918  29.604  1.00  0.00     0.014 A 
ATOM     34  C   UNL A   1      37.152  29.977  27.336  1.00  0.00     0.014 A 
ATOM     35  C   UNL A   1      37.499  29.230  30.005  1.00  0.00     0.010 A 
ATOM     36  C   UNL A   1      38.325  29.408  27.737  1.00  0.00     0.010 A 
ATOM     37  C   UNL A   1      38.526  29.117  29.087  1.00  0.00    -0.014 A 
BRANCH  37  38
ATOM     38  C   UNL A   1      39.875  28.666  29.334  1.00  0.00     0.031 A 
ATOM     39  C   UNL A   1      40.176  27.246  29.093  1.00  0.00     0.074 A 
ATOM     40  C   UNL A   1      40.808  29.640  29.221  1.00  0.00     0.049 A 
ATOM     41  N   UNL A   1      41.316  26.696  29.309  1.00  0.00    -0.248 NA
ATOM     42  C   UNL A   1      39.186  26.329  28.538  1.00  0.00     0.031 C 
ATOM     43  C   UNL A   1      42.177  29.506  28.748  1.00  0.00     0.029 A 
ATOM     44  N   UNL A   1      40.713  30.999  29.556  1.00  0.00    -0.354 N 
ATOM     45  C   UNL A   1      41.324  25.501  28.615  1.00  0.00     0.074 A 
ATOM     46  C   UNL A   1      39.943  25.259  28.280  1.00  0.00     0.031 C 
ATOM     47  C   UNL A   1      42.860  30.613  29.089  1.00  0.00     0.029 A 
ATOM     48  C   UNL A   1      41.997  31.381  29.971  1.00  0.00     0.049 A 
ATOM     49  H   UNL A   1      39.910  31.567  29.509  1.00  0.00     0.167 HD
ATOM     50  C   UNL A   1      42.528  24.968  28.260  1.00  0.00     0.034 A 
ATOM     51  C   UNL A   1      42.283  31.667  31.279  1.00  0.00     0.034 A 
ATOM     52  C   UNL A   1      43.623  25.805  28.799  1.00  0.00     0.049 A 
ATOM     53  C   UNL A   1      43.228  30.649  31.910  1.00  0.00     0.074 A 
ATOM     54  C   UNL A   1      44.469  26.743  28.228  1.00  0.00     0.029 A 
ATOM     55  N   UNL A   1      43.732  25.978  30.178  1.00  0.00    -0.354 N 
ATOM     56  N   UNL A   1      43.645  29.562  31.317  1.00  0.00    -0.248 NA
ATOM     57  C   UNL A   1      43.786  30.776  33.252  1.00  0.00     0.031 C 
ATOM     58  C   UNL A   1      45.004  27.547  29.276  1.00  0.00     0.029 A 
ATOM     59  C   UNL A   1      44.520  27.079  30.488  1.00  0.00     0.049 A 
ATOM     60  H   UNL A   1      43.304  25.396  30.846  1.00  0.00     0.167 HD
ATOM     61  C   UNL A   1      44.359  28.780  32.186  1.00  0.00     0.074 A 
ATOM     62  C   UNL A   1      44.499  29.639  33.354  1.00  0.00     0.031 C 
ATOM     63  C   UNL A   1      44.715  27.485  31.885  1.00  0.00     0.034 A 
BRANCH  50  64
ATOM     64  C   UNL A   1      42.774  23.867  27.225  1.00  0.00     0.023 A 
ATOM     65  C   UNL A   1      43.459  24.242  26.045  1.00  0.00     0.012 A 
ATOM     66  C   UNL A   1      42.368  22.511  27.280  1.00  0.00     0.148 A 
ATOM     67  C   UNL A   1      43.668  23.363  24.973  1.00  0.00     0.002 A 
ATOM     68  C   UNL A   1      42.553  21.635  26.202  1.00  0.00     0.091 A 
ATOM     69  F   UNL A   1      41.837  22.013  28.393  1.00  0.00    -0.205 F 
ATOM     70  C   UNL A   1      43.200  22.062  25.042  1.00  0.00     0.022 A 
BRANCH  68  71
ATOM     71  S   UNL A   1      41.955  19.930  26.214  1.00  0.00     0.127 S 
ATOM     72  O   UNL A   1      40.508  20.112  26.094  1.00  0.00    -0.237 OA
ATOM     73  O   UNL A   1      42.597  19.365  25.028  1.00  0.00    -0.237 OA
ATOM     74  O   UNL A   1      42.381  19.350  27.483  1.00  0.00    -0.744 OA
ENDBRANCH  68  71
ENDBRANCH  50  64
BRANCH  51  75
ATOM     75  C   UNL A   1      41.177  32.403  31.968  1.00  0.00     0.023 A 
ATOM     76  C   UNL A   1      40.820  33.653  31.404  1.00  0.00     0.012 A 
ATOM     77  C   UNL A   1      40.236  31.726  32.767  1.00  0.00     0.148 A 
ATOM     78  C   UNL A   1      39.508  34.125  31.479  1.00  0.00     0.002 A 
ATOM     79  C   UNL A   1      38.924  32.199  32.826  1.00  0.00     0.091 A 
ATOM     80  F   UNL A   1      40.607  30.583  33.357  1.00  0.00    -0.205 F 
ATOM     81  C   UNL A   1      38.551  33.371  32.146  1.00  0.00     0.022 A 
BRANCH  79  82
ATOM     82  S   UNL A   1      37.602  31.271  33.616  1.00  0.00     0.127 S 
ATOM     83  O   UNL A   1      36.420  31.840  32.975  1.00  0.00    -0.237 OA
ATOM     84  O   UNL A   1      37.913  29.900  33.216  1.00  0.00    -0.237 OA
ATOM     85  O   UNL A   1      37.746  31.533  35.040  1.00  0.00    -0.744 OA
ENDBRANCH  79  82
ENDBRANCH  51  75
BRANCH  63  86
ATOM     86  C   UNL A   1      45.273  26.464  32.879  1.00  0.00     0.023 A 
ATOM     87  C   UNL A   1      46.627  26.081  32.897  1.00  0.00     0.012 A 
ATOM     88  C   UNL A   1      44.467  25.931  33.924  1.00  0.00     0.148 A 
ATOM     89  C   UNL A   1      47.139  25.170  33.828  1.00  0.00     0.002 A 
ATOM     90  C   UNL A   1      45.012  25.133  34.929  1.00  0.00     0.091 A 
ATOM     91  F   UNL A   1      43.146  26.157  33.944  1.00  0.00    -0.205 F 
ATOM     92  C   UNL A   1      46.338  24.713  34.862  1.00  0.00     0.022 A 
BRANCH  90  93
ATOM     93  S   UNL A   1      44.083  24.750  36.422  1.00  0.00     0.127 S 
ATOM     94  O   UNL A   1      43.880  26.076  37.001  1.00  0.00    -0.237 OA
ATOM     95  O   UNL A   1      42.870  24.128  35.884  1.00  0.00    -0.237 OA
ATOM     96  O   UNL A   1      44.934  23.838  37.175  1.00  0.00    -0.744 OA
ENDBRANCH  90  93
ENDBRANCH  63  86
ENDBRANCH  37  38
ENDBRANCH  29  32
ENDBRANCH  27  28
ENDBRANCH  26  27
ENDBRANCH   1  26
TORSDOF 17
ENDMDL
MODEL 3
REMARK VINA RESULT:     -12.2      3.955      9.607
REMARK SMILES Cc1ccc([N+](=O)[O-])c(N[C@H]2[C@@H]3CC[C@@H](C3)[C@@H]2C(=O)NCCCCNC(=O)c2ccc(-c3c4nc(c(-c5cccc(S(=O)(=O)[O-])c5F)c5ccc([nH]5)c(-c5cccc(S(=O)(=O)[O-])c5F)c5nc(c(-c6cccc(S(=O)(=O)[O-])c6F)c6ccc3[nH]6)C=C5)C=C4)cc2)c1
REMARK SMILES IDX 22 1 21 2 20 3 18 4 19 5 17 7 11 8 12 9 13 10 16 11 15 12
REMARK SMILES IDX 14 13 10 14 9 16 1 17 2 18 3 19 91 20 4 21 5 22 6 23 7 24
REMARK SMILES IDX 8 25 23 26 24 27 25 28 26 29 27 31 28 32 29 33 90 34 30 35
REMARK SMILES IDX 89 36 31 37 32 38 33 39 83 40 34 41 88 42 82 43 84 44 35 45
REMARK SMILES IDX 87 46 81 47 80 48 36 50 68 51 48 52 67 53 49 54 52 55 66 56
REMARK SMILES IDX 85 57 50 58 51 59 65 61 86 62 53 63 37 64 38 65 46 66 39 67
REMARK SMILES IDX 41 68 47 69 40 70 42 71 43 72 44 73 45 74 69 75 70 76 78 77
REMARK SMILES IDX 71 78 73 79 79 80 72 81 74 82 75 83 76 84 77 85 54 86 55 87
REMARK SMILES IDX 63 88 56 89 58 90 64 91 57 92 59 93 60 94 61 95 62 96
REMARK H PARENT 20 6 10 15 25 30 84 49 52 60
REMARK Flexibility Score: inf
ROOT
ATOM      1  C   UNL A   1      32.318  30.543  26.619  1.00  0.00     0.023 C 
ENDROOT
BRANCH   1   2
ATOM      2  C   UNL A   1      31.560  29.770  25.519  1.00  0.00     0.116 C 
BRANCH   2   3
ATOM      3  N   UNL A   1      32.415  29.004  24.622  1.00  0.00    -0.356 N 
ATOM      4  C   UNL A   1      32.714  27.698  24.420  1.00  0.00     0.225 C 
ATOM      5  O   UNL A   1      33.500  27.501  23.479  1.00  0.00    -0.275 OA
ATOM      6  H   UNL A   1      32.903  29.589  23.999  1.00  0.00     0.163 HD
BRANCH   4   7
ATOM      7  C   UNL A   1      32.267  26.478  25.246  1.00  0.00     0.104 C 
ATOM      8  C   UNL A   1      32.602  25.075  24.766  1.00  0.00     0.095 C 
ATOM      9  C   UNL A   1      31.211  24.384  24.658  1.00  0.00     0.012 C 
ATOM     10  C   UNL A   1      30.278  25.074  23.629  1.00  0.00     0.006 C 
ATOM     11  C   UNL A   1      30.513  24.883  25.905  1.00  0.00     0.010 C 
ATOM     12  C   UNL A   1      30.752  26.366  25.575  1.00  0.00     0.004 C 
ATOM     13  C   UNL A   1      29.942  26.433  24.290  1.00  0.00     0.005 C 
BRANCH   8  14
ATOM     14  N   UNL A   1      33.606  24.380  25.614  1.00  0.00    -0.376 N 
ATOM     15  H   UNL A   1      33.439  24.583  26.563  1.00  0.00     0.161 HD
BRANCH  14  16
ATOM     16  C   UNL A   1      34.699  23.541  25.500  1.00  0.00     0.114 A 
ATOM     17  C   UNL A   1      38.436  24.098  26.312  1.00  0.00     0.044 C 
ATOM     18  C   UNL A   1      37.190  23.512  25.715  1.00  0.00    -0.049 A 
ATOM     19  C   UNL A   1      37.268  22.309  25.025  1.00  0.00     0.010 A 
ATOM     20  C   UNL A   1      35.933  24.129  25.888  1.00  0.00     0.036 A 
ATOM     21  C   UNL A   1      36.094  21.661  24.677  1.00  0.00     0.088 A 
ATOM     22  C   UNL A   1      34.840  22.234  24.996  1.00  0.00     0.292 A 
BRANCH  22  23
ATOM     23  N   UNL A   1      33.798  21.218  25.092  1.00  0.00     0.064 N 
ATOM     24  O   UNL A   1      34.039  20.104  24.595  1.00  0.00    -0.258 OA
ATOM     25  O   UNL A   1      32.820  21.474  25.806  1.00  0.00    -0.258 OA
ENDBRANCH  22  23
ENDBRANCH  14  16
ENDBRANCH   8  14
ENDBRANCH   4   7
ENDBRANCH   2   3
ENDBRANCH   1   2
BRANCH   1  26
ATOM     26  C   UNL A   1      33.486  29.816  27.283  1.00  0.00     0.023 C 
BRANCH  26  27
ATOM     27  C   UNL A   1      34.608  30.772  27.608  1.00  0.00     0.116 C 
BRANCH  27  28
ATOM     28  N   UNL A   1      34.147  32.121  27.864  1.00  0.00    -0.352 N 
ATOM     29  C   UNL A   1      34.360  32.931  28.959  1.00  0.00     0.251 C 
ATOM     30  H   UNL A   1      33.599  32.519  27.148  1.00  0.00     0.163 HD
ATOM     31  O   UNL A   1      33.506  33.788  29.197  1.00  0.00    -0.269 OA
BRANCH  29  32
ATOM     32  C   UNL A   1      35.642  32.895  29.712  1.00  0.00     0.039 A 
ATOM     33  C   UNL A   1      36.805  33.320  29.049  1.00  0.00     0.014 A 
ATOM     34  C   UNL A   1      35.763  32.214  30.912  1.00  0.00     0.014 A 
ATOM     35  C   UNL A   1      38.047  32.810  29.419  1.00  0.00     0.010 A 
ATOM     36  C   UNL A   1      36.951  31.615  31.216  1.00  0.00     0.010 A 
ATOM     37  C   UNL A   1      38.067  31.849  30.413  1.00  0.00    -0.014 A 
BRANCH  37  38
ATOM     38  C   UNL A   1      39.180  31.015  30.800  1.00  0.00     0.031 A 
ATOM     39  C   UNL A   1      39.329  29.716  30.122  1.00  0.00     0.074 A 
ATOM     40  C   UNL A   1      40.233  31.702  31.302  1.00  0.00     0.049 A 
ATOM     41  N   UNL A   1      40.243  28.855  30.390  1.00  0.00    -0.248 NA
ATOM     42  C   UNL A   1      38.450  29.308  29.032  1.00  0.00     0.031 C 
ATOM     43  C   UNL A   1      41.645  31.380  31.172  1.00  0.00     0.029 A 
ATOM     44  N   UNL A   1      40.236  32.861  32.091  1.00  0.00    -0.354 N 
ATOM     45  C   UNL A   1      40.299  27.982  29.321  1.00  0.00     0.074 A 
ATOM     46  C   UNL A   1      39.082  28.219  28.586  1.00  0.00     0.031 C 
ATOM     47  C   UNL A   1      42.335  32.109  32.066  1.00  0.00     0.029 A 
ATOM     48  C   UNL A   1      41.357  32.751  32.927  1.00  0.00     0.049 A 
ATOM     49  H   UNL A   1      39.585  33.599  32.064  1.00  0.00     0.167 HD
ATOM     50  C   UNL A   1      41.460  27.300  29.105  1.00  0.00     0.034 A 
ATOM     51  C   UNL A   1      41.241  32.524  34.273  1.00  0.00     0.034 A 
ATOM     52  C   UNL A   1      42.431  27.614  30.176  1.00  0.00     0.049 A 
ATOM     53  C   UNL A   1      41.767  31.154  34.685  1.00  0.00     0.074 A 
ATOM     54  C   UNL A   1      43.546  28.437  30.234  1.00  0.00     0.029 A 
ATOM     55  N   UNL A   1      42.111  27.308  31.497  1.00  0.00    -0.354 N 
ATOM     56  N   UNL A   1      42.189  30.242  33.849  1.00  0.00    -0.248 NA
ATOM     57  C   UNL A   1      41.871  30.701  36.068  1.00  0.00     0.031 C 
ATOM     58  C   UNL A   1      43.824  28.702  31.607  1.00  0.00     0.029 A 
ATOM     59  C   UNL A   1      42.909  28.014  32.387  1.00  0.00     0.049 A 
ATOM     60  H   UNL A   1      41.408  26.673  31.765  1.00  0.00     0.167 HD
ATOM     61  C   UNL A   1      42.458  29.070  34.505  1.00  0.00     0.074 A 
ATOM     62  C   UNL A   1      42.337  29.449  35.907  1.00  0.00     0.031 C 
ATOM     63  C   UNL A   1      42.696  27.892  33.835  1.00  0.00     0.034 A 
BRANCH  50  64
ATOM     64  C   UNL A   1      41.864  26.560  27.826  1.00  0.00     0.023 A 
ATOM     65  C   UNL A   1      41.954  27.332  26.644  1.00  0.00     0.012 A 
ATOM     66  C   UNL A   1      42.127  25.178  27.664  1.00  0.00     0.148 A 
ATOM     67  C   UNL A   1      42.218  26.772  25.386  1.00  0.00     0.002 A 
ATOM     68  C   UNL A   1      42.368  24.609  26.406  1.00  0.00     0.091 A 
ATOM     69  F   UNL A   1      42.204  24.379  28.725  1.00  0.00    -0.205 F 
ATOM     70  C   UNL A   1      42.408  25.405  25.262  1.00  0.00     0.022 A 
BRANCH  68  71
ATOM     71  S   UNL A   1      42.609  22.834  26.166  1.00  0.00     0.127 S 
ATOM     72  O   UNL A   1      41.322  22.289  26.602  1.00  0.00    -0.237 OA
ATOM     73  O   UNL A   1      42.850  22.744  24.727  1.00  0.00    -0.237 OA
ATOM     74  O   UNL A   1      43.736  22.451  27.008  1.00  0.00    -0.744 OA
ENDBRANCH  68  71
ENDBRANCH  50  64
BRANCH  51  75
ATOM     75  C   UNL A   1      40.093  33.260  34.889  1.00  0.00     0.023 A 
ATOM     76  C   UNL A   1      38.848  32.584  34.881  1.00  0.00     0.012 A 
ATOM     77  C   UNL A   1      40.302  34.282  35.835  1.00  0.00     0.148 A 
ATOM     78  C   UNL A   1      37.913  32.788  35.897  1.00  0.00     0.002 A 
ATOM     79  C   UNL A   1      39.368  34.471  36.854  1.00  0.00     0.091 A 
ATOM     80  F   UNL A   1      41.452  34.966  35.788  1.00  0.00    -0.205 F 
ATOM     81  C   UNL A   1      38.199  33.694  36.911  1.00  0.00     0.022 A 
BRANCH  79  82
ATOM     82  S   UNL A   1      39.668  35.577  38.240  1.00  0.00     0.127 S 
ATOM     83  O   UNL A   1      38.560  35.242  39.129  1.00  0.00    -0.237 OA
ATOM     84  O   UNL A   1      40.980  35.133  38.705  1.00  0.00    -0.237 OA
ATOM     85  O   UNL A   1      39.650  36.917  37.673  1.00  0.00    -0.744 OA
ENDBRANCH  79  82
ENDBRANCH  51  75
BRANCH  63  86
ATOM     86  C   UNL A   1      42.743  26.502  34.473  1.00  0.00     0.023 A 
ATOM     87  C   UNL A   1      41.699  25.993  35.267  1.00  0.00     0.012 A 
ATOM     88  C   UNL A   1      43.805  25.595  34.195  1.00  0.00     0.148 A 
ATOM     89  C   UNL A   1      41.733  24.708  35.822  1.00  0.00     0.002 A 
ATOM     90  C   UNL A   1      43.769  24.274  34.636  1.00  0.00     0.091 A 
ATOM     91  F   UNL A   1      44.892  26.009  33.528  1.00  0.00    -0.205 F 
ATOM     92  C   UNL A   1      42.757  23.837  35.487  1.00  0.00     0.022 A 
BRANCH  90  93
ATOM     93  S   UNL A   1      44.923  23.047  34.003  1.00  0.00     0.127 S 
ATOM     94  O   UNL A   1      46.191  23.506  34.565  1.00  0.00    -0.237 OA
ATOM     95  O   UNL A   1      44.411  21.805  34.588  1.00  0.00    -0.237 OA
ATOM     96  O   UNL A   1      44.795  23.118  32.554  1.00  0.00    -0.744 OA
ENDBRANCH  90  93
ENDBRANCH  63  86
ENDBRANCH  37  38
ENDBRANCH  29  32
ENDBRANCH  27  28
ENDBRANCH  26  27
ENDBRANCH   1  26
TORSDOF 17
ENDMDL
