MODEL 1
REMARK VINA RESULT:     -11.6      0.000      0.000
REMARK SMILES CCOc1cccc(-c2ccc([C@@H](C)C(=O)NCCCCNC(=O)c3ccc(-c4c5nc(c(-c6cccc(S(=O)(=O)[O-])c6F)c6ccc([nH]6)c(-c6cccc(S(=O)(=O)[O-])c6F)c6nc(c(-c7cccc(S(=O)(=O)[O-])c7F)c7ccc4[nH]7)C=C6)C=C5)cc3)cc2F)c1
REMARK SMILES IDX 19 1 18 2 17 3 15 4 16 5 13 7 14 8 12 9 9 10 10 11 89 12
REMARK SMILES IDX 11 13 88 14 90 15 8 16 4 17 5 18 91 19 6 20 7 21 3 22 2 23
REMARK SMILES IDX 1 24 20 25 21 26 22 27 23 28 24 30 25 31 26 32 87 33 27 34
REMARK SMILES IDX 86 35 28 36 29 37 30 38 80 39 31 40 85 41 79 42 81 43 32 44
REMARK SMILES IDX 84 45 78 46 77 47 33 49 65 50 45 51 64 52 46 53 49 54 63 55
REMARK SMILES IDX 82 56 47 57 48 58 62 60 83 61 50 62 34 63 35 64 43 65 36 66
REMARK SMILES IDX 38 67 44 68 37 69 39 70 40 71 41 72 42 73 66 74 67 75 75 76
REMARK SMILES IDX 68 77 70 78 76 79 69 80 71 81 72 82 73 83 74 84 51 85 52 86
REMARK SMILES IDX 60 87 53 88 55 89 61 90 54 91 56 92 57 93 58 94 59 95
REMARK H PARENT 17 6 22 29 81 48 49 59
REMARK Flexibility Score: inf
ROOT
ATOM      1  C   UNL A   1      32.574  29.405  24.840  1.00  0.00     0.023 C 
ENDROOT
BRANCH   1   2
ATOM      2  C   UNL A   1      31.066  29.653  24.762  1.00  0.00     0.116 C 
BRANCH   2   3
ATOM      3  N   UNL A   1      30.645  30.043  23.433  1.00  0.00    -0.356 N 
ATOM      4  C   UNL A   1      29.909  29.391  22.492  1.00  0.00     0.227 C 
ATOM      5  O   UNL A   1      29.762  29.963  21.405  1.00  0.00    -0.274 OA
ATOM      6  H   UNL A   1      30.944  30.942  23.161  1.00  0.00     0.163 HD
BRANCH   4   7
ATOM      7  C   UNL A   1      29.260  28.016  22.717  1.00  0.00     0.105 C 
ATOM      8  C   UNL A   1      27.908  28.067  23.427  1.00  0.00     0.023 C 
BRANCH   7   9
ATOM      9  C   UNL A   1      30.236  26.960  23.207  1.00  0.00    -0.033 A 
ATOM     10  C   UNL A   1      32.274  25.192  24.192  1.00  0.00     0.018 A 
ATOM     11  C   UNL A   1      31.044  25.353  24.855  1.00  0.00     0.012 A 
ATOM     12  C   UNL A   1      32.410  25.886  22.978  1.00  0.00     0.131 A 
ATOM     13  C   UNL A   1      30.033  26.191  24.355  1.00  0.00     0.005 A 
ATOM     14  C   UNL A   1      31.434  26.770  22.508  1.00  0.00     0.044 A 
ATOM     15  F   UNL A   1      33.504  25.733  22.214  1.00  0.00    -0.206 F 
BRANCH  10  16
ATOM     16  C   UNL A   1      33.373  24.387  24.785  1.00  0.00    -0.012 A 
ATOM     17  C   UNL A   1      34.244  22.224  25.542  1.00  0.00     0.119 A 
ATOM     18  C   UNL A   1      35.476  22.791  25.834  1.00  0.00     0.046 A 
ATOM     19  C   UNL A   1      33.208  23.013  25.042  1.00  0.00     0.055 A 
ATOM     20  C   UNL A   1      35.677  24.147  25.593  1.00  0.00     0.004 A 
ATOM     21  C   UNL A   1      34.637  24.933  25.078  1.00  0.00     0.009 A 
BRANCH  17  22
ATOM     22  O   UNL A   1      34.035  20.910  25.862  1.00  0.00    -0.494 OA
BRANCH  22  23
ATOM     23  C   UNL A   1      34.452  20.007  24.829  1.00  0.00     0.226 C 
ATOM     24  C   UNL A   1      33.574  18.766  24.770  1.00  0.00     0.049 C 
ENDBRANCH  22  23
ENDBRANCH  17  22
ENDBRANCH  10  16
ENDBRANCH   7   9
ENDBRANCH   4   7
ENDBRANCH   2   3
ENDBRANCH   1   2
BRANCH   1  25
ATOM     25  C   UNL A   1      33.016  28.449  25.947  1.00  0.00     0.023 C 
BRANCH  25  26
ATOM     26  C   UNL A   1      33.205  29.083  27.323  1.00  0.00     0.116 C 
BRANCH  26  27
ATOM     27  N   UNL A   1      33.496  30.510  27.285  1.00  0.00    -0.352 N 
ATOM     28  C   UNL A   1      34.667  31.147  27.639  1.00  0.00     0.251 C 
ATOM     29  H   UNL A   1      32.767  31.092  26.968  1.00  0.00     0.163 HD
ATOM     30  O   UNL A   1      34.739  32.368  27.623  1.00  0.00    -0.269 OA
BRANCH  28  31
ATOM     31  C   UNL A   1      35.816  30.329  28.085  1.00  0.00     0.039 A 
ATOM     32  C   UNL A   1      36.938  30.234  27.258  1.00  0.00     0.014 A 
ATOM     33  C   UNL A   1      35.809  29.726  29.344  1.00  0.00     0.014 A 
ATOM     34  C   UNL A   1      38.090  29.602  27.733  1.00  0.00     0.010 A 
ATOM     35  C   UNL A   1      36.979  29.164  29.841  1.00  0.00     0.010 A 
ATOM     36  C   UNL A   1      38.134  29.102  29.045  1.00  0.00    -0.014 A 
BRANCH  36  37
ATOM     37  C   UNL A   1      39.379  28.533  29.620  1.00  0.00     0.031 A 
ATOM     38  C   UNL A   1      40.015  29.172  30.824  1.00  0.00     0.074 A 
ATOM     39  C   UNL A   1      39.999  27.516  28.989  1.00  0.00     0.049 A 
ATOM     40  N   UNL A   1      41.145  28.880  31.412  1.00  0.00    -0.248 NA
ATOM     41  C   UNL A   1      39.304  30.313  31.426  1.00  0.00     0.031 C 
ATOM     42  C   UNL A   1      39.533  26.873  27.758  1.00  0.00     0.029 A 
ATOM     43  N   UNL A   1      41.174  26.867  29.276  1.00  0.00    -0.354 N 
ATOM     44  C   UNL A   1      41.302  29.822  32.421  1.00  0.00     0.074 A 
ATOM     45  C   UNL A   1      40.167  30.716  32.346  1.00  0.00     0.031 C 
ATOM     46  C   UNL A   1      40.409  25.921  27.398  1.00  0.00     0.029 A 
ATOM     47  C   UNL A   1      41.510  25.901  28.355  1.00  0.00     0.049 A 
ATOM     48  H   UNL A   1      41.724  27.072  30.066  1.00  0.00     0.167 HD
ATOM     49  C   UNL A   1      42.284  29.916  33.349  1.00  0.00     0.034 A 
ATOM     50  C   UNL A   1      42.587  25.092  28.289  1.00  0.00     0.034 A 
ATOM     51  C   UNL A   1      43.375  28.988  33.461  1.00  0.00     0.049 A 
ATOM     52  C   UNL A   1      43.626  25.169  29.375  1.00  0.00     0.074 A 
ATOM     53  C   UNL A   1      44.363  28.934  34.428  1.00  0.00     0.029 A 
ATOM     54  N   UNL A   1      43.621  27.948  32.578  1.00  0.00    -0.354 N 
ATOM     55  N   UNL A   1      43.667  25.958  30.421  1.00  0.00    -0.248 NA
ATOM     56  C   UNL A   1      44.745  24.221  29.294  1.00  0.00     0.031 C 
ATOM     57  C   UNL A   1      45.212  27.863  34.126  1.00  0.00     0.029 A 
ATOM     58  C   UNL A   1      44.745  27.245  32.975  1.00  0.00     0.049 A 
ATOM     59  H   UNL A   1      43.077  27.739  31.784  1.00  0.00     0.167 HD
ATOM     60  C   UNL A   1      44.795  25.579  31.141  1.00  0.00     0.074 A 
ATOM     61  C   UNL A   1      45.397  24.475  30.422  1.00  0.00     0.031 C 
ATOM     62  C   UNL A   1      45.296  26.109  32.283  1.00  0.00     0.034 A 
BRANCH  49  63
ATOM     63  C   UNL A   1      42.180  31.023  34.364  1.00  0.00     0.023 A 
ATOM     64  C   UNL A   1      41.476  30.793  35.564  1.00  0.00     0.012 A 
ATOM     65  C   UNL A   1      42.813  32.264  34.160  1.00  0.00     0.148 A 
ATOM     66  C   UNL A   1      41.375  31.792  36.530  1.00  0.00     0.002 A 
ATOM     67  C   UNL A   1      42.743  33.241  35.147  1.00  0.00     0.091 A 
ATOM     68  F   UNL A   1      43.457  32.472  33.003  1.00  0.00    -0.205 F 
ATOM     69  C   UNL A   1      42.016  33.011  36.327  1.00  0.00     0.022 A 
BRANCH  67  70
ATOM     70  S   UNL A   1      43.596  34.815  35.010  1.00  0.00     0.127 S 
ATOM     71  O   UNL A   1      44.991  34.389  34.920  1.00  0.00    -0.237 OA
ATOM     72  O   UNL A   1      43.044  35.361  33.768  1.00  0.00    -0.237 OA
ATOM     73  O   UNL A   1      43.243  35.565  36.207  1.00  0.00    -0.744 OA
ENDBRANCH  67  70
ENDBRANCH  49  63
BRANCH  50  74
ATOM     74  C   UNL A   1      42.689  24.079  27.202  1.00  0.00     0.023 A 
ATOM     75  C   UNL A   1      43.451  24.379  26.055  1.00  0.00     0.012 A 
ATOM     76  C   UNL A   1      42.074  22.817  27.306  1.00  0.00     0.148 A 
ATOM     77  C   UNL A   1      43.575  23.452  25.020  1.00  0.00     0.002 A 
ATOM     78  C   UNL A   1      42.246  21.878  26.294  1.00  0.00     0.091 A 
ATOM     79  F   UNL A   1      41.341  22.554  28.397  1.00  0.00    -0.205 F 
ATOM     80  C   UNL A   1      42.983  22.199  25.143  1.00  0.00     0.022 A 
BRANCH  78  81
ATOM     81  S   UNL A   1      41.628  20.197  26.432  1.00  0.00     0.127 S 
ATOM     82  O   UNL A   1      40.186  20.395  26.314  1.00  0.00    -0.237 OA
ATOM     83  O   UNL A   1      42.257  19.544  25.282  1.00  0.00    -0.237 OA
ATOM     84  O   UNL A   1      42.102  19.715  27.723  1.00  0.00    -0.744 OA
ENDBRANCH  78  81
ENDBRANCH  50  74
BRANCH  62  85
ATOM     85  C   UNL A   1      46.544  25.488  32.852  1.00  0.00     0.023 A 
ATOM     86  C   UNL A   1      47.805  26.000  32.487  1.00  0.00     0.012 A 
ATOM     87  C   UNL A   1      46.465  24.460  33.811  1.00  0.00     0.148 A 
ATOM     88  C   UNL A   1      48.970  25.479  33.048  1.00  0.00     0.002 A 
ATOM     89  C   UNL A   1      47.628  23.975  34.399  1.00  0.00     0.091 A 
ATOM     90  F   UNL A   1      45.256  23.971  34.129  1.00  0.00    -0.205 F 
ATOM     91  C   UNL A   1      48.881  24.477  34.012  1.00  0.00     0.022 A 
BRANCH  89  92
ATOM     92  S   UNL A   1      47.597  22.752  35.715  1.00  0.00     0.127 S 
ATOM     93  O   UNL A   1      46.810  23.436  36.739  1.00  0.00    -0.237 OA
ATOM     94  O   UNL A   1      46.918  21.623  35.077  1.00  0.00    -0.237 OA
ATOM     95  O   UNL A   1      48.991  22.500  36.055  1.00  0.00    -0.744 OA
ENDBRANCH  89  92
ENDBRANCH  62  85
ENDBRANCH  36  37
ENDBRANCH  28  31
ENDBRANCH  26  27
ENDBRANCH  25  26
ENDBRANCH   1  25
TORSDOF 18
ENDMDL
MODEL 2
REMARK VINA RESULT:     -11.5      2.261      3.210
REMARK SMILES CCOc1cccc(-c2ccc([C@@H](C)C(=O)NCCCCNC(=O)c3ccc(-c4c5nc(c(-c6cccc(S(=O)(=O)[O-])c6F)c6ccc([nH]6)c(-c6cccc(S(=O)(=O)[O-])c6F)c6nc(c(-c7cccc(S(=O)(=O)[O-])c7F)c7ccc4[nH]7)C=C6)C=C5)cc3)cc2F)c1
REMARK SMILES IDX 19 1 18 2 17 3 15 4 16 5 13 7 14 8 12 9 9 10 10 11 89 12
REMARK SMILES IDX 11 13 88 14 90 15 8 16 4 17 5 18 91 19 6 20 7 21 3 22 2 23
REMARK SMILES IDX 1 24 20 25 21 26 22 27 23 28 24 30 25 31 26 32 87 33 27 34
REMARK SMILES IDX 86 35 28 36 29 37 30 38 80 39 31 40 85 41 79 42 81 43 32 44
REMARK SMILES IDX 84 45 78 46 77 47 33 49 65 50 45 51 64 52 46 53 49 54 63 55
REMARK SMILES IDX 82 56 47 57 48 58 62 60 83 61 50 62 34 63 35 64 43 65 36 66
REMARK SMILES IDX 38 67 44 68 37 69 39 70 40 71 41 72 42 73 66 74 67 75 75 76
REMARK SMILES IDX 68 77 70 78 76 79 69 80 71 81 72 82 73 83 74 84 51 85 52 86
REMARK SMILES IDX 60 87 53 88 55 89 61 90 54 91 56 92 57 93 58 94 59 95
REMARK H PARENT 17 6 22 29 81 48 49 59
REMARK Flexibility Score: inf
ROOT
ATOM      1  C   UNL A   1      32.007  28.212  27.223  1.00  0.00     0.023 C 
ENDROOT
BRANCH   1   2
ATOM      2  C   UNL A   1      31.365  27.053  26.458  1.00  0.00     0.116 C 
BRANCH   2   3
ATOM      3  N   UNL A   1      31.020  27.419  25.100  1.00  0.00    -0.356 N 
ATOM      4  C   UNL A   1      31.793  27.664  24.007  1.00  0.00     0.227 C 
ATOM      5  O   UNL A   1      31.206  28.025  22.980  1.00  0.00    -0.274 OA
ATOM      6  H   UNL A   1      30.052  27.505  24.938  1.00  0.00     0.163 HD
BRANCH   4   7
ATOM      7  C   UNL A   1      33.322  27.509  23.990  1.00  0.00     0.105 C 
ATOM      8  C   UNL A   1      34.034  28.405  22.980  1.00  0.00     0.023 C 
BRANCH   7   9
ATOM      9  C   UNL A   1      33.782  26.061  24.045  1.00  0.00    -0.033 A 
ATOM     10  C   UNL A   1      34.437  23.283  24.358  1.00  0.00     0.018 A 
ATOM     11  C   UNL A   1      33.907  23.791  23.159  1.00  0.00     0.012 A 
ATOM     12  C   UNL A   1      34.702  24.231  25.361  1.00  0.00     0.131 A 
ATOM     13  C   UNL A   1      33.618  25.156  22.993  1.00  0.00     0.005 A 
ATOM     14  C   UNL A   1      34.360  25.579  25.225  1.00  0.00     0.044 A 
ATOM     15  F   UNL A   1      35.296  23.871  26.511  1.00  0.00    -0.206 F 
BRANCH  10  16
ATOM     16  C   UNL A   1      34.638  21.824  24.558  1.00  0.00    -0.012 A 
ATOM     17  C   UNL A   1      33.730  19.547  24.605  1.00  0.00     0.119 A 
ATOM     18  C   UNL A   1      34.990  19.020  24.846  1.00  0.00     0.046 A 
ATOM     19  C   UNL A   1      33.557  20.926  24.481  1.00  0.00     0.055 A 
ATOM     20  C   UNL A   1      36.084  19.877  24.929  1.00  0.00     0.004 A 
ATOM     21  C   UNL A   1      35.907  21.261  24.790  1.00  0.00     0.009 A 
BRANCH  17  22
ATOM     22  O   UNL A   1      32.654  18.702  24.609  1.00  0.00    -0.494 OA
BRANCH  22  23
ATOM     23  C   UNL A   1      32.882  17.507  25.368  1.00  0.00     0.226 C 
ATOM     24  C   UNL A   1      32.927  16.271  24.483  1.00  0.00     0.049 C 
ENDBRANCH  22  23
ENDBRANCH  17  22
ENDBRANCH  10  16
ENDBRANCH   7   9
ENDBRANCH   4   7
ENDBRANCH   2   3
ENDBRANCH   1   2
BRANCH   1  25
ATOM     25  C   UNL A   1      31.458  29.597  26.879  1.00  0.00     0.023 C 
BRANCH  25  26
ATOM     26  C   UNL A   1      32.462  30.564  26.260  1.00  0.00     0.116 C 
BRANCH  26  27
ATOM     27  N   UNL A   1      32.321  31.941  26.716  1.00  0.00    -0.352 N 
ATOM     28  C   UNL A   1      33.173  32.658  27.530  1.00  0.00     0.251 C 
ATOM     29  H   UNL A   1      31.518  32.419  26.405  1.00  0.00     0.163 HD
ATOM     30  O   UNL A   1      32.884  33.790  27.889  1.00  0.00    -0.269 OA
BRANCH  28  31
ATOM     31  C   UNL A   1      34.420  32.013  27.999  1.00  0.00     0.039 A 
ATOM     32  C   UNL A   1      35.574  32.789  28.129  1.00  0.00     0.014 A 
ATOM     33  C   UNL A   1      34.422  30.669  28.379  1.00  0.00     0.014 A 
ATOM     34  C   UNL A   1      36.712  32.236  28.722  1.00  0.00     0.010 A 
ATOM     35  C   UNL A   1      35.528  30.144  29.036  1.00  0.00     0.010 A 
ATOM     36  C   UNL A   1      36.682  30.922  29.221  1.00  0.00    -0.014 A 
BRANCH  36  37
ATOM     37  C   UNL A   1      37.831  30.346  29.963  1.00  0.00     0.031 A 
ATOM     38  C   UNL A   1      38.119  30.787  31.371  1.00  0.00     0.074 A 
ATOM     39  C   UNL A   1      38.684  29.515  29.328  1.00  0.00     0.049 A 
ATOM     40  N   UNL A   1      39.123  30.471  32.146  1.00  0.00    -0.248 NA
ATOM     41  C   UNL A   1      37.171  31.738  31.977  1.00  0.00     0.031 C 
ATOM     42  C   UNL A   1      38.567  29.086  27.932  1.00  0.00     0.029 A 
ATOM     43  N   UNL A   1      39.835  28.909  29.764  1.00  0.00    -0.354 N 
ATOM     44  C   UNL A   1      38.953  31.212  33.308  1.00  0.00     0.074 A 
ATOM     45  C   UNL A   1      37.767  32.019  33.126  1.00  0.00     0.031 C 
ATOM     46  C   UNL A   1      39.601  28.286  27.628  1.00  0.00     0.029 A 
ATOM     47  C   UNL A   1      40.468  28.164  28.796  1.00  0.00     0.049 A 
ATOM     48  H   UNL A   1      40.177  29.000  30.683  1.00  0.00     0.167 HD
ATOM     49  C   UNL A   1      39.697  31.197  34.440  1.00  0.00     0.034 A 
ATOM     50  C   UNL A   1      41.618  27.462  28.844  1.00  0.00     0.034 A 
ATOM     51  C   UNL A   1      40.837  30.346  34.642  1.00  0.00     0.049 A 
ATOM     52  C   UNL A   1      42.385  27.405  30.137  1.00  0.00     0.074 A 
ATOM     53  C   UNL A   1      41.595  30.180  35.787  1.00  0.00     0.029 A 
ATOM     54  N   UNL A   1      41.382  29.514  33.676  1.00  0.00    -0.354 N 
ATOM     55  N   UNL A   1      42.112  27.981  31.283  1.00  0.00    -0.248 NA
ATOM     56  C   UNL A   1      43.596  26.573  30.157  1.00  0.00     0.031 C 
ATOM     57  C   UNL A   1      42.604  29.251  35.512  1.00  0.00     0.029 A 
ATOM     58  C   UNL A   1      42.467  28.831  34.197  1.00  0.00     0.049 A 
ATOM     59  H   UNL A   1      41.047  29.422  32.755  1.00  0.00     0.167 HD
ATOM     60  C   UNL A   1      43.095  27.554  32.169  1.00  0.00     0.074 A 
ATOM     61  C   UNL A   1      43.959  26.654  31.431  1.00  0.00     0.031 C 
ATOM     62  C   UNL A   1      43.278  27.891  33.468  1.00  0.00     0.034 A 
BRANCH  49  63
ATOM     63  C   UNL A   1      39.254  32.080  35.576  1.00  0.00     0.023 A 
ATOM     64  C   UNL A   1      38.359  31.567  36.538  1.00  0.00     0.012 A 
ATOM     65  C   UNL A   1      39.754  33.388  35.725  1.00  0.00     0.148 A 
ATOM     66  C   UNL A   1      37.942  32.354  37.610  1.00  0.00     0.002 A 
ATOM     67  C   UNL A   1      39.365  34.151  36.819  1.00  0.00     0.091 A 
ATOM     68  F   UNL A   1      40.584  33.866  34.787  1.00  0.00    -0.205 F 
ATOM     69  C   UNL A   1      38.452  33.640  37.756  1.00  0.00     0.022 A 
BRANCH  67  70
ATOM     70  S   UNL A   1      40.023  35.793  37.135  1.00  0.00     0.127 S 
ATOM     71  O   UNL A   1      39.668  36.495  35.902  1.00  0.00    -0.237 OA
ATOM     72  O   UNL A   1      39.265  36.211  38.315  1.00  0.00    -0.237 OA
ATOM     73  O   UNL A   1      41.450  35.613  37.367  1.00  0.00    -0.744 OA
ENDBRANCH  67  70
ENDBRANCH  49  63
BRANCH  50  74
ATOM     74  C   UNL A   1      42.064  26.685  27.654  1.00  0.00     0.023 A 
ATOM     75  C   UNL A   1      42.800  27.338  26.646  1.00  0.00     0.012 A 
ATOM     76  C   UNL A   1      41.801  25.308  27.527  1.00  0.00     0.148 A 
ATOM     77  C   UNL A   1      43.241  26.641  25.520  1.00  0.00     0.002 A 
ATOM     78  C   UNL A   1      42.289  24.608  26.429  1.00  0.00     0.091 A 
ATOM     79  F   UNL A   1      41.087  24.705  28.489  1.00  0.00    -0.205 F 
ATOM     80  C   UNL A   1      42.995  25.275  25.417  1.00  0.00     0.022 A 
BRANCH  78  81
ATOM     81  S   UNL A   1      42.132  22.824  26.282  1.00  0.00     0.127 S 
ATOM     82  O   UNL A   1      42.858  22.361  27.462  1.00  0.00    -0.237 OA
ATOM     83  O   UNL A   1      40.681  22.638  26.340  1.00  0.00    -0.237 OA
ATOM     84  O   UNL A   1      42.726  22.488  24.995  1.00  0.00    -0.744 OA
ENDBRANCH  78  81
ENDBRANCH  50  74
BRANCH  62  85
ATOM     85  C   UNL A   1      44.438  27.264  34.197  1.00  0.00     0.023 A 
ATOM     86  C   UNL A   1      45.656  27.964  34.296  1.00  0.00     0.012 A 
ATOM     87  C   UNL A   1      44.294  26.027  34.853  1.00  0.00     0.148 A 
ATOM     88  C   UNL A   1      46.723  27.429  35.016  1.00  0.00     0.002 A 
ATOM     89  C   UNL A   1      45.346  25.519  35.605  1.00  0.00     0.091 A 
ATOM     90  F   UNL A   1      43.132  25.366  34.727  1.00  0.00    -0.205 F 
ATOM     91  C   UNL A   1      46.564  26.214  35.681  1.00  0.00     0.022 A 
BRANCH  89  92
ATOM     92  S   UNL A   1      45.194  24.010  36.568  1.00  0.00     0.127 S 
ATOM     93  O   UNL A   1      44.792  24.527  37.874  1.00  0.00    -0.237 OA
ATOM     94  O   UNL A   1      44.143  23.285  35.850  1.00  0.00    -0.237 OA
ATOM     95  O   UNL A   1      46.504  23.374  36.518  1.00  0.00    -0.744 OA
ENDBRANCH  89  92
ENDBRANCH  62  85
ENDBRANCH  36  37
ENDBRANCH  28  31
ENDBRANCH  26  27
ENDBRANCH  25  26
ENDBRANCH   1  25
TORSDOF 18
ENDMDL
MODEL 3
REMARK VINA RESULT:     -11.5      5.043      8.957
REMARK SMILES CCOc1cccc(-c2ccc([C@@H](C)C(=O)NCCCCNC(=O)c3ccc(-c4c5nc(c(-c6cccc(S(=O)(=O)[O-])c6F)c6ccc([nH]6)c(-c6cccc(S(=O)(=O)[O-])c6F)c6nc(c(-c7cccc(S(=O)(=O)[O-])c7F)c7ccc4[nH]7)C=C6)C=C5)cc3)cc2F)c1
REMARK SMILES IDX 19 1 18 2 17 3 15 4 16 5 13 7 14 8 12 9 9 10 10 11 89 12
REMARK SMILES IDX 11 13 88 14 90 15 8 16 4 17 5 18 91 19 6 20 7 21 3 22 2 23
REMARK SMILES IDX 1 24 20 25 21 26 22 27 23 28 24 30 25 31 26 32 87 33 27 34
REMARK SMILES IDX 86 35 28 36 29 37 30 38 80 39 31 40 85 41 79 42 81 43 32 44
REMARK SMILES IDX 84 45 78 46 77 47 33 49 65 50 45 51 64 52 46 53 49 54 63 55
REMARK SMILES IDX 82 56 47 57 48 58 62 60 83 61 50 62 34 63 35 64 43 65 36 66
REMARK SMILES IDX 38 67 44 68 37 69 39 70 40 71 41 72 42 73 66 74 67 75 75 76
REMARK SMILES IDX 68 77 70 78 76 79 69 80 71 81 72 82 73 83 74 84 51 85 52 86
REMARK SMILES IDX 60 87 53 88 55 89 61 90 54 91 56 92 57 93 58 94 59 95
REMARK H PARENT 17 6 22 29 81 48 49 59
REMARK Flexibility Score: inf
ROOT
ATOM      1  C   UNL A   1      36.364  19.243  24.991  1.00  0.00     0.023 C 
ENDROOT
BRANCH   1   2
ATOM      2  C   UNL A   1      35.202  20.216  24.786  1.00  0.00     0.116 C 
BRANCH   2   3
ATOM      3  N   UNL A   1      34.882  20.947  25.994  1.00  0.00    -0.356 N 
ATOM      4  C   UNL A   1      34.988  22.268  26.304  1.00  0.00     0.227 C 
ATOM      5  O   UNL A   1      34.691  22.594  27.460  1.00  0.00    -0.274 OA
ATOM      6  H   UNL A   1      34.523  20.388  26.722  1.00  0.00     0.163 HD
BRANCH   4   7
ATOM      7  C   UNL A   1      35.439  23.347  25.306  1.00  0.00     0.105 C 
ATOM      8  C   UNL A   1      36.714  24.084  25.710  1.00  0.00     0.023 C 
BRANCH   7   9
ATOM      9  C   UNL A   1      34.297  24.210  24.794  1.00  0.00    -0.033 A 
ATOM     10  C   UNL A   1      31.967  25.702  24.031  1.00  0.00     0.018 A 
ATOM     11  C   UNL A   1      33.086  26.320  24.617  1.00  0.00     0.012 A 
ATOM     12  C   UNL A   1      32.092  24.328  23.768  1.00  0.00     0.131 A 
ATOM     13  C   UNL A   1      34.240  25.595  24.958  1.00  0.00     0.005 A 
ATOM     14  C   UNL A   1      33.212  23.591  24.162  1.00  0.00     0.044 A 
ATOM     15  F   UNL A   1      31.122  23.657  23.126  1.00  0.00    -0.206 F 
BRANCH  10  16
ATOM     16  C   UNL A   1      30.713  26.459  23.772  1.00  0.00    -0.012 A 
ATOM     17  C   UNL A   1      29.546  28.310  22.667  1.00  0.00     0.119 A 
ATOM     18  C   UNL A   1      28.328  27.884  23.179  1.00  0.00     0.046 A 
ATOM     19  C   UNL A   1      30.718  27.618  22.973  1.00  0.00     0.055 A 
ATOM     20  C   UNL A   1      28.285  26.742  23.973  1.00  0.00     0.004 A 
ATOM     21  C   UNL A   1      29.463  26.042  24.267  1.00  0.00     0.009 A 
BRANCH  17  22
ATOM     22  O   UNL A   1      29.585  29.479  21.957  1.00  0.00    -0.494 OA
BRANCH  22  23
ATOM     23  C   UNL A   1      28.298  30.096  21.819  1.00  0.00     0.226 C 
ATOM     24  C   UNL A   1      28.309  31.209  20.782  1.00  0.00     0.049 C 
ENDBRANCH  22  23
ENDBRANCH  17  22
ENDBRANCH  10  16
ENDBRANCH   7   9
ENDBRANCH   4   7
ENDBRANCH   2   3
ENDBRANCH   1   2
BRANCH   1  25
ATOM     25  C   UNL A   1      37.740  19.790  24.613  1.00  0.00     0.023 C 
BRANCH  25  26
ATOM     26  C   UNL A   1      38.629  20.196  25.786  1.00  0.00     0.116 C 
BRANCH  26  27
ATOM     27  N   UNL A   1      39.812  19.362  25.953  1.00  0.00    -0.352 N 
ATOM     28  C   UNL A   1      41.069  19.746  26.369  1.00  0.00     0.251 C 
ATOM     29  H   UNL A   1      39.700  18.407  25.743  1.00  0.00     0.163 HD
ATOM     30  O   UNL A   1      41.989  18.941  26.391  1.00  0.00    -0.269 OA
BRANCH  28  31
ATOM     31  C   UNL A   1      41.296  21.160  26.740  1.00  0.00     0.039 A 
ATOM     32  C   UNL A   1      41.718  21.459  28.038  1.00  0.00     0.014 A 
ATOM     33  C   UNL A   1      41.164  22.172  25.786  1.00  0.00     0.014 A 
ATOM     34  C   UNL A   1      42.091  22.767  28.356  1.00  0.00     0.010 A 
ATOM     35  C   UNL A   1      41.606  23.456  26.084  1.00  0.00     0.010 A 
ATOM     36  C   UNL A   1      42.080  23.766  27.368  1.00  0.00    -0.014 A 
BRANCH  36  37
ATOM     37  C   UNL A   1      42.583  25.136  27.641  1.00  0.00     0.031 A 
ATOM     38  C   UNL A   1      41.676  26.165  28.257  1.00  0.00     0.074 A 
ATOM     39  C   UNL A   1      43.818  25.485  27.227  1.00  0.00     0.049 A 
ATOM     40  N   UNL A   1      41.902  27.432  28.486  1.00  0.00    -0.248 NA
ATOM     41  C   UNL A   1      40.323  25.719  28.633  1.00  0.00     0.031 C 
ATOM     42  C   UNL A   1      44.760  24.604  26.532  1.00  0.00     0.029 A 
ATOM     43  N   UNL A   1      44.482  26.685  27.301  1.00  0.00    -0.354 N 
ATOM     44  C   UNL A   1      40.713  27.943  28.990  1.00  0.00     0.074 A 
ATOM     45  C   UNL A   1      39.757  26.858  29.004  1.00  0.00     0.031 C 
ATOM     46  C   UNL A   1      45.878  25.291  26.246  1.00  0.00     0.029 A 
ATOM     47  C   UNL A   1      45.726  26.665  26.713  1.00  0.00     0.049 A 
ATOM     48  H   UNL A   1      44.103  27.484  27.733  1.00  0.00     0.167 HD
ATOM     49  C   UNL A   1      40.449  29.195  29.434  1.00  0.00     0.034 A 
ATOM     50  C   UNL A   1      46.640  27.645  26.566  1.00  0.00     0.034 A 
ATOM     51  C   UNL A   1      41.420  30.254  29.479  1.00  0.00     0.049 A 
ATOM     52  C   UNL A   1      46.348  29.007  27.135  1.00  0.00     0.074 A 
ATOM     53  C   UNL A   1      41.282  31.526  30.005  1.00  0.00     0.029 A 
ATOM     54  N   UNL A   1      42.710  30.163  28.981  1.00  0.00    -0.354 N 
ATOM     55  N   UNL A   1      45.276  29.425  27.764  1.00  0.00    -0.248 NA
ATOM     56  C   UNL A   1      47.404  30.022  27.009  1.00  0.00     0.031 C 
ATOM     57  C   UNL A   1      42.490  32.207  29.820  1.00  0.00     0.029 A 
ATOM     58  C   UNL A   1      43.382  31.355  29.186  1.00  0.00     0.049 A 
ATOM     59  H   UNL A   1      43.093  29.368  28.544  1.00  0.00     0.167 HD
ATOM     60  C   UNL A   1      45.541  30.737  28.139  1.00  0.00     0.074 A 
ATOM     61  C   UNL A   1      46.883  31.038  27.684  1.00  0.00     0.031 C 
ATOM     62  C   UNL A   1      44.739  31.619  28.784  1.00  0.00     0.034 A 
BRANCH  49  63
ATOM     63  C   UNL A   1      39.070  29.466  29.976  1.00  0.00     0.023 A 
ATOM     64  C   UNL A   1      38.774  29.116  31.309  1.00  0.00     0.012 A 
ATOM     65  C   UNL A   1      38.090  30.106  29.194  1.00  0.00     0.148 A 
ATOM     66  C   UNL A   1      37.512  29.368  31.846  1.00  0.00     0.002 A 
ATOM     67  C   UNL A   1      36.848  30.391  29.749  1.00  0.00     0.091 A 
ATOM     68  F   UNL A   1      38.382  30.408  27.921  1.00  0.00    -0.205 F 
ATOM     69  C   UNL A   1      36.554  30.013  31.070  1.00  0.00     0.022 A 
BRANCH  67  70
ATOM     70  S   UNL A   1      35.572  31.284  28.855  1.00  0.00     0.127 S 
ATOM     71  O   UNL A   1      34.759  31.814  29.949  1.00  0.00    -0.237 OA
ATOM     72  O   UNL A   1      36.348  32.291  28.129  1.00  0.00    -0.237 OA
ATOM     73  O   UNL A   1      34.916  30.299  28.005  1.00  0.00    -0.744 OA
ENDBRANCH  67  70
ENDBRANCH  49  63
BRANCH  50  74
ATOM     74  C   UNL A   1      47.953  27.346  25.929  1.00  0.00     0.023 A 
ATOM     75  C   UNL A   1      49.003  26.845  26.724  1.00  0.00     0.012 A 
ATOM     76  C   UNL A   1      48.161  27.517  24.547  1.00  0.00     0.148 A 
ATOM     77  C   UNL A   1      50.244  26.548  26.161  1.00  0.00     0.002 A 
ATOM     78  C   UNL A   1      49.384  27.169  23.983  1.00  0.00     0.091 A 
ATOM     79  F   UNL A   1      47.156  28.008  23.808  1.00  0.00    -0.205 F 
ATOM     80  C   UNL A   1      50.431  26.698  24.790  1.00  0.00     0.022 A 
BRANCH  78  81
ATOM     81  S   UNL A   1      49.666  27.206  22.209  1.00  0.00     0.127 S 
ATOM     82  O   UNL A   1      48.664  26.260  21.725  1.00  0.00    -0.237 OA
ATOM     83  O   UNL A   1      49.397  28.608  21.885  1.00  0.00    -0.237 OA
ATOM     84  O   UNL A   1      51.056  26.809  22.030  1.00  0.00    -0.744 OA
ENDBRANCH  78  81
ENDBRANCH  50  74
BRANCH  62  85
ATOM     85  C   UNL A   1      45.294  32.989  29.070  1.00  0.00     0.023 A 
ATOM     86  C   UNL A   1      46.056  33.201  30.235  1.00  0.00     0.012 A 
ATOM     87  C   UNL A   1      45.135  34.039  28.145  1.00  0.00     0.148 A 
ATOM     88  C   UNL A   1      46.629  34.446  30.489  1.00  0.00     0.002 A 
ATOM     89  C   UNL A   1      45.746  35.265  28.382  1.00  0.00     0.091 A 
ATOM     90  F   UNL A   1      44.387  33.822  27.052  1.00  0.00    -0.205 F 
ATOM     91  C   UNL A   1      46.485  35.473  29.558  1.00  0.00     0.022 A 
BRANCH  89  92
ATOM     92  S   UNL A   1      45.689  36.609  27.192  1.00  0.00     0.127 S 
ATOM     93  O   UNL A   1      46.343  36.008  26.031  1.00  0.00    -0.237 OA
ATOM     94  O   UNL A   1      44.249  36.827  27.034  1.00  0.00    -0.237 OA
ATOM     95  O   UNL A   1      46.400  37.719  27.812  1.00  0.00    -0.744 OA
ENDBRANCH  89  92
ENDBRANCH  62  85
ENDBRANCH  36  37
ENDBRANCH  28  31
ENDBRANCH  26  27
ENDBRANCH  25  26
ENDBRANCH   1  25
TORSDOF 18
ENDMDL
