MODEL 1
REMARK VINA RESULT:     -12.2      0.000      0.000
REMARK SMILES Cc1nc(NC(=O)[C@@H]2CCC[C@@H](C(=O)NCCCCNC(=O)c3ccc(-c4c5nc(c(-c6cccc(S(=O)(=O)[O-])c6F)c6ccc([nH]6)c(-c6cccc(S(=O)(=O)[O-])c6F)c6nc(c(-c7cccc(S(=O)(=O)[O-])c7F)c7ccc4[nH]7)C=C6)C=C5)cc3)C2)ccc1Br
REMARK SMILES IDX 18 1 17 2 16 3 15 4 13 5 14 6 12 8 8 9 9 10 86 11 10 12
REMARK SMILES IDX 11 13 6 14 5 15 7 17 4 18 1 19 2 20 3 21 89 22 88 23 90 24
REMARK SMILES IDX 87 25 19 26 20 27 21 28 22 30 23 31 24 32 85 33 25 34 84 35
REMARK SMILES IDX 26 36 27 37 28 38 78 39 29 40 83 41 77 42 79 43 30 44 82 45
REMARK SMILES IDX 76 46 75 47 31 49 63 50 43 51 62 52 44 53 47 54 61 55 80 56
REMARK SMILES IDX 45 57 46 58 60 60 81 61 48 62 32 63 33 64 41 65 34 66 36 67
REMARK SMILES IDX 42 68 35 69 37 70 38 71 39 72 40 73 64 74 65 75 73 76 66 77
REMARK SMILES IDX 68 78 74 79 67 80 69 81 70 82 71 83 72 84 49 85 50 86 58 87
REMARK SMILES IDX 51 88 53 89 59 90 52 91 54 92 55 93 56 94 57 95
REMARK H PARENT 15 7 5 16 20 29 79 48 47 59
REMARK Flexibility Score: inf
ROOT
ATOM      1  C   UNL A   1      31.757  28.337  25.893  1.00  0.00     0.023 C 
ENDROOT
BRANCH   1   2
ATOM      2  C   UNL A   1      32.243  27.202  26.795  1.00  0.00     0.023 C 
BRANCH   2   3
ATOM      3  C   UNL A   1      32.453  25.862  26.099  1.00  0.00     0.116 C 
BRANCH   3   4
ATOM      4  N   UNL A   1      33.843  25.612  25.763  1.00  0.00    -0.356 N 
ATOM      5  C   UNL A   1      34.554  24.451  25.848  1.00  0.00     0.223 C 
ATOM      6  O   UNL A   1      35.704  24.436  25.414  1.00  0.00    -0.275 OA
ATOM      7  H   UNL A   1      34.344  26.390  25.426  1.00  0.00     0.163 HD
BRANCH   5   8
ATOM      8  C   UNL A   1      33.880  23.207  26.432  1.00  0.00     0.079 C 
ATOM      9  C   UNL A   1      33.353  22.084  24.230  1.00  0.00     0.079 C 
ATOM     10  C   UNL A   1      34.157  20.851  24.656  1.00  0.00     0.013 C 
ATOM     11  C   UNL A   1      32.759  22.710  25.500  1.00  0.00     0.027 C 
ATOM     12  C   UNL A   1      35.344  21.283  25.510  1.00  0.00     0.002 C 
ATOM     13  C   UNL A   1      34.904  22.093  26.732  1.00  0.00     0.013 C 
BRANCH   9  14
ATOM     14  C   UNL A   1      32.310  21.763  23.175  1.00  0.00     0.228 C 
ATOM     15  N   UNL A   1      31.613  22.747  22.542  1.00  0.00    -0.310 N 
ATOM     16  H   UNL A   1      30.978  22.392  21.880  1.00  0.00     0.171 HD
ATOM     17  O   UNL A   1      32.088  20.592  22.845  1.00  0.00    -0.274 OA
BRANCH  15  18
ATOM     18  C   UNL A   1      31.586  24.141  22.610  1.00  0.00     0.132 A 
ATOM     19  C   UNL A   1      29.006  26.332  24.013  1.00  0.00     0.068 C 
ATOM     20  C   UNL A   1      30.245  25.946  23.263  1.00  0.00     0.054 A 
ATOM     21  N   UNL A   1      30.495  24.606  23.254  1.00  0.00    -0.235 NA
ATOM     22  C   UNL A   1      31.079  26.856  22.621  1.00  0.00     0.039 A 
ATOM     23  C   UNL A   1      32.243  26.374  22.036  1.00  0.00     0.021 A 
ATOM     24  Br  UNL A   1      30.724  28.708  22.475  1.00  0.00    -0.049 Br
ATOM     25  C   UNL A   1      32.513  25.006  22.057  1.00  0.00     0.048 A 
ENDBRANCH  15  18
ENDBRANCH   9  14
ENDBRANCH   5   8
ENDBRANCH   3   4
ENDBRANCH   2   3
ENDBRANCH   1   2
BRANCH   1  26
ATOM     26  C   UNL A   1      32.799  29.403  25.574  1.00  0.00     0.116 C 
BRANCH  26  27
ATOM     27  N   UNL A   1      32.364  30.738  25.960  1.00  0.00    -0.352 N 
ATOM     28  C   UNL A   1      32.891  31.579  26.911  1.00  0.00     0.251 C 
ATOM     29  H   UNL A   1      31.584  31.086  25.471  1.00  0.00     0.163 HD
ATOM     30  O   UNL A   1      32.296  32.598  27.236  1.00  0.00    -0.269 OA
BRANCH  28  31
ATOM     31  C   UNL A   1      34.174  31.226  27.554  1.00  0.00     0.039 A 
ATOM     32  C   UNL A   1      35.135  32.222  27.740  1.00  0.00     0.014 A 
ATOM     33  C   UNL A   1      34.411  29.919  27.987  1.00  0.00     0.014 A 
ATOM     34  C   UNL A   1      36.315  31.920  28.424  1.00  0.00     0.010 A 
ATOM     35  C   UNL A   1      35.560  29.634  28.718  1.00  0.00     0.010 A 
ATOM     36  C   UNL A   1      36.522  30.630  28.940  1.00  0.00    -0.014 A 
BRANCH  36  37
ATOM     37  C   UNL A   1      37.750  30.296  29.699  1.00  0.00     0.031 A 
ATOM     38  C   UNL A   1      38.770  29.372  29.098  1.00  0.00     0.074 A 
ATOM     39  C   UNL A   1      37.912  30.764  30.952  1.00  0.00     0.049 A 
ATOM     40  N   UNL A   1      39.879  28.921  29.622  1.00  0.00    -0.248 NA
ATOM     41  C   UNL A   1      38.502  28.875  27.737  1.00  0.00     0.031 C 
ATOM     42  C   UNL A   1      36.962  31.619  31.668  1.00  0.00     0.029 A 
ATOM     43  N   UNL A   1      38.928  30.568  31.855  1.00  0.00    -0.354 N 
ATOM     44  C   UNL A   1      40.426  28.070  28.671  1.00  0.00     0.074 A 
ATOM     45  C   UNL A   1      39.517  28.044  27.547  1.00  0.00     0.031 C 
ATOM     46  C   UNL A   1      37.443  31.878  32.895  1.00  0.00     0.029 A 
ATOM     47  C   UNL A   1      38.723  31.195  33.061  1.00  0.00     0.049 A 
ATOM     48  H   UNL A   1      39.727  30.028  31.657  1.00  0.00     0.167 HD
ATOM     49  C   UNL A   1      41.599  27.397  28.716  1.00  0.00     0.034 A 
ATOM     50  C   UNL A   1      39.483  31.220  34.173  1.00  0.00     0.034 A 
ATOM     51  C   UNL A   1      42.528  27.467  29.807  1.00  0.00     0.049 A 
ATOM     52  C   UNL A   1      40.799  30.492  34.184  1.00  0.00     0.074 A 
ATOM     53  C   UNL A   1      43.777  26.879  29.908  1.00  0.00     0.029 A 
ATOM     54  N   UNL A   1      42.316  28.168  30.983  1.00  0.00    -0.354 N 
ATOM     55  N   UNL A   1      41.358  29.794  33.226  1.00  0.00    -0.248 NA
ATOM     56  C   UNL A   1      41.602  30.577  35.413  1.00  0.00     0.031 C 
ATOM     57  C   UNL A   1      44.321  27.226  31.147  1.00  0.00     0.029 A 
ATOM     58  C   UNL A   1      43.412  28.031  31.815  1.00  0.00     0.049 A 
ATOM     59  H   UNL A   1      41.506  28.686  31.194  1.00  0.00     0.167 HD
ATOM     60  C   UNL A   1      42.587  29.379  33.724  1.00  0.00     0.074 A 
ATOM     61  C   UNL A   1      42.698  29.913  35.066  1.00  0.00     0.031 C 
ATOM     62  C   UNL A   1      43.531  28.614  33.125  1.00  0.00     0.034 A 
BRANCH  49  63
ATOM     63  C   UNL A   1      41.986  26.587  27.513  1.00  0.00     0.023 A 
ATOM     64  C   UNL A   1      42.673  27.219  26.458  1.00  0.00     0.012 A 
ATOM     65  C   UNL A   1      41.752  25.201  27.461  1.00  0.00     0.148 A 
ATOM     66  C   UNL A   1      43.112  26.485  25.359  1.00  0.00     0.002 A 
ATOM     67  C   UNL A   1      42.219  24.470  26.375  1.00  0.00     0.091 A 
ATOM     68  F   UNL A   1      41.083  24.628  28.471  1.00  0.00    -0.205 F 
ATOM     69  C   UNL A   1      42.894  25.110  25.322  1.00  0.00     0.022 A 
BRANCH  67  70
ATOM     70  S   UNL A   1      42.036  22.687  26.249  1.00  0.00     0.127 S 
ATOM     71  O   UNL A   1      42.653  22.419  24.950  1.00  0.00    -0.237 OA
ATOM     72  O   UNL A   1      42.809  22.220  27.399  1.00  0.00    -0.237 OA
ATOM     73  O   UNL A   1      40.607  22.420  26.320  1.00  0.00    -0.744 OA
ENDBRANCH  67  70
ENDBRANCH  49  63
BRANCH  50  74
ATOM     74  C   UNL A   1      39.053  32.041  35.338  1.00  0.00     0.023 A 
ATOM     75  C   UNL A   1      39.234  33.436  35.293  1.00  0.00     0.012 A 
ATOM     76  C   UNL A   1      38.417  31.461  36.453  1.00  0.00     0.148 A 
ATOM     77  C   UNL A   1      38.801  34.242  36.346  1.00  0.00     0.002 A 
ATOM     78  C   UNL A   1      37.955  32.273  37.482  1.00  0.00     0.091 A 
ATOM     79  F   UNL A   1      38.259  30.131  36.470  1.00  0.00    -0.205 F 
ATOM     80  C   UNL A   1      38.154  33.663  37.435  1.00  0.00     0.022 A 
BRANCH  78  81
ATOM     81  S   UNL A   1      37.027  31.637  38.881  1.00  0.00     0.127 S 
ATOM     82  O   UNL A   1      35.856  32.511  38.886  1.00  0.00    -0.237 OA
ATOM     83  O   UNL A   1      36.765  30.259  38.464  1.00  0.00    -0.237 OA
ATOM     84  O   UNL A   1      37.907  31.766  40.034  1.00  0.00    -0.744 OA
ENDBRANCH  78  81
ENDBRANCH  50  74
BRANCH  62  85
ATOM     85  C   UNL A   1      44.787  28.306  33.890  1.00  0.00     0.023 A 
ATOM     86  C   UNL A   1      45.852  29.225  33.861  1.00  0.00     0.012 A 
ATOM     87  C   UNL A   1      44.850  27.190  34.748  1.00  0.00     0.148 A 
ATOM     88  C   UNL A   1      46.967  29.038  34.676  1.00  0.00     0.002 A 
ATOM     89  C   UNL A   1      45.951  27.028  35.581  1.00  0.00     0.091 A 
ATOM     90  F   UNL A   1      43.824  26.328  34.749  1.00  0.00    -0.205 F 
ATOM     91  C   UNL A   1      47.011  27.948  35.543  1.00  0.00     0.022 A 
BRANCH  89  92
ATOM     92  S   UNL A   1      46.063  25.704  36.790  1.00  0.00     0.127 S 
ATOM     93  O   UNL A   1      47.331  26.010  37.449  1.00  0.00    -0.237 OA
ATOM     94  O   UNL A   1      44.875  25.934  37.612  1.00  0.00    -0.237 OA
ATOM     95  O   UNL A   1      46.044  24.461  36.031  1.00  0.00    -0.744 OA
ENDBRANCH  89  92
ENDBRANCH  62  85
ENDBRANCH  36  37
ENDBRANCH  28  31
ENDBRANCH  26  27
ENDBRANCH   1  26
TORSDOF 16
ENDMDL
MODEL 2
REMARK VINA RESULT:     -12.2      2.556      3.858
REMARK SMILES Cc1nc(NC(=O)[C@@H]2CCC[C@@H](C(=O)NCCCCNC(=O)c3ccc(-c4c5nc(c(-c6cccc(S(=O)(=O)[O-])c6F)c6ccc([nH]6)c(-c6cccc(S(=O)(=O)[O-])c6F)c6nc(c(-c7cccc(S(=O)(=O)[O-])c7F)c7ccc4[nH]7)C=C6)C=C5)cc3)C2)ccc1Br
REMARK SMILES IDX 18 1 17 2 16 3 15 4 13 5 14 6 12 8 8 9 9 10 86 11 10 12
REMARK SMILES IDX 11 13 6 14 5 15 7 17 4 18 1 19 2 20 3 21 89 22 88 23 90 24
REMARK SMILES IDX 87 25 19 26 20 27 21 28 22 30 23 31 24 32 85 33 25 34 84 35
REMARK SMILES IDX 26 36 27 37 28 38 78 39 29 40 83 41 77 42 79 43 30 44 82 45
REMARK SMILES IDX 76 46 75 47 31 49 63 50 43 51 62 52 44 53 47 54 61 55 80 56
REMARK SMILES IDX 45 57 46 58 60 60 81 61 48 62 32 63 33 64 41 65 34 66 36 67
REMARK SMILES IDX 42 68 35 69 37 70 38 71 39 72 40 73 64 74 65 75 73 76 66 77
REMARK SMILES IDX 68 78 74 79 67 80 69 81 70 82 71 83 72 84 49 85 50 86 58 87
REMARK SMILES IDX 51 88 53 89 59 90 52 91 54 92 55 93 56 94 57 95
REMARK H PARENT 15 7 5 16 20 29 79 48 47 59
REMARK Flexibility Score: inf
ROOT
ATOM      1  C   UNL A   1      31.632  32.037  26.854  1.00  0.00     0.023 C 
ENDROOT
BRANCH   1   2
ATOM      2  C   UNL A   1      31.782  30.520  26.730  1.00  0.00     0.023 C 
BRANCH   2   3
ATOM      3  C   UNL A   1      32.860  30.050  25.760  1.00  0.00     0.116 C 
BRANCH   3   4
ATOM      4  N   UNL A   1      33.224  28.658  25.952  1.00  0.00    -0.356 N 
ATOM      5  C   UNL A   1      32.784  27.553  25.285  1.00  0.00     0.223 C 
ATOM      6  O   UNL A   1      33.301  26.468  25.543  1.00  0.00    -0.275 OA
ATOM      7  H   UNL A   1      33.883  28.486  26.664  1.00  0.00     0.163 HD
BRANCH   5   8
ATOM      8  C   UNL A   1      31.703  27.713  24.213  1.00  0.00     0.079 C 
ATOM      9  C   UNL A   1      32.231  25.600  22.931  1.00  0.00     0.079 C 
ATOM     10  C   UNL A   1      30.798  25.101  23.144  1.00  0.00     0.013 C 
ATOM     11  C   UNL A   1      32.183  27.133  22.869  1.00  0.00     0.027 C 
ATOM     12  C   UNL A   1      30.292  25.564  24.505  1.00  0.00     0.002 C 
ATOM     13  C   UNL A   1      30.365  27.085  24.656  1.00  0.00     0.013 C 
BRANCH   9  14
ATOM     14  C   UNL A   1      32.893  24.970  21.718  1.00  0.00     0.228 C 
ATOM     15  N   UNL A   1      33.154  23.635  21.664  1.00  0.00    -0.310 N 
ATOM     16  H   UNL A   1      33.578  23.369  20.816  1.00  0.00     0.171 HD
ATOM     17  O   UNL A   1      33.188  25.659  20.734  1.00  0.00    -0.274 OA
BRANCH  15  18
ATOM     18  C   UNL A   1      32.963  22.553  22.525  1.00  0.00     0.132 A 
ATOM     19  C   UNL A   1      34.882  21.603  25.498  1.00  0.00     0.068 C 
ATOM     20  C   UNL A   1      33.877  21.478  24.393  1.00  0.00     0.054 A 
ATOM     21  N   UNL A   1      33.833  22.554  23.556  1.00  0.00    -0.235 NA
ATOM     22  C   UNL A   1      33.053  20.370  24.216  1.00  0.00     0.039 A 
ATOM     23  C   UNL A   1      32.104  20.420  23.203  1.00  0.00     0.021 A 
ATOM     24  Br  UNL A   1      33.153  18.791  25.251  1.00  0.00    -0.049 Br
ATOM     25  C   UNL A   1      32.039  21.535  22.368  1.00  0.00     0.048 A 
ENDBRANCH  15  18
ENDBRANCH   9  14
ENDBRANCH   5   8
ENDBRANCH   3   4
ENDBRANCH   2   3
ENDBRANCH   1   2
BRANCH   1  26
ATOM     26  C   UNL A   1      32.864  32.771  27.372  1.00  0.00     0.116 C 
BRANCH  26  27
ATOM     27  N   UNL A   1      32.582  34.157  27.713  1.00  0.00    -0.352 N 
ATOM     28  C   UNL A   1      33.129  34.932  28.709  1.00  0.00     0.251 C 
ATOM     29  H   UNL A   1      31.906  34.602  27.154  1.00  0.00     0.163 HD
ATOM     30  O   UNL A   1      32.652  36.027  28.976  1.00  0.00    -0.269 OA
BRANCH  28  31
ATOM     31  C   UNL A   1      34.287  34.417  29.469  1.00  0.00     0.039 A 
ATOM     32  C   UNL A   1      34.077  33.875  30.739  1.00  0.00     0.014 A 
ATOM     33  C   UNL A   1      35.569  34.453  28.914  1.00  0.00     0.014 A 
ATOM     34  C   UNL A   1      35.149  33.306  31.430  1.00  0.00     0.010 A 
ATOM     35  C   UNL A   1      36.624  33.834  29.578  1.00  0.00     0.010 A 
ATOM     36  C   UNL A   1      36.424  33.259  30.841  1.00  0.00    -0.014 A 
BRANCH  36  37
ATOM     37  C   UNL A   1      37.569  32.629  31.541  1.00  0.00     0.031 A 
ATOM     38  C   UNL A   1      38.277  31.463  30.912  1.00  0.00     0.074 A 
ATOM     39  C   UNL A   1      37.922  33.058  32.768  1.00  0.00     0.049 A 
ATOM     40  N   UNL A   1      39.262  30.749  31.387  1.00  0.00    -0.248 NA
ATOM     41  C   UNL A   1      37.807  31.032  29.584  1.00  0.00     0.031 C 
ATOM     42  C   UNL A   1      37.271  34.141  33.509  1.00  0.00     0.029 A 
ATOM     43  N   UNL A   1      38.907  32.619  33.619  1.00  0.00    -0.354 N 
ATOM     44  C   UNL A   1      39.511  29.770  30.434  1.00  0.00     0.074 A 
ATOM     45  C   UNL A   1      38.559  29.964  29.363  1.00  0.00     0.031 C 
ATOM     46  C   UNL A   1      37.877  34.285  34.699  1.00  0.00     0.029 A 
ATOM     47  C   UNL A   1      38.945  33.296  34.814  1.00  0.00     0.049 A 
ATOM     48  H   UNL A   1      39.526  31.888  33.393  1.00  0.00     0.167 HD
ATOM     49  C   UNL A   1      40.471  28.817  30.433  1.00  0.00     0.034 A 
ATOM     50  C   UNL A   1      39.754  33.140  35.881  1.00  0.00     0.034 A 
ATOM     51  C   UNL A   1      41.453  28.660  31.469  1.00  0.00     0.049 A 
ATOM     52  C   UNL A   1      40.835  32.096  35.840  1.00  0.00     0.074 A 
ATOM     53  C   UNL A   1      42.512  27.770  31.518  1.00  0.00     0.029 A 
ATOM     54  N   UNL A   1      41.502  29.410  32.632  1.00  0.00    -0.354 N 
ATOM     55  N   UNL A   1      41.135  31.262  34.875  1.00  0.00    -0.248 NA
ATOM     56  C   UNL A   1      41.708  31.988  37.020  1.00  0.00     0.031 C 
ATOM     57  C   UNL A   1      43.202  27.983  32.714  1.00  0.00     0.029 A 
ATOM     58  C   UNL A   1      42.574  29.006  33.406  1.00  0.00     0.049 A 
ATOM     59  H   UNL A   1      40.867  30.123  32.873  1.00  0.00     0.167 HD
ATOM     60  C   UNL A   1      42.244  30.551  35.316  1.00  0.00     0.074 A 
ATOM     61  C   UNL A   1      42.571  31.057  36.633  1.00  0.00     0.031 C 
ATOM     62  C   UNL A   1      42.920  29.558  34.689  1.00  0.00     0.034 A 
BRANCH  49  63
ATOM     63  C   UNL A   1      40.562  27.916  29.236  1.00  0.00     0.023 A 
ATOM     64  C   UNL A   1      39.671  26.831  29.131  1.00  0.00     0.012 A 
ATOM     65  C   UNL A   1      41.459  28.186  28.186  1.00  0.00     0.148 A 
ATOM     66  C   UNL A   1      39.678  26.016  28.001  1.00  0.00     0.002 A 
ATOM     67  C   UNL A   1      41.440  27.387  27.049  1.00  0.00     0.091 A 
ATOM     68  F   UNL A   1      42.306  29.217  28.319  1.00  0.00    -0.205 F 
ATOM     69  C   UNL A   1      40.554  26.300  26.958  1.00  0.00     0.022 A 
BRANCH  67  70
ATOM     70  S   UNL A   1      42.491  27.693  25.625  1.00  0.00     0.127 S 
ATOM     71  O   UNL A   1      42.009  28.999  25.177  1.00  0.00    -0.237 OA
ATOM     72  O   UNL A   1      43.823  27.708  26.228  1.00  0.00    -0.237 OA
ATOM     73  O   UNL A   1      42.249  26.595  24.700  1.00  0.00    -0.744 OA
ENDBRANCH  67  70
ENDBRANCH  49  63
BRANCH  50  74
ATOM     74  C   UNL A   1      39.622  34.062  37.043  1.00  0.00     0.023 A 
ATOM     75  C   UNL A   1      40.029  35.401  36.899  1.00  0.00     0.012 A 
ATOM     76  C   UNL A   1      39.046  33.640  38.256  1.00  0.00     0.148 A 
ATOM     77  C   UNL A   1      39.878  36.305  37.950  1.00  0.00     0.002 A 
ATOM     78  C   UNL A   1      38.865  34.554  39.287  1.00  0.00     0.091 A 
ATOM     79  F   UNL A   1      38.669  32.358  38.366  1.00  0.00    -0.205 F 
ATOM     80  C   UNL A   1      39.288  35.885  39.140  1.00  0.00     0.022 A 
BRANCH  78  81
ATOM     81  S   UNL A   1      38.031  34.137  40.822  1.00  0.00     0.127 S 
ATOM     82  O   UNL A   1      36.924  33.310  40.346  1.00  0.00    -0.237 OA
ATOM     83  O   UNL A   1      39.077  33.411  41.542  1.00  0.00    -0.237 OA
ATOM     84  O   UNL A   1      37.648  35.406  41.424  1.00  0.00    -0.744 OA
ENDBRANCH  78  81
ENDBRANCH  50  74
BRANCH  62  85
ATOM     85  C   UNL A   1      44.099  28.947  35.393  1.00  0.00     0.023 A 
ATOM     86  C   UNL A   1      45.366  29.542  35.254  1.00  0.00     0.012 A 
ATOM     87  C   UNL A   1      43.922  27.884  36.300  1.00  0.00     0.148 A 
ATOM     88  C   UNL A   1      46.446  29.087  36.008  1.00  0.00     0.002 A 
ATOM     89  C   UNL A   1      44.995  27.457  37.073  1.00  0.00     0.091 A 
ATOM     90  F   UNL A   1      42.705  27.332  36.407  1.00  0.00    -0.205 F 
ATOM     91  C   UNL A   1      46.258  28.054  36.926  1.00  0.00     0.022 A 
BRANCH  89  92
ATOM     92  S   UNL A   1      44.835  26.192  38.338  1.00  0.00     0.127 S 
ATOM     93  O   UNL A   1      44.372  25.047  37.556  1.00  0.00    -0.237 OA
ATOM     94  O   UNL A   1      46.205  26.078  38.837  1.00  0.00    -0.237 OA
ATOM     95  O   UNL A   1      43.877  26.708  39.307  1.00  0.00    -0.744 OA
ENDBRANCH  89  92
ENDBRANCH  62  85
ENDBRANCH  36  37
ENDBRANCH  28  31
ENDBRANCH  26  27
ENDBRANCH   1  26
TORSDOF 16
ENDMDL
MODEL 3
REMARK VINA RESULT:     -12.0      1.800      8.040
REMARK SMILES Cc1nc(NC(=O)[C@@H]2CCC[C@@H](C(=O)NCCCCNC(=O)c3ccc(-c4c5nc(c(-c6cccc(S(=O)(=O)[O-])c6F)c6ccc([nH]6)c(-c6cccc(S(=O)(=O)[O-])c6F)c6nc(c(-c7cccc(S(=O)(=O)[O-])c7F)c7ccc4[nH]7)C=C6)C=C5)cc3)C2)ccc1Br
REMARK SMILES IDX 18 1 17 2 16 3 15 4 13 5 14 6 12 8 8 9 9 10 86 11 10 12
REMARK SMILES IDX 11 13 6 14 5 15 7 17 4 18 1 19 2 20 3 21 89 22 88 23 90 24
REMARK SMILES IDX 87 25 19 26 20 27 21 28 22 30 23 31 24 32 85 33 25 34 84 35
REMARK SMILES IDX 26 36 27 37 28 38 78 39 29 40 83 41 77 42 79 43 30 44 82 45
REMARK SMILES IDX 76 46 75 47 31 49 63 50 43 51 62 52 44 53 47 54 61 55 80 56
REMARK SMILES IDX 45 57 46 58 60 60 81 61 48 62 32 63 33 64 41 65 34 66 36 67
REMARK SMILES IDX 42 68 35 69 37 70 38 71 39 72 40 73 64 74 65 75 73 76 66 77
REMARK SMILES IDX 68 78 74 79 67 80 69 81 70 82 71 83 72 84 49 85 50 86 58 87
REMARK SMILES IDX 51 88 53 89 59 90 52 91 54 92 55 93 56 94 57 95
REMARK H PARENT 15 7 5 16 20 29 79 48 47 59
REMARK Flexibility Score: inf
ROOT
ATOM      1  C   UNL A   1      33.891  30.738  26.729  1.00  0.00     0.023 C 
ENDROOT
BRANCH   1   2
ATOM      2  C   UNL A   1      34.403  29.465  27.405  1.00  0.00     0.023 C 
BRANCH   2   3
ATOM      3  C   UNL A   1      34.301  28.196  26.566  1.00  0.00     0.116 C 
BRANCH   3   4
ATOM      4  N   UNL A   1      32.997  27.566  26.651  1.00  0.00    -0.356 N 
ATOM      5  C   UNL A   1      31.950  27.632  25.779  1.00  0.00     0.223 C 
ATOM      6  O   UNL A   1      30.961  26.934  25.997  1.00  0.00    -0.275 OA
ATOM      7  H   UNL A   1      32.845  27.011  27.451  1.00  0.00     0.163 HD
BRANCH   5   8
ATOM      8  C   UNL A   1      32.065  28.531  24.545  1.00  0.00     0.079 C 
ATOM      9  C   UNL A   1      32.229  26.678  22.834  1.00  0.00     0.079 C 
ATOM     10  C   UNL A   1      30.993  27.224  22.111  1.00  0.00     0.013 C 
ATOM     11  C   UNL A   1      32.954  27.870  23.475  1.00  0.00     0.027 C 
ATOM     12  C   UNL A   1      30.023  27.813  23.128  1.00  0.00     0.002 C 
ATOM     13  C   UNL A   1      30.679  28.902  23.980  1.00  0.00     0.013 C 
BRANCH   9  14
ATOM     14  C   UNL A   1      33.120  25.852  21.923  1.00  0.00     0.228 C 
ATOM     15  N   UNL A   1      33.843  24.801  22.399  1.00  0.00    -0.310 N 
ATOM     16  H   UNL A   1      34.368  24.356  21.695  1.00  0.00     0.171 HD
ATOM     17  O   UNL A   1      33.188  26.103  20.714  1.00  0.00    -0.274 OA
BRANCH  15  18
ATOM     18  C   UNL A   1      34.017  24.204  23.648  1.00  0.00     0.132 A 
ATOM     19  C   UNL A   1      33.042  20.851  24.759  1.00  0.00     0.068 C 
ATOM     20  C   UNL A   1      33.539  22.261  24.865  1.00  0.00     0.054 A 
ATOM     21  N   UNL A   1      33.583  22.926  23.675  1.00  0.00    -0.235 NA
ATOM     22  C   UNL A   1      33.924  22.860  26.060  1.00  0.00     0.039 A 
ATOM     23  C   UNL A   1      34.449  24.145  26.005  1.00  0.00     0.021 A 
ATOM     24  Br  UNL A   1      33.762  22.048  27.760  1.00  0.00    -0.049 Br
ATOM     25  C   UNL A   1      34.524  24.811  24.783  1.00  0.00     0.048 A 
ENDBRANCH  15  18
ENDBRANCH   9  14
ENDBRANCH   5   8
ENDBRANCH   3   4
ENDBRANCH   2   3
ENDBRANCH   1   2
BRANCH   1  26
ATOM     26  C   UNL A   1      32.618  31.324  27.329  1.00  0.00     0.116 C 
BRANCH  26  27
ATOM     27  N   UNL A   1      32.643  32.779  27.373  1.00  0.00    -0.352 N 
ATOM     28  C   UNL A   1      33.497  33.609  28.060  1.00  0.00     0.251 C 
ATOM     29  H   UNL A   1      31.953  33.230  26.836  1.00  0.00     0.163 HD
ATOM     30  O   UNL A   1      33.270  34.810  28.132  1.00  0.00    -0.269 OA
BRANCH  28  31
ATOM     31  C   UNL A   1      34.679  33.032  28.732  1.00  0.00     0.039 A 
ATOM     32  C   UNL A   1      34.513  32.382  29.957  1.00  0.00     0.014 A 
ATOM     33  C   UNL A   1      35.941  33.117  28.137  1.00  0.00     0.014 A 
ATOM     34  C   UNL A   1      35.608  31.757  30.557  1.00  0.00     0.010 A 
ATOM     35  C   UNL A   1      37.018  32.444  28.707  1.00  0.00     0.010 A 
ATOM     36  C   UNL A   1      36.861  31.761  29.922  1.00  0.00    -0.014 A 
BRANCH  36  37
ATOM     37  C   UNL A   1      38.029  31.075  30.524  1.00  0.00     0.031 A 
ATOM     38  C   UNL A   1      38.491  31.457  31.901  1.00  0.00     0.074 A 
ATOM     39  C   UNL A   1      38.713  30.164  29.806  1.00  0.00     0.049 A 
ATOM     40  N   UNL A   1      39.517  31.011  32.576  1.00  0.00    -0.248 NA
ATOM     41  C   UNL A   1      37.709  32.488  32.606  1.00  0.00     0.031 C 
ATOM     42  C   UNL A   1      38.399  29.753  28.436  1.00  0.00     0.029 A 
ATOM     43  N   UNL A   1      39.831  29.431  30.124  1.00  0.00    -0.354 N 
ATOM     44  C   UNL A   1      39.521  31.722  33.769  1.00  0.00     0.074 A 
ATOM     45  C   UNL A   1      38.412  32.648  33.719  1.00  0.00     0.031 C 
ATOM     46  C   UNL A   1      39.298  28.839  28.034  1.00  0.00     0.029 A 
ATOM     47  C   UNL A   1      40.261  28.612  29.108  1.00  0.00     0.049 A 
ATOM     48  H   UNL A   1      40.280  29.489  30.998  1.00  0.00     0.167 HD
ATOM     49  C   UNL A   1      40.353  31.590  34.826  1.00  0.00     0.034 A 
ATOM     50  C   UNL A   1      41.312  27.770  29.050  1.00  0.00     0.034 A 
ATOM     51  C   UNL A   1      41.419  30.631  34.900  1.00  0.00     0.049 A 
ATOM     52  C   UNL A   1      42.201  27.616  30.253  1.00  0.00     0.074 A 
ATOM     53  C   UNL A   1      42.268  30.373  35.963  1.00  0.00     0.029 A 
ATOM     54  N   UNL A   1      41.782  29.771  33.877  1.00  0.00    -0.354 N 
ATOM     55  N   UNL A   1      42.113  28.207  31.419  1.00  0.00    -0.248 NA
ATOM     56  C   UNL A   1      43.315  26.662  30.145  1.00  0.00     0.031 C 
ATOM     57  C   UNL A   1      43.144  29.355  35.580  1.00  0.00     0.029 A 
ATOM     58  C   UNL A   1      42.839  28.978  34.282  1.00  0.00     0.049 A 
ATOM     59  H   UNL A   1      41.351  29.731  32.992  1.00  0.00     0.167 HD
ATOM     60  C   UNL A   1      43.139  27.679  32.193  1.00  0.00     0.074 A 
ATOM     61  C   UNL A   1      43.832  26.712  31.367  1.00  0.00     0.031 C 
ATOM     62  C   UNL A   1      43.482  27.981  33.468  1.00  0.00     0.034 A 
BRANCH  49  63
ATOM     63  C   UNL A   1      40.097  32.449  36.030  1.00  0.00     0.023 A 
ATOM     64  C   UNL A   1      40.801  33.661  36.166  1.00  0.00     0.012 A 
ATOM     65  C   UNL A   1      39.110  32.106  36.974  1.00  0.00     0.148 A 
ATOM     66  C   UNL A   1      40.538  34.518  37.232  1.00  0.00     0.002 A 
ATOM     67  C   UNL A   1      38.831  32.981  38.018  1.00  0.00     0.091 A 
ATOM     68  F   UNL A   1      38.465  30.941  36.829  1.00  0.00    -0.205 F 
ATOM     69  C   UNL A   1      39.547  34.182  38.151  1.00  0.00     0.022 A 
BRANCH  67  70
ATOM     70  S   UNL A   1      37.542  32.672  39.230  1.00  0.00     0.127 S 
ATOM     71  O   UNL A   1      36.339  32.712  38.398  1.00  0.00    -0.237 OA
ATOM     72  O   UNL A   1      37.899  31.342  39.721  1.00  0.00    -0.237 OA
ATOM     73  O   UNL A   1      37.648  33.739  40.215  1.00  0.00    -0.744 OA
ENDBRANCH  67  70
ENDBRANCH  49  63
BRANCH  50  74
ATOM     74  C   UNL A   1      41.520  26.940  27.832  1.00  0.00     0.023 A 
ATOM     75  C   UNL A   1      42.120  27.526  26.702  1.00  0.00     0.012 A 
ATOM     76  C   UNL A   1      41.188  25.572  27.807  1.00  0.00     0.148 A 
ATOM     77  C   UNL A   1      42.373  26.768  25.559  1.00  0.00     0.002 A 
ATOM     78  C   UNL A   1      41.475  24.813  26.679  1.00  0.00     0.091 A 
ATOM     79  F   UNL A   1      40.616  25.040  28.897  1.00  0.00    -0.205 F 
ATOM     80  C   UNL A   1      42.060  25.411  25.551  1.00  0.00     0.022 A 
BRANCH  78  81
ATOM     81  S   UNL A   1      41.199  23.040  26.602  1.00  0.00     0.127 S 
ATOM     82  O   UNL A   1      41.616  22.614  27.936  1.00  0.00    -0.237 OA
ATOM     83  O   UNL A   1      39.758  22.974  26.357  1.00  0.00    -0.237 OA
ATOM     84  O   UNL A   1      42.025  22.556  25.505  1.00  0.00    -0.744 OA
ENDBRANCH  78  81
ENDBRANCH  50  74
BRANCH  62  85
ATOM     85  C   UNL A   1      44.648  27.257  34.081  1.00  0.00     0.023 A 
ATOM     86  C   UNL A   1      45.942  27.791  33.935  1.00  0.00     0.012 A 
ATOM     87  C   UNL A   1      44.442  26.143  34.918  1.00  0.00     0.148 A 
ATOM     88  C   UNL A   1      47.019  27.224  34.614  1.00  0.00     0.002 A 
ATOM     89  C   UNL A   1      45.515  25.604  35.618  1.00  0.00     0.091 A 
ATOM     90  F   UNL A   1      43.200  25.652  35.033  1.00  0.00    -0.205 F 
ATOM     91  C   UNL A   1      46.804  26.140  35.463  1.00  0.00     0.022 A 
BRANCH  89  92
ATOM     92  S   UNL A   1      45.327  24.262  36.796  1.00  0.00     0.127 S 
ATOM     93  O   UNL A   1      44.692  23.232  35.976  1.00  0.00    -0.237 OA
ATOM     94  O   UNL A   1      46.713  23.979  37.168  1.00  0.00    -0.237 OA
ATOM     95  O   UNL A   1      44.504  24.786  37.878  1.00  0.00    -0.744 OA
ENDBRANCH  89  92
ENDBRANCH  62  85
ENDBRANCH  36  37
ENDBRANCH  28  31
ENDBRANCH  26  27
ENDBRANCH   1  26
TORSDOF 16
ENDMDL
