MODEL 1
REMARK VINA RESULT:     -11.2      0.000      0.000
REMARK SMILES C#CCNC(=O)[C@H](C)S(=O)(=O)c1ccc(C(=O)NCCCCNC(=O)c2ccc(-c3c4nc(c(-c5cccc(S(=O)(=O)[O-])c5F)c5ccc([nH]5)c(-c5cccc(S(=O)(=O)[O-])c5F)c5nc(c(-c6cccc(S(=O)(=O)[O-])c6F)c6ccc3[nH]6)C=C5)C=C4)cc2)cc1F
REMARK SMILES IDX 19 1 18 2 16 3 17 4 15 6 12 7 13 8 90 9 14 10 89 11 91 12
REMARK SMILES IDX 9 13 10 14 11 15 7 16 8 17 5 18 4 19 6 21 3 22 2 23 1 24
REMARK SMILES IDX 20 25 21 26 22 27 23 28 24 29 25 31 26 32 27 33 88 34 28 35
REMARK SMILES IDX 87 36 29 37 30 38 31 39 81 40 32 41 86 42 80 43 82 44 33 45
REMARK SMILES IDX 85 46 79 47 78 48 34 50 66 51 46 52 65 53 47 54 50 55 64 56
REMARK SMILES IDX 83 57 48 58 49 59 63 61 84 62 51 63 35 64 36 65 44 66 37 67
REMARK SMILES IDX 39 68 45 69 38 70 40 71 41 72 42 73 43 74 67 75 68 76 76 77
REMARK SMILES IDX 69 78 71 79 77 80 70 81 72 82 73 83 74 84 75 85 52 86 53 87
REMARK SMILES IDX 61 88 54 89 56 90 62 91 55 92 57 93 58 94 59 95 60 96
REMARK H PARENT 18 5 4 20 23 30 82 49 50 60
REMARK Flexibility Score: inf
ROOT
ATOM      1  C   UNL A   1      34.687  29.521  27.264  1.00  0.00     0.116 C 
ENDROOT
BRANCH   1   2
ATOM      2  N   UNL A   1      34.097  29.698  25.947  1.00  0.00    -0.352 N 
ATOM      3  C   UNL A   1      33.256  28.915  25.194  1.00  0.00     0.251 C 
ATOM      4  O   UNL A   1      32.802  29.367  24.147  1.00  0.00    -0.269 OA
ATOM      5  H   UNL A   1      34.347  30.544  25.510  1.00  0.00     0.163 HD
BRANCH   3   6
ATOM      6  C   UNL A   1      32.794  27.581  25.650  1.00  0.00     0.042 A 
ATOM      7  C   UNL A   1      32.058  24.911  26.044  1.00  0.00     0.103 A 
ATOM      8  C   UNL A   1      33.410  25.262  26.047  1.00  0.00     0.024 A 
ATOM      9  C   UNL A   1      31.098  25.914  26.056  1.00  0.00     0.142 A 
ATOM     10  C   UNL A   1      33.775  26.601  25.866  1.00  0.00     0.015 A 
ATOM     11  C   UNL A   1      31.454  27.247  25.841  1.00  0.00     0.054 A 
ATOM     12  F   UNL A   1      29.796  25.624  26.160  1.00  0.00    -0.206 F 
BRANCH   7  13
ATOM     13  S   UNL A   1      31.593  23.206  25.977  1.00  0.00     0.192 S 
ATOM     14  O   UNL A   1      30.362  23.110  26.741  1.00  0.00    -0.223 OA
ATOM     15  O   UNL A   1      32.756  22.457  26.431  1.00  0.00    -0.223 OA
BRANCH  13  16
ATOM     16  C   UNL A   1      31.252  22.677  24.328  1.00  0.00     0.199 C 
ATOM     17  C   UNL A   1      30.673  23.684  23.354  1.00  0.00     0.036 C 
BRANCH  16  18
ATOM     18  C   UNL A   1      32.289  21.774  23.711  1.00  0.00     0.239 C 
ATOM     19  N   UNL A   1      33.397  22.210  23.064  1.00  0.00    -0.344 N 
ATOM     20  H   UNL A   1      33.825  21.518  22.511  1.00  0.00     0.164 HD
ATOM     21  O   UNL A   1      32.085  20.556  23.652  1.00  0.00    -0.274 OA
BRANCH  19  22
ATOM     22  C   UNL A   1      34.075  23.483  23.020  1.00  0.00     0.206 C 
BRANCH  22  23
ATOM     23  C   UNL A   1      35.533  23.207  23.352  1.00  0.00    -0.085 C 
ATOM     24  C   UNL A   1      36.783  22.971  23.636  1.00  0.00     0.006 C 
ENDBRANCH  22  23
ENDBRANCH  19  22
ENDBRANCH  16  18
ENDBRANCH  13  16
ENDBRANCH   7  13
ENDBRANCH   3   6
ENDBRANCH   1   2
BRANCH   1  25
ATOM     25  C   UNL A   1      34.867  30.854  27.992  1.00  0.00     0.023 C 
BRANCH  25  26
ATOM     26  C   UNL A   1      34.239  32.061  27.287  1.00  0.00     0.023 C 
BRANCH  26  27
ATOM     27  C   UNL A   1      32.793  32.364  27.671  1.00  0.00     0.116 C 
BRANCH  27  28
ATOM     28  N   UNL A   1      32.543  33.788  27.851  1.00  0.00    -0.352 N 
ATOM     29  C   UNL A   1      33.172  34.688  28.685  1.00  0.00     0.251 C 
ATOM     30  H   UNL A   1      31.820  34.162  27.296  1.00  0.00     0.163 HD
ATOM     31  O   UNL A   1      32.739  35.825  28.794  1.00  0.00    -0.269 OA
BRANCH  29  32
ATOM     32  C   UNL A   1      34.357  34.261  29.467  1.00  0.00     0.039 A 
ATOM     33  C   UNL A   1      34.168  33.502  30.626  1.00  0.00     0.014 A 
ATOM     34  C   UNL A   1      35.647  34.599  29.051  1.00  0.00     0.014 A 
ATOM     35  C   UNL A   1      35.277  33.015  31.324  1.00  0.00     0.010 A 
ATOM     36  C   UNL A   1      36.748  34.062  29.712  1.00  0.00     0.010 A 
ATOM     37  C   UNL A   1      36.575  33.260  30.852  1.00  0.00    -0.014 A 
BRANCH  37  38
ATOM     38  C   UNL A   1      37.776  32.683  31.509  1.00  0.00     0.031 A 
ATOM     39  C   UNL A   1      38.500  31.528  30.872  1.00  0.00     0.074 A 
ATOM     40  C   UNL A   1      38.142  33.112  32.734  1.00  0.00     0.049 A 
ATOM     41  N   UNL A   1      39.459  30.786  31.359  1.00  0.00    -0.248 NA
ATOM     42  C   UNL A   1      38.065  31.139  29.520  1.00  0.00     0.031 C 
ATOM     43  C   UNL A   1      37.486  34.182  33.487  1.00  0.00     0.029 A 
ATOM     44  N   UNL A   1      39.134  32.674  33.578  1.00  0.00    -0.354 N 
ATOM     45  C   UNL A   1      39.710  29.814  30.398  1.00  0.00     0.074 A 
ATOM     46  C   UNL A   1      38.789  30.049  29.307  1.00  0.00     0.031 C 
ATOM     47  C   UNL A   1      38.087  34.314  34.680  1.00  0.00     0.029 A 
ATOM     48  C   UNL A   1      39.148  33.317  34.793  1.00  0.00     0.049 A 
ATOM     49  H   UNL A   1      39.773  31.966  33.335  1.00  0.00     0.167 HD
ATOM     50  C   UNL A   1      40.641  28.831  30.411  1.00  0.00     0.034 A 
ATOM     51  C   UNL A   1      39.917  33.118  35.883  1.00  0.00     0.034 A 
ATOM     52  C   UNL A   1      41.600  28.641  31.464  1.00  0.00     0.049 A 
ATOM     53  C   UNL A   1      40.975  32.050  35.852  1.00  0.00     0.074 A 
ATOM     54  C   UNL A   1      42.640  27.729  31.523  1.00  0.00     0.029 A 
ATOM     55  N   UNL A   1      41.643  29.374  32.640  1.00  0.00    -0.354 N 
ATOM     56  N   UNL A   1      41.284  31.225  34.881  1.00  0.00    -0.248 NA
ATOM     57  C   UNL A   1      41.808  31.898  37.054  1.00  0.00     0.031 C 
ATOM     58  C   UNL A   1      43.307  27.906  32.739  1.00  0.00     0.029 A 
ATOM     59  C   UNL A   1      42.690  28.935  33.432  1.00  0.00     0.049 A 
ATOM     60  H   UNL A   1      41.021  30.099  32.877  1.00  0.00     0.167 HD
ATOM     61  C   UNL A   1      42.360  30.475  35.344  1.00  0.00     0.074 A 
ATOM     62  C   UNL A   1      42.667  30.961  36.674  1.00  0.00     0.031 C 
ATOM     63  C   UNL A   1      43.019  29.462  34.731  1.00  0.00     0.034 A 
BRANCH  50  64
ATOM     64  C   UNL A   1      40.721  27.924  29.212  1.00  0.00     0.023 A 
ATOM     65  C   UNL A   1      39.846  26.822  29.123  1.00  0.00     0.012 A 
ATOM     66  C   UNL A   1      41.596  28.202  28.145  1.00  0.00     0.148 A 
ATOM     67  C   UNL A   1      39.857  25.995  28.001  1.00  0.00     0.002 A 
ATOM     68  C   UNL A   1      41.574  27.396  27.011  1.00  0.00     0.091 A 
ATOM     69  F   UNL A   1      42.435  29.242  28.259  1.00  0.00    -0.205 F 
ATOM     70  C   UNL A   1      40.712  26.289  26.942  1.00  0.00     0.022 A 
BRANCH  68  71
ATOM     71  S   UNL A   1      42.581  27.731  25.561  1.00  0.00     0.127 S 
ATOM     72  O   UNL A   1      43.923  27.773  26.139  1.00  0.00    -0.237 OA
ATOM     73  O   UNL A   1      42.313  26.562  24.723  1.00  0.00    -0.237 OA
ATOM     74  O   UNL A   1      42.097  28.992  25.019  1.00  0.00    -0.744 OA
ENDBRANCH  68  71
ENDBRANCH  50  64
BRANCH  51  75
ATOM     75  C   UNL A   1      39.756  34.005  37.071  1.00  0.00     0.023 A 
ATOM     76  C   UNL A   1      40.184  35.344  36.988  1.00  0.00     0.012 A 
ATOM     77  C   UNL A   1      39.140  33.554  38.254  1.00  0.00     0.148 A 
ATOM     78  C   UNL A   1      40.020  36.213  38.067  1.00  0.00     0.002 A 
ATOM     79  C   UNL A   1      38.931  34.439  39.306  1.00  0.00     0.091 A 
ATOM     80  F   UNL A   1      38.753  32.272  38.320  1.00  0.00    -0.205 F 
ATOM     81  C   UNL A   1      39.384  35.765  39.220  1.00  0.00     0.022 A 
BRANCH  79  82
ATOM     82  S   UNL A   1      37.998  33.989  40.774  1.00  0.00     0.127 S 
ATOM     83  O   UNL A   1      36.805  33.378  40.196  1.00  0.00    -0.237 OA
ATOM     84  O   UNL A   1      38.910  33.056  41.437  1.00  0.00    -0.237 OA
ATOM     85  O   UNL A   1      37.783  35.233  41.500  1.00  0.00    -0.744 OA
ENDBRANCH  79  82
ENDBRANCH  51  75
BRANCH  63  86
ATOM     86  C   UNL A   1      44.150  28.802  35.476  1.00  0.00     0.023 A 
ATOM     87  C   UNL A   1      45.452  29.329  35.364  1.00  0.00     0.012 A 
ATOM     88  C   UNL A   1      43.908  27.738  36.367  1.00  0.00     0.148 A 
ATOM     89  C   UNL A   1      46.499  28.793  36.114  1.00  0.00     0.002 A 
ATOM     90  C   UNL A   1      44.947  27.239  37.143  1.00  0.00     0.091 A 
ATOM     91  F   UNL A   1      42.666  27.237  36.444  1.00  0.00    -0.205 F 
ATOM     92  C   UNL A   1      46.245  27.760  37.013  1.00  0.00     0.022 A 
BRANCH  90  93
ATOM     93  S   UNL A   1      44.690  25.978  38.397  1.00  0.00     0.127 S 
ATOM     94  O   UNL A   1      46.048  25.770  38.895  1.00  0.00    -0.237 OA
ATOM     95  O   UNL A   1      43.792  26.649  39.338  1.00  0.00    -0.237 OA
ATOM     96  O   UNL A   1      44.094  24.843  37.703  1.00  0.00    -0.744 OA
ENDBRANCH  90  93
ENDBRANCH  63  86
ENDBRANCH  37  38
ENDBRANCH  29  32
ENDBRANCH  27  28
ENDBRANCH  26  27
ENDBRANCH  25  26
ENDBRANCH   1  25
TORSDOF 19
ENDMDL
MODEL 2
REMARK VINA RESULT:     -11.2      1.958      7.862
REMARK SMILES C#CCNC(=O)[C@H](C)S(=O)(=O)c1ccc(C(=O)NCCCCNC(=O)c2ccc(-c3c4nc(c(-c5cccc(S(=O)(=O)[O-])c5F)c5ccc([nH]5)c(-c5cccc(S(=O)(=O)[O-])c5F)c5nc(c(-c6cccc(S(=O)(=O)[O-])c6F)c6ccc3[nH]6)C=C5)C=C4)cc2)cc1F
REMARK SMILES IDX 19 1 18 2 16 3 17 4 15 6 12 7 13 8 90 9 14 10 89 11 91 12
REMARK SMILES IDX 9 13 10 14 11 15 7 16 8 17 5 18 4 19 6 21 3 22 2 23 1 24
REMARK SMILES IDX 20 25 21 26 22 27 23 28 24 29 25 31 26 32 27 33 88 34 28 35
REMARK SMILES IDX 87 36 29 37 30 38 31 39 81 40 32 41 86 42 80 43 82 44 33 45
REMARK SMILES IDX 85 46 79 47 78 48 34 50 66 51 46 52 65 53 47 54 50 55 64 56
REMARK SMILES IDX 83 57 48 58 49 59 63 61 84 62 51 63 35 64 36 65 44 66 37 67
REMARK SMILES IDX 39 68 45 69 38 70 40 71 41 72 42 73 43 74 67 75 68 76 76 77
REMARK SMILES IDX 69 78 71 79 77 80 70 81 72 82 73 83 74 84 75 85 52 86 53 87
REMARK SMILES IDX 61 88 54 89 56 90 62 91 55 92 57 93 58 94 59 95 60 96
REMARK H PARENT 18 5 4 20 23 30 82 49 50 60
REMARK Flexibility Score: inf
ROOT
ATOM      1  C   UNL A   1      32.205  29.546  24.658  1.00  0.00     0.116 C 
ENDROOT
BRANCH   1   2
ATOM      2  N   UNL A   1      31.350  29.427  23.488  1.00  0.00    -0.352 N 
ATOM      3  C   UNL A   1      30.664  28.369  22.944  1.00  0.00     0.251 C 
ATOM      4  O   UNL A   1      29.902  28.575  22.003  1.00  0.00    -0.269 OA
ATOM      5  H   UNL A   1      31.241  30.269  22.989  1.00  0.00     0.163 HD
BRANCH   3   6
ATOM      6  C   UNL A   1      30.729  27.002  23.516  1.00  0.00     0.042 A 
ATOM      7  C   UNL A   1      31.133  24.640  24.959  1.00  0.00     0.103 A 
ATOM      8  C   UNL A   1      30.234  25.596  25.438  1.00  0.00     0.024 A 
ATOM      9  C   UNL A   1      31.651  24.778  23.677  1.00  0.00     0.142 A 
ATOM     10  C   UNL A   1      30.022  26.769  24.705  1.00  0.00     0.015 A 
ATOM     11  C   UNL A   1      31.470  25.961  22.958  1.00  0.00     0.054 A 
ATOM     12  F   UNL A   1      32.430  23.833  23.141  1.00  0.00    -0.206 F 
BRANCH   7  13
ATOM     13  S   UNL A   1      31.631  23.301  26.003  1.00  0.00     0.192 S 
ATOM     14  O   UNL A   1      31.032  22.113  25.421  1.00  0.00    -0.223 OA
ATOM     15  O   UNL A   1      31.248  23.685  27.353  1.00  0.00    -0.223 OA
BRANCH  13  16
ATOM     16  C   UNL A   1      33.381  23.081  26.006  1.00  0.00     0.199 C 
ATOM     17  C   UNL A   1      34.263  24.310  26.100  1.00  0.00     0.036 C 
BRANCH  16  18
ATOM     18  C   UNL A   1      33.885  21.920  26.826  1.00  0.00     0.239 C 
ATOM     19  N   UNL A   1      34.402  20.781  26.304  1.00  0.00    -0.344 N 
ATOM     20  H   UNL A   1      34.443  20.039  26.948  1.00  0.00     0.164 HD
ATOM     21  O   UNL A   1      33.710  21.912  28.050  1.00  0.00    -0.274 OA
BRANCH  19  22
ATOM     22  C   UNL A   1      34.902  20.436  24.996  1.00  0.00     0.206 C 
BRANCH  22  23
ATOM     23  C   UNL A   1      36.246  21.132  24.850  1.00  0.00    -0.085 C 
ATOM     24  C   UNL A   1      37.398  21.729  24.724  1.00  0.00     0.006 C 
ENDBRANCH  22  23
ENDBRANCH  19  22
ENDBRANCH  16  18
ENDBRANCH  13  16
ENDBRANCH   7  13
ENDBRANCH   3   6
ENDBRANCH   1   2
BRANCH   1  25
ATOM     25  C   UNL A   1      31.417  29.963  25.901  1.00  0.00     0.023 C 
BRANCH  25  26
ATOM     26  C   UNL A   1      31.408  31.469  26.181  1.00  0.00     0.023 C 
BRANCH  26  27
ATOM     27  C   UNL A   1      32.606  31.996  26.966  1.00  0.00     0.116 C 
BRANCH  27  28
ATOM     28  N   UNL A   1      32.501  33.416  27.272  1.00  0.00    -0.352 N 
ATOM     29  C   UNL A   1      33.201  34.166  28.194  1.00  0.00     0.251 C 
ATOM     30  H   UNL A   1      31.834  33.912  26.744  1.00  0.00     0.163 HD
ATOM     31  O   UNL A   1      32.886  35.328  28.401  1.00  0.00    -0.269 OA
BRANCH  29  32
ATOM     32  C   UNL A   1      34.316  33.548  28.949  1.00  0.00     0.039 A 
ATOM     33  C   UNL A   1      34.025  32.767  30.071  1.00  0.00     0.014 A 
ATOM     34  C   UNL A   1      35.641  33.730  28.544  1.00  0.00     0.014 A 
ATOM     35  C   UNL A   1      35.058  32.104  30.741  1.00  0.00     0.010 A 
ATOM     36  C   UNL A   1      36.659  33.020  29.174  1.00  0.00     0.010 A 
ATOM     37  C   UNL A   1      36.379  32.195  30.275  1.00  0.00    -0.014 A 
BRANCH  37  38
ATOM     38  C   UNL A   1      37.490  31.432  30.899  1.00  0.00     0.031 A 
ATOM     39  C   UNL A   1      37.882  31.706  32.325  1.00  0.00     0.074 A 
ATOM     40  C   UNL A   1      38.224  30.583  30.152  1.00  0.00     0.049 A 
ATOM     41  N   UNL A   1      38.917  31.270  32.994  1.00  0.00    -0.248 NA
ATOM     42  C   UNL A   1      37.013  32.618  33.087  1.00  0.00     0.031 C 
ATOM     43  C   UNL A   1      37.985  30.275  28.740  1.00  0.00     0.029 A 
ATOM     44  N   UNL A   1      39.345  29.853  30.464  1.00  0.00    -0.354 N 
ATOM     45  C   UNL A   1      38.851  31.888  34.237  1.00  0.00     0.074 A 
ATOM     46  C   UNL A   1      37.686  32.746  34.223  1.00  0.00     0.031 C 
ATOM     47  C   UNL A   1      38.930  29.425  28.309  1.00  0.00     0.029 A 
ATOM     48  C   UNL A   1      39.863  29.154  29.399  1.00  0.00     0.049 A 
ATOM     49  H   UNL A   1      39.739  29.831  31.366  1.00  0.00     0.167 HD
ATOM     50  C   UNL A   1      39.671  31.734  35.304  1.00  0.00     0.034 A 
ATOM     51  C   UNL A   1      40.973  28.393  29.304  1.00  0.00     0.034 A 
ATOM     52  C   UNL A   1      40.788  30.832  35.340  1.00  0.00     0.049 A 
ATOM     53  C   UNL A   1      41.840  28.203  30.518  1.00  0.00     0.074 A 
ATOM     54  C   UNL A   1      41.622  30.541  36.406  1.00  0.00     0.029 A 
ATOM     55  N   UNL A   1      41.227  30.070  34.269  1.00  0.00    -0.354 N 
ATOM     56  N   UNL A   1      41.688  28.693  31.725  1.00  0.00    -0.248 NA
ATOM     57  C   UNL A   1      43.018  27.336  30.369  1.00  0.00     0.031 C 
ATOM     58  C   UNL A   1      42.571  29.609  35.976  1.00  0.00     0.029 A 
ATOM     59  C   UNL A   1      42.321  29.309  34.647  1.00  0.00     0.049 A 
ATOM     60  H   UNL A   1      40.821  30.068  33.372  1.00  0.00     0.167 HD
ATOM     61  C   UNL A   1      42.733  28.177  32.482  1.00  0.00     0.074 A 
ATOM     62  C   UNL A   1      43.499  27.314  31.606  1.00  0.00     0.031 C 
ATOM     63  C   UNL A   1      43.043  28.413  33.780  1.00  0.00     0.034 A 
BRANCH  50  64
ATOM     64  C   UNL A   1      39.349  32.509  36.554  1.00  0.00     0.023 A 
ATOM     65  C   UNL A   1      39.960  33.762  36.764  1.00  0.00     0.012 A 
ATOM     66  C   UNL A   1      38.392  32.042  37.474  1.00  0.00     0.148 A 
ATOM     67  C   UNL A   1      39.642  34.528  37.884  1.00  0.00     0.002 A 
ATOM     68  C   UNL A   1      38.049  32.830  38.568  1.00  0.00     0.091 A 
ATOM     69  F   UNL A   1      37.838  30.839  37.267  1.00  0.00    -0.205 F 
ATOM     70  C   UNL A   1      38.680  34.067  38.779  1.00  0.00     0.022 A 
BRANCH  68  71
ATOM     71  S   UNL A   1      36.769  32.364  39.739  1.00  0.00     0.127 S 
ATOM     72  O   UNL A   1      35.560  32.533  38.935  1.00  0.00    -0.237 OA
ATOM     73  O   UNL A   1      37.114  30.974  40.036  1.00  0.00    -0.237 OA
ATOM     74  O   UNL A   1      36.902  33.277  40.864  1.00  0.00    -0.744 OA
ENDBRANCH  68  71
ENDBRANCH  50  64
BRANCH  51  75
ATOM     75  C   UNL A   1      41.282  27.696  28.023  1.00  0.00     0.023 A 
ATOM     76  C   UNL A   1      41.816  28.437  26.952  1.00  0.00     0.012 A 
ATOM     77  C   UNL A   1      41.104  26.307  27.875  1.00  0.00     0.148 A 
ATOM     78  C   UNL A   1      42.150  27.814  25.750  1.00  0.00     0.002 A 
ATOM     79  C   UNL A   1      41.488  25.682  26.693  1.00  0.00     0.091 A 
ATOM     80  F   UNL A   1      40.580  25.620  28.901  1.00  0.00    -0.205 F 
ATOM     81  C   UNL A   1      41.997  26.437  25.624  1.00  0.00     0.022 A 
BRANCH  79  82
ATOM     82  S   UNL A   1      41.458  23.897  26.491  1.00  0.00     0.127 S 
ATOM     83  O   UNL A   1      42.156  23.727  25.221  1.00  0.00    -0.237 OA
ATOM     84  O   UNL A   1      42.201  23.448  27.669  1.00  0.00    -0.237 OA
ATOM     85  O   UNL A   1      40.049  23.526  26.495  1.00  0.00    -0.744 OA
ENDBRANCH  79  82
ENDBRANCH  51  75
BRANCH  63  86
ATOM     86  C   UNL A   1      44.257  27.730  34.353  1.00  0.00     0.023 A 
ATOM     87  C   UNL A   1      45.533  28.281  34.124  1.00  0.00     0.012 A 
ATOM     88  C   UNL A   1      44.127  26.614  35.204  1.00  0.00     0.148 A 
ATOM     89  C   UNL A   1      46.663  27.721  34.719  1.00  0.00     0.002 A 
ATOM     90  C   UNL A   1      45.252  26.089  35.828  1.00  0.00     0.091 A 
ATOM     91  F   UNL A   1      42.906  26.092  35.392  1.00  0.00    -0.205 F 
ATOM     92  C   UNL A   1      46.522  26.636  35.580  1.00  0.00     0.022 A 
BRANCH  90  93
ATOM     93  S   UNL A   1      45.150  24.757  37.029  1.00  0.00     0.127 S 
ATOM     94  O   UNL A   1      44.237  25.319  38.022  1.00  0.00    -0.237 OA
ATOM     95  O   UNL A   1      44.590  23.661  36.237  1.00  0.00    -0.237 OA
ATOM     96  O   UNL A   1      46.515  24.530  37.488  1.00  0.00    -0.744 OA
ENDBRANCH  90  93
ENDBRANCH  63  86
ENDBRANCH  37  38
ENDBRANCH  29  32
ENDBRANCH  27  28
ENDBRANCH  26  27
ENDBRANCH  25  26
ENDBRANCH   1  25
TORSDOF 19
ENDMDL
MODEL 3
REMARK VINA RESULT:     -11.1      1.936      2.513
REMARK SMILES C#CCNC(=O)[C@H](C)S(=O)(=O)c1ccc(C(=O)NCCCCNC(=O)c2ccc(-c3c4nc(c(-c5cccc(S(=O)(=O)[O-])c5F)c5ccc([nH]5)c(-c5cccc(S(=O)(=O)[O-])c5F)c5nc(c(-c6cccc(S(=O)(=O)[O-])c6F)c6ccc3[nH]6)C=C5)C=C4)cc2)cc1F
REMARK SMILES IDX 19 1 18 2 16 3 17 4 15 6 12 7 13 8 90 9 14 10 89 11 91 12
REMARK SMILES IDX 9 13 10 14 11 15 7 16 8 17 5 18 4 19 6 21 3 22 2 23 1 24
REMARK SMILES IDX 20 25 21 26 22 27 23 28 24 29 25 31 26 32 27 33 88 34 28 35
REMARK SMILES IDX 87 36 29 37 30 38 31 39 81 40 32 41 86 42 80 43 82 44 33 45
REMARK SMILES IDX 85 46 79 47 78 48 34 50 66 51 46 52 65 53 47 54 50 55 64 56
REMARK SMILES IDX 83 57 48 58 49 59 63 61 84 62 51 63 35 64 36 65 44 66 37 67
REMARK SMILES IDX 39 68 45 69 38 70 40 71 41 72 42 73 43 74 67 75 68 76 76 77
REMARK SMILES IDX 69 78 71 79 77 80 70 81 72 82 73 83 74 84 75 85 52 86 53 87
REMARK SMILES IDX 61 88 54 89 56 90 62 91 55 92 57 93 58 94 59 95 60 96
REMARK H PARENT 18 5 4 20 23 30 82 49 50 60
REMARK Flexibility Score: inf
ROOT
ATOM      1  C   UNL A   1      33.099  28.964  24.171  1.00  0.00     0.116 C 
ENDROOT
BRANCH   1   2
ATOM      2  N   UNL A   1      31.850  29.140  23.448  1.00  0.00    -0.352 N 
ATOM      3  C   UNL A   1      30.753  28.330  23.281  1.00  0.00     0.251 C 
ATOM      4  O   UNL A   1      29.762  28.781  22.713  1.00  0.00    -0.269 OA
ATOM      5  H   UNL A   1      31.774  30.008  22.990  1.00  0.00     0.163 HD
BRANCH   3   6
ATOM      6  C   UNL A   1      30.681  26.963  23.853  1.00  0.00     0.042 A 
ATOM      7  C   UNL A   1      30.933  24.536  25.220  1.00  0.00     0.103 A 
ATOM      8  C   UNL A   1      30.355  25.634  25.863  1.00  0.00     0.024 A 
ATOM      9  C   UNL A   1      31.180  24.603  23.855  1.00  0.00     0.142 A 
ATOM     10  C   UNL A   1      30.215  26.842  25.170  1.00  0.00     0.015 A 
ATOM     11  C   UNL A   1      31.075  25.814  23.168  1.00  0.00     0.054 A 
ATOM     12  F   UNL A   1      31.634  23.539  23.182  1.00  0.00    -0.206 F 
BRANCH   7  13
ATOM     13  S   UNL A   1      31.383  23.105  26.158  1.00  0.00     0.192 S 
ATOM     14  O   UNL A   1      30.563  22.026  25.635  1.00  0.00    -0.223 OA
ATOM     15  O   UNL A   1      31.232  23.481  27.556  1.00  0.00    -0.223 OA
BRANCH  13  16
ATOM     16  C   UNL A   1      33.075  22.665  25.923  1.00  0.00     0.199 C 
ATOM     17  C   UNL A   1      34.106  23.774  25.853  1.00  0.00     0.036 C 
BRANCH  16  18
ATOM     18  C   UNL A   1      33.544  21.460  26.699  1.00  0.00     0.239 C 
ATOM     19  N   UNL A   1      33.269  20.177  26.362  1.00  0.00    -0.344 N 
ATOM     20  H   UNL A   1      33.425  19.538  27.093  1.00  0.00     0.164 HD
ATOM     21  O   UNL A   1      34.103  21.615  27.792  1.00  0.00    -0.274 OA
BRANCH  19  22
ATOM     22  C   UNL A   1      32.794  19.558  25.149  1.00  0.00     0.206 C 
BRANCH  22  23
ATOM     23  C   UNL A   1      32.756  18.061  25.414  1.00  0.00    -0.085 C 
ATOM     24  C   UNL A   1      32.724  16.778  25.640  1.00  0.00     0.006 C 
ENDBRANCH  22  23
ENDBRANCH  19  22
ENDBRANCH  16  18
ENDBRANCH  13  16
ENDBRANCH   7  13
ENDBRANCH   3   6
ENDBRANCH   1   2
BRANCH   1  25
ATOM     25  C   UNL A   1      32.923  29.182  25.674  1.00  0.00     0.023 C 
BRANCH  25  26
ATOM     26  C   UNL A   1      32.368  30.555  26.065  1.00  0.00     0.023 C 
BRANCH  26  27
ATOM     27  C   UNL A   1      33.047  31.222  27.258  1.00  0.00     0.116 C 
BRANCH  27  28
ATOM     28  N   UNL A   1      32.734  32.640  27.367  1.00  0.00    -0.352 N 
ATOM     29  C   UNL A   1      33.315  33.606  28.162  1.00  0.00     0.251 C 
ATOM     30  H   UNL A   1      32.001  32.955  26.789  1.00  0.00     0.163 HD
ATOM     31  O   UNL A   1      32.832  34.726  28.213  1.00  0.00    -0.269 OA
BRANCH  29  32
ATOM     32  C   UNL A   1      34.509  33.269  28.972  1.00  0.00     0.039 A 
ATOM     33  C   UNL A   1      34.347  32.515  30.138  1.00  0.00     0.014 A 
ATOM     34  C   UNL A   1      35.782  33.686  28.577  1.00  0.00     0.014 A 
ATOM     35  C   UNL A   1      35.472  32.112  30.865  1.00  0.00     0.010 A 
ATOM     36  C   UNL A   1      36.903  33.232  29.266  1.00  0.00     0.010 A 
ATOM     37  C   UNL A   1      36.761  32.436  30.414  1.00  0.00    -0.014 A 
BRANCH  37  38
ATOM     38  C   UNL A   1      37.983  31.948  31.103  1.00  0.00     0.031 A 
ATOM     39  C   UNL A   1      38.769  30.806  30.520  1.00  0.00     0.074 A 
ATOM     40  C   UNL A   1      38.318  32.448  32.310  1.00  0.00     0.049 A 
ATOM     41  N   UNL A   1      39.760  30.134  31.044  1.00  0.00    -0.248 NA
ATOM     42  C   UNL A   1      38.365  30.338  29.183  1.00  0.00     0.031 C 
ATOM     43  C   UNL A   1      37.602  33.515  33.012  1.00  0.00     0.029 A 
ATOM     44  N   UNL A   1      39.323  32.096  33.178  1.00  0.00    -0.354 N 
ATOM     45  C   UNL A   1      40.068  29.136  30.128  1.00  0.00     0.074 A 
ATOM     46  C   UNL A   1      39.145  29.278  29.022  1.00  0.00     0.031 C 
ATOM     47  C   UNL A   1      38.187  33.727  34.202  1.00  0.00     0.029 A 
ATOM     48  C   UNL A   1      39.295  32.791  34.365  1.00  0.00     0.049 A 
ATOM     49  H   UNL A   1      39.999  31.412  32.970  1.00  0.00     0.167 HD
ATOM     50  C   UNL A   1      41.047  28.203  30.188  1.00  0.00     0.034 A 
ATOM     51  C   UNL A   1      40.064  32.677  35.467  1.00  0.00     0.034 A 
ATOM     52  C   UNL A   1      42.005  28.106  31.254  1.00  0.00     0.049 A 
ATOM     53  C   UNL A   1      41.174  31.663  35.488  1.00  0.00     0.074 A 
ATOM     54  C   UNL A   1      43.089  27.251  31.359  1.00  0.00     0.029 A 
ATOM     55  N   UNL A   1      42.001  28.890  32.398  1.00  0.00    -0.354 N 
ATOM     56  N   UNL A   1      41.533  30.814  34.555  1.00  0.00    -0.248 NA
ATOM     57  C   UNL A   1      42.004  31.605  36.701  1.00  0.00     0.031 C 
ATOM     58  C   UNL A   1      43.736  27.513  32.570  1.00  0.00     0.029 A 
ATOM     59  C   UNL A   1      43.063  28.539  33.214  1.00  0.00     0.049 A 
ATOM     60  H   UNL A   1      41.342  29.592  32.600  1.00  0.00     0.167 HD
ATOM     61  C   UNL A   1      42.640  30.140  35.057  1.00  0.00     0.074 A 
ATOM     62  C   UNL A   1      42.912  30.697  36.366  1.00  0.00     0.031 C 
ATOM     63  C   UNL A   1      43.355  29.136  34.492  1.00  0.00     0.034 A 
BRANCH  50  64
ATOM     64  C   UNL A   1      41.181  27.250  29.030  1.00  0.00     0.023 A 
ATOM     65  C   UNL A   1      40.425  26.061  29.025  1.00  0.00     0.012 A 
ATOM     66  C   UNL A   1      41.986  27.564  27.919  1.00  0.00     0.148 A 
ATOM     67  C   UNL A   1      40.486  25.185  27.943  1.00  0.00     0.002 A 
ATOM     68  C   UNL A   1      42.011  26.706  26.825  1.00  0.00     0.091 A 
ATOM     69  F   UNL A   1      42.714  28.690  27.952  1.00  0.00    -0.205 F 
ATOM     70  C   UNL A   1      41.269  25.513  26.840  1.00  0.00     0.022 A 
BRANCH  68  71
ATOM     71  S   UNL A   1      42.928  27.071  25.323  1.00  0.00     0.127 S 
ATOM     72  O   UNL A   1      42.680  25.870  24.528  1.00  0.00    -0.237 OA
ATOM     73  O   UNL A   1      42.256  28.275  24.837  1.00  0.00    -0.237 OA
ATOM     74  O   UNL A   1      44.310  27.270  25.736  1.00  0.00    -0.744 OA
ENDBRANCH  68  71
ENDBRANCH  50  64
BRANCH  51  75
ATOM     75  C   UNL A   1      39.850  33.605  36.615  1.00  0.00     0.023 A 
ATOM     76  C   UNL A   1      38.762  33.381  37.481  1.00  0.00     0.012 A 
ATOM     77  C   UNL A   1      40.736  34.665  36.886  1.00  0.00     0.148 A 
ATOM     78  C   UNL A   1      38.549  34.207  38.585  1.00  0.00     0.002 A 
ATOM     79  C   UNL A   1      40.549  35.451  38.018  1.00  0.00     0.091 A 
ATOM     80  F   UNL A   1      41.757  34.870  36.041  1.00  0.00    -0.205 F 
ATOM     81  C   UNL A   1      39.447  35.233  38.860  1.00  0.00     0.022 A 
BRANCH  79  82
ATOM     82  S   UNL A   1      41.730  36.705  38.527  1.00  0.00     0.127 S 
ATOM     83  O   UNL A   1      42.650  35.931  39.355  1.00  0.00    -0.237 OA
ATOM     84  O   UNL A   1      42.276  37.144  37.243  1.00  0.00    -0.237 OA
ATOM     85  O   UNL A   1      40.950  37.719  39.224  1.00  0.00    -0.744 OA
ENDBRANCH  79  82
ENDBRANCH  51  75
BRANCH  63  86
ATOM     86  C   UNL A   1      44.511  28.566  35.271  1.00  0.00     0.023 A 
ATOM     87  C   UNL A   1      45.807  29.075  35.056  1.00  0.00     0.012 A 
ATOM     88  C   UNL A   1      44.301  27.613  36.287  1.00  0.00     0.148 A 
ATOM     89  C   UNL A   1      46.880  28.630  35.828  1.00  0.00     0.002 A 
ATOM     90  C   UNL A   1      45.366  27.208  37.082  1.00  0.00     0.091 A 
ATOM     91  F   UNL A   1      43.064  27.127  36.462  1.00  0.00    -0.205 F 
ATOM     92  C   UNL A   1      46.658  27.709  36.849  1.00  0.00     0.022 A 
BRANCH  90  93
ATOM     93  S   UNL A   1      45.154  26.102  38.482  1.00  0.00     0.127 S 
ATOM     94  O   UNL A   1      45.072  24.799  37.824  1.00  0.00    -0.237 OA
ATOM     95  O   UNL A   1      46.381  26.323  39.247  1.00  0.00    -0.237 OA
ATOM     96  O   UNL A   1      43.938  26.542  39.156  1.00  0.00    -0.744 OA
ENDBRANCH  90  93
ENDBRANCH  63  86
ENDBRANCH  37  38
ENDBRANCH  29  32
ENDBRANCH  27  28
ENDBRANCH  26  27
ENDBRANCH  25  26
ENDBRANCH   1  25
TORSDOF 19
ENDMDL
