MODEL 1
REMARK VINA RESULT:     -11.6      0.000      0.000
REMARK SMILES CCCC[C@@H](C(=O)NCCCCNC(=O)c1ccc(-c2c3nc(c(-c4cccc(S(=O)(=O)[O-])c4F)c4ccc([nH]4)c(-c4cccc(S(=O)(=O)[O-])c4F)c4nc(c(-c5cccc(S(=O)(=O)[O-])c5F)c5ccc2[nH]5)C=C4)C=C3)cc1)C1(O)Cc2ccccc2C1
REMARK SMILES IDX 10 1 9 2 8 3 6 4 7 5 5 7 4 8 3 9 2 10 1 11 79 12 81 13 88 14
REMARK SMILES IDX 82 15 87 16 83 17 86 18 84 19 85 20 80 21 11 23 12 24 13 25
REMARK SMILES IDX 14 26 15 28 16 29 17 30 78 31 18 32 77 33 19 34 20 35 21 36
REMARK SMILES IDX 71 37 22 38 76 39 70 40 72 41 23 42 75 43 69 44 68 45 24 47
REMARK SMILES IDX 56 48 36 49 55 50 37 51 40 52 54 53 73 54 38 55 39 56 53 58
REMARK SMILES IDX 74 59 41 60 25 61 26 62 34 63 27 64 29 65 35 66 28 67 30 68
REMARK SMILES IDX 31 69 32 70 33 71 57 72 58 73 66 74 59 75 61 76 67 77 60 78
REMARK SMILES IDX 62 79 63 80 64 81 65 82 42 83 43 84 51 85 44 86 46 87 52 88
REMARK SMILES IDX 45 89 47 90 48 91 49 92 50 93
REMARK H PARENT 8 6 80 22 13 27 72 46 40 57
REMARK Flexibility Score: inf
ROOT
ATOM      1  C   UNL A   1      31.177  29.674  24.813  1.00  0.00     0.023 C 
ENDROOT
BRANCH   1   2
ATOM      2  C   UNL A   1      31.497  28.582  23.796  1.00  0.00     0.116 C 
BRANCH   2   3
ATOM      3  N   UNL A   1      30.371  27.717  23.568  1.00  0.00    -0.356 N 
ATOM      4  C   UNL A   1      30.124  26.454  23.977  1.00  0.00     0.226 C 
ATOM      5  O   UNL A   1      28.924  26.264  24.209  1.00  0.00    -0.275 OA
ATOM      6  H   UNL A   1      29.657  28.115  23.020  1.00  0.00     0.163 HD
BRANCH   4   7
ATOM      7  C   UNL A   1      31.175  25.360  24.303  1.00  0.00     0.111 C 
BRANCH   7   8
ATOM      8  C   UNL A   1      30.907  23.855  23.977  1.00  0.00     0.016 C 
BRANCH   8   9
ATOM      9  C   UNL A   1      31.725  22.934  23.069  1.00  0.00     0.001 C 
BRANCH   9  10
ATOM     10  C   UNL A   1      32.158  21.569  23.579  1.00  0.00    -0.003 C 
ATOM     11  C   UNL A   1      32.127  20.517  22.486  1.00  0.00     0.004 C 
ENDBRANCH   9  10
ENDBRANCH   8   9
ENDBRANCH   7   8
BRANCH   7  12
ATOM     12  C   UNL A   1      31.606  25.412  25.875  1.00  0.00     0.084 C 
ATOM     13  C   UNL A   1      31.751  24.090  26.720  1.00  0.00     0.072 C 
ATOM     14  C   UNL A   1      33.026  26.029  26.095  1.00  0.00     0.072 C 
ATOM     15  C   UNL A   1      33.178  23.705  26.437  1.00  0.00    -0.042 A 
ATOM     16  C   UNL A   1      33.876  24.813  25.950  1.00  0.00    -0.042 A 
ATOM     17  C   UNL A   1      33.792  22.469  26.525  1.00  0.00     0.004 A 
ATOM     18  C   UNL A   1      35.134  24.692  25.393  1.00  0.00     0.004 A 
ATOM     19  C   UNL A   1      35.081  22.339  26.000  1.00  0.00     0.000 A 
ATOM     20  C   UNL A   1      35.730  23.432  25.400  1.00  0.00     0.000 A 
BRANCH  12  21
ATOM     21  O   UNL A   1      30.638  26.250  26.544  1.00  0.00    -0.388 OA
ATOM     22  H   UNL A   1      30.870  26.327  27.483  1.00  0.00     0.211 HD
ENDBRANCH  12  21
ENDBRANCH   7  12
ENDBRANCH   4   7
ENDBRANCH   2   3
ENDBRANCH   1   2
BRANCH   1  23
ATOM     23  C   UNL A   1      31.734  29.436  26.212  1.00  0.00     0.023 C 
BRANCH  23  24
ATOM     24  C   UNL A   1      33.059  30.133  26.500  1.00  0.00     0.116 C 
BRANCH  24  25
ATOM     25  N   UNL A   1      32.932  31.519  26.939  1.00  0.00    -0.352 N 
ATOM     26  C   UNL A   1      33.836  32.262  27.663  1.00  0.00     0.251 C 
ATOM     27  H   UNL A   1      32.099  31.979  26.687  1.00  0.00     0.163 HD
ATOM     28  O   UNL A   1      33.570  33.409  28.013  1.00  0.00    -0.269 OA
BRANCH  26  29
ATOM     29  C   UNL A   1      35.112  31.631  28.054  1.00  0.00     0.039 A 
ATOM     30  C   UNL A   1      36.249  32.428  28.189  1.00  0.00     0.014 A 
ATOM     31  C   UNL A   1      35.144  30.276  28.391  1.00  0.00     0.014 A 
ATOM     32  C   UNL A   1      37.403  31.881  28.749  1.00  0.00     0.010 A 
ATOM     33  C   UNL A   1      36.261  29.761  29.034  1.00  0.00     0.010 A 
ATOM     34  C   UNL A   1      37.402  30.557  29.219  1.00  0.00    -0.014 A 
BRANCH  34  35
ATOM     35  C   UNL A   1      38.576  29.979  29.918  1.00  0.00     0.031 A 
ATOM     36  C   UNL A   1      38.928  30.448  31.303  1.00  0.00     0.074 A 
ATOM     37  C   UNL A   1      39.384  29.119  29.266  1.00  0.00     0.049 A 
ATOM     38  N   UNL A   1      39.951  30.121  32.047  1.00  0.00    -0.248 NA
ATOM     39  C   UNL A   1      38.036  31.447  31.917  1.00  0.00     0.031 C 
ATOM     40  C   UNL A   1      39.208  28.673  27.882  1.00  0.00     0.029 A 
ATOM     41  N   UNL A   1      40.534  28.488  29.672  1.00  0.00    -0.354 N 
ATOM     42  C   UNL A   1      39.852  30.905  33.190  1.00  0.00     0.074 A 
ATOM     43  C   UNL A   1      38.694  31.754  33.024  1.00  0.00     0.031 C 
ATOM     44  C   UNL A   1      40.205  27.832  27.559  1.00  0.00     0.029 A 
ATOM     45  C   UNL A   1      41.101  27.695  28.703  1.00  0.00     0.049 A 
ATOM     46  H   UNL A   1      40.915  28.594  30.574  1.00  0.00     0.167 HD
ATOM     47  C   UNL A   1      40.631  30.893  34.297  1.00  0.00     0.034 A 
ATOM     48  C   UNL A   1      42.215  26.938  28.736  1.00  0.00     0.034 A 
ATOM     49  C   UNL A   1      41.735  29.994  34.488  1.00  0.00     0.049 A 
ATOM     50  C   UNL A   1      43.007  26.868  30.014  1.00  0.00     0.074 A 
ATOM     51  C   UNL A   1      42.519  29.820  35.615  1.00  0.00     0.029 A 
ATOM     52  N   UNL A   1      42.206  29.109  33.531  1.00  0.00    -0.354 N 
ATOM     53  N   UNL A   1      42.794  27.485  31.151  1.00  0.00    -0.248 NA
ATOM     54  C   UNL A   1      44.167  25.965  30.030  1.00  0.00     0.031 C 
ATOM     55  C   UNL A   1      43.468  28.831  35.335  1.00  0.00     0.029 A 
ATOM     56  C   UNL A   1      43.267  28.383  34.038  1.00  0.00     0.049 A 
ATOM     57  H   UNL A   1      41.837  29.012  32.621  1.00  0.00     0.167 HD
ATOM     58  C   UNL A   1      43.770  27.022  32.026  1.00  0.00     0.074 A 
ATOM     59  C   UNL A   1      44.561  26.054  31.294  1.00  0.00     0.031 C 
ATOM     60  C   UNL A   1      44.002  27.379  33.313  1.00  0.00     0.034 A 
BRANCH  47  61
ATOM     61  C   UNL A   1      40.260  31.827  35.419  1.00  0.00     0.023 A 
ATOM     62  C   UNL A   1      40.994  33.019  35.595  1.00  0.00     0.012 A 
ATOM     63  C   UNL A   1      39.174  31.553  36.270  1.00  0.00     0.148 A 
ATOM     64  C   UNL A   1      40.676  33.904  36.622  1.00  0.00     0.002 A 
ATOM     65  C   UNL A   1      38.835  32.463  37.266  1.00  0.00     0.091 A 
ATOM     66  F   UNL A   1      38.502  30.404  36.105  1.00  0.00    -0.205 F 
ATOM     67  C   UNL A   1      39.590  33.632  37.450  1.00  0.00     0.022 A 
BRANCH  65  68
ATOM     68  S   UNL A   1      37.409  32.238  38.335  1.00  0.00     0.127 S 
ATOM     69  O   UNL A   1      36.381  32.988  37.616  1.00  0.00    -0.237 OA
ATOM     70  O   UNL A   1      37.232  30.785  38.314  1.00  0.00    -0.237 OA
ATOM     71  O   UNL A   1      37.792  32.781  39.632  1.00  0.00    -0.744 OA
ENDBRANCH  65  68
ENDBRANCH  47  61
BRANCH  48  72
ATOM     72  C   UNL A   1      42.587  26.106  27.557  1.00  0.00     0.023 A 
ATOM     73  C   UNL A   1      43.434  26.652  26.573  1.00  0.00     0.012 A 
ATOM     74  C   UNL A   1      42.142  24.777  27.418  1.00  0.00     0.148 A 
ATOM     75  C   UNL A   1      43.808  25.903  25.457  1.00  0.00     0.002 A 
ATOM     76  C   UNL A   1      42.560  24.018  26.330  1.00  0.00     0.091 A 
ATOM     77  F   UNL A   1      41.327  24.277  28.357  1.00  0.00    -0.205 F 
ATOM     78  C   UNL A   1      43.380  24.583  25.341  1.00  0.00     0.022 A 
BRANCH  76  79
ATOM     79  S   UNL A   1      42.164  22.273  26.169  1.00  0.00     0.127 S 
ATOM     80  O   UNL A   1      42.892  21.910  24.955  1.00  0.00    -0.237 OA
ATOM     81  O   UNL A   1      42.714  21.718  27.407  1.00  0.00    -0.237 OA
ATOM     82  O   UNL A   1      40.710  22.212  26.084  1.00  0.00    -0.744 OA
ENDBRANCH  76  79
ENDBRANCH  48  72
BRANCH  60  83
ATOM     83  C   UNL A   1      45.139  26.703  34.030  1.00  0.00     0.023 A 
ATOM     84  C   UNL A   1      46.400  27.329  34.079  1.00  0.00     0.012 A 
ATOM     85  C   UNL A   1      44.937  25.493  34.723  1.00  0.00     0.148 A 
ATOM     86  C   UNL A   1      47.451  26.748  34.786  1.00  0.00     0.002 A 
ATOM     87  C   UNL A   1      45.977  24.942  35.462  1.00  0.00     0.091 A 
ATOM     88  F   UNL A   1      43.737  24.902  34.645  1.00  0.00    -0.205 F 
ATOM     89  C   UNL A   1      47.237  25.562  35.487  1.00  0.00     0.022 A 
BRANCH  87  90
ATOM     90  S   UNL A   1      45.758  23.471  36.468  1.00  0.00     0.127 S 
ATOM     91  O   UNL A   1      47.085  22.862  36.401  1.00  0.00    -0.237 OA
ATOM     92  O   UNL A   1      45.411  24.032  37.775  1.00  0.00    -0.237 OA
ATOM     93  O   UNL A   1      44.685  22.715  35.836  1.00  0.00    -0.744 OA
ENDBRANCH  87  90
ENDBRANCH  60  83
ENDBRANCH  34  35
ENDBRANCH  26  29
ENDBRANCH  24  25
ENDBRANCH  23  24
ENDBRANCH   1  23
TORSDOF 19
ENDMDL
MODEL 2
REMARK VINA RESULT:     -11.6      1.670      2.491
REMARK SMILES CCCC[C@@H](C(=O)NCCCCNC(=O)c1ccc(-c2c3nc(c(-c4cccc(S(=O)(=O)[O-])c4F)c4ccc([nH]4)c(-c4cccc(S(=O)(=O)[O-])c4F)c4nc(c(-c5cccc(S(=O)(=O)[O-])c5F)c5ccc2[nH]5)C=C4)C=C3)cc1)C1(O)Cc2ccccc2C1
REMARK SMILES IDX 10 1 9 2 8 3 6 4 7 5 5 7 4 8 3 9 2 10 1 11 79 12 81 13 88 14
REMARK SMILES IDX 82 15 87 16 83 17 86 18 84 19 85 20 80 21 11 23 12 24 13 25
REMARK SMILES IDX 14 26 15 28 16 29 17 30 78 31 18 32 77 33 19 34 20 35 21 36
REMARK SMILES IDX 71 37 22 38 76 39 70 40 72 41 23 42 75 43 69 44 68 45 24 47
REMARK SMILES IDX 56 48 36 49 55 50 37 51 40 52 54 53 73 54 38 55 39 56 53 58
REMARK SMILES IDX 74 59 41 60 25 61 26 62 34 63 27 64 29 65 35 66 28 67 30 68
REMARK SMILES IDX 31 69 32 70 33 71 57 72 58 73 66 74 59 75 61 76 67 77 60 78
REMARK SMILES IDX 62 79 63 80 64 81 65 82 42 83 43 84 51 85 44 86 46 87 52 88
REMARK SMILES IDX 45 89 47 90 48 91 49 92 50 93
REMARK H PARENT 8 6 80 22 13 27 72 46 40 57
REMARK Flexibility Score: inf
ROOT
ATOM      1  C   UNL A   1      31.113  29.052  24.568  1.00  0.00     0.023 C 
ENDROOT
BRANCH   1   2
ATOM      2  C   UNL A   1      31.179  28.507  23.143  1.00  0.00     0.116 C 
BRANCH   2   3
ATOM      3  N   UNL A   1      32.536  28.346  22.696  1.00  0.00    -0.356 N 
ATOM      4  C   UNL A   1      33.285  27.238  22.511  1.00  0.00     0.226 C 
ATOM      5  O   UNL A   1      34.060  27.351  21.554  1.00  0.00    -0.275 OA
ATOM      6  H   UNL A   1      32.999  29.190  22.487  1.00  0.00     0.163 HD
BRANCH   4   7
ATOM      7  C   UNL A   1      33.140  25.883  23.254  1.00  0.00     0.111 C 
BRANCH   7   8
ATOM      8  C   UNL A   1      34.393  25.037  23.648  1.00  0.00     0.016 C 
BRANCH   8   9
ATOM      9  C   UNL A   1      34.988  24.841  25.045  1.00  0.00     0.001 C 
BRANCH   9  10
ATOM     10  C   UNL A   1      34.158  24.167  26.126  1.00  0.00    -0.003 C 
ATOM     11  C   UNL A   1      34.799  22.881  26.614  1.00  0.00     0.004 C 
ENDBRANCH   9  10
ENDBRANCH   8   9
ENDBRANCH   7   8
BRANCH   7  12
ATOM     12  C   UNL A   1      32.149  24.874  22.442  1.00  0.00     0.084 C 
ATOM     13  C   UNL A   1      32.551  23.371  22.192  1.00  0.00     0.072 C 
ATOM     14  C   UNL A   1      30.773  24.669  23.157  1.00  0.00     0.072 C 
ATOM     15  C   UNL A   1      32.046  22.710  23.446  1.00  0.00    -0.042 A 
ATOM     16  C   UNL A   1      31.106  23.537  24.067  1.00  0.00    -0.042 A 
ATOM     17  C   UNL A   1      32.435  21.520  24.034  1.00  0.00     0.004 A 
ATOM     18  C   UNL A   1      30.653  23.287  25.348  1.00  0.00     0.004 A 
ATOM     19  C   UNL A   1      31.955  21.235  25.315  1.00  0.00     0.000 A 
ATOM     20  C   UNL A   1      31.104  22.132  25.984  1.00  0.00     0.000 A 
BRANCH  12  21
ATOM     21  O   UNL A   1      31.906  25.478  21.153  1.00  0.00    -0.388 OA
ATOM     22  H   UNL A   1      32.690  25.369  20.591  1.00  0.00     0.211 HD
ENDBRANCH  12  21
ENDBRANCH   7  12
ENDBRANCH   4   7
ENDBRANCH   2   3
ENDBRANCH   1   2
BRANCH   1  23
ATOM     23  C   UNL A   1      32.416  29.642  25.093  1.00  0.00     0.023 C 
BRANCH  23  24
ATOM     24  C   UNL A   1      32.397  30.022  26.570  1.00  0.00     0.116 C 
BRANCH  24  25
ATOM     25  N   UNL A   1      32.268  31.454  26.825  1.00  0.00    -0.352 N 
ATOM     26  C   UNL A   1      33.188  32.292  27.412  1.00  0.00     0.251 C 
ATOM     27  H   UNL A   1      31.422  31.870  26.544  1.00  0.00     0.163 HD
ATOM     28  O   UNL A   1      32.920  33.474  27.617  1.00  0.00    -0.269 OA
BRANCH  26  29
ATOM     29  C   UNL A   1      34.483  31.728  27.838  1.00  0.00     0.039 A 
ATOM     30  C   UNL A   1      35.573  32.584  28.009  1.00  0.00     0.014 A 
ATOM     31  C   UNL A   1      34.577  30.375  28.173  1.00  0.00     0.014 A 
ATOM     32  C   UNL A   1      36.737  32.096  28.601  1.00  0.00     0.010 A 
ATOM     33  C   UNL A   1      35.702  29.918  28.846  1.00  0.00     0.010 A 
ATOM     34  C   UNL A   1      36.793  30.772  29.066  1.00  0.00    -0.014 A 
BRANCH  34  35
ATOM     35  C   UNL A   1      37.975  30.254  29.798  1.00  0.00     0.031 A 
ATOM     36  C   UNL A   1      38.238  30.704  31.209  1.00  0.00     0.074 A 
ATOM     37  C   UNL A   1      38.866  29.470  29.156  1.00  0.00     0.049 A 
ATOM     38  N   UNL A   1      39.251  30.425  31.986  1.00  0.00    -0.248 NA
ATOM     39  C   UNL A   1      37.256  31.620  31.812  1.00  0.00     0.031 C 
ATOM     40  C   UNL A   1      38.777  29.056  27.754  1.00  0.00     0.029 A 
ATOM     41  N   UNL A   1      40.039  28.908  29.593  1.00  0.00    -0.354 N 
ATOM     42  C   UNL A   1      39.053  31.165  33.145  1.00  0.00     0.074 A 
ATOM     43  C   UNL A   1      37.847  31.938  32.954  1.00  0.00     0.031 C 
ATOM     44  C   UNL A   1      39.841  28.295  27.451  1.00  0.00     0.029 A 
ATOM     45  C   UNL A   1      40.698  28.184  28.627  1.00  0.00     0.049 A 
ATOM     46  H   UNL A   1      40.376  29.011  30.512  1.00  0.00     0.167 HD
ATOM     47  C   UNL A   1      39.786  31.171  34.283  1.00  0.00     0.034 A 
ATOM     48  C   UNL A   1      41.859  27.504  28.686  1.00  0.00     0.034 A 
ATOM     49  C   UNL A   1      40.941  30.344  34.495  1.00  0.00     0.049 A 
ATOM     50  C   UNL A   1      42.603  27.449  29.993  1.00  0.00     0.074 A 
ATOM     51  C   UNL A   1      41.690  30.189  35.648  1.00  0.00     0.029 A 
ATOM     52  N   UNL A   1      41.509  29.523  33.534  1.00  0.00    -0.354 N 
ATOM     53  N   UNL A   1      42.303  28.016  31.137  1.00  0.00    -0.248 NA
ATOM     54  C   UNL A   1      43.821  26.627  30.033  1.00  0.00     0.031 C 
ATOM     55  C   UNL A   1      42.715  29.276  35.381  1.00  0.00     0.029 A 
ATOM     56  C   UNL A   1      42.597  28.855  34.065  1.00  0.00     0.049 A 
ATOM     57  H   UNL A   1      41.185  29.429  32.608  1.00  0.00     0.167 HD
ATOM     58  C   UNL A   1      43.272  27.593  32.039  1.00  0.00     0.074 A 
ATOM     59  C   UNL A   1      44.157  26.704  31.314  1.00  0.00     0.031 C 
ATOM     60  C   UNL A   1      43.428  27.925  33.344  1.00  0.00     0.034 A 
BRANCH  47  61
ATOM     61  C   UNL A   1      39.308  32.043  35.413  1.00  0.00     0.023 A 
ATOM     62  C   UNL A   1      38.387  31.521  36.346  1.00  0.00     0.012 A 
ATOM     63  C   UNL A   1      39.790  33.355  35.579  1.00  0.00     0.148 A 
ATOM     64  C   UNL A   1      37.926  32.301  37.404  1.00  0.00     0.002 A 
ATOM     65  C   UNL A   1      39.358  34.113  36.663  1.00  0.00     0.091 A 
ATOM     66  F   UNL A   1      40.645  33.844  34.670  1.00  0.00    -0.205 F 
ATOM     67  C   UNL A   1      38.420  33.593  37.568  1.00  0.00     0.022 A 
BRANCH  65  68
ATOM     68  S   UNL A   1      39.991  35.759  37.003  1.00  0.00     0.127 S 
ATOM     69  O   UNL A   1      41.418  35.497  37.173  1.00  0.00    -0.237 OA
ATOM     70  O   UNL A   1      39.646  36.483  35.777  1.00  0.00    -0.237 OA
ATOM     71  O   UNL A   1      39.289  36.220  38.193  1.00  0.00    -0.744 OA
ENDBRANCH  65  68
ENDBRANCH  47  61
BRANCH  48  72
ATOM     72  C   UNL A   1      42.334  26.736  27.500  1.00  0.00     0.023 A 
ATOM     73  C   UNL A   1      43.090  27.398  26.513  1.00  0.00     0.012 A 
ATOM     74  C   UNL A   1      42.078  25.358  27.359  1.00  0.00     0.148 A 
ATOM     75  C   UNL A   1      43.556  26.711  25.391  1.00  0.00     0.002 A 
ATOM     76  C   UNL A   1      42.590  24.667  26.265  1.00  0.00     0.091 A 
ATOM     77  F   UNL A   1      41.347  24.746  28.302  1.00  0.00    -0.205 F 
ATOM     78  C   UNL A   1      43.315  25.344  25.273  1.00  0.00     0.022 A 
BRANCH  76  79
ATOM     79  S   UNL A   1      42.439  22.885  26.100  1.00  0.00     0.127 S 
ATOM     80  O   UNL A   1      43.215  22.411  27.243  1.00  0.00    -0.237 OA
ATOM     81  O   UNL A   1      40.993  22.687  26.211  1.00  0.00    -0.237 OA
ATOM     82  O   UNL A   1      42.983  22.571  24.784  1.00  0.00    -0.744 OA
ENDBRANCH  76  79
ENDBRANCH  48  72
BRANCH  60  83
ATOM     83  C   UNL A   1      44.580  27.307  34.088  1.00  0.00     0.023 A 
ATOM     84  C   UNL A   1      45.825  27.966  34.115  1.00  0.00     0.012 A 
ATOM     85  C   UNL A   1      44.406  26.121  34.828  1.00  0.00     0.148 A 
ATOM     86  C   UNL A   1      46.888  27.439  34.846  1.00  0.00     0.002 A 
ATOM     87  C   UNL A   1      45.458  25.625  35.590  1.00  0.00     0.091 A 
ATOM     88  F   UNL A   1      43.221  25.497  34.771  1.00  0.00    -0.205 F 
ATOM     89  C   UNL A   1      46.702  26.277  35.593  1.00  0.00     0.022 A 
BRANCH  87  90
ATOM     90  S   UNL A   1      45.272  24.190  36.654  1.00  0.00     0.127 S 
ATOM     91  O   UNL A   1      43.869  24.289  37.048  1.00  0.00    -0.237 OA
ATOM     92  O   UNL A   1      45.573  23.084  35.744  1.00  0.00    -0.237 OA
ATOM     93  O   UNL A   1      46.242  24.365  37.727  1.00  0.00    -0.744 OA
ENDBRANCH  87  90
ENDBRANCH  60  83
ENDBRANCH  34  35
ENDBRANCH  26  29
ENDBRANCH  24  25
ENDBRANCH  23  24
ENDBRANCH   1  23
TORSDOF 19
ENDMDL
MODEL 3
REMARK VINA RESULT:     -11.5      2.637      3.351
REMARK SMILES CCCC[C@@H](C(=O)NCCCCNC(=O)c1ccc(-c2c3nc(c(-c4cccc(S(=O)(=O)[O-])c4F)c4ccc([nH]4)c(-c4cccc(S(=O)(=O)[O-])c4F)c4nc(c(-c5cccc(S(=O)(=O)[O-])c5F)c5ccc2[nH]5)C=C4)C=C3)cc1)C1(O)Cc2ccccc2C1
REMARK SMILES IDX 10 1 9 2 8 3 6 4 7 5 5 7 4 8 3 9 2 10 1 11 79 12 81 13 88 14
REMARK SMILES IDX 82 15 87 16 83 17 86 18 84 19 85 20 80 21 11 23 12 24 13 25
REMARK SMILES IDX 14 26 15 28 16 29 17 30 78 31 18 32 77 33 19 34 20 35 21 36
REMARK SMILES IDX 71 37 22 38 76 39 70 40 72 41 23 42 75 43 69 44 68 45 24 47
REMARK SMILES IDX 56 48 36 49 55 50 37 51 40 52 54 53 73 54 38 55 39 56 53 58
REMARK SMILES IDX 74 59 41 60 25 61 26 62 34 63 27 64 29 65 35 66 28 67 30 68
REMARK SMILES IDX 31 69 32 70 33 71 57 72 58 73 66 74 59 75 61 76 67 77 60 78
REMARK SMILES IDX 62 79 63 80 64 81 65 82 42 83 43 84 51 85 44 86 46 87 52 88
REMARK SMILES IDX 45 89 47 90 48 91 49 92 50 93
REMARK H PARENT 8 6 80 22 13 27 72 46 40 57
REMARK Flexibility Score: inf
ROOT
ATOM      1  C   UNL A   1      31.626  28.796  25.560  1.00  0.00     0.023 C 
ENDROOT
BRANCH   1   2
ATOM      2  C   UNL A   1      32.760  28.593  24.559  1.00  0.00     0.116 C 
BRANCH   2   3
ATOM      3  N   UNL A   1      32.280  28.083  23.303  1.00  0.00    -0.356 N 
ATOM      4  C   UNL A   1      31.848  26.853  22.951  1.00  0.00     0.226 C 
ATOM      5  O   UNL A   1      30.936  26.898  22.116  1.00  0.00    -0.275 OA
ATOM      6  H   UNL A   1      32.262  28.745  22.575  1.00  0.00     0.163 HD
BRANCH   4   7
ATOM      7  C   UNL A   1      32.271  25.502  23.585  1.00  0.00     0.111 C 
BRANCH   7   8
ATOM      8  C   UNL A   1      32.707  25.411  25.083  1.00  0.00     0.016 C 
BRANCH   8   9
ATOM      9  C   UNL A   1      31.872  24.935  26.275  1.00  0.00     0.001 C 
BRANCH   9  10
ATOM     10  C   UNL A   1      31.887  23.465  26.662  1.00  0.00    -0.003 C 
ATOM     11  C   UNL A   1      30.701  22.714  26.087  1.00  0.00     0.004 C 
ENDBRANCH   9  10
ENDBRANCH   8   9
ENDBRANCH   7   8
BRANCH   7  12
ATOM     12  C   UNL A   1      33.464  24.798  22.723  1.00  0.00     0.084 C 
ATOM     13  C   UNL A   1      34.660  24.066  23.441  1.00  0.00     0.072 C 
ATOM     14  C   UNL A   1      32.949  23.639  21.808  1.00  0.00     0.072 C 
ATOM     15  C   UNL A   1      34.101  22.681  23.624  1.00  0.00    -0.042 A 
ATOM     16  C   UNL A   1      33.021  22.493  22.757  1.00  0.00    -0.042 A 
ATOM     17  C   UNL A   1      34.458  21.698  24.528  1.00  0.00     0.004 A 
ATOM     18  C   UNL A   1      32.178  21.404  22.873  1.00  0.00     0.004 A 
ATOM     19  C   UNL A   1      33.636  20.571  24.631  1.00  0.00     0.000 A 
ATOM     20  C   UNL A   1      32.482  20.446  23.839  1.00  0.00     0.000 A 
BRANCH  12  21
ATOM     21  O   UNL A   1      34.028  25.826  21.880  1.00  0.00    -0.388 OA
ATOM     22  H   UNL A   1      34.274  26.592  22.423  1.00  0.00     0.211 HD
ENDBRANCH  12  21
ENDBRANCH   7  12
ENDBRANCH   4   7
ENDBRANCH   2   3
ENDBRANCH   1   2
BRANCH   1  23
ATOM     23  C   UNL A   1      32.037  28.711  27.025  1.00  0.00     0.023 C 
BRANCH  23  24
ATOM     24  C   UNL A   1      33.452  29.192  27.322  1.00  0.00     0.116 C 
BRANCH  24  25
ATOM     25  N   UNL A   1      33.540  30.585  27.752  1.00  0.00    -0.352 N 
ATOM     26  C   UNL A   1      34.603  31.215  28.359  1.00  0.00     0.251 C 
ATOM     27  H   UNL A   1      32.746  31.141  27.587  1.00  0.00     0.163 HD
ATOM     28  O   UNL A   1      34.515  32.387  28.719  1.00  0.00    -0.269 OA
BRANCH  26  29
ATOM     29  C   UNL A   1      35.830  30.437  28.615  1.00  0.00     0.039 A 
ATOM     30  C   UNL A   1      36.910  30.568  27.742  1.00  0.00     0.014 A 
ATOM     31  C   UNL A   1      35.939  29.673  29.780  1.00  0.00     0.014 A 
ATOM     32  C   UNL A   1      38.136  29.997  28.084  1.00  0.00     0.010 A 
ATOM     33  C   UNL A   1      37.182  29.188  30.160  1.00  0.00     0.010 A 
ATOM     34  C   UNL A   1      38.293  29.344  29.317  1.00  0.00    -0.014 A 
BRANCH  34  35
ATOM     35  C   UNL A   1      39.610  28.822  29.759  1.00  0.00     0.031 A 
ATOM     36  C   UNL A   1      40.358  29.518  30.863  1.00  0.00     0.074 A 
ATOM     37  C   UNL A   1      40.179  27.796  29.094  1.00  0.00     0.049 A 
ATOM     38  N   UNL A   1      41.548  29.262  31.339  1.00  0.00    -0.248 NA
ATOM     39  C   UNL A   1      39.700  30.678  31.488  1.00  0.00     0.031 C 
ATOM     40  C   UNL A   1      39.600  27.111  27.936  1.00  0.00     0.029 A 
ATOM     41  N   UNL A   1      41.386  27.170  29.278  1.00  0.00    -0.354 N 
ATOM     42  C   UNL A   1      41.800  30.253  32.279  1.00  0.00     0.074 A 
ATOM     43  C   UNL A   1      40.658  31.139  32.279  1.00  0.00     0.031 C 
ATOM     44  C   UNL A   1      40.445  26.153  27.522  1.00  0.00     0.029 A 
ATOM     45  C   UNL A   1      41.633  26.167  28.370  1.00  0.00     0.049 A 
ATOM     46  H   UNL A   1      42.015  27.415  29.995  1.00  0.00     0.167 HD
ATOM     47  C   UNL A   1      42.866  30.391  33.101  1.00  0.00     0.034 A 
ATOM     48  C   UNL A   1      42.695  25.349  28.240  1.00  0.00     0.034 A 
ATOM     49  C   UNL A   1      43.963  29.465  33.150  1.00  0.00     0.049 A 
ATOM     50  C   UNL A   1      43.824  25.463  29.229  1.00  0.00     0.074 A 
ATOM     51  C   UNL A   1      45.038  29.449  34.021  1.00  0.00     0.029 A 
ATOM     52  N   UNL A   1      44.120  28.382  32.299  1.00  0.00    -0.354 N 
ATOM     53  N   UNL A   1      43.962  26.299  30.230  1.00  0.00    -0.248 NA
ATOM     54  C   UNL A   1      44.923  24.496  29.100  1.00  0.00     0.031 C 
ATOM     55  C   UNL A   1      45.848  28.356  33.691  1.00  0.00     0.029 A 
ATOM     56  C   UNL A   1      45.271  27.688  32.623  1.00  0.00     0.049 A 
ATOM     57  H   UNL A   1      43.501  28.143  31.570  1.00  0.00     0.167 HD
ATOM     58  C   UNL A   1      45.142  25.937  30.870  1.00  0.00     0.074 A 
ATOM     59  C   UNL A   1      45.669  24.792  30.156  1.00  0.00     0.031 C 
ATOM     60  C   UNL A   1      45.746  26.513  31.939  1.00  0.00     0.034 A 
BRANCH  47  61
ATOM     61  C   UNL A   1      42.855  31.545  34.068  1.00  0.00     0.023 A 
ATOM     62  C   UNL A   1      43.446  32.769  33.690  1.00  0.00     0.012 A 
ATOM     63  C   UNL A   1      42.232  31.440  35.325  1.00  0.00     0.148 A 
ATOM     64  C   UNL A   1      43.451  33.856  34.560  1.00  0.00     0.002 A 
ATOM     65  C   UNL A   1      42.203  32.543  36.172  1.00  0.00     0.091 A 
ATOM     66  F   UNL A   1      41.696  30.262  35.679  1.00  0.00    -0.205 F 
ATOM     67  C   UNL A   1      42.820  33.746  35.796  1.00  0.00     0.022 A 
BRANCH  65  68
ATOM     68  S   UNL A   1      41.351  32.524  37.753  1.00  0.00     0.127 S 
ATOM     69  O   UNL A   1      42.172  31.589  38.520  1.00  0.00    -0.237 OA
ATOM     70  O   UNL A   1      41.458  33.921  38.180  1.00  0.00    -0.237 OA
ATOM     71  O   UNL A   1      39.992  32.082  37.470  1.00  0.00    -0.744 OA
ENDBRANCH  65  68
ENDBRANCH  47  61
BRANCH  48  72
ATOM     72  C   UNL A   1      42.693  24.285  27.198  1.00  0.00     0.023 A 
ATOM     73  C   UNL A   1      43.375  24.510  25.986  1.00  0.00     0.012 A 
ATOM     74  C   UNL A   1      42.058  23.045  27.407  1.00  0.00     0.148 A 
ATOM     75  C   UNL A   1      43.399  23.535  24.988  1.00  0.00     0.002 A 
ATOM     76  C   UNL A   1      42.130  22.057  26.429  1.00  0.00     0.091 A 
ATOM     77  F   UNL A   1      41.403  22.851  28.561  1.00  0.00    -0.205 F 
ATOM     78  C   UNL A   1      42.786  22.306  25.214  1.00  0.00     0.022 A 
BRANCH  76  79
ATOM     79  S   UNL A   1      41.482  20.402  26.689  1.00  0.00     0.127 S 
ATOM     80  O   UNL A   1      41.858  19.734  25.446  1.00  0.00    -0.237 OA
ATOM     81  O   UNL A   1      42.223  19.965  27.874  1.00  0.00    -0.237 OA
ATOM     82  O   UNL A   1      40.052  20.577  26.912  1.00  0.00    -0.744 OA
ENDBRANCH  76  79
ENDBRANCH  48  72
BRANCH  60  83
ATOM     83  C   UNL A   1      47.031  25.901  32.427  1.00  0.00     0.023 A 
ATOM     84  C   UNL A   1      47.007  25.015  33.521  1.00  0.00     0.012 A 
ATOM     85  C   UNL A   1      48.244  26.139  31.752  1.00  0.00     0.148 A 
ATOM     86  C   UNL A   1      48.177  24.393  33.954  1.00  0.00     0.002 A 
ATOM     87  C   UNL A   1      49.399  25.482  32.161  1.00  0.00     0.091 A 
ATOM     88  F   UNL A   1      48.250  27.004  30.728  1.00  0.00    -0.205 F 
ATOM     89  C   UNL A   1      49.369  24.616  33.267  1.00  0.00     0.022 A 
BRANCH  87  90
ATOM     90  S   UNL A   1      50.952  25.640  31.275  1.00  0.00     0.127 S 
ATOM     91  O   UNL A   1      50.576  25.204  29.932  1.00  0.00    -0.237 OA
ATOM     92  O   UNL A   1      51.238  27.070  31.393  1.00  0.00    -0.237 OA
ATOM     93  O   UNL A   1      51.897  24.780  31.975  1.00  0.00    -0.744 OA
ENDBRANCH  87  90
ENDBRANCH  60  83
ENDBRANCH  34  35
ENDBRANCH  26  29
ENDBRANCH  24  25
ENDBRANCH  23  24
ENDBRANCH   1  23
TORSDOF 19
ENDMDL
