MODEL 1
REMARK VINA RESULT:     -12.5      0.000      0.000
REMARK SMILES CC(=O)Oc1cc(CCC(=O)NCCCCNC(=O)c2ccc(-c3c4nc(c(-c5cccc(S(=O)(=O)[O-])c5F)c5ccc([nH]5)c(-c5cccc(S(=O)(=O)[O-])c5F)c5nc(c(-c6cccc(S(=O)(=O)[O-])c6F)c6ccc3[nH]6)C=C5)C=C4)cc2)c(OC(C)=O)c2c1C(=O)c1ccccc1C2=O
REMARK SMILES IDX 14 1 13 2 12 3 10 4 11 5 9 7 8 8 7 9 5 10 6 11 89 12 88 13
REMARK SMILES IDX 90 14 83 15 98 16 91 17 92 18 97 19 99 20 93 21 96 22 94 23
REMARK SMILES IDX 95 24 4 25 2 26 1 27 3 28 84 29 85 30 86 31 87 32 15 33
REMARK SMILES IDX 16 34 17 35 18 36 19 38 20 39 21 40 82 41 22 42 81 43 23 44
REMARK SMILES IDX 24 45 25 46 75 47 26 48 80 49 74 50 76 51 27 52 79 53 73 54
REMARK SMILES IDX 72 55 28 57 60 58 40 59 59 60 41 61 44 62 58 63 77 64 42 65
REMARK SMILES IDX 43 66 57 68 78 69 45 70 29 71 30 72 38 73 31 74 33 75 39 76
REMARK SMILES IDX 32 77 34 78 35 79 36 80 37 81 61 82 62 83 70 84 63 85 65 86
REMARK SMILES IDX 71 87 64 88 66 89 67 90 68 91 69 92 46 93 47 94 55 95 48 96
REMARK SMILES IDX 50 97 56 98 49 99 51 100 52 101 53 102 54 103
REMARK H PARENT 12 6 17 37 76 56 44 67
REMARK Flexibility Score: inf
ROOT
ATOM      1  C   UNL A   1      36.460  20.734  25.555  1.00  0.00     0.023 C 
ENDROOT
BRANCH   1   2
ATOM      2  C   UNL A   1      35.223  20.695  24.677  1.00  0.00     0.116 C 
BRANCH   2   3
ATOM      3  N   UNL A   1      34.344  19.623  25.122  1.00  0.00    -0.356 N 
ATOM      4  C   UNL A   1      32.981  19.568  25.085  1.00  0.00     0.220 C 
ATOM      5  O   UNL A   1      32.408  18.654  25.681  1.00  0.00    -0.275 OA
ATOM      6  H   UNL A   1      34.794  18.833  25.500  1.00  0.00     0.163 HD
BRANCH   4   7
ATOM      7  C   UNL A   1      32.182  20.587  24.287  1.00  0.00     0.105 C 
BRANCH   7   8
ATOM      8  C   UNL A   1      33.025  21.737  23.702  1.00  0.00     0.049 C 
BRANCH   8   9
ATOM      9  C   UNL A   1      32.352  23.089  23.771  1.00  0.00    -0.000 A 
ATOM     10  C   UNL A   1      31.647  25.083  22.566  1.00  0.00     0.143 A 
ATOM     11  C   UNL A   1      32.064  23.746  22.568  1.00  0.00     0.055 A 
ATOM     12  C   UNL A   1      31.470  25.801  23.760  1.00  0.00     0.080 A 
ATOM     13  C   UNL A   1      31.711  25.160  24.977  1.00  0.00     0.081 A 
ATOM     14  C   UNL A   1      31.105  27.237  23.736  1.00  0.00     0.198 C 
ATOM     15  C   UNL A   1      32.109  23.803  24.959  1.00  0.00     0.146 A 
ATOM     16  C   UNL A   1      31.651  25.958  26.224  1.00  0.00     0.198 C 
ATOM     17  O   UNL A   1      30.588  27.746  22.749  1.00  0.00    -0.288 OA
ATOM     18  C   UNL A   1      31.400  28.057  24.923  1.00  0.00     0.034 A 
ATOM     19  C   UNL A   1      31.700  27.434  26.130  1.00  0.00     0.034 A 
ATOM     20  O   UNL A   1      31.547  25.420  27.316  1.00  0.00    -0.288 OA
ATOM     21  C   UNL A   1      31.379  29.453  24.834  1.00  0.00     0.013 A 
ATOM     22  C   UNL A   1      32.016  28.208  27.254  1.00  0.00     0.013 A 
ATOM     23  C   UNL A   1      31.676  30.224  25.958  1.00  0.00     0.001 A 
ATOM     24  C   UNL A   1      32.008  29.602  27.162  1.00  0.00     0.001 A 
BRANCH  10  25
ATOM     25  O   UNL A   1      31.458  25.679  21.316  1.00  0.00    -0.426 OA
BRANCH  25  26
ATOM     26  C   UNL A   1      32.666  25.920  20.668  1.00  0.00     0.308 C 
ATOM     27  C   UNL A   1      32.563  25.442  19.250  1.00  0.00     0.139 C 
ATOM     28  O   UNL A   1      33.682  26.373  21.184  1.00  0.00    -0.252 OA
ENDBRANCH  25  26
ENDBRANCH  10  25
BRANCH  15  29
ATOM     29  O   UNL A   1      32.541  23.181  26.257  1.00  0.00    -0.426 OA
BRANCH  29  30
ATOM     30  C   UNL A   1      33.036  22.669  27.507  1.00  0.00     0.308 C 
ATOM     31  C   UNL A   1      34.524  22.779  27.591  1.00  0.00     0.139 C 
ATOM     32  O   UNL A   1      32.312  22.254  28.397  1.00  0.00    -0.252 OA
ENDBRANCH  29  30
ENDBRANCH  15  29
ENDBRANCH   8   9
ENDBRANCH   7   8
ENDBRANCH   4   7
ENDBRANCH   2   3
ENDBRANCH   1   2
BRANCH   1  33
ATOM     33  C   UNL A   1      37.789  20.469  24.876  1.00  0.00     0.023 C 
BRANCH  33  34
ATOM     34  C   UNL A   1      39.012  20.690  25.743  1.00  0.00     0.116 C 
BRANCH  34  35
ATOM     35  N   UNL A   1      39.944  19.569  25.798  1.00  0.00    -0.352 N 
ATOM     36  C   UNL A   1      41.285  19.546  26.110  1.00  0.00     0.251 C 
ATOM     37  H   UNL A   1      39.554  18.693  25.578  1.00  0.00     0.163 HD
ATOM     38  O   UNL A   1      41.889  18.475  26.088  1.00  0.00    -0.269 OA
BRANCH  36  39
ATOM     39  C   UNL A   1      42.020  20.798  26.417  1.00  0.00     0.039 A 
ATOM     40  C   UNL A   1      42.311  21.684  25.372  1.00  0.00     0.014 A 
ATOM     41  C   UNL A   1      42.397  21.128  27.717  1.00  0.00     0.014 A 
ATOM     42  C   UNL A   1      42.859  22.940  25.647  1.00  0.00     0.010 A 
ATOM     43  C   UNL A   1      42.834  22.411  28.006  1.00  0.00     0.010 A 
ATOM     44  C   UNL A   1      43.081  23.326  26.974  1.00  0.00    -0.014 A 
BRANCH  44  45
ATOM     45  C   UNL A   1      43.645  24.644  27.342  1.00  0.00     0.031 A 
ATOM     46  C   UNL A   1      42.714  25.704  27.861  1.00  0.00     0.074 A 
ATOM     47  C   UNL A   1      44.933  24.930  27.070  1.00  0.00     0.049 A 
ATOM     48  N   UNL A   1      42.935  26.975  28.060  1.00  0.00    -0.248 NA
ATOM     49  C   UNL A   1      41.328  25.285  28.139  1.00  0.00     0.031 C 
ATOM     50  C   UNL A   1      45.905  24.004  26.484  1.00  0.00     0.029 A 
ATOM     51  N   UNL A   1      45.634  26.101  27.210  1.00  0.00    -0.354 N 
ATOM     52  C   UNL A   1      41.708  27.516  28.421  1.00  0.00     0.074 A 
ATOM     53  C   UNL A   1      40.738  26.445  28.375  1.00  0.00     0.031 C 
ATOM     54  C   UNL A   1      47.074  24.645  26.310  1.00  0.00     0.029 A 
ATOM     55  C   UNL A   1      46.927  26.030  26.745  1.00  0.00     0.049 A 
ATOM     56  H   UNL A   1      45.248  26.916  27.605  1.00  0.00     0.167 HD
ATOM     57  C   UNL A   1      41.417  28.784  28.793  1.00  0.00     0.034 A 
ATOM     58  C   UNL A   1      47.878  26.981  26.676  1.00  0.00     0.034 A 
ATOM     59  C   UNL A   1      42.405  29.819  28.912  1.00  0.00     0.049 A 
ATOM     60  C   UNL A   1      47.555  28.363  27.181  1.00  0.00     0.074 A 
ATOM     61  C   UNL A   1      42.250  31.109  29.382  1.00  0.00     0.029 A 
ATOM     62  N   UNL A   1      43.741  29.670  28.568  1.00  0.00    -0.354 N 
ATOM     63  N   UNL A   1      46.426  28.821  27.668  1.00  0.00    -0.248 NA
ATOM     64  C   UNL A   1      48.643  29.352  27.160  1.00  0.00     0.031 C 
ATOM     65  C   UNL A   1      43.495  31.744  29.321  1.00  0.00     0.029 A 
ATOM     66  C   UNL A   1      44.426  30.844  28.821  1.00  0.00     0.049 A 
ATOM     67  H   UNL A   1      44.141  28.851  28.199  1.00  0.00     0.167 HD
ATOM     68  C   UNL A   1      46.678  30.135  28.048  1.00  0.00     0.074 A 
ATOM     69  C   UNL A   1      48.072  30.393  27.749  1.00  0.00     0.031 C 
ATOM     70  C   UNL A   1      45.831  31.051  28.579  1.00  0.00     0.034 A 
BRANCH  57  71
ATOM     71  C   UNL A   1      39.992  29.086  29.166  1.00  0.00     0.023 A 
ATOM     72  C   UNL A   1      39.057  29.374  28.149  1.00  0.00     0.012 A 
ATOM     73  C   UNL A   1      39.570  29.083  30.509  1.00  0.00     0.148 A 
ATOM     74  C   UNL A   1      37.739  29.699  28.463  1.00  0.00     0.002 A 
ATOM     75  C   UNL A   1      38.242  29.363  30.813  1.00  0.00     0.091 A 
ATOM     76  F   UNL A   1      40.476  28.834  31.465  1.00  0.00    -0.205 F 
ATOM     77  C   UNL A   1      37.331  29.686  29.793  1.00  0.00     0.022 A 
BRANCH  75  78
ATOM     78  S   UNL A   1      37.602  29.304  32.489  1.00  0.00     0.127 S 
ATOM     79  O   UNL A   1      37.742  27.884  32.809  1.00  0.00    -0.237 OA
ATOM     80  O   UNL A   1      38.526  30.183  33.207  1.00  0.00    -0.237 OA
ATOM     81  O   UNL A   1      36.235  29.799  32.411  1.00  0.00    -0.744 OA
ENDBRANCH  75  78
ENDBRANCH  57  71
BRANCH  58  82
ATOM     82  C   UNL A   1      49.249  26.638  26.202  1.00  0.00     0.023 A 
ATOM     83  C   UNL A   1      50.063  25.821  27.012  1.00  0.00     0.012 A 
ATOM     84  C   UNL A   1      49.745  27.085  24.962  1.00  0.00     0.148 A 
ATOM     85  C   UNL A   1      51.354  25.478  26.610  1.00  0.00     0.002 A 
ATOM     86  C   UNL A   1      51.017  26.701  24.548  1.00  0.00     0.091 A 
ATOM     87  F   UNL A   1      48.960  27.869  24.210  1.00  0.00    -0.205 F 
ATOM     88  C   UNL A   1      51.827  25.911  25.377  1.00  0.00     0.022 A 
BRANCH  86  89
ATOM     89  S   UNL A   1      51.673  27.117  22.927  1.00  0.00     0.127 S 
ATOM     90  O   UNL A   1      52.846  26.251  22.849  1.00  0.00    -0.237 OA
ATOM     91  O   UNL A   1      50.566  26.734  22.048  1.00  0.00    -0.237 OA
ATOM     92  O   UNL A   1      51.939  28.547  22.970  1.00  0.00    -0.744 OA
ENDBRANCH  86  89
ENDBRANCH  58  82
BRANCH  70  93
ATOM     93  C   UNL A   1      46.389  32.407  28.912  1.00  0.00     0.023 A 
ATOM     94  C   UNL A   1      46.927  32.642  30.191  1.00  0.00     0.012 A 
ATOM     95  C   UNL A   1      46.472  33.410  27.926  1.00  0.00     0.148 A 
ATOM     96  C   UNL A   1      47.522  33.866  30.492  1.00  0.00     0.002 A 
ATOM     97  C   UNL A   1      47.108  34.609  28.219  1.00  0.00     0.091 A 
ATOM     98  F   UNL A   1      45.935  33.170  26.721  1.00  0.00    -0.205 F 
ATOM     99  C   UNL A   1      47.626  34.844  29.504  1.00  0.00     0.022 A 
BRANCH  97 100
ATOM    100  S   UNL A   1      47.373  35.879  26.976  1.00  0.00     0.127 S 
ATOM    101  O   UNL A   1      48.306  36.775  27.657  1.00  0.00    -0.237 OA
ATOM    102  O   UNL A   1      47.956  35.119  25.869  1.00  0.00    -0.237 OA
ATOM    103  O   UNL A   1      46.057  36.438  26.693  1.00  0.00    -0.744 OA
ENDBRANCH  97 100
ENDBRANCH  70  93
ENDBRANCH  44  45
ENDBRANCH  36  39
ENDBRANCH  34  35
ENDBRANCH  33  34
ENDBRANCH   1  33
TORSDOF 20
ENDMDL
MODEL 2
REMARK VINA RESULT:     -12.0      1.656      7.384
REMARK SMILES CC(=O)Oc1cc(CCC(=O)NCCCCNC(=O)c2ccc(-c3c4nc(c(-c5cccc(S(=O)(=O)[O-])c5F)c5ccc([nH]5)c(-c5cccc(S(=O)(=O)[O-])c5F)c5nc(c(-c6cccc(S(=O)(=O)[O-])c6F)c6ccc3[nH]6)C=C5)C=C4)cc2)c(OC(C)=O)c2c1C(=O)c1ccccc1C2=O
REMARK SMILES IDX 14 1 13 2 12 3 10 4 11 5 9 7 8 8 7 9 5 10 6 11 89 12 88 13
REMARK SMILES IDX 90 14 83 15 98 16 91 17 92 18 97 19 99 20 93 21 96 22 94 23
REMARK SMILES IDX 95 24 4 25 2 26 1 27 3 28 84 29 85 30 86 31 87 32 15 33
REMARK SMILES IDX 16 34 17 35 18 36 19 38 20 39 21 40 82 41 22 42 81 43 23 44
REMARK SMILES IDX 24 45 25 46 75 47 26 48 80 49 74 50 76 51 27 52 79 53 73 54
REMARK SMILES IDX 72 55 28 57 60 58 40 59 59 60 41 61 44 62 58 63 77 64 42 65
REMARK SMILES IDX 43 66 57 68 78 69 45 70 29 71 30 72 38 73 31 74 33 75 39 76
REMARK SMILES IDX 32 77 34 78 35 79 36 80 37 81 61 82 62 83 70 84 63 85 65 86
REMARK SMILES IDX 71 87 64 88 66 89 67 90 68 91 69 92 46 93 47 94 55 95 48 96
REMARK SMILES IDX 50 97 56 98 49 99 51 100 52 101 53 102 54 103
REMARK H PARENT 12 6 17 37 76 56 44 67
REMARK Flexibility Score: inf
ROOT
ATOM      1  C   UNL A   1      36.503  20.702  25.560  1.00  0.00     0.023 C 
ENDROOT
BRANCH   1   2
ATOM      2  C   UNL A   1      35.302  20.706  24.632  1.00  0.00     0.116 C 
BRANCH   2   3
ATOM      3  N   UNL A   1      34.342  19.705  25.074  1.00  0.00    -0.356 N 
ATOM      4  C   UNL A   1      32.982  19.720  24.959  1.00  0.00     0.220 C 
ATOM      5  O   UNL A   1      32.327  18.868  25.562  1.00  0.00    -0.275 OA
ATOM      6  H   UNL A   1      34.725  18.912  25.513  1.00  0.00     0.163 HD
BRANCH   4   7
ATOM      7  C   UNL A   1      32.288  20.739  24.069  1.00  0.00     0.105 C 
BRANCH   7   8
ATOM      8  C   UNL A   1      33.165  21.943  23.676  1.00  0.00     0.049 C 
BRANCH   8   9
ATOM      9  C   UNL A   1      32.450  23.273  23.742  1.00  0.00    -0.000 A 
ATOM     10  C   UNL A   1      31.703  25.251  22.538  1.00  0.00     0.143 A 
ATOM     11  C   UNL A   1      32.161  23.929  22.538  1.00  0.00     0.055 A 
ATOM     12  C   UNL A   1      31.485  25.956  23.732  1.00  0.00     0.080 A 
ATOM     13  C   UNL A   1      31.726  25.316  24.949  1.00  0.00     0.081 A 
ATOM     14  C   UNL A   1      31.076  27.381  23.711  1.00  0.00     0.198 C 
ATOM     15  C   UNL A   1      32.166  23.972  24.930  1.00  0.00     0.146 A 
ATOM     16  C   UNL A   1      31.622  26.104  26.200  1.00  0.00     0.198 C 
ATOM     17  O   UNL A   1      30.559  27.880  22.718  1.00  0.00    -0.288 OA
ATOM     18  C   UNL A   1      31.327  28.202  24.907  1.00  0.00     0.034 A 
ATOM     19  C   UNL A   1      31.626  27.581  26.115  1.00  0.00     0.034 A 
ATOM     20  O   UNL A   1      31.517  25.556  27.287  1.00  0.00    -0.288 OA
ATOM     21  C   UNL A   1      31.264  29.598  24.825  1.00  0.00     0.013 A 
ATOM     22  C   UNL A   1      31.900  28.358  27.248  1.00  0.00     0.013 A 
ATOM     23  C   UNL A   1      31.519  30.370  25.958  1.00  0.00     0.001 A 
ATOM     24  C   UNL A   1      31.851  29.751  27.164  1.00  0.00     0.001 A 
BRANCH  10  25
ATOM     25  O   UNL A   1      31.515  25.849  21.288  1.00  0.00    -0.426 OA
BRANCH  25  26
ATOM     26  C   UNL A   1      32.716  26.002  20.601  1.00  0.00     0.308 C 
ATOM     27  C   UNL A   1      33.609  26.924  21.376  1.00  0.00     0.139 C 
ATOM     28  O   UNL A   1      32.981  25.531  19.500  1.00  0.00    -0.252 OA
ENDBRANCH  25  26
ENDBRANCH  10  25
BRANCH  15  29
ATOM     29  O   UNL A   1      32.596  23.356  26.231  1.00  0.00    -0.426 OA
BRANCH  29  30
ATOM     30  C   UNL A   1      32.927  22.683  27.459  1.00  0.00     0.308 C 
ATOM     31  C   UNL A   1      34.406  22.594  27.652  1.00  0.00     0.139 C 
ATOM     32  O   UNL A   1      32.091  22.292  28.257  1.00  0.00    -0.252 OA
ENDBRANCH  29  30
ENDBRANCH  15  29
ENDBRANCH   8   9
ENDBRANCH   7   8
ENDBRANCH   4   7
ENDBRANCH   2   3
ENDBRANCH   1   2
BRANCH   1  33
ATOM     33  C   UNL A   1      37.805  20.173  24.994  1.00  0.00     0.023 C 
BRANCH  33  34
ATOM     34  C   UNL A   1      39.060  20.802  25.564  1.00  0.00     0.116 C 
BRANCH  34  35
ATOM     35  N   UNL A   1      40.084  19.859  25.999  1.00  0.00    -0.352 N 
ATOM     36  C   UNL A   1      41.304  20.089  26.597  1.00  0.00     0.251 C 
ATOM     37  H   UNL A   1      39.871  18.912  25.842  1.00  0.00     0.163 HD
ATOM     38  O   UNL A   1      42.024  19.133  26.879  1.00  0.00    -0.269 OA
BRANCH  36  39
ATOM     39  C   UNL A   1      41.781  21.470  26.853  1.00  0.00     0.039 A 
ATOM     40  C   UNL A   1      42.024  22.313  25.762  1.00  0.00     0.014 A 
ATOM     41  C   UNL A   1      41.962  21.956  28.146  1.00  0.00     0.014 A 
ATOM     42  C   UNL A   1      42.322  23.663  25.969  1.00  0.00     0.010 A 
ATOM     43  C   UNL A   1      42.145  23.314  28.355  1.00  0.00     0.010 A 
ATOM     44  C   UNL A   1      42.339  24.179  27.270  1.00  0.00    -0.014 A 
BRANCH  44  45
ATOM     45  C   UNL A   1      42.632  25.600  27.567  1.00  0.00     0.031 A 
ATOM     46  C   UNL A   1      44.057  26.073  27.482  1.00  0.00     0.074 A 
ATOM     47  C   UNL A   1      41.666  26.404  28.051  1.00  0.00     0.049 A 
ATOM     48  N   UNL A   1      44.580  27.200  27.879  1.00  0.00    -0.248 NA
ATOM     49  C   UNL A   1      45.035  25.119  26.926  1.00  0.00     0.031 C 
ATOM     50  C   UNL A   1      40.267  26.024  28.258  1.00  0.00     0.029 A 
ATOM     51  N   UNL A   1      41.728  27.698  28.500  1.00  0.00    -0.354 N 
ATOM     52  C   UNL A   1      45.949  27.067  27.683  1.00  0.00     0.074 A 
ATOM     53  C   UNL A   1      46.180  25.736  27.169  1.00  0.00     0.031 C 
ATOM     54  C   UNL A   1      39.604  27.060  28.799  1.00  0.00     0.029 A 
ATOM     55  C   UNL A   1      40.535  28.166  29.001  1.00  0.00     0.049 A 
ATOM     56  H   UNL A   1      42.548  28.241  28.468  1.00  0.00     0.167 HD
ATOM     57  C   UNL A   1      46.925  27.983  27.877  1.00  0.00     0.034 A 
ATOM     58  C   UNL A   1      40.236  29.353  29.564  1.00  0.00     0.034 A 
ATOM     59  C   UNL A   1      46.673  29.328  28.311  1.00  0.00     0.049 A 
ATOM     60  C   UNL A   1      41.323  30.389  29.687  1.00  0.00     0.074 A 
ATOM     61  C   UNL A   1      47.565  30.375  28.441  1.00  0.00     0.029 A 
ATOM     62  N   UNL A   1      45.425  29.813  28.674  1.00  0.00    -0.354 N 
ATOM     63  N   UNL A   1      42.588  30.302  29.349  1.00  0.00    -0.248 NA
ATOM     64  C   UNL A   1      40.938  31.698  30.235  1.00  0.00     0.031 C 
ATOM     65  C   UNL A   1      46.856  31.496  28.884  1.00  0.00     0.029 A 
ATOM     66  C   UNL A   1      45.520  31.147  29.022  1.00  0.00     0.049 A 
ATOM     67  H   UNL A   1      44.594  29.285  28.683  1.00  0.00     0.167 HD
ATOM     68  C   UNL A   1      43.140  31.552  29.606  1.00  0.00     0.074 A 
ATOM     69  C   UNL A   1      42.066  32.383  30.112  1.00  0.00     0.031 C 
ATOM     70  C   UNL A   1      44.420  31.971  29.455  1.00  0.00     0.034 A 
BRANCH  57  71
ATOM     71  C   UNL A   1      48.334  27.572  27.548  1.00  0.00     0.023 A 
ATOM     72  C   UNL A   1      49.149  27.022  28.560  1.00  0.00     0.012 A 
ATOM     73  C   UNL A   1      48.855  27.722  26.249  1.00  0.00     0.148 A 
ATOM     74  C   UNL A   1      50.471  26.670  28.298  1.00  0.00     0.002 A 
ATOM     75  C   UNL A   1      50.162  27.327  25.983  1.00  0.00     0.091 A 
ATOM     76  F   UNL A   1      48.078  28.272  25.305  1.00  0.00    -0.205 F 
ATOM     77  C   UNL A   1      50.974  26.815  27.009  1.00  0.00     0.022 A 
BRANCH  75  78
ATOM     78  S   UNL A   1      50.880  27.409  24.339  1.00  0.00     0.127 S 
ATOM     79  O   UNL A   1      49.827  26.804  23.526  1.00  0.00    -0.237 OA
ATOM     80  O   UNL A   1      51.048  28.850  24.145  1.00  0.00    -0.237 OA
ATOM     81  O   UNL A   1      52.127  26.660  24.411  1.00  0.00    -0.744 OA
ENDBRANCH  75  78
ENDBRANCH  57  71
BRANCH  58  82
ATOM     82  C   UNL A   1      38.832  29.663  29.961  1.00  0.00     0.023 A 
ATOM     83  C   UNL A   1      38.402  29.318  31.257  1.00  0.00     0.012 A 
ATOM     84  C   UNL A   1      37.935  30.311  29.090  1.00  0.00     0.148 A 
ATOM     85  C   UNL A   1      37.096  29.585  31.671  1.00  0.00     0.002 A 
ATOM     86  C   UNL A   1      36.648  30.614  29.525  1.00  0.00     0.091 A 
ATOM     87  F   UNL A   1      38.360  30.622  27.858  1.00  0.00    -0.205 F 
ATOM     88  C   UNL A   1      36.224  30.239  30.809  1.00  0.00     0.022 A 
BRANCH  86  89
ATOM     89  S   UNL A   1      35.486  31.554  28.527  1.00  0.00     0.127 S 
ATOM     90  O   UNL A   1      36.324  32.647  28.043  1.00  0.00    -0.237 OA
ATOM     91  O   UNL A   1      35.104  30.574  27.508  1.00  0.00    -0.237 OA
ATOM     92  O   UNL A   1      34.411  31.930  29.433  1.00  0.00    -0.744 OA
ENDBRANCH  86  89
ENDBRANCH  58  82
BRANCH  70  93
ATOM     93  C   UNL A   1      44.732  33.401  29.799  1.00  0.00     0.023 A 
ATOM     94  C   UNL A   1      45.258  33.713  31.067  1.00  0.00     0.012 A 
ATOM     95  C   UNL A   1      44.600  34.416  28.831  1.00  0.00     0.148 A 
ATOM     96  C   UNL A   1      45.629  35.020  31.375  1.00  0.00     0.002 A 
ATOM     97  C   UNL A   1      45.015  35.707  29.130  1.00  0.00     0.091 A 
ATOM     98  F   UNL A   1      44.078  34.100  27.638  1.00  0.00    -0.205 F 
ATOM     99  C   UNL A   1      45.521  36.014  30.403  1.00  0.00     0.022 A 
BRANCH  97 100
ATOM    100  S   UNL A   1      45.005  37.022  27.905  1.00  0.00     0.127 S 
ATOM    101  O   UNL A   1      46.166  36.678  27.087  1.00  0.00    -0.237 OA
ATOM    102  O   UNL A   1      43.714  36.826  27.244  1.00  0.00    -0.237 OA
ATOM    103  O   UNL A   1      45.111  38.265  28.657  1.00  0.00    -0.744 OA
ENDBRANCH  97 100
ENDBRANCH  70  93
ENDBRANCH  44  45
ENDBRANCH  36  39
ENDBRANCH  34  35
ENDBRANCH  33  34
ENDBRANCH   1  33
TORSDOF 20
ENDMDL
MODEL 3
REMARK VINA RESULT:     -12.0      4.774     10.125
REMARK SMILES CC(=O)Oc1cc(CCC(=O)NCCCCNC(=O)c2ccc(-c3c4nc(c(-c5cccc(S(=O)(=O)[O-])c5F)c5ccc([nH]5)c(-c5cccc(S(=O)(=O)[O-])c5F)c5nc(c(-c6cccc(S(=O)(=O)[O-])c6F)c6ccc3[nH]6)C=C5)C=C4)cc2)c(OC(C)=O)c2c1C(=O)c1ccccc1C2=O
REMARK SMILES IDX 14 1 13 2 12 3 10 4 11 5 9 7 8 8 7 9 5 10 6 11 89 12 88 13
REMARK SMILES IDX 90 14 83 15 98 16 91 17 92 18 97 19 99 20 93 21 96 22 94 23
REMARK SMILES IDX 95 24 4 25 2 26 1 27 3 28 84 29 85 30 86 31 87 32 15 33
REMARK SMILES IDX 16 34 17 35 18 36 19 38 20 39 21 40 82 41 22 42 81 43 23 44
REMARK SMILES IDX 24 45 25 46 75 47 26 48 80 49 74 50 76 51 27 52 79 53 73 54
REMARK SMILES IDX 72 55 28 57 60 58 40 59 59 60 41 61 44 62 58 63 77 64 42 65
REMARK SMILES IDX 43 66 57 68 78 69 45 70 29 71 30 72 38 73 31 74 33 75 39 76
REMARK SMILES IDX 32 77 34 78 35 79 36 80 37 81 61 82 62 83 70 84 63 85 65 86
REMARK SMILES IDX 71 87 64 88 66 89 67 90 68 91 69 92 46 93 47 94 55 95 48 96
REMARK SMILES IDX 50 97 56 98 49 99 51 100 52 101 53 102 54 103
REMARK H PARENT 12 6 17 37 76 56 44 67
REMARK Flexibility Score: inf
ROOT
ATOM      1  C   UNL A   1      48.581  27.731  24.287  1.00  0.00     0.023 C 
ENDROOT
BRANCH   1   2
ATOM      2  C   UNL A   1      47.157  27.343  23.931  1.00  0.00     0.116 C 
BRANCH   2   3
ATOM      3  N   UNL A   1      46.225  28.211  24.636  1.00  0.00    -0.356 N 
ATOM      4  C   UNL A   1      45.297  27.877  25.579  1.00  0.00     0.220 C 
ATOM      5  O   UNL A   1      44.471  28.724  25.925  1.00  0.00    -0.275 OA
ATOM      6  H   UNL A   1      46.270  29.166  24.401  1.00  0.00     0.163 HD
BRANCH   4   7
ATOM      7  C   UNL A   1      45.307  26.501  26.228  1.00  0.00     0.105 C 
BRANCH   7   8
ATOM      8  C   UNL A   1      44.437  26.389  27.495  1.00  0.00     0.049 C 
BRANCH   8   9
ATOM      9  C   UNL A   1      43.443  25.252  27.459  1.00  0.00    -0.000 A 
ATOM     10  C   UNL A   1      43.010  22.936  26.846  1.00  0.00     0.143 A 
ATOM     11  C   UNL A   1      43.908  23.977  27.110  1.00  0.00     0.055 A 
ATOM     12  C   UNL A   1      41.621  23.117  26.952  1.00  0.00     0.080 A 
ATOM     13  C   UNL A   1      41.129  24.365  27.337  1.00  0.00     0.081 A 
ATOM     14  C   UNL A   1      40.684  22.027  26.593  1.00  0.00     0.198 C 
ATOM     15  C   UNL A   1      42.053  25.398  27.622  1.00  0.00     0.146 A 
ATOM     16  C   UNL A   1      39.664  24.587  27.319  1.00  0.00     0.198 C 
ATOM     17  O   UNL A   1      41.049  20.858  26.560  1.00  0.00    -0.288 OA
ATOM     18  C   UNL A   1      39.296  22.379  26.247  1.00  0.00     0.034 A 
ATOM     19  C   UNL A   1      38.808  23.641  26.571  1.00  0.00     0.034 A 
ATOM     20  O   UNL A   1      39.157  25.522  27.920  1.00  0.00    -0.288 OA
ATOM     21  C   UNL A   1      38.478  21.448  25.597  1.00  0.00     0.013 A 
ATOM     22  C   UNL A   1      37.500  23.993  26.213  1.00  0.00     0.013 A 
ATOM     23  C   UNL A   1      37.170  21.795  25.258  1.00  0.00     0.001 A 
ATOM     24  C   UNL A   1      36.687  23.070  25.552  1.00  0.00     0.001 A 
BRANCH  10  25
ATOM     25  O   UNL A   1      43.563  21.722  26.431  1.00  0.00    -0.426 OA
BRANCH  25  26
ATOM     26  C   UNL A   1      44.163  21.826  25.179  1.00  0.00     0.308 C 
ATOM     27  C   UNL A   1      45.588  21.368  25.280  1.00  0.00     0.139 C 
ATOM     28  O   UNL A   1      43.646  22.292  24.169  1.00  0.00    -0.252 OA
ENDBRANCH  25  26
ENDBRANCH  10  25
BRANCH  15  29
ATOM     29  O   UNL A   1      41.511  26.779  27.854  1.00  0.00    -0.426 OA
BRANCH  29  30
ATOM     30  C   UNL A   1      41.048  28.103  28.179  1.00  0.00     0.308 C 
ATOM     31  C   UNL A   1      40.648  28.858  26.954  1.00  0.00     0.139 C 
ATOM     32  O   UNL A   1      40.948  28.517  29.323  1.00  0.00    -0.252 OA
ENDBRANCH  29  30
ENDBRANCH  15  29
ENDBRANCH   8   9
ENDBRANCH   7   8
ENDBRANCH   4   7
ENDBRANCH   2   3
ENDBRANCH   1   2
BRANCH   1  33
ATOM     33  C   UNL A   1      49.690  26.893  23.684  1.00  0.00     0.023 C 
BRANCH  33  34
ATOM     34  C   UNL A   1      51.084  27.212  24.185  1.00  0.00     0.116 C 
BRANCH  34  35
ATOM     35  N   UNL A   1      51.769  26.113  24.856  1.00  0.00    -0.352 N 
ATOM     36  C   UNL A   1      51.547  25.556  26.097  1.00  0.00     0.251 C 
ATOM     37  H   UNL A   1      52.503  25.705  24.343  1.00  0.00     0.163 HD
ATOM     38  O   UNL A   1      52.258  24.626  26.473  1.00  0.00    -0.269 OA
BRANCH  36  39
ATOM     39  C   UNL A   1      50.505  26.099  27.002  1.00  0.00     0.039 A 
ATOM     40  C   UNL A   1      50.820  27.193  27.816  1.00  0.00     0.014 A 
ATOM     41  C   UNL A   1      49.217  25.569  27.038  1.00  0.00     0.014 A 
ATOM     42  C   UNL A   1      49.821  27.826  28.561  1.00  0.00     0.010 A 
ATOM     43  C   UNL A   1      48.203  26.258  27.685  1.00  0.00     0.010 A 
ATOM     44  C   UNL A   1      48.496  27.386  28.463  1.00  0.00    -0.014 A 
BRANCH  44  45
ATOM     45  C   UNL A   1      47.383  28.015  29.210  1.00  0.00     0.031 A 
ATOM     46  C   UNL A   1      46.742  27.242  30.328  1.00  0.00     0.074 A 
ATOM     47  C   UNL A   1      46.862  29.184  28.792  1.00  0.00     0.049 A 
ATOM     48  N   UNL A   1      45.643  27.495  30.987  1.00  0.00    -0.248 NA
ATOM     49  C   UNL A   1      47.397  25.979  30.718  1.00  0.00     0.031 C 
ATOM     50  C   UNL A   1      47.350  29.978  27.662  1.00  0.00     0.029 A 
ATOM     51  N   UNL A   1      45.774  29.886  29.245  1.00  0.00    -0.354 N 
ATOM     52  C   UNL A   1      45.444  26.399  31.816  1.00  0.00     0.074 A 
ATOM     53  C   UNL A   1      46.511  25.461  31.551  1.00  0.00     0.031 C 
ATOM     54  C   UNL A   1      46.561  31.055  27.507  1.00  0.00     0.029 A 
ATOM     55  C   UNL A   1      45.498  31.014  28.506  1.00  0.00     0.049 A 
ATOM     56  H   UNL A   1      45.241  29.609  30.024  1.00  0.00     0.167 HD
ATOM     57  C   UNL A   1      44.478  26.205  32.745  1.00  0.00     0.034 A 
ATOM     58  C   UNL A   1      44.496  31.906  28.625  1.00  0.00     0.034 A 
ATOM     59  C   UNL A   1      43.472  27.180  33.056  1.00  0.00     0.049 A 
ATOM     60  C   UNL A   1      43.485  31.713  29.725  1.00  0.00     0.074 A 
ATOM     61  C   UNL A   1      42.510  27.141  34.046  1.00  0.00     0.029 A 
ATOM     62  N   UNL A   1      43.310  28.381  32.380  1.00  0.00    -0.354 N 
ATOM     63  N   UNL A   1      43.400  30.747  30.609  1.00  0.00    -0.248 NA
ATOM     64  C   UNL A   1      42.451  32.749  29.870  1.00  0.00     0.031 C 
ATOM     65  C   UNL A   1      41.763  28.321  33.970  1.00  0.00     0.029 A 
ATOM     66  C   UNL A   1      42.267  29.097  32.937  1.00  0.00     0.049 A 
ATOM     67  H   UNL A   1      43.856  28.679  31.618  1.00  0.00     0.167 HD
ATOM     68  C   UNL A   1      42.333  31.076  31.436  1.00  0.00     0.074 A 
ATOM     69  C   UNL A   1      41.812  32.342  30.958  1.00  0.00     0.031 C 
ATOM     70  C   UNL A   1      41.816  30.389  32.484  1.00  0.00     0.034 A 
BRANCH  57  71
ATOM     71  C   UNL A   1      44.524  24.923  33.530  1.00  0.00     0.023 A 
ATOM     72  C   UNL A   1      43.989  23.746  32.965  1.00  0.00     0.012 A 
ATOM     73  C   UNL A   1      45.092  24.873  34.817  1.00  0.00     0.148 A 
ATOM     74  C   UNL A   1      43.977  22.552  33.683  1.00  0.00     0.002 A 
ATOM     75  C   UNL A   1      45.118  23.668  35.510  1.00  0.00     0.091 A 
ATOM     76  F   UNL A   1      45.571  26.005  35.351  1.00  0.00    -0.205 F 
ATOM     77  C   UNL A   1      44.548  22.512  34.951  1.00  0.00     0.022 A 
BRANCH  75  78
ATOM     78  S   UNL A   1      45.893  23.496  37.121  1.00  0.00     0.127 S 
ATOM     79  O   UNL A   1      45.029  24.329  37.956  1.00  0.00    -0.237 OA
ATOM     80  O   UNL A   1      45.778  22.059  37.370  1.00  0.00    -0.237 OA
ATOM     81  O   UNL A   1      47.259  23.974  36.959  1.00  0.00    -0.744 OA
ENDBRANCH  75  78
ENDBRANCH  57  71
BRANCH  58  82
ATOM     82  C   UNL A   1      44.453  33.109  27.746  1.00  0.00     0.023 A 
ATOM     83  C   UNL A   1      43.885  32.992  26.462  1.00  0.00     0.012 A 
ATOM     84  C   UNL A   1      44.941  34.361  28.169  1.00  0.00     0.148 A 
ATOM     85  C   UNL A   1      43.827  34.091  25.604  1.00  0.00     0.002 A 
ATOM     86  C   UNL A   1      44.839  35.463  27.325  1.00  0.00     0.091 A 
ATOM     87  F   UNL A   1      45.487  34.450  29.390  1.00  0.00    -0.205 F 
ATOM     88  C   UNL A   1      44.297  35.326  26.038  1.00  0.00     0.022 A 
BRANCH  86  89
ATOM     89  S   UNL A   1      45.314  37.119  27.835  1.00  0.00     0.127 S 
ATOM     90  O   UNL A   1      44.491  37.313  29.025  1.00  0.00    -0.237 OA
ATOM     91  O   UNL A   1      46.745  36.954  28.096  1.00  0.00    -0.237 OA
ATOM     92  O   UNL A   1      45.005  37.978  26.701  1.00  0.00    -0.744 OA
ENDBRANCH  86  89
ENDBRANCH  58  82
BRANCH  70  93
ATOM     93  C   UNL A   1      40.656  31.002  33.218  1.00  0.00     0.023 A 
ATOM     94  C   UNL A   1      40.891  31.777  34.369  1.00  0.00     0.012 A 
ATOM     95  C   UNL A   1      39.347  30.895  32.707  1.00  0.00     0.148 A 
ATOM     96  C   UNL A   1      39.837  32.421  35.015  1.00  0.00     0.002 A 
ATOM     97  C   UNL A   1      38.309  31.577  33.329  1.00  0.00     0.091 A 
ATOM     98  F   UNL A   1      39.143  30.136  31.621  1.00  0.00    -0.205 F 
ATOM     99  C   UNL A   1      38.550  32.332  34.488  1.00  0.00     0.022 A 
BRANCH  97 100
ATOM    100  S   UNL A   1      36.642  31.599  32.658  1.00  0.00     0.127 S 
ATOM    101  O   UNL A   1      36.350  30.173  32.536  1.00  0.00    -0.237 OA
ATOM    102  O   UNL A   1      35.891  32.289  33.706  1.00  0.00    -0.237 OA
ATOM    103  O   UNL A   1      36.731  32.333  31.402  1.00  0.00    -0.744 OA
ENDBRANCH  97 100
ENDBRANCH  70  93
ENDBRANCH  44  45
ENDBRANCH  36  39
ENDBRANCH  34  35
ENDBRANCH  33  34
ENDBRANCH   1  33
TORSDOF 20
ENDMDL
