MODEL 1
REMARK VINA RESULT:     -11.7      0.000      0.000
REMARK SMILES O=C(NCCCCNC(=O)[C@H](F)[C@H](O)C1CCOCC1)c1ccc(-c2c3nc(c(-c4cccc(S(=O)(=O)[O-])c4F)c4ccc([nH]4)c(-c4cccc(S(=O)(=O)[O-])c4F)c4nc(c(-c5cccc(S(=O)(=O)[O-])c5F)c5ccc2[nH]5)C=C4)C=C3)cc1
REMARK SMILES IDX 5 1 4 2 3 3 1 4 2 5 21 7 22 8 83 9 23 10 82 11 24 12 25 13
REMARK SMILES IDX 26 14 76 15 27 16 81 17 75 18 77 19 28 20 80 21 74 22 73 23
REMARK SMILES IDX 29 25 61 26 41 27 60 28 42 29 45 30 59 31 78 32 43 33 44 34
REMARK SMILES IDX 58 36 79 37 46 38 30 39 31 40 39 41 32 42 34 43 40 44 33 45
REMARK SMILES IDX 35 46 36 47 37 48 38 49 62 50 63 51 71 52 64 53 66 54 72 55
REMARK SMILES IDX 65 56 67 57 68 58 69 59 70 60 47 61 48 62 56 63 49 64 51 65
REMARK SMILES IDX 57 66 50 67 52 68 53 69 54 70 55 71 6 72 7 73 8 74 9 75
REMARK SMILES IDX 10 77 11 78 12 79 13 80 15 81 16 82 20 83 17 84 19 85 18 86
REMARK SMILES IDX 14 87
REMARK H PARENT 3 6 77 24 45 35 8 76 14 88
REMARK Flexibility Score: inf
ROOT
ATOM      1  C   UNL A   1      36.640  22.296  23.829  1.00  0.00     0.023 C 
ENDROOT
BRANCH   1   2
ATOM      2  C   UNL A   1      36.946  21.985  25.289  1.00  0.00     0.116 C 
BRANCH   2   3
ATOM      3  N   UNL A   1      37.830  20.846  25.479  1.00  0.00    -0.352 N 
ATOM      4  O   UNL A   1      39.765  19.820  26.043  1.00  0.00    -0.269 OA
ATOM      5  C   UNL A   1      39.097  20.848  26.022  1.00  0.00     0.251 C 
ATOM      6  H   UNL A   1      37.485  19.972  25.185  1.00  0.00     0.163 HD
BRANCH   5   7
ATOM      7  C   UNL A   1      39.645  22.123  26.531  1.00  0.00     0.039 A 
ATOM      8  C   UNL A   1      39.171  23.336  26.031  1.00  0.00     0.014 A 
ATOM      9  C   UNL A   1      40.688  22.097  27.460  1.00  0.00     0.014 A 
ATOM     10  C   UNL A   1      39.838  24.513  26.344  1.00  0.00     0.010 A 
ATOM     11  C   UNL A   1      41.304  23.294  27.838  1.00  0.00     0.010 A 
ATOM     12  C   UNL A   1      40.908  24.507  27.256  1.00  0.00    -0.014 A 
BRANCH  12  13
ATOM     13  C   UNL A   1      41.534  25.798  27.633  1.00  0.00     0.031 A 
ATOM     14  C   UNL A   1      42.921  26.165  27.182  1.00  0.00     0.074 A 
ATOM     15  C   UNL A   1      40.810  26.661  28.373  1.00  0.00     0.049 A 
ATOM     16  N   UNL A   1      43.574  27.282  27.375  1.00  0.00    -0.248 NA
ATOM     17  C   UNL A   1      43.678  25.155  26.426  1.00  0.00     0.031 C 
ATOM     18  C   UNL A   1      39.473  26.387  28.908  1.00  0.00     0.029 A 
ATOM     19  N   UNL A   1      41.079  27.937  28.792  1.00  0.00    -0.354 N 
ATOM     20  C   UNL A   1      44.826  27.102  26.799  1.00  0.00     0.074 A 
ATOM     21  C   UNL A   1      44.845  25.762  26.250  1.00  0.00     0.031 C 
ATOM     22  C   UNL A   1      39.024  27.474  29.550  1.00  0.00     0.029 A 
ATOM     23  C   UNL A   1      40.056  28.503  29.514  1.00  0.00     0.049 A 
ATOM     24  H   UNL A   1      41.925  28.402  28.596  1.00  0.00     0.167 HD
ATOM     25  C   UNL A   1      45.854  27.980  26.718  1.00  0.00     0.034 A 
ATOM     26  C   UNL A   1      39.957  29.716  30.090  1.00  0.00     0.034 A 
ATOM     27  C   UNL A   1      45.812  29.325  27.231  1.00  0.00     0.049 A 
ATOM     28  C   UNL A   1      41.095  30.682  29.939  1.00  0.00     0.074 A 
ATOM     29  C   UNL A   1      46.787  30.306  27.155  1.00  0.00     0.029 A 
ATOM     30  N   UNL A   1      44.741  29.881  27.913  1.00  0.00    -0.354 N 
ATOM     31  N   UNL A   1      42.220  30.532  29.283  1.00  0.00    -0.248 NA
ATOM     32  C   UNL A   1      40.942  31.992  30.585  1.00  0.00     0.031 C 
ATOM     33  C   UNL A   1      46.305  31.453  27.797  1.00  0.00     0.029 A 
ATOM     34  C   UNL A   1      45.029  31.189  28.266  1.00  0.00     0.049 A 
ATOM     35  H   UNL A   1      43.898  29.414  28.117  1.00  0.00     0.167 HD
ATOM     36  C   UNL A   1      42.907  31.729  29.430  1.00  0.00     0.074 A 
ATOM     37  C   UNL A   1      42.051  32.610  30.200  1.00  0.00     0.031 C 
ATOM     38  C   UNL A   1      44.147  32.062  28.995  1.00  0.00     0.034 A 
BRANCH  25  39
ATOM     39  C   UNL A   1      47.104  27.544  25.998  1.00  0.00     0.023 A 
ATOM     40  C   UNL A   1      48.067  26.783  26.692  1.00  0.00     0.012 A 
ATOM     41  C   UNL A   1      47.283  27.796  24.624  1.00  0.00     0.148 A 
ATOM     42  C   UNL A   1      49.195  26.293  26.035  1.00  0.00     0.002 A 
ATOM     43  C   UNL A   1      48.394  27.277  23.967  1.00  0.00     0.091 A 
ATOM     44  F   UNL A   1      46.366  28.538  23.987  1.00  0.00    -0.205 F 
ATOM     45  C   UNL A   1      49.353  26.530  24.672  1.00  0.00     0.022 A 
BRANCH  43  46
ATOM     46  S   UNL A   1      48.655  27.470  22.199  1.00  0.00     0.127 S 
ATOM     47  O   UNL A   1      47.474  28.240  21.810  1.00  0.00    -0.237 OA
ATOM     48  O   UNL A   1      49.912  28.217  22.152  1.00  0.00    -0.237 OA
ATOM     49  O   UNL A   1      48.730  26.122  21.656  1.00  0.00    -0.744 OA
ENDBRANCH  43  46
ENDBRANCH  25  39
BRANCH  26  50
ATOM     50  C   UNL A   1      38.709  30.089  30.810  1.00  0.00     0.023 A 
ATOM     51  C   UNL A   1      38.567  29.761  32.171  1.00  0.00     0.012 A 
ATOM     52  C   UNL A   1      37.690  30.823  30.172  1.00  0.00     0.148 A 
ATOM     53  C   UNL A   1      37.426  30.140  32.878  1.00  0.00     0.002 A 
ATOM     54  C   UNL A   1      36.587  31.252  30.898  1.00  0.00     0.091 A 
ATOM     55  F   UNL A   1      37.828  31.109  28.869  1.00  0.00    -0.205 F 
ATOM     56  C   UNL A   1      36.442  30.899  32.246  1.00  0.00     0.022 A 
BRANCH  54  57
ATOM     57  S   UNL A   1      35.379  32.371  30.178  1.00  0.00     0.127 S 
ATOM     58  O   UNL A   1      36.209  33.511  29.802  1.00  0.00    -0.237 OA
ATOM     59  O   UNL A   1      34.857  31.592  29.054  1.00  0.00    -0.237 OA
ATOM     60  O   UNL A   1      34.406  32.600  31.240  1.00  0.00    -0.744 OA
ENDBRANCH  54  57
ENDBRANCH  26  50
BRANCH  38  61
ATOM     61  C   UNL A   1      44.650  33.434  29.352  1.00  0.00     0.023 A 
ATOM     62  C   UNL A   1      45.305  33.627  30.585  1.00  0.00     0.012 A 
ATOM     63  C   UNL A   1      44.514  34.515  28.462  1.00  0.00     0.148 A 
ATOM     64  C   UNL A   1      45.788  34.885  30.942  1.00  0.00     0.002 A 
ATOM     65  C   UNL A   1      45.034  35.757  28.807  1.00  0.00     0.091 A 
ATOM     66  F   UNL A   1      43.866  34.318  27.305  1.00  0.00    -0.205 F 
ATOM     67  C   UNL A   1      45.661  35.947  30.050  1.00  0.00     0.022 A 
BRANCH  65  68
ATOM     68  S   UNL A   1      44.982  37.155  27.678  1.00  0.00     0.127 S 
ATOM     69  O   UNL A   1      43.543  37.344  27.505  1.00  0.00    -0.237 OA
ATOM     70  O   UNL A   1      45.647  38.207  28.447  1.00  0.00    -0.237 OA
ATOM     71  O   UNL A   1      45.713  36.726  26.493  1.00  0.00    -0.744 OA
ENDBRANCH  65  68
ENDBRANCH  38  61
ENDBRANCH  12  13
ENDBRANCH   5   7
ENDBRANCH   2   3
ENDBRANCH   1   2
BRANCH   1  72
ATOM     72  C   UNL A   1      35.774  23.530  23.594  1.00  0.00     0.023 C 
BRANCH  72  73
ATOM     73  C   UNL A   1      34.339  23.236  23.169  1.00  0.00     0.116 C 
BRANCH  73  74
ATOM     74  N   UNL A   1      33.404  23.210  24.275  1.00  0.00    -0.353 N 
ATOM     75  C   UNL A   1      32.771  22.131  24.842  1.00  0.00     0.257 C 
ATOM     76  H   UNL A   1      33.193  24.084  24.675  1.00  0.00     0.163 HD
ATOM     77  O   UNL A   1      31.983  22.341  25.764  1.00  0.00    -0.272 OA
BRANCH  75  78
ATOM     78  C   UNL A   1      33.043  20.732  24.286  1.00  0.00     0.283 C 
ATOM     79  F   UNL A   1      32.300  20.498  23.151  1.00  0.00    -0.234 F 
BRANCH  78  80
ATOM     80  C   UNL A   1      32.751  19.565  25.267  1.00  0.00     0.161 C 
BRANCH  80  81
ATOM     81  C   UNL A   1      32.987  18.098  24.765  1.00  0.00     0.026 C 
ATOM     82  C   UNL A   1      32.528  17.009  25.756  1.00  0.00     0.035 C 
ATOM     83  C   UNL A   1      34.402  17.783  24.248  1.00  0.00     0.035 C 
ATOM     84  C   UNL A   1      32.784  15.610  25.207  1.00  0.00     0.160 C 
ATOM     85  C   UNL A   1      34.528  16.336  23.792  1.00  0.00     0.160 C 
ATOM     86  O   UNL A   1      34.153  15.455  24.846  1.00  0.00    -0.381 OA
ENDBRANCH  80  81
BRANCH  80  87
ATOM     87  O   UNL A   1      33.273  19.739  26.589  1.00  0.00    -0.389 OA
ATOM     88  H   UNL A   1      33.408  20.683  26.761  1.00  0.00     0.211 HD
ENDBRANCH  80  87
ENDBRANCH  78  80
ENDBRANCH  75  78
ENDBRANCH  73  74
ENDBRANCH  72  73
ENDBRANCH   1  72
TORSDOF 17
ENDMDL
MODEL 2
REMARK VINA RESULT:     -11.5      1.412      7.962
REMARK SMILES O=C(NCCCCNC(=O)[C@H](F)[C@H](O)C1CCOCC1)c1ccc(-c2c3nc(c(-c4cccc(S(=O)(=O)[O-])c4F)c4ccc([nH]4)c(-c4cccc(S(=O)(=O)[O-])c4F)c4nc(c(-c5cccc(S(=O)(=O)[O-])c5F)c5ccc2[nH]5)C=C4)C=C3)cc1
REMARK SMILES IDX 5 1 4 2 3 3 1 4 2 5 21 7 22 8 83 9 23 10 82 11 24 12 25 13
REMARK SMILES IDX 26 14 76 15 27 16 81 17 75 18 77 19 28 20 80 21 74 22 73 23
REMARK SMILES IDX 29 25 61 26 41 27 60 28 42 29 45 30 59 31 78 32 43 33 44 34
REMARK SMILES IDX 58 36 79 37 46 38 30 39 31 40 39 41 32 42 34 43 40 44 33 45
REMARK SMILES IDX 35 46 36 47 37 48 38 49 62 50 63 51 71 52 64 53 66 54 72 55
REMARK SMILES IDX 65 56 67 57 68 58 69 59 70 60 47 61 48 62 56 63 49 64 51 65
REMARK SMILES IDX 57 66 50 67 52 68 53 69 54 70 55 71 6 72 7 73 8 74 9 75
REMARK SMILES IDX 10 77 11 78 12 79 13 80 15 81 16 82 20 83 17 84 19 85 18 86
REMARK SMILES IDX 14 87
REMARK H PARENT 3 6 77 24 45 35 8 76 14 88
REMARK Flexibility Score: inf
ROOT
ATOM      1  C   UNL A   1      37.984  19.881  25.035  1.00  0.00     0.023 C 
ENDROOT
BRANCH   1   2
ATOM      2  C   UNL A   1      39.149  20.295  25.925  1.00  0.00     0.116 C 
BRANCH   2   3
ATOM      3  N   UNL A   1      40.178  19.276  26.066  1.00  0.00    -0.352 N 
ATOM      4  O   UNL A   1      42.292  18.514  26.317  1.00  0.00    -0.269 OA
ATOM      5  C   UNL A   1      41.522  19.468  26.305  1.00  0.00     0.251 C 
ATOM      6  H   UNL A   1      39.881  18.342  25.981  1.00  0.00     0.163 HD
BRANCH   5   7
ATOM      7  C   UNL A   1      42.015  20.848  26.498  1.00  0.00     0.039 A 
ATOM      8  C   UNL A   1      42.250  21.331  27.786  1.00  0.00     0.014 A 
ATOM      9  C   UNL A   1      42.173  21.680  25.387  1.00  0.00     0.014 A 
ATOM     10  C   UNL A   1      42.495  22.686  27.973  1.00  0.00     0.010 A 
ATOM     11  C   UNL A   1      42.504  23.025  25.575  1.00  0.00     0.010 A 
ATOM     12  C   UNL A   1      42.631  23.547  26.870  1.00  0.00    -0.014 A 
BRANCH  12  13
ATOM     13  C   UNL A   1      42.983  24.967  27.112  1.00  0.00     0.031 A 
ATOM     14  C   UNL A   1      42.041  25.908  27.810  1.00  0.00     0.074 A 
ATOM     15  C   UNL A   1      44.198  25.395  26.713  1.00  0.00     0.049 A 
ATOM     16  N   UNL A   1      42.235  27.156  28.151  1.00  0.00    -0.248 NA
ATOM     17  C   UNL A   1      40.710  25.392  28.168  1.00  0.00     0.031 C 
ATOM     18  C   UNL A   1      45.173  24.581  25.980  1.00  0.00     0.029 A 
ATOM     19  N   UNL A   1      44.827  26.601  26.874  1.00  0.00    -0.354 N 
ATOM     20  C   UNL A   1      41.048  27.588  28.730  1.00  0.00     0.074 A 
ATOM     21  C   UNL A   1      40.131  26.467  28.691  1.00  0.00     0.031 C 
ATOM     22  C   UNL A   1      46.289  25.297  25.789  1.00  0.00     0.029 A 
ATOM     23  C   UNL A   1      46.094  26.633  26.341  1.00  0.00     0.049 A 
ATOM     24  H   UNL A   1      44.411  27.372  27.325  1.00  0.00     0.167 HD
ATOM     25  C   UNL A   1      40.757  28.799  29.262  1.00  0.00     0.034 A 
ATOM     26  C   UNL A   1      47.001  27.626  26.296  1.00  0.00     0.034 A 
ATOM     27  C   UNL A   1      41.687  29.896  29.333  1.00  0.00     0.049 A 
ATOM     28  C   UNL A   1      46.665  28.940  26.938  1.00  0.00     0.074 A 
ATOM     29  C   UNL A   1      41.501  31.147  29.896  1.00  0.00     0.029 A 
ATOM     30  N   UNL A   1      42.978  29.875  28.828  1.00  0.00    -0.354 N 
ATOM     31  N   UNL A   1      45.580  29.285  27.588  1.00  0.00    -0.248 NA
ATOM     32  C   UNL A   1      47.685  29.994  26.864  1.00  0.00     0.031 C 
ATOM     33  C   UNL A   1      42.679  31.885  29.726  1.00  0.00     0.029 A 
ATOM     34  C   UNL A   1      43.601  31.090  29.064  1.00  0.00     0.049 A 
ATOM     35  H   UNL A   1      43.392  29.109  28.369  1.00  0.00     0.167 HD
ATOM     36  C   UNL A   1      45.788  30.591  28.008  1.00  0.00     0.074 A 
ATOM     37  C   UNL A   1      47.121  30.961  27.575  1.00  0.00     0.031 C 
ATOM     38  C   UNL A   1      44.942  31.424  28.663  1.00  0.00     0.034 A 
BRANCH  25  39
ATOM     39  C   UNL A   1      39.391  28.999  29.867  1.00  0.00     0.023 A 
ATOM     40  C   UNL A   1      39.123  28.474  31.148  1.00  0.00     0.012 A 
ATOM     41  C   UNL A   1      38.412  29.780  29.221  1.00  0.00     0.148 A 
ATOM     42  C   UNL A   1      37.899  28.711  31.771  1.00  0.00     0.002 A 
ATOM     43  C   UNL A   1      37.205  30.040  29.863  1.00  0.00     0.091 A 
ATOM     44  F   UNL A   1      38.679  30.253  27.996  1.00  0.00    -0.205 F 
ATOM     45  C   UNL A   1      36.946  29.502  31.135  1.00  0.00     0.022 A 
BRANCH  43  46
ATOM     46  S   UNL A   1      35.938  31.101  29.156  1.00  0.00     0.127 S 
ATOM     47  O   UNL A   1      36.747  32.145  28.529  1.00  0.00    -0.237 OA
ATOM     48  O   UNL A   1      35.270  30.200  28.216  1.00  0.00    -0.237 OA
ATOM     49  O   UNL A   1      35.111  31.535  30.273  1.00  0.00    -0.744 OA
ENDBRANCH  43  46
ENDBRANCH  25  39
BRANCH  26  50
ATOM     50  C   UNL A   1      48.327  27.384  25.665  1.00  0.00     0.023 A 
ATOM     51  C   UNL A   1      49.391  26.898  26.448  1.00  0.00     0.012 A 
ATOM     52  C   UNL A   1      48.522  27.571  24.283  1.00  0.00     0.148 A 
ATOM     53  C   UNL A   1      50.629  26.621  25.869  1.00  0.00     0.002 A 
ATOM     54  C   UNL A   1      49.738  27.232  23.703  1.00  0.00     0.091 A 
ATOM     55  F   UNL A   1      47.507  28.057  23.553  1.00  0.00    -0.205 F 
ATOM     56  C   UNL A   1      50.799  26.773  24.494  1.00  0.00     0.022 A 
BRANCH  54  57
ATOM     57  S   UNL A   1      49.952  27.249  21.918  1.00  0.00     0.127 S 
ATOM     58  O   UNL A   1      51.311  26.736  21.773  1.00  0.00    -0.237 OA
ATOM     59  O   UNL A   1      48.898  26.342  21.464  1.00  0.00    -0.237 OA
ATOM     60  O   UNL A   1      49.741  28.640  21.533  1.00  0.00    -0.744 OA
ENDBRANCH  54  57
ENDBRANCH  26  50
BRANCH  38  61
ATOM     61  C   UNL A   1      45.435  32.817  28.942  1.00  0.00     0.023 A 
ATOM     62  C   UNL A   1      46.129  33.073  30.142  1.00  0.00     0.012 A 
ATOM     63  C   UNL A   1      45.252  33.856  28.012  1.00  0.00     0.148 A 
ATOM     64  C   UNL A   1      46.604  34.352  30.426  1.00  0.00     0.002 A 
ATOM     65  C   UNL A   1      45.763  35.120  28.284  1.00  0.00     0.091 A 
ATOM     66  F   UNL A   1      44.567  33.599  26.888  1.00  0.00    -0.205 F 
ATOM     67  C   UNL A   1      46.430  35.372  29.495  1.00  0.00     0.022 A 
BRANCH  65  68
ATOM     68  S   UNL A   1      45.649  36.465  27.099  1.00  0.00     0.127 S 
ATOM     69  O   UNL A   1      46.307  35.889  25.929  1.00  0.00    -0.237 OA
ATOM     70  O   UNL A   1      44.203  36.643  26.960  1.00  0.00    -0.237 OA
ATOM     71  O   UNL A   1      46.332  37.592  27.721  1.00  0.00    -0.744 OA
ENDBRANCH  65  68
ENDBRANCH  38  61
ENDBRANCH  12  13
ENDBRANCH   5   7
ENDBRANCH   2   3
ENDBRANCH   1   2
BRANCH   1  72
ATOM     72  C   UNL A   1      37.264  21.027  24.330  1.00  0.00     0.023 C 
BRANCH  72  73
ATOM     73  C   UNL A   1      36.855  22.183  25.237  1.00  0.00     0.116 C 
BRANCH  73  74
ATOM     74  N   UNL A   1      35.901  21.804  26.258  1.00  0.00    -0.353 N 
ATOM     75  C   UNL A   1      34.631  21.305  26.108  1.00  0.00     0.257 C 
ATOM     76  H   UNL A   1      36.204  21.921  27.188  1.00  0.00     0.163 HD
ATOM     77  O   UNL A   1      33.974  21.078  27.124  1.00  0.00    -0.272 OA
BRANCH  75  78
ATOM     78  C   UNL A   1      34.079  21.089  24.697  1.00  0.00     0.283 C 
ATOM     79  F   UNL A   1      33.727  22.285  24.115  1.00  0.00    -0.234 F 
BRANCH  78  80
ATOM     80  C   UNL A   1      32.837  20.161  24.611  1.00  0.00     0.161 C 
BRANCH  80  81
ATOM     81  C   UNL A   1      33.072  18.611  24.567  1.00  0.00     0.026 C 
ATOM     82  C   UNL A   1      32.516  17.852  25.789  1.00  0.00     0.035 C 
ATOM     83  C   UNL A   1      34.512  18.157  24.269  1.00  0.00     0.035 C 
ATOM     84  C   UNL A   1      32.776  16.354  25.682  1.00  0.00     0.160 C 
ATOM     85  C   UNL A   1      34.634  16.639  24.255  1.00  0.00     0.160 C 
ATOM     86  O   UNL A   1      34.163  16.097  25.484  1.00  0.00    -0.381 OA
ENDBRANCH  80  81
BRANCH  80  87
ATOM     87  O   UNL A   1      31.773  20.487  25.513  1.00  0.00    -0.389 OA
ATOM     88  H   UNL A   1      31.976  21.321  25.964  1.00  0.00     0.211 HD
ENDBRANCH  80  87
ENDBRANCH  78  80
ENDBRANCH  75  78
ENDBRANCH  73  74
ENDBRANCH  72  73
ENDBRANCH   1  72
TORSDOF 17
ENDMDL
MODEL 3
REMARK VINA RESULT:     -11.4      5.535     10.374
REMARK SMILES O=C(NCCCCNC(=O)[C@H](F)[C@H](O)C1CCOCC1)c1ccc(-c2c3nc(c(-c4cccc(S(=O)(=O)[O-])c4F)c4ccc([nH]4)c(-c4cccc(S(=O)(=O)[O-])c4F)c4nc(c(-c5cccc(S(=O)(=O)[O-])c5F)c5ccc2[nH]5)C=C4)C=C3)cc1
REMARK SMILES IDX 5 1 4 2 3 3 1 4 2 5 21 7 22 8 83 9 23 10 82 11 24 12 25 13
REMARK SMILES IDX 26 14 76 15 27 16 81 17 75 18 77 19 28 20 80 21 74 22 73 23
REMARK SMILES IDX 29 25 61 26 41 27 60 28 42 29 45 30 59 31 78 32 43 33 44 34
REMARK SMILES IDX 58 36 79 37 46 38 30 39 31 40 39 41 32 42 34 43 40 44 33 45
REMARK SMILES IDX 35 46 36 47 37 48 38 49 62 50 63 51 71 52 64 53 66 54 72 55
REMARK SMILES IDX 65 56 67 57 68 58 69 59 70 60 47 61 48 62 56 63 49 64 51 65
REMARK SMILES IDX 57 66 50 67 52 68 53 69 54 70 55 71 6 72 7 73 8 74 9 75
REMARK SMILES IDX 10 77 11 78 12 79 13 80 15 81 16 82 20 83 17 84 19 85 18 86
REMARK SMILES IDX 14 87
REMARK H PARENT 3 6 77 24 45 35 8 76 14 88
REMARK Flexibility Score: inf
ROOT
ATOM      1  C   UNL A   1      32.899  28.897  23.923  1.00  0.00     0.023 C 
ENDROOT
BRANCH   1   2
ATOM      2  C   UNL A   1      33.279  29.183  25.370  1.00  0.00     0.116 C 
BRANCH   2   3
ATOM      3  N   UNL A   1      32.691  30.401  25.907  1.00  0.00    -0.352 N 
ATOM      4  O   UNL A   1      32.549  32.164  27.315  1.00  0.00    -0.269 OA
ATOM      5  C   UNL A   1      33.197  31.209  26.902  1.00  0.00     0.251 C 
ATOM      6  H   UNL A   1      31.832  30.680  25.515  1.00  0.00     0.163 HD
BRANCH   5   7
ATOM      7  C   UNL A   1      34.511  30.870  27.488  1.00  0.00     0.039 A 
ATOM      8  C   UNL A   1      34.752  29.580  27.962  1.00  0.00     0.014 A 
ATOM      9  C   UNL A   1      35.477  31.869  27.626  1.00  0.00     0.014 A 
ATOM     10  C   UNL A   1      35.896  29.328  28.709  1.00  0.00     0.010 A 
ATOM     11  C   UNL A   1      36.667  31.589  28.305  1.00  0.00     0.010 A 
ATOM     12  C   UNL A   1      36.869  30.327  28.883  1.00  0.00    -0.014 A 
BRANCH  12  13
ATOM     13  C   UNL A   1      38.118  29.990  29.609  1.00  0.00     0.031 A 
ATOM     14  C   UNL A   1      38.398  30.518  30.988  1.00  0.00     0.074 A 
ATOM     15  C   UNL A   1      38.995  29.160  29.009  1.00  0.00     0.049 A 
ATOM     16  N   UNL A   1      39.412  30.258  31.774  1.00  0.00    -0.248 NA
ATOM     17  C   UNL A   1      37.427  31.463  31.563  1.00  0.00     0.031 C 
ATOM     18  C   UNL A   1      38.849  28.628  27.651  1.00  0.00     0.029 A 
ATOM     19  N   UNL A   1      40.167  28.610  29.456  1.00  0.00    -0.354 N 
ATOM     20  C   UNL A   1      39.224  31.027  32.916  1.00  0.00     0.074 A 
ATOM     21  C   UNL A   1      37.997  31.771  32.721  1.00  0.00     0.031 C 
ATOM     22  C   UNL A   1      39.869  27.800  27.390  1.00  0.00     0.029 A 
ATOM     23  C   UNL A   1      40.765  27.777  28.540  1.00  0.00     0.049 A 
ATOM     24  H   UNL A   1      40.546  28.794  30.346  1.00  0.00     0.167 HD
ATOM     25  C   UNL A   1      39.992  31.090  34.030  1.00  0.00     0.034 A 
ATOM     26  C   UNL A   1      41.911  27.075  28.611  1.00  0.00     0.034 A 
ATOM     27  C   UNL A   1      41.189  30.316  34.232  1.00  0.00     0.049 A 
ATOM     28  C   UNL A   1      42.713  27.129  29.878  1.00  0.00     0.074 A 
ATOM     29  C   UNL A   1      42.011  30.276  35.346  1.00  0.00     0.029 A 
ATOM     30  N   UNL A   1      41.738  29.446  33.302  1.00  0.00    -0.354 N 
ATOM     31  N   UNL A   1      42.450  27.768  30.992  1.00  0.00    -0.248 NA
ATOM     32  C   UNL A   1      43.956  26.347  29.910  1.00  0.00     0.031 C 
ATOM     33  C   UNL A   1      43.059  29.384  35.086  1.00  0.00     0.029 A 
ATOM     34  C   UNL A   1      42.886  28.864  33.814  1.00  0.00     0.049 A 
ATOM     35  H   UNL A   1      41.366  29.267  32.408  1.00  0.00     0.167 HD
ATOM     36  C   UNL A   1      43.488  27.460  31.860  1.00  0.00     0.074 A 
ATOM     37  C   UNL A   1      44.362  26.542  31.157  1.00  0.00     0.031 C 
ATOM     38  C   UNL A   1      43.718  27.920  33.114  1.00  0.00     0.034 A 
BRANCH  25  39
ATOM     39  C   UNL A   1      39.540  31.986  35.153  1.00  0.00     0.023 A 
ATOM     40  C   UNL A   1      39.764  33.375  35.059  1.00  0.00     0.012 A 
ATOM     41  C   UNL A   1      38.812  31.477  36.247  1.00  0.00     0.148 A 
ATOM     42  C   UNL A   1      39.286  34.240  36.041  1.00  0.00     0.002 A 
ATOM     43  C   UNL A   1      38.309  32.350  37.207  1.00  0.00     0.091 A 
ATOM     44  F   UNL A   1      38.627  30.152  36.329  1.00  0.00    -0.205 F 
ATOM     45  C   UNL A   1      38.549  33.731  37.107  1.00  0.00     0.022 A 
BRANCH  43  46
ATOM     46  S   UNL A   1      37.292  31.800  38.583  1.00  0.00     0.127 S 
ATOM     47  O   UNL A   1      38.178  32.048  39.719  1.00  0.00    -0.237 OA
ATOM     48  O   UNL A   1      36.143  32.701  38.498  1.00  0.00    -0.237 OA
ATOM     49  O   UNL A   1      36.987  30.401  38.321  1.00  0.00    -0.744 OA
ENDBRANCH  43  46
ENDBRANCH  25  39
BRANCH  26  50
ATOM     50  C   UNL A   1      42.325  26.223  27.463  1.00  0.00     0.023 A 
ATOM     51  C   UNL A   1      43.178  26.753  26.477  1.00  0.00     0.012 A 
ATOM     52  C   UNL A   1      41.932  24.873  27.377  1.00  0.00     0.148 A 
ATOM     53  C   UNL A   1      43.616  25.959  25.416  1.00  0.00     0.002 A 
ATOM     54  C   UNL A   1      42.423  24.073  26.353  1.00  0.00     0.091 A 
ATOM     55  F   UNL A   1      41.101  24.388  28.310  1.00  0.00    -0.205 F 
ATOM     56  C   UNL A   1      43.252  24.616  25.362  1.00  0.00     0.022 A 
BRANCH  54  57
ATOM     57  S   UNL A   1      42.121  22.301  26.334  1.00  0.00     0.127 S 
ATOM     58  O   UNL A   1      42.638  21.892  27.636  1.00  0.00    -0.237 OA
ATOM     59  O   UNL A   1      40.666  22.230  26.198  1.00  0.00    -0.237 OA
ATOM     60  O   UNL A   1      42.848  21.814  25.167  1.00  0.00    -0.744 OA
ENDBRANCH  54  57
ENDBRANCH  26  50
BRANCH  38  61
ATOM     61  C   UNL A   1      44.969  27.440  33.799  1.00  0.00     0.023 A 
ATOM     62  C   UNL A   1      46.152  28.195  33.678  1.00  0.00     0.012 A 
ATOM     63  C   UNL A   1      44.966  26.276  34.589  1.00  0.00     0.148 A 
ATOM     64  C   UNL A   1      47.325  27.780  34.305  1.00  0.00     0.002 A 
ATOM     65  C   UNL A   1      46.129  25.890  35.245  1.00  0.00     0.091 A 
ATOM     66  F   UNL A   1      43.837  25.557  34.672  1.00  0.00    -0.205 F 
ATOM     67  C   UNL A   1      47.311  26.633  35.096  1.00  0.00     0.022 A 
BRANCH  65  68
ATOM     68  S   UNL A   1      46.171  24.470  36.345  1.00  0.00     0.127 S 
ATOM     69  O   UNL A   1      47.567  24.465  36.775  1.00  0.00    -0.237 OA
ATOM     70  O   UNL A   1      45.214  24.848  37.386  1.00  0.00    -0.237 OA
ATOM     71  O   UNL A   1      45.753  23.334  35.533  1.00  0.00    -0.744 OA
ENDBRANCH  65  68
ENDBRANCH  38  61
ENDBRANCH  12  13
ENDBRANCH   5   7
ENDBRANCH   2   3
ENDBRANCH   1   2
BRANCH   1  72
ATOM     72  C   UNL A   1      31.403  28.739  23.663  1.00  0.00     0.023 C 
BRANCH  72  73
ATOM     73  C   UNL A   1      31.002  27.425  23.001  1.00  0.00     0.116 C 
BRANCH  73  74
ATOM     74  N   UNL A   1      31.809  27.091  21.846  1.00  0.00    -0.353 N 
ATOM     75  C   UNL A   1      32.660  26.028  21.667  1.00  0.00     0.257 C 
ATOM     76  H   UNL A   1      31.740  27.711  21.083  1.00  0.00     0.163 HD
ATOM     77  O   UNL A   1      33.278  25.953  20.605  1.00  0.00    -0.272 OA
BRANCH  75  78
ATOM     78  C   UNL A   1      32.828  25.012  22.798  1.00  0.00     0.283 C 
ATOM     79  F   UNL A   1      33.656  25.500  23.783  1.00  0.00    -0.234 F 
BRANCH  78  80
ATOM     80  C   UNL A   1      33.400  23.635  22.367  1.00  0.00     0.161 C 
BRANCH  80  81
ATOM     81  C   UNL A   1      33.376  22.463  23.409  1.00  0.00     0.026 C 
ATOM     82  C   UNL A   1      32.121  22.443  24.307  1.00  0.00     0.035 C 
ATOM     83  C   UNL A   1      34.644  22.297  24.264  1.00  0.00     0.035 C 
ATOM     84  C   UNL A   1      32.160  21.281  25.293  1.00  0.00     0.160 C 
ATOM     85  C   UNL A   1      34.516  21.139  25.246  1.00  0.00     0.160 C 
ATOM     86  O   UNL A   1      33.361  21.312  26.060  1.00  0.00    -0.381 OA
ENDBRANCH  80  81
BRANCH  80  87
ATOM     87  O   UNL A   1      32.973  23.177  21.079  1.00  0.00    -0.389 OA
ATOM     88  H   UNL A   1      32.500  23.890  20.623  1.00  0.00     0.211 HD
ENDBRANCH  80  87
ENDBRANCH  78  80
ENDBRANCH  75  78
ENDBRANCH  73  74
ENDBRANCH  72  73
ENDBRANCH   1  72
TORSDOF 17
ENDMDL
