MODEL 1
REMARK VINA RESULT:     -11.4      0.000      0.000
REMARK SMILES CS(=O)(=O)c1ccc(C2=NN(c3ccc(C(=O)NCCCCNC(=O)c4ccc(-c5c6nc(c(-c7cccc(S(=O)(=O)[O-])c7F)c7ccc([nH]7)c(-c7cccc(S(=O)(=O)[O-])c7F)c7nc(c(-c8cccc(S(=O)(=O)[O-])c8F)c8ccc5[nH]8)C=C7)C=C6)cc4)cc3)[C@H](c3cccs3)C2)cc1
REMARK SMILES IDX 20 1 19 2 18 3 16 4 17 5 15 7 12 8 13 9 90 10 14 11 89 12
REMARK SMILES IDX 11 13 9 14 10 15 97 16 91 17 8 18 5 19 6 20 99 21 7 22 98 23
REMARK SMILES IDX 2 24 1 25 3 26 4 27 92 28 93 29 96 30 94 31 95 32 21 33
REMARK SMILES IDX 22 34 23 35 24 36 25 38 26 39 27 40 88 41 28 42 87 43 29 44
REMARK SMILES IDX 30 45 31 46 81 47 32 48 86 49 80 50 82 51 33 52 85 53 79 54
REMARK SMILES IDX 78 55 34 57 66 58 46 59 65 60 47 61 50 62 64 63 83 64 48 65
REMARK SMILES IDX 49 66 63 68 84 69 51 70 35 71 36 72 44 73 37 74 39 75 45 76
REMARK SMILES IDX 38 77 40 78 41 79 42 80 43 81 67 82 68 83 76 84 69 85 71 86
REMARK SMILES IDX 77 87 70 88 72 89 73 90 74 91 75 92 52 93 53 94 61 95 54 96
REMARK SMILES IDX 56 97 62 98 55 99 57 100 58 101 59 102 60 103
REMARK H PARENT 18 6 23 37 82 56 50 67
REMARK Flexibility Score: inf
ROOT
ATOM      1  C   UNL A   1      37.811  30.194  28.394  1.00  0.00     0.023 C 
ENDROOT
BRANCH   1   2
ATOM      2  C   UNL A   1      36.523  29.701  27.731  1.00  0.00     0.116 C 
BRANCH   2   3
ATOM      3  N   UNL A   1      35.448  30.657  27.910  1.00  0.00    -0.352 N 
ATOM      4  C   UNL A   1      34.142  30.640  27.487  1.00  0.00     0.251 C 
ATOM      5  O   UNL A   1      33.398  31.552  27.844  1.00  0.00    -0.269 OA
ATOM      6  H   UNL A   1      35.699  31.459  28.425  1.00  0.00     0.163 HD
BRANCH   4   7
ATOM      7  C   UNL A   1      33.583  29.531  26.668  1.00  0.00     0.039 A 
ATOM      8  C   UNL A   1      32.540  27.331  25.244  1.00  0.00     0.060 A 
ATOM      9  C   UNL A   1      32.387  27.416  26.631  1.00  0.00     0.029 A 
ATOM     10  C   UNL A   1      33.161  28.384  24.575  1.00  0.00     0.029 A 
ATOM     11  C   UNL A   1      32.910  28.502  27.339  1.00  0.00     0.016 A 
ATOM     12  C   UNL A   1      33.652  29.485  25.275  1.00  0.00     0.016 A 
BRANCH   8  13
ATOM     13  N   UNL A   1      32.062  26.255  24.521  1.00  0.00    -0.257 N 
ATOM     14  C   UNL A   1      32.125  24.259  23.837  1.00  0.00     0.071 C 
ATOM     15  N   UNL A   1      32.490  25.013  24.822  1.00  0.00    -0.176 NA
ATOM     16  C   UNL A   1      31.461  24.951  22.679  1.00  0.00     0.091 C 
ATOM     17  C   UNL A   1      31.359  26.381  23.243  1.00  0.00     0.154 C 
BRANCH  14  18
ATOM     18  C   UNL A   1      32.337  22.811  23.866  1.00  0.00    -0.002 A 
ATOM     19  C   UNL A   1      32.591  20.047  23.853  1.00  0.00     0.067 A 
ATOM     20  C   UNL A   1      32.189  20.702  22.688  1.00  0.00     0.021 A 
ATOM     21  C   UNL A   1      32.858  20.771  25.027  1.00  0.00     0.021 A 
ATOM     22  C   UNL A   1      32.050  22.088  22.701  1.00  0.00     0.011 A 
ATOM     23  C   UNL A   1      32.742  22.162  25.031  1.00  0.00     0.011 A 
BRANCH  19  24
ATOM     24  S   UNL A   1      32.752  18.279  23.917  1.00  0.00     0.175 S 
ATOM     25  C   UNL A   1      34.436  17.921  24.338  1.00  0.00     0.163 C 
ATOM     26  O   UNL A   1      32.536  17.792  22.569  1.00  0.00    -0.224 OA
ATOM     27  O   UNL A   1      31.914  17.836  25.017  1.00  0.00    -0.224 OA
ENDBRANCH  19  24
ENDBRANCH  14  18
BRANCH  17  28
ATOM     28  C   UNL A   1      29.964  26.980  23.341  1.00  0.00     0.030 A 
ATOM     29  C   UNL A   1      28.845  26.354  23.871  1.00  0.00     0.017 A 
ATOM     30  S   UNL A   1      29.548  28.524  22.717  1.00  0.00    -0.147 S 
ATOM     31  C   UNL A   1      27.663  27.141  23.769  1.00  0.00     0.012 A 
ATOM     32  C   UNL A   1      27.912  28.360  23.182  1.00  0.00     0.065 A 
ENDBRANCH  17  28
ENDBRANCH   8  13
ENDBRANCH   4   7
ENDBRANCH   2   3
ENDBRANCH   1   2
BRANCH   1  33
ATOM     33  C   UNL A   1      37.713  31.596  28.995  1.00  0.00     0.023 C 
BRANCH  33  34
ATOM     34  C   UNL A   1      38.119  31.693  30.458  1.00  0.00     0.116 C 
BRANCH  34  35
ATOM     35  N   UNL A   1      37.488  32.805  31.157  1.00  0.00    -0.352 N 
ATOM     36  C   UNL A   1      38.012  34.047  31.423  1.00  0.00     0.251 C 
ATOM     37  H   UNL A   1      36.570  32.646  31.478  1.00  0.00     0.163 HD
ATOM     38  O   UNL A   1      37.395  34.845  32.121  1.00  0.00    -0.269 OA
BRANCH  36  39
ATOM     39  C   UNL A   1      39.345  34.389  30.887  1.00  0.00     0.039 A 
ATOM     40  C   UNL A   1      40.463  34.242  31.711  1.00  0.00     0.014 A 
ATOM     41  C   UNL A   1      39.490  34.800  29.559  1.00  0.00     0.014 A 
ATOM     42  C   UNL A   1      41.738  34.448  31.180  1.00  0.00     0.010 A 
ATOM     43  C   UNL A   1      40.762  34.927  29.014  1.00  0.00     0.010 A 
ATOM     44  C   UNL A   1      41.898  34.759  29.819  1.00  0.00    -0.014 A 
BRANCH  44  45
ATOM     45  C   UNL A   1      43.246  34.907  29.216  1.00  0.00     0.031 A 
ATOM     46  C   UNL A   1      43.775  36.273  28.878  1.00  0.00     0.074 A 
ATOM     47  C   UNL A   1      43.956  33.807  28.894  1.00  0.00     0.049 A 
ATOM     48  N   UNL A   1      44.906  36.603  28.311  1.00  0.00    -0.248 NA
ATOM     49  C   UNL A   1      42.907  37.420  29.194  1.00  0.00     0.031 C 
ATOM     50  C   UNL A   1      43.517  32.425  29.100  1.00  0.00     0.029 A 
ATOM     51  N   UNL A   1      45.189  33.679  28.306  1.00  0.00    -0.354 N 
ATOM     52  C   UNL A   1      44.872  37.985  28.173  1.00  0.00     0.074 A 
ATOM     53  C   UNL A   1      43.589  38.428  28.674  1.00  0.00     0.031 C 
ATOM     54  C   UNL A   1      44.473  31.590  28.663  1.00  0.00     0.029 A 
ATOM     55  C   UNL A   1      45.578  32.373  28.119  1.00  0.00     0.049 A 
ATOM     56  H   UNL A   1      45.743  34.449  28.043  1.00  0.00     0.167 HD
ATOM     57  C   UNL A   1      45.833  38.817  27.705  1.00  0.00     0.034 A 
ATOM     58  C   UNL A   1      46.700  31.866  27.572  1.00  0.00     0.034 A 
ATOM     59  C   UNL A   1      47.121  38.375  27.243  1.00  0.00     0.049 A 
ATOM     60  C   UNL A   1      47.763  32.811  27.080  1.00  0.00     0.074 A 
ATOM     61  C   UNL A   1      48.195  39.138  26.823  1.00  0.00     0.029 A 
ATOM     62  N   UNL A   1      47.507  37.047  27.131  1.00  0.00    -0.354 N 
ATOM     63  N   UNL A   1      47.778  34.122  27.102  1.00  0.00    -0.248 NA
ATOM     64  C   UNL A   1      48.980  32.206  26.520  1.00  0.00     0.031 C 
ATOM     65  C   UNL A   1      49.223  38.272  26.437  1.00  0.00     0.029 A 
ATOM     66  C   UNL A   1      48.799  36.969  26.642  1.00  0.00     0.049 A 
ATOM     67  H   UNL A   1      46.944  36.274  27.366  1.00  0.00     0.167 HD
ATOM     68  C   UNL A   1      49.019  34.499  26.600  1.00  0.00     0.074 A 
ATOM     69  C   UNL A   1      49.733  33.275  26.296  1.00  0.00     0.031 C 
ATOM     70  C   UNL A   1      49.518  35.743  26.396  1.00  0.00     0.034 A 
BRANCH  57  71
ATOM     71  C   UNL A   1      45.542  40.296  27.727  1.00  0.00     0.023 A 
ATOM     72  C   UNL A   1      45.592  40.995  28.951  1.00  0.00     0.012 A 
ATOM     73  C   UNL A   1      45.246  41.000  26.544  1.00  0.00     0.148 A 
ATOM     74  C   UNL A   1      45.307  42.359  29.006  1.00  0.00     0.002 A 
ATOM     75  C   UNL A   1      45.011  42.369  26.599  1.00  0.00     0.091 A 
ATOM     76  F   UNL A   1      45.179  40.317  25.392  1.00  0.00    -0.205 F 
ATOM     77  C   UNL A   1      45.025  43.047  27.830  1.00  0.00     0.022 A 
BRANCH  75  78
ATOM     78  S   UNL A   1      44.717  43.358  25.128  1.00  0.00     0.127 S 
ATOM     79  O   UNL A   1      45.783  42.893  24.242  1.00  0.00    -0.237 OA
ATOM     80  O   UNL A   1      43.372  42.935  24.735  1.00  0.00    -0.237 OA
ATOM     81  O   UNL A   1      44.814  44.746  25.556  1.00  0.00    -0.744 OA
ENDBRANCH  75  78
ENDBRANCH  57  71
BRANCH  58  82
ATOM     82  C   UNL A   1      46.916  30.391  27.543  1.00  0.00     0.023 A 
ATOM     83  C   UNL A   1      47.479  29.760  28.670  1.00  0.00     0.012 A 
ATOM     84  C   UNL A   1      46.548  29.611  26.431  1.00  0.00     0.148 A 
ATOM     85  C   UNL A   1      47.701  28.383  28.678  1.00  0.00     0.002 A 
ATOM     86  C   UNL A   1      46.724  28.232  26.466  1.00  0.00     0.091 A 
ATOM     87  F   UNL A   1      46.022  30.232  25.366  1.00  0.00    -0.205 F 
ATOM     88  C   UNL A   1      47.316  27.618  27.581  1.00  0.00     0.022 A 
BRANCH  86  89
ATOM     89  S   UNL A   1      46.144  27.150  25.153  1.00  0.00     0.127 S 
ATOM     90  O   UNL A   1      44.741  27.540  25.043  1.00  0.00    -0.237 OA
ATOM     91  O   UNL A   1      46.989  27.561  24.031  1.00  0.00    -0.237 OA
ATOM     92  O   UNL A   1      46.388  25.795  25.624  1.00  0.00    -0.744 OA
ENDBRANCH  86  89
ENDBRANCH  58  82
BRANCH  70  93
ATOM     93  C   UNL A   1      50.920  35.853  25.857  1.00  0.00     0.023 A 
ATOM     94  C   UNL A   1      51.133  35.962  24.469  1.00  0.00     0.012 A 
ATOM     95  C   UNL A   1      52.021  35.920  26.734  1.00  0.00     0.148 A 
ATOM     96  C   UNL A   1      52.424  36.102  23.960  1.00  0.00     0.002 A 
ATOM     97  C   UNL A   1      53.299  36.111  26.222  1.00  0.00     0.091 A 
ATOM     98  F   UNL A   1      51.800  35.795  28.050  1.00  0.00    -0.205 F 
ATOM     99  C   UNL A   1      53.504  36.189  24.835  1.00  0.00     0.022 A 
BRANCH  97 100
ATOM    100  S   UNL A   1      54.735  36.333  27.278  1.00  0.00     0.127 S 
ATOM    101  O   UNL A   1      55.801  36.522  26.296  1.00  0.00    -0.237 OA
ATOM    102  O   UNL A   1      54.382  37.536  28.033  1.00  0.00    -0.237 OA
ATOM    103  O   UNL A   1      54.833  35.123  28.083  1.00  0.00    -0.744 OA
ENDBRANCH  97 100
ENDBRANCH  70  93
ENDBRANCH  44  45
ENDBRANCH  36  39
ENDBRANCH  34  35
ENDBRANCH  33  34
ENDBRANCH   1  33
TORSDOF 18
ENDMDL
MODEL 2
REMARK VINA RESULT:     -11.3      8.397     11.470
REMARK SMILES CS(=O)(=O)c1ccc(C2=NN(c3ccc(C(=O)NCCCCNC(=O)c4ccc(-c5c6nc(c(-c7cccc(S(=O)(=O)[O-])c7F)c7ccc([nH]7)c(-c7cccc(S(=O)(=O)[O-])c7F)c7nc(c(-c8cccc(S(=O)(=O)[O-])c8F)c8ccc5[nH]8)C=C7)C=C6)cc4)cc3)[C@H](c3cccs3)C2)cc1
REMARK SMILES IDX 20 1 19 2 18 3 16 4 17 5 15 7 12 8 13 9 90 10 14 11 89 12
REMARK SMILES IDX 11 13 9 14 10 15 97 16 91 17 8 18 5 19 6 20 99 21 7 22 98 23
REMARK SMILES IDX 2 24 1 25 3 26 4 27 92 28 93 29 96 30 94 31 95 32 21 33
REMARK SMILES IDX 22 34 23 35 24 36 25 38 26 39 27 40 88 41 28 42 87 43 29 44
REMARK SMILES IDX 30 45 31 46 81 47 32 48 86 49 80 50 82 51 33 52 85 53 79 54
REMARK SMILES IDX 78 55 34 57 66 58 46 59 65 60 47 61 50 62 64 63 83 64 48 65
REMARK SMILES IDX 49 66 63 68 84 69 51 70 35 71 36 72 44 73 37 74 39 75 45 76
REMARK SMILES IDX 38 77 40 78 41 79 42 80 43 81 67 82 68 83 76 84 69 85 71 86
REMARK SMILES IDX 77 87 70 88 72 89 73 90 74 91 75 92 52 93 53 94 61 95 54 96
REMARK SMILES IDX 56 97 62 98 55 99 57 100 58 101 59 102 60 103
REMARK H PARENT 18 6 23 37 82 56 50 67
REMARK Flexibility Score: inf
ROOT
ATOM      1  C   UNL A   1      34.009  34.193  29.241  1.00  0.00     0.023 C 
ENDROOT
BRANCH   1   2
ATOM      2  C   UNL A   1      34.548  34.474  30.646  1.00  0.00     0.116 C 
BRANCH   2   3
ATOM      3  N   UNL A   1      33.646  33.962  31.660  1.00  0.00    -0.352 N 
ATOM      4  C   UNL A   1      33.890  33.271  32.821  1.00  0.00     0.251 C 
ATOM      5  O   UNL A   1      32.942  33.015  33.562  1.00  0.00    -0.269 OA
ATOM      6  H   UNL A   1      32.694  34.139  31.484  1.00  0.00     0.163 HD
BRANCH   4   7
ATOM      7  C   UNL A   1      35.262  32.879  33.244  1.00  0.00     0.039 A 
ATOM      8  C   UNL A   1      37.833  31.988  33.985  1.00  0.00     0.060 A 
ATOM      9  C   UNL A   1      37.179  31.430  32.883  1.00  0.00     0.029 A 
ATOM     10  C   UNL A   1      37.216  33.033  34.669  1.00  0.00     0.029 A 
ATOM     11  C   UNL A   1      35.901  31.866  32.518  1.00  0.00     0.016 A 
ATOM     12  C   UNL A   1      35.957  33.493  34.287  1.00  0.00     0.016 A 
BRANCH   8  13
ATOM     13  N   UNL A   1      39.082  31.556  34.388  1.00  0.00    -0.257 N 
ATOM     14  C   UNL A   1      40.470  30.084  34.990  1.00  0.00     0.071 C 
ATOM     15  N   UNL A   1      39.392  30.247  34.296  1.00  0.00    -0.176 NA
ATOM     16  C   UNL A   1      40.979  31.293  35.724  1.00  0.00     0.091 C 
ATOM     17  C   UNL A   1      39.997  32.358  35.203  1.00  0.00     0.154 C 
BRANCH  14  18
ATOM     18  C   UNL A   1      41.159  28.793  35.036  1.00  0.00    -0.002 A 
ATOM     19  C   UNL A   1      42.587  26.419  35.204  1.00  0.00     0.067 A 
ATOM     20  C   UNL A   1      42.399  27.186  36.354  1.00  0.00     0.021 A 
ATOM     21  C   UNL A   1      42.070  26.840  33.968  1.00  0.00     0.021 A 
ATOM     22  C   UNL A   1      41.692  28.384  36.264  1.00  0.00     0.011 A 
ATOM     23  C   UNL A   1      41.341  28.028  33.884  1.00  0.00     0.011 A 
BRANCH  19  24
ATOM     24  S   UNL A   1      43.508  24.901  35.240  1.00  0.00     0.175 S 
ATOM     25  C   UNL A   1      44.361  24.841  36.792  1.00  0.00     0.163 C 
ATOM     26  O   UNL A   1      44.515  25.000  34.202  1.00  0.00    -0.224 OA
ATOM     27  O   UNL A   1      42.526  23.831  35.230  1.00  0.00    -0.224 OA
ENDBRANCH  19  24
ENDBRANCH  14  18
BRANCH  17  28
ATOM     28  C   UNL A   1      40.603  33.555  34.485  1.00  0.00     0.030 A 
ATOM     29  C   UNL A   1      40.828  33.656  33.120  1.00  0.00     0.017 A 
ATOM     30  S   UNL A   1      41.185  34.952  35.293  1.00  0.00    -0.147 S 
ATOM     31  C   UNL A   1      41.467  34.873  32.747  1.00  0.00     0.012 A 
ATOM     32  C   UNL A   1      41.694  35.682  33.835  1.00  0.00     0.065 A 
ENDBRANCH  17  28
ENDBRANCH   8  13
ENDBRANCH   4   7
ENDBRANCH   2   3
ENDBRANCH   1   2
BRANCH   1  33
ATOM     33  C   UNL A   1      35.091  33.956  28.188  1.00  0.00     0.023 C 
BRANCH  33  34
ATOM     34  C   UNL A   1      35.888  32.673  28.369  1.00  0.00     0.116 C 
BRANCH  34  35
ATOM     35  N   UNL A   1      35.083  31.469  28.208  1.00  0.00    -0.352 N 
ATOM     36  C   UNL A   1      35.493  30.159  28.274  1.00  0.00     0.251 C 
ATOM     37  H   UNL A   1      34.124  31.613  28.032  1.00  0.00     0.163 HD
ATOM     38  O   UNL A   1      34.712  29.251  28.008  1.00  0.00    -0.269 OA
BRANCH  36  39
ATOM     39  C   UNL A   1      36.895  29.866  28.632  1.00  0.00     0.039 A 
ATOM     40  C   UNL A   1      37.157  29.129  29.789  1.00  0.00     0.014 A 
ATOM     41  C   UNL A   1      37.939  30.273  27.798  1.00  0.00     0.014 A 
ATOM     42  C   UNL A   1      38.469  28.745  30.075  1.00  0.00     0.010 A 
ATOM     43  C   UNL A   1      39.230  29.823  28.043  1.00  0.00     0.010 A 
ATOM     44  C   UNL A   1      39.510  29.060  29.186  1.00  0.00    -0.014 A 
BRANCH  44  45
ATOM     45  C   UNL A   1      40.899  28.597  29.430  1.00  0.00     0.031 A 
ATOM     46  C   UNL A   1      41.783  29.339  30.394  1.00  0.00     0.074 A 
ATOM     47  C   UNL A   1      41.390  27.561  28.721  1.00  0.00     0.049 A 
ATOM     48  N   UNL A   1      43.032  29.115  30.708  1.00  0.00    -0.248 NA
ATOM     49  C   UNL A   1      41.194  30.504  31.075  1.00  0.00     0.031 C 
ATOM     50  C   UNL A   1      40.655  26.809  27.700  1.00  0.00     0.029 A 
ATOM     51  N   UNL A   1      42.630  26.975  28.735  1.00  0.00    -0.354 N 
ATOM     52  C   UNL A   1      43.388  30.124  31.593  1.00  0.00     0.074 A 
ATOM     53  C   UNL A   1      42.236  30.990  31.732  1.00  0.00     0.031 C 
ATOM     54  C   UNL A   1      41.453  25.851  27.201  1.00  0.00     0.029 A 
ATOM     55  C   UNL A   1      42.762  25.939  27.841  1.00  0.00     0.049 A 
ATOM     56  H   UNL A   1      43.358  27.269  29.330  1.00  0.00     0.167 HD
ATOM     57  C   UNL A   1      44.553  30.299  32.261  1.00  0.00     0.034 A 
ATOM     58  C   UNL A   1      43.818  25.147  27.570  1.00  0.00     0.034 A 
ATOM     59  C   UNL A   1      45.682  29.415  32.148  1.00  0.00     0.049 A 
ATOM     60  C   UNL A   1      45.095  25.346  28.341  1.00  0.00     0.074 A 
ATOM     61  C   UNL A   1      46.880  29.455  32.837  1.00  0.00     0.029 A 
ATOM     62  N   UNL A   1      45.755  28.334  31.282  1.00  0.00    -0.354 N 
ATOM     63  N   UNL A   1      45.361  26.211  29.290  1.00  0.00    -0.248 NA
ATOM     64  C   UNL A   1      46.207  24.438  28.027  1.00  0.00     0.031 C 
ATOM     65  C   UNL A   1      47.687  28.410  32.373  1.00  0.00     0.029 A 
ATOM     66  C   UNL A   1      46.980  27.704  31.413  1.00  0.00     0.049 A 
ATOM     67  H   UNL A   1      45.040  28.056  30.666  1.00  0.00     0.167 HD
ATOM     68  C   UNL A   1      46.653  25.924  29.717  1.00  0.00     0.074 A 
ATOM     69  C   UNL A   1      47.109  24.794  28.932  1.00  0.00     0.031 C 
ATOM     70  C   UNL A   1      47.399  26.546  30.663  1.00  0.00     0.034 A 
BRANCH  57  71
ATOM     71  C   UNL A   1      44.639  31.463  33.215  1.00  0.00     0.023 A 
ATOM     72  C   UNL A   1      44.822  32.766  32.706  1.00  0.00     0.012 A 
ATOM     73  C   UNL A   1      44.513  31.278  34.605  1.00  0.00     0.148 A 
ATOM     74  C   UNL A   1      44.925  33.859  33.565  1.00  0.00     0.002 A 
ATOM     75  C   UNL A   1      44.567  32.379  35.453  1.00  0.00     0.091 A 
ATOM     76  F   UNL A   1      44.362  30.032  35.076  1.00  0.00    -0.205 F 
ATOM     77  C   UNL A   1      44.789  33.667  34.936  1.00  0.00     0.022 A 
BRANCH  75  78
ATOM     78  S   UNL A   1      44.324  32.244  37.228  1.00  0.00     0.127 S 
ATOM     79  O   UNL A   1      45.671  32.508  37.731  1.00  0.00    -0.237 OA
ATOM     80  O   UNL A   1      43.358  33.313  37.489  1.00  0.00    -0.237 OA
ATOM     81  O   UNL A   1      43.817  30.900  37.460  1.00  0.00    -0.744 OA
ENDBRANCH  75  78
ENDBRANCH  57  71
BRANCH  58  82
ATOM     82  C   UNL A   1      43.685  24.035  26.587  1.00  0.00     0.023 A 
ATOM     83  C   UNL A   1      44.342  24.136  25.345  1.00  0.00     0.012 A 
ATOM     84  C   UNL A   1      42.941  22.874  26.878  1.00  0.00     0.148 A 
ATOM     85  C   UNL A   1      44.236  23.117  24.398  1.00  0.00     0.002 A 
ATOM     86  C   UNL A   1      42.883  21.841  25.949  1.00  0.00     0.091 A 
ATOM     87  F   UNL A   1      42.317  22.801  28.061  1.00  0.00    -0.205 F 
ATOM     88  C   UNL A   1      43.515  21.967  24.703  1.00  0.00     0.022 A 
BRANCH  86  89
ATOM     89  S   UNL A   1      42.083  20.271  26.302  1.00  0.00     0.127 S 
ATOM     90  O   UNL A   1      40.671  20.624  26.193  1.00  0.00    -0.237 OA
ATOM     91  O   UNL A   1      42.593  19.425  25.222  1.00  0.00    -0.237 OA
ATOM     92  O   UNL A   1      42.538  19.887  27.630  1.00  0.00    -0.744 OA
ENDBRANCH  86  89
ENDBRANCH  58  82
BRANCH  70  93
ATOM     93  C   UNL A   1      48.775  25.997  30.939  1.00  0.00     0.023 A 
ATOM     94  C   UNL A   1      49.846  26.322  30.084  1.00  0.00     0.012 A 
ATOM     95  C   UNL A   1      49.018  25.217  32.087  1.00  0.00     0.148 A 
ATOM     96  C   UNL A   1      51.132  25.851  30.349  1.00  0.00     0.002 A 
ATOM     97  C   UNL A   1      50.310  24.794  32.373  1.00  0.00     0.091 A 
ATOM     98  F   UNL A   1      47.982  24.902  32.878  1.00  0.00    -0.205 F 
ATOM     99  C   UNL A   1      51.366  25.099  31.498  1.00  0.00     0.022 A 
BRANCH  97 100
ATOM    100  S   UNL A   1      50.722  23.907  33.879  1.00  0.00     0.127 S 
ATOM    101  O   UNL A   1      52.169  23.744  33.743  1.00  0.00    -0.237 OA
ATOM    102  O   UNL A   1      50.309  24.850  34.918  1.00  0.00    -0.237 OA
ATOM    103  O   UNL A   1      49.948  22.674  33.843  1.00  0.00    -0.744 OA
ENDBRANCH  97 100
ENDBRANCH  70  93
ENDBRANCH  44  45
ENDBRANCH  36  39
ENDBRANCH  34  35
ENDBRANCH  33  34
ENDBRANCH   1  33
TORSDOF 18
ENDMDL
MODEL 3
REMARK VINA RESULT:     -11.1      7.917     10.258
REMARK SMILES CS(=O)(=O)c1ccc(C2=NN(c3ccc(C(=O)NCCCCNC(=O)c4ccc(-c5c6nc(c(-c7cccc(S(=O)(=O)[O-])c7F)c7ccc([nH]7)c(-c7cccc(S(=O)(=O)[O-])c7F)c7nc(c(-c8cccc(S(=O)(=O)[O-])c8F)c8ccc5[nH]8)C=C7)C=C6)cc4)cc3)[C@H](c3cccs3)C2)cc1
REMARK SMILES IDX 20 1 19 2 18 3 16 4 17 5 15 7 12 8 13 9 90 10 14 11 89 12
REMARK SMILES IDX 11 13 9 14 10 15 97 16 91 17 8 18 5 19 6 20 99 21 7 22 98 23
REMARK SMILES IDX 2 24 1 25 3 26 4 27 92 28 93 29 96 30 94 31 95 32 21 33
REMARK SMILES IDX 22 34 23 35 24 36 25 38 26 39 27 40 88 41 28 42 87 43 29 44
REMARK SMILES IDX 30 45 31 46 81 47 32 48 86 49 80 50 82 51 33 52 85 53 79 54
REMARK SMILES IDX 78 55 34 57 66 58 46 59 65 60 47 61 50 62 64 63 83 64 48 65
REMARK SMILES IDX 49 66 63 68 84 69 51 70 35 71 36 72 44 73 37 74 39 75 45 76
REMARK SMILES IDX 38 77 40 78 41 79 42 80 43 81 67 82 68 83 76 84 69 85 71 86
REMARK SMILES IDX 77 87 70 88 72 89 73 90 74 91 75 92 52 93 53 94 61 95 54 96
REMARK SMILES IDX 56 97 62 98 55 99 57 100 58 101 59 102 60 103
REMARK H PARENT 18 6 23 37 82 56 50 67
REMARK Flexibility Score: inf
ROOT
ATOM      1  C   UNL A   1      37.366  29.862  29.385  1.00  0.00     0.023 C 
ENDROOT
BRANCH   1   2
ATOM      2  C   UNL A   1      36.063  29.420  28.713  1.00  0.00     0.116 C 
BRANCH   2   3
ATOM      3  N   UNL A   1      35.191  30.554  28.475  1.00  0.00    -0.352 N 
ATOM      4  C   UNL A   1      34.093  30.696  27.664  1.00  0.00     0.251 C 
ATOM      5  O   UNL A   1      33.469  31.755  27.701  1.00  0.00    -0.269 OA
ATOM      6  H   UNL A   1      35.429  31.363  28.984  1.00  0.00     0.163 HD
BRANCH   4   7
ATOM      7  C   UNL A   1      33.597  29.596  26.791  1.00  0.00     0.039 A 
ATOM      8  C   UNL A   1      32.597  27.443  25.270  1.00  0.00     0.060 A 
ATOM      9  C   UNL A   1      31.959  27.835  26.451  1.00  0.00     0.029 A 
ATOM     10  C   UNL A   1      33.696  28.177  24.830  1.00  0.00     0.029 A 
ATOM     11  C   UNL A   1      32.458  28.898  27.210  1.00  0.00     0.016 A 
ATOM     12  C   UNL A   1      34.175  29.259  25.567  1.00  0.00     0.016 A 
BRANCH   8  13
ATOM     13  N   UNL A   1      32.146  26.377  24.516  1.00  0.00    -0.257 N 
ATOM     14  C   UNL A   1      32.207  24.377  23.842  1.00  0.00     0.071 C 
ATOM     15  N   UNL A   1      32.518  25.125  24.850  1.00  0.00    -0.176 NA
ATOM     16  C   UNL A   1      31.648  25.082  22.638  1.00  0.00     0.091 C 
ATOM     17  C   UNL A   1      31.543  26.515  23.190  1.00  0.00     0.154 C 
BRANCH  14  18
ATOM     18  C   UNL A   1      32.379  22.924  23.889  1.00  0.00    -0.002 A 
ATOM     19  C   UNL A   1      32.557  20.155  23.908  1.00  0.00     0.067 A 
ATOM     20  C   UNL A   1      32.196  20.808  22.729  1.00  0.00     0.021 A 
ATOM     21  C   UNL A   1      32.821  20.882  25.079  1.00  0.00     0.021 A 
ATOM     22  C   UNL A   1      32.095  22.198  22.726  1.00  0.00     0.011 A 
ATOM     23  C   UNL A   1      32.743  22.276  25.069  1.00  0.00     0.011 A 
BRANCH  19  24
ATOM     24  S   UNL A   1      32.669  18.384  23.992  1.00  0.00     0.175 S 
ATOM     25  C   UNL A   1      34.368  17.979  24.292  1.00  0.00     0.163 C 
ATOM     26  O   UNL A   1      32.337  17.882  22.673  1.00  0.00    -0.224 OA
ATOM     27  O   UNL A   1      31.903  17.985  25.160  1.00  0.00    -0.224 OA
ENDBRANCH  19  24
ENDBRANCH  14  18
BRANCH  17  28
ATOM     28  C   UNL A   1      30.160  27.151  23.184  1.00  0.00     0.030 A 
ATOM     29  C   UNL A   1      29.839  28.394  22.657  1.00  0.00     0.017 A 
ATOM     30  S   UNL A   1      28.784  26.439  23.921  1.00  0.00    -0.147 S 
ATOM     31  C   UNL A   1      28.474  28.749  22.854  1.00  0.00     0.012 A 
ATOM     32  C   UNL A   1      27.780  27.759  23.508  1.00  0.00     0.065 A 
ENDBRANCH  17  28
ENDBRANCH   8  13
ENDBRANCH   4   7
ENDBRANCH   2   3
ENDBRANCH   1   2
BRANCH   1  33
ATOM     33  C   UNL A   1      37.897  31.211  28.901  1.00  0.00     0.023 C 
BRANCH  33  34
ATOM     34  C   UNL A   1      38.359  32.148  30.008  1.00  0.00     0.116 C 
BRANCH  34  35
ATOM     35  N   UNL A   1      37.551  32.051  31.217  1.00  0.00    -0.352 N 
ATOM     36  C   UNL A   1      37.864  31.423  32.398  1.00  0.00     0.251 C 
ATOM     37  H   UNL A   1      36.670  32.491  31.182  1.00  0.00     0.163 HD
ATOM     38  O   UNL A   1      37.030  31.334  33.294  1.00  0.00    -0.269 OA
BRANCH  36  39
ATOM     39  C   UNL A   1      39.205  30.827  32.556  1.00  0.00     0.039 A 
ATOM     40  C   UNL A   1      39.316  29.443  32.710  1.00  0.00     0.014 A 
ATOM     41  C   UNL A   1      40.349  31.627  32.495  1.00  0.00     0.014 A 
ATOM     42  C   UNL A   1      40.581  28.855  32.741  1.00  0.00     0.010 A 
ATOM     43  C   UNL A   1      41.603  31.032  32.446  1.00  0.00     0.010 A 
ATOM     44  C   UNL A   1      41.734  29.642  32.575  1.00  0.00    -0.014 A 
BRANCH  44  45
ATOM     45  C   UNL A   1      43.085  29.030  32.527  1.00  0.00     0.031 A 
ATOM     46  C   UNL A   1      43.543  28.309  31.289  1.00  0.00     0.074 A 
ATOM     47  C   UNL A   1      43.865  29.050  33.626  1.00  0.00     0.049 A 
ATOM     48  N   UNL A   1      44.666  27.677  31.071  1.00  0.00    -0.248 NA
ATOM     49  C   UNL A   1      42.604  28.269  30.156  1.00  0.00     0.031 C 
ATOM     50  C   UNL A   1      43.501  29.651  34.912  1.00  0.00     0.029 A 
ATOM     51  N   UNL A   1      45.117  28.534  33.845  1.00  0.00    -0.354 N 
ATOM     52  C   UNL A   1      44.557  27.138  29.795  1.00  0.00     0.074 A 
ATOM     53  C   UNL A   1      43.239  27.479  29.305  1.00  0.00     0.031 C 
ATOM     54  C   UNL A   1      44.514  29.485  35.777  1.00  0.00     0.029 A 
ATOM     55  C   UNL A   1      45.584  28.741  35.121  1.00  0.00     0.049 A 
ATOM     56  H   UNL A   1      45.632  28.060  33.152  1.00  0.00     0.167 HD
ATOM     57  C   UNL A   1      45.480  26.453  29.079  1.00  0.00     0.034 A 
ATOM     58  C   UNL A   1      46.747  28.375  35.696  1.00  0.00     0.034 A 
ATOM     59  C   UNL A   1      46.802  26.149  29.557  1.00  0.00     0.049 A 
ATOM     60  C   UNL A   1      47.766  27.634  34.873  1.00  0.00     0.074 A 
ATOM     61  C   UNL A   1      47.840  25.531  28.885  1.00  0.00     0.029 A 
ATOM     62  N   UNL A   1      47.266  26.436  30.832  1.00  0.00    -0.354 N 
ATOM     63  N   UNL A   1      47.705  27.270  33.615  1.00  0.00    -0.248 NA
ATOM     64  C   UNL A   1      49.028  27.284  35.539  1.00  0.00     0.031 C 
ATOM     65  C   UNL A   1      48.926  25.423  29.761  1.00  0.00     0.029 A 
ATOM     66  C   UNL A   1      48.572  25.999  30.971  1.00  0.00     0.049 A 
ATOM     67  H   UNL A   1      46.742  26.884  31.535  1.00  0.00     0.167 HD
ATOM     68  C   UNL A   1      48.934  26.686  33.326  1.00  0.00     0.074 A 
ATOM     69  C   UNL A   1      49.724  26.761  34.538  1.00  0.00     0.031 C 
ATOM     70  C   UNL A   1      49.365  26.129  32.167  1.00  0.00     0.034 A 
BRANCH  57  71
ATOM     71  C   UNL A   1      45.104  26.037  27.679  1.00  0.00     0.023 A 
ATOM     72  C   UNL A   1      45.416  26.885  26.596  1.00  0.00     0.012 A 
ATOM     73  C   UNL A   1      44.470  24.805  27.429  1.00  0.00     0.148 A 
ATOM     74  C   UNL A   1      45.062  26.537  25.293  1.00  0.00     0.002 A 
ATOM     75  C   UNL A   1      44.164  24.442  26.122  1.00  0.00     0.091 A 
ATOM     76  F   UNL A   1      44.159  24.020  28.471  1.00  0.00    -0.205 F 
ATOM     77  C   UNL A   1      44.445  25.313  25.056  1.00  0.00     0.022 A 
BRANCH  75  78
ATOM     78  S   UNL A   1      43.441  22.851  25.706  1.00  0.00     0.127 S 
ATOM     79  O   UNL A   1      42.121  22.956  26.327  1.00  0.00    -0.237 OA
ATOM     80  O   UNL A   1      43.428  22.892  24.242  1.00  0.00    -0.237 OA
ATOM     81  O   UNL A   1      44.328  21.848  26.275  1.00  0.00    -0.744 OA
ENDBRANCH  75  78
ENDBRANCH  57  71
BRANCH  58  82
ATOM     82  C   UNL A   1      47.048  28.783  37.098  1.00  0.00     0.023 A 
ATOM     83  C   UNL A   1      47.757  29.978  37.326  1.00  0.00     0.012 A 
ATOM     84  C   UNL A   1      46.618  28.018  38.199  1.00  0.00     0.148 A 
ATOM     85  C   UNL A   1      48.060  30.390  38.624  1.00  0.00     0.002 A 
ATOM     86  C   UNL A   1      46.880  28.460  39.492  1.00  0.00     0.091 A 
ATOM     87  F   UNL A   1      45.953  26.880  37.961  1.00  0.00    -0.205 F 
ATOM     88  C   UNL A   1      47.615  29.636  39.706  1.00  0.00     0.022 A 
BRANCH  86  89
ATOM     89  S   UNL A   1      46.239  27.624  40.947  1.00  0.00     0.127 S 
ATOM     90  O   UNL A   1      46.611  26.237  40.682  1.00  0.00    -0.237 OA
ATOM     91  O   UNL A   1      46.993  28.271  42.021  1.00  0.00    -0.237 OA
ATOM     92  O   UNL A   1      44.811  27.902  40.964  1.00  0.00    -0.744 OA
ENDBRANCH  86  89
ENDBRANCH  58  82
BRANCH  70  93
ATOM     93  C   UNL A   1      50.772  25.590  32.134  1.00  0.00     0.023 A 
ATOM     94  C   UNL A   1      51.846  26.448  31.830  1.00  0.00     0.012 A 
ATOM     95  C   UNL A   1      51.032  24.248  32.476  1.00  0.00     0.148 A 
ATOM     96  C   UNL A   1      53.156  25.970  31.832  1.00  0.00     0.002 A 
ATOM     97  C   UNL A   1      52.344  23.792  32.527  1.00  0.00     0.091 A 
ATOM     98  F   UNL A   1      49.994  23.442  32.743  1.00  0.00    -0.205 F 
ATOM     99  C   UNL A   1      53.406  24.647  32.192  1.00  0.00     0.022 A 
BRANCH  97 100
ATOM    100  S   UNL A   1      52.766  22.134  33.075  1.00  0.00     0.127 S 
ATOM    101  O   UNL A   1      52.191  22.109  34.419  1.00  0.00    -0.237 OA
ATOM    102  O   UNL A   1      52.068  21.297  32.098  1.00  0.00    -0.237 OA
ATOM    103  O   UNL A   1      54.218  22.049  33.013  1.00  0.00    -0.744 OA
ENDBRANCH  97 100
ENDBRANCH  70  93
ENDBRANCH  44  45
ENDBRANCH  36  39
ENDBRANCH  34  35
ENDBRANCH  33  34
ENDBRANCH   1  33
TORSDOF 18
ENDMDL
