MODEL 1
REMARK VINA RESULT:     -10.8      0.000      0.000
REMARK SMILES O=C(C[C@H]([NH2+]Cc1ccccc1C1CC1)c1cccs1)NCCCCNC(=O)c1ccc(-c2c3nc(c(-c4cccc(S(=O)(=O)[O-])c4F)c4ccc([nH]4)c(-c4cccc(S(=O)(=O)[O-])c4F)c4nc(c(-c5cccc(S(=O)(=O)[O-])c5F)c5ccc2[nH]5)C=C4)C=C3)cc1
REMARK SMILES IDX 22 1 21 2 1 3 2 4 3 6 4 7 16 8 17 9 20 10 18 11 19 12 5 13
REMARK SMILES IDX 6 16 7 17 8 18 12 19 9 20 11 21 10 22 13 23 14 24 15 25
REMARK SMILES IDX 23 26 24 27 25 28 26 29 27 30 28 32 29 33 30 34 91 35 31 36
REMARK SMILES IDX 90 37 32 38 33 39 34 40 84 41 35 42 89 43 83 44 85 45 36 46
REMARK SMILES IDX 88 47 82 48 81 49 37 51 69 52 49 53 68 54 50 55 53 56 67 57
REMARK SMILES IDX 86 58 51 59 52 60 66 62 87 63 54 64 38 65 39 66 47 67 40 68
REMARK SMILES IDX 42 69 48 70 41 71 43 72 44 73 45 74 46 75 70 76 71 77 79 78
REMARK SMILES IDX 72 79 74 80 80 81 73 82 75 83 76 84 77 85 78 86 55 87 56 88
REMARK SMILES IDX 64 89 57 90 59 91 65 92 58 93 60 94 61 95 62 96 63 97
REMARK H PARENT 21 5 5 14 5 15 26 31 85 50 53 61
REMARK Flexibility Score: inf
ROOT
ATOM      1  C   UNL A   1      36.063  21.598  25.779  1.00  0.00     0.116 C 
ENDROOT
BRANCH   1   2
ATOM      2  N   UNL A   1      34.633  21.622  25.539  1.00  0.00    -0.356 N 
ATOM      3  O   UNL A   1      34.062  22.225  27.670  1.00  0.00    -0.275 OA
ATOM      4  C   UNL A   1      33.736  22.034  26.500  1.00  0.00     0.226 C 
ATOM      5  H   UNL A   1      34.292  21.335  24.661  1.00  0.00     0.163 HD
BRANCH   4   6
ATOM      6  C   UNL A   1      32.304  22.249  26.030  1.00  0.00     0.171 C 
BRANCH   6   7
ATOM      7  C   UNL A   1      31.957  23.661  25.488  1.00  0.00     0.233 C 
BRANCH   7   8
ATOM      8  C   UNL A   1      32.548  23.802  24.087  1.00  0.00     0.062 A 
ATOM      9  C   UNL A   1      32.454  22.898  23.040  1.00  0.00     0.021 A 
ATOM     10  S   UNL A   1      33.361  25.228  23.569  1.00  0.00    -0.143 S 
ATOM     11  C   UNL A   1      33.051  23.377  21.835  1.00  0.00     0.012 A 
ATOM     12  C   UNL A   1      33.598  24.628  21.993  1.00  0.00     0.065 A 
ENDBRANCH   7   8
BRANCH   7  13
ATOM     13  N   UNL A   1      30.512  23.903  25.558  1.00  0.00    -0.335 N 
ATOM     14  H   UNL A   1      30.095  23.133  26.080  1.00  0.00     0.347 HD
ATOM     15  H   UNL A   1      30.207  23.978  24.588  1.00  0.00     0.347 HD
BRANCH  13  16
ATOM     16  C   UNL A   1      30.086  25.137  26.184  1.00  0.00     0.298 C 
BRANCH  16  17
ATOM     17  C   UNL A   1      30.316  26.394  25.338  1.00  0.00     0.010 A 
ATOM     18  C   UNL A   1      29.690  26.312  24.058  1.00  0.00     0.010 A 
ATOM     19  C   UNL A   1      30.990  27.601  25.689  1.00  0.00    -0.036 A 
ATOM     20  C   UNL A   1      29.735  27.343  23.122  1.00  0.00     0.001 A 
ATOM     21  C   UNL A   1      31.041  28.604  24.674  1.00  0.00     0.004 A 
ATOM     22  C   UNL A   1      30.429  28.494  23.427  1.00  0.00     0.000 A 
BRANCH  19  23
ATOM     23  C   UNL A   1      31.642  28.077  26.995  1.00  0.00     0.020 C 
ATOM     24  C   UNL A   1      33.114  28.233  27.335  1.00  0.00     0.009 C 
ATOM     25  C   UNL A   1      32.171  29.428  27.134  1.00  0.00     0.009 C 
ENDBRANCH  19  23
ENDBRANCH  16  17
ENDBRANCH  13  16
ENDBRANCH   7  13
ENDBRANCH   6   7
ENDBRANCH   4   6
ENDBRANCH   1   2
BRANCH   1  26
ATOM     26  C   UNL A   1      36.850  21.060  24.589  1.00  0.00     0.023 C 
BRANCH  26  27
ATOM     27  C   UNL A   1      37.833  19.938  24.929  1.00  0.00     0.023 C 
BRANCH  27  28
ATOM     28  C   UNL A   1      39.032  20.350  25.779  1.00  0.00     0.116 C 
BRANCH  28  29
ATOM     29  N   UNL A   1      40.034  19.302  25.893  1.00  0.00    -0.352 N 
ATOM     30  C   UNL A   1      41.386  19.411  26.124  1.00  0.00     0.251 C 
ATOM     31  H   UNL A   1      39.696  18.383  25.791  1.00  0.00     0.163 HD
ATOM     32  O   UNL A   1      42.101  18.414  26.041  1.00  0.00    -0.269 OA
BRANCH  30  33
ATOM     33  C   UNL A   1      41.987  20.726  26.443  1.00  0.00     0.039 A 
ATOM     34  C   UNL A   1      42.271  21.610  25.399  1.00  0.00     0.014 A 
ATOM     35  C   UNL A   1      42.270  21.092  27.762  1.00  0.00     0.014 A 
ATOM     36  C   UNL A   1      42.771  22.885  25.682  1.00  0.00     0.010 A 
ATOM     37  C   UNL A   1      42.696  22.389  28.047  1.00  0.00     0.010 A 
ATOM     38  C   UNL A   1      42.951  23.302  27.011  1.00  0.00    -0.014 A 
BRANCH  38  39
ATOM     39  C   UNL A   1      43.382  24.689  27.335  1.00  0.00     0.031 A 
ATOM     40  C   UNL A   1      42.407  25.676  27.920  1.00  0.00     0.074 A 
ATOM     41  C   UNL A   1      44.631  25.090  27.022  1.00  0.00     0.049 A 
ATOM     42  N   UNL A   1      42.585  26.941  28.207  1.00  0.00    -0.248 NA
ATOM     43  C   UNL A   1      41.046  25.187  28.195  1.00  0.00     0.031 C 
ATOM     44  C   UNL A   1      45.651  24.258  26.382  1.00  0.00     0.029 A 
ATOM     45  N   UNL A   1      45.247  26.309  27.174  1.00  0.00    -0.354 N 
ATOM     46  C   UNL A   1      41.357  27.405  28.664  1.00  0.00     0.074 A 
ATOM     47  C   UNL A   1      40.432  26.296  28.581  1.00  0.00     0.031 C 
ATOM     48  C   UNL A   1      46.763  24.986  26.198  1.00  0.00     0.029 A 
ATOM     49  C   UNL A   1      46.529  26.346  26.674  1.00  0.00     0.049 A 
ATOM     50  H   UNL A   1      44.814  27.082  27.602  1.00  0.00     0.167 HD
ATOM     51  C   UNL A   1      41.034  28.633  29.136  1.00  0.00     0.034 A 
ATOM     52  C   UNL A   1      47.411  27.361  26.591  1.00  0.00     0.034 A 
ATOM     53  C   UNL A   1      41.962  29.726  29.250  1.00  0.00     0.049 A 
ATOM     54  C   UNL A   1      47.036  28.709  27.147  1.00  0.00     0.074 A 
ATOM     55  C   UNL A   1      41.749  30.981  29.792  1.00  0.00     0.029 A 
ATOM     56  N   UNL A   1      43.275  29.701  28.806  1.00  0.00    -0.354 N 
ATOM     57  N   UNL A   1      45.916  29.083  27.715  1.00  0.00    -0.248 NA
ATOM     58  C   UNL A   1      48.059  29.762  27.084  1.00  0.00     0.031 C 
ATOM     59  C   UNL A   1      42.924  31.727  29.647  1.00  0.00     0.029 A 
ATOM     60  C   UNL A   1      43.882  30.923  29.050  1.00  0.00     0.049 A 
ATOM     61  H   UNL A   1      43.713  28.929  28.381  1.00  0.00     0.167 HD
ATOM     62  C   UNL A   1      46.112  30.403  28.110  1.00  0.00     0.074 A 
ATOM     63  C   UNL A   1      47.466  30.754  27.735  1.00  0.00     0.031 C 
ATOM     64  C   UNL A   1      45.244  31.248  28.718  1.00  0.00     0.034 A 
BRANCH  51  65
ATOM     65  C   UNL A   1      39.619  28.850  29.611  1.00  0.00     0.023 A 
ATOM     66  C   UNL A   1      39.235  28.394  30.889  1.00  0.00     0.012 A 
ATOM     67  C   UNL A   1      38.689  29.555  28.822  1.00  0.00     0.148 A 
ATOM     68  C   UNL A   1      37.938  28.599  31.358  1.00  0.00     0.002 A 
ATOM     69  C   UNL A   1      37.412  29.798  29.316  1.00  0.00     0.091 A 
ATOM     70  F   UNL A   1      39.065  29.965  27.602  1.00  0.00    -0.205 F 
ATOM     71  C   UNL A   1      37.031  29.311  30.577  1.00  0.00     0.022 A 
BRANCH  69  72
ATOM     72  S   UNL A   1      36.196  30.771  28.422  1.00  0.00     0.127 S 
ATOM     73  O   UNL A   1      36.026  29.984  27.203  1.00  0.00    -0.237 OA
ATOM     74  O   UNL A   1      35.049  30.740  29.332  1.00  0.00    -0.237 OA
ATOM     75  O   UNL A   1      36.790  32.088  28.239  1.00  0.00    -0.744 OA
ENDBRANCH  69  72
ENDBRANCH  51  65
BRANCH  52  76
ATOM     76  C   UNL A   1      48.760  27.129  26.000  1.00  0.00     0.023 A 
ATOM     77  C   UNL A   1      49.784  26.582  26.796  1.00  0.00     0.012 A 
ATOM     78  C   UNL A   1      49.025  27.425  24.649  1.00  0.00     0.148 A 
ATOM     79  C   UNL A   1      51.058  26.367  26.267  1.00  0.00     0.002 A 
ATOM     80  C   UNL A   1      50.277  27.154  24.114  1.00  0.00     0.091 A 
ATOM     81  F   UNL A   1      48.038  27.954  23.910  1.00  0.00    -0.205 F 
ATOM     82  C   UNL A   1      51.302  26.644  24.926  1.00  0.00     0.022 A 
BRANCH  80  83
ATOM     83  S   UNL A   1      50.641  27.354  22.365  1.00  0.00     0.127 S 
ATOM     84  O   UNL A   1      50.549  28.802  22.204  1.00  0.00    -0.237 OA
ATOM     85  O   UNL A   1      51.995  26.806  22.275  1.00  0.00    -0.237 OA
ATOM     86  O   UNL A   1      49.631  26.574  21.662  1.00  0.00    -0.744 OA
ENDBRANCH  80  83
ENDBRANCH  52  76
BRANCH  64  87
ATOM     87  C   UNL A   1      45.737  32.632  29.059  1.00  0.00     0.023 A 
ATOM     88  C   UNL A   1      46.356  32.875  30.300  1.00  0.00     0.012 A 
ATOM     89  C   UNL A   1      45.647  33.675  28.115  1.00  0.00     0.148 A 
ATOM     90  C   UNL A   1      46.849  34.142  30.611  1.00  0.00     0.002 A 
ATOM     91  C   UNL A   1      46.186  34.921  28.411  1.00  0.00     0.091 A 
ATOM     92  F   UNL A   1      45.037  33.430  26.946  1.00  0.00    -0.205 F 
ATOM     93  C   UNL A   1      46.775  35.161  29.664  1.00  0.00     0.022 A 
BRANCH  91  94
ATOM     94  S   UNL A   1      46.224  36.264  27.219  1.00  0.00     0.127 S 
ATOM     95  O   UNL A   1      44.891  36.840  27.375  1.00  0.00    -0.237 OA
ATOM     96  O   UNL A   1      47.313  37.099  27.729  1.00  0.00    -0.237 OA
ATOM     97  O   UNL A   1      46.491  35.646  25.926  1.00  0.00    -0.744 OA
ENDBRANCH  91  94
ENDBRANCH  64  87
ENDBRANCH  38  39
ENDBRANCH  30  33
ENDBRANCH  28  29
ENDBRANCH  27  28
ENDBRANCH  26  27
ENDBRANCH   1  26
TORSDOF 20
ENDMDL
MODEL 2
REMARK VINA RESULT:     -10.7      4.788     10.560
REMARK SMILES O=C(C[C@H]([NH2+]Cc1ccccc1C1CC1)c1cccs1)NCCCCNC(=O)c1ccc(-c2c3nc(c(-c4cccc(S(=O)(=O)[O-])c4F)c4ccc([nH]4)c(-c4cccc(S(=O)(=O)[O-])c4F)c4nc(c(-c5cccc(S(=O)(=O)[O-])c5F)c5ccc2[nH]5)C=C4)C=C3)cc1
REMARK SMILES IDX 22 1 21 2 1 3 2 4 3 6 4 7 16 8 17 9 20 10 18 11 19 12 5 13
REMARK SMILES IDX 6 16 7 17 8 18 12 19 9 20 11 21 10 22 13 23 14 24 15 25
REMARK SMILES IDX 23 26 24 27 25 28 26 29 27 30 28 32 29 33 30 34 91 35 31 36
REMARK SMILES IDX 90 37 32 38 33 39 34 40 84 41 35 42 89 43 83 44 85 45 36 46
REMARK SMILES IDX 88 47 82 48 81 49 37 51 69 52 49 53 68 54 50 55 53 56 67 57
REMARK SMILES IDX 86 58 51 59 52 60 66 62 87 63 54 64 38 65 39 66 47 67 40 68
REMARK SMILES IDX 42 69 48 70 41 71 43 72 44 73 45 74 46 75 70 76 71 77 79 78
REMARK SMILES IDX 72 79 74 80 80 81 73 82 75 83 76 84 77 85 78 86 55 87 56 88
REMARK SMILES IDX 64 89 57 90 59 91 65 92 58 93 60 94 61 95 62 96 63 97
REMARK H PARENT 21 5 5 14 5 15 26 31 85 50 53 61
REMARK Flexibility Score: inf
ROOT
ATOM      1  C   UNL A   1      44.964  22.315  25.833  1.00  0.00     0.116 C 
ENDROOT
BRANCH   1   2
ATOM      2  N   UNL A   1      46.202  23.010  26.131  1.00  0.00    -0.356 N 
ATOM      3  O   UNL A   1      46.314  24.127  24.139  1.00  0.00    -0.275 OA
ATOM      4  C   UNL A   1      46.738  23.951  25.280  1.00  0.00     0.226 C 
ATOM      5  H   UNL A   1      46.675  22.802  26.970  1.00  0.00     0.163 HD
BRANCH   4   6
ATOM      6  C   UNL A   1      47.891  24.775  25.835  1.00  0.00     0.171 C 
BRANCH   6   7
ATOM      7  C   UNL A   1      47.762  26.316  25.716  1.00  0.00     0.233 C 
BRANCH   7   8
ATOM      8  C   UNL A   1      48.597  26.783  24.525  1.00  0.00     0.062 A 
ATOM      9  C   UNL A   1      48.133  27.257  23.308  1.00  0.00     0.021 A 
ATOM     10  S   UNL A   1      50.314  26.883  24.587  1.00  0.00    -0.143 S 
ATOM     11  C   UNL A   1      49.183  27.688  22.442  1.00  0.00     0.012 A 
ATOM     12  C   UNL A   1      50.423  27.521  23.012  1.00  0.00     0.065 A 
ENDBRANCH   7   8
BRANCH   7  13
ATOM     13  N   UNL A   1      46.351  26.716  25.654  1.00  0.00    -0.335 N 
ATOM     14  H   UNL A   1      45.803  25.984  26.105  1.00  0.00     0.347 HD
ATOM     15  H   UNL A   1      46.155  26.847  24.662  1.00  0.00     0.347 HD
BRANCH  13  16
ATOM     16  C   UNL A   1      46.001  27.973  26.279  1.00  0.00     0.298 C 
BRANCH  16  17
ATOM     17  C   UNL A   1      44.506  28.311  26.241  1.00  0.00     0.010 A 
ATOM     18  C   UNL A   1      43.768  27.424  25.400  1.00  0.00     0.010 A 
ATOM     19  C   UNL A   1      43.793  29.313  26.962  1.00  0.00    -0.036 A 
ATOM     20  C   UNL A   1      42.389  27.513  25.226  1.00  0.00     0.001 A 
ATOM     21  C   UNL A   1      42.390  29.384  26.709  1.00  0.00     0.004 A 
ATOM     22  C   UNL A   1      41.696  28.511  25.876  1.00  0.00     0.000 A 
BRANCH  19  23
ATOM     23  C   UNL A   1      44.234  30.325  28.030  1.00  0.00     0.020 C 
ATOM     24  C   UNL A   1      45.355  31.348  27.983  1.00  0.00     0.009 C 
ATOM     25  C   UNL A   1      43.870  31.734  27.940  1.00  0.00     0.009 C 
ENDBRANCH  19  23
ENDBRANCH  16  17
ENDBRANCH  13  16
ENDBRANCH   7  13
ENDBRANCH   6   7
ENDBRANCH   4   6
ENDBRANCH   1   2
BRANCH   1  26
ATOM     26  C   UNL A   1      45.194  20.901  25.311  1.00  0.00     0.023 C 
BRANCH  26  27
ATOM     27  C   UNL A   1      43.923  20.165  24.882  1.00  0.00     0.023 C 
BRANCH  27  28
ATOM     28  C   UNL A   1      43.085  19.583  26.017  1.00  0.00     0.116 C 
BRANCH  28  29
ATOM     29  N   UNL A   1      41.656  19.747  25.810  1.00  0.00    -0.352 N 
ATOM     30  C   UNL A   1      40.831  20.774  26.205  1.00  0.00     0.251 C 
ATOM     31  H   UNL A   1      41.215  19.018  25.315  1.00  0.00     0.163 HD
ATOM     32  O   UNL A   1      39.614  20.666  26.065  1.00  0.00    -0.269 OA
BRANCH  30  33
ATOM     33  C   UNL A   1      41.397  21.994  26.824  1.00  0.00     0.039 A 
ATOM     34  C   UNL A   1      41.520  23.150  26.048  1.00  0.00     0.014 A 
ATOM     35  C   UNL A   1      41.805  22.005  28.161  1.00  0.00     0.014 A 
ATOM     36  C   UNL A   1      41.983  24.334  26.631  1.00  0.00     0.010 A 
ATOM     37  C   UNL A   1      42.194  23.204  28.758  1.00  0.00     0.010 A 
ATOM     38  C   UNL A   1      42.288  24.382  28.002  1.00  0.00    -0.014 A 
BRANCH  38  39
ATOM     39  C   UNL A   1      42.682  25.657  28.661  1.00  0.00     0.031 A 
ATOM     40  C   UNL A   1      44.127  25.941  28.977  1.00  0.00     0.074 A 
ATOM     41  C   UNL A   1      41.730  26.525  29.056  1.00  0.00     0.049 A 
ATOM     42  N   UNL A   1      44.649  26.965  29.602  1.00  0.00    -0.248 NA
ATOM     43  C   UNL A   1      45.112  24.929  28.560  1.00  0.00     0.031 C 
ATOM     44  C   UNL A   1      40.288  26.338  28.882  1.00  0.00     0.029 A 
ATOM     45  N   UNL A   1      41.828  27.729  29.713  1.00  0.00    -0.354 N 
ATOM     46  C   UNL A   1      46.013  26.710  29.682  1.00  0.00     0.074 A 
ATOM     47  C   UNL A   1      46.234  25.415  29.074  1.00  0.00     0.031 C 
ATOM     48  C   UNL A   1      39.639  27.385  29.413  1.00  0.00     0.029 A 
ATOM     49  C   UNL A   1      40.611  28.303  29.999  1.00  0.00     0.049 A 
ATOM     50  H   UNL A   1      42.688  28.142  29.955  1.00  0.00     0.167 HD
ATOM     51  C   UNL A   1      46.997  27.491  30.188  1.00  0.00     0.034 A 
ATOM     52  C   UNL A   1      40.307  29.432  30.668  1.00  0.00     0.034 A 
ATOM     53  C   UNL A   1      46.782  28.792  30.762  1.00  0.00     0.049 A 
ATOM     54  C   UNL A   1      41.421  30.296  31.197  1.00  0.00     0.074 A 
ATOM     55  C   UNL A   1      47.725  29.693  31.226  1.00  0.00     0.029 A 
ATOM     56  N   UNL A   1      45.541  29.377  30.961  1.00  0.00    -0.354 N 
ATOM     57  N   UNL A   1      42.716  30.107  31.126  1.00  0.00    -0.248 NA
ATOM     58  C   UNL A   1      41.032  31.546  31.867  1.00  0.00     0.031 C 
ATOM     59  C   UNL A   1      47.052  30.809  31.735  1.00  0.00     0.029 A 
ATOM     60  C   UNL A   1      45.691  30.620  31.553  1.00  0.00     0.049 A 
ATOM     61  H   UNL A   1      44.680  28.969  30.717  1.00  0.00     0.167 HD
ATOM     62  C   UNL A   1      43.297  31.229  31.707  1.00  0.00     0.074 A 
ATOM     63  C   UNL A   1      42.213  32.102  32.105  1.00  0.00     0.031 C 
ATOM     64  C   UNL A   1      44.610  31.504  31.902  1.00  0.00     0.034 A 
BRANCH  51  65
ATOM     65  C   UNL A   1      48.412  26.977  30.103  1.00  0.00     0.023 A 
ATOM     66  C   UNL A   1      49.220  27.334  29.003  1.00  0.00     0.012 A 
ATOM     67  C   UNL A   1      48.962  26.192  31.136  1.00  0.00     0.148 A 
ATOM     68  C   UNL A   1      50.536  26.886  28.912  1.00  0.00     0.002 A 
ATOM     69  C   UNL A   1      50.291  25.790  31.062  1.00  0.00     0.091 A 
ATOM     70  F   UNL A   1      48.176  25.847  32.165  1.00  0.00    -0.205 F 
ATOM     71  C   UNL A   1      51.075  26.124  29.945  1.00  0.00     0.022 A 
BRANCH  69  72
ATOM     72  S   UNL A   1      51.102  24.874  32.376  1.00  0.00     0.127 S 
ATOM     73  O   UNL A   1      50.732  25.657  33.553  1.00  0.00    -0.237 OA
ATOM     74  O   UNL A   1      50.451  23.565  32.285  1.00  0.00    -0.237 OA
ATOM     75  O   UNL A   1      52.520  24.871  32.048  1.00  0.00    -0.744 OA
ENDBRANCH  69  72
ENDBRANCH  51  65
BRANCH  52  76
ATOM     76  C   UNL A   1      38.882  29.840  30.833  1.00  0.00     0.023 A 
ATOM     77  C   UNL A   1      38.203  29.527  32.026  1.00  0.00     0.012 A 
ATOM     78  C   UNL A   1      38.206  30.555  29.826  1.00  0.00     0.148 A 
ATOM     79  C   UNL A   1      36.866  29.889  32.199  1.00  0.00     0.002 A 
ATOM     80  C   UNL A   1      36.894  30.963  30.028  1.00  0.00     0.091 A 
ATOM     81  F   UNL A   1      38.868  30.834  28.693  1.00  0.00    -0.205 F 
ATOM     82  C   UNL A   1      36.215  30.613  31.206  1.00  0.00     0.022 A 
BRANCH  80  83
ATOM     83  S   UNL A   1      36.021  32.013  28.861  1.00  0.00     0.127 S 
ATOM     84  O   UNL A   1      36.034  31.193  27.652  1.00  0.00    -0.237 OA
ATOM     85  O   UNL A   1      34.713  32.151  29.500  1.00  0.00    -0.237 OA
ATOM     86  O   UNL A   1      36.789  33.250  28.793  1.00  0.00    -0.744 OA
ENDBRANCH  80  83
ENDBRANCH  52  76
BRANCH  64  87
ATOM     87  C   UNL A   1      44.962  32.824  32.541  1.00  0.00     0.023 A 
ATOM     88  C   UNL A   1      45.174  32.901  33.931  1.00  0.00     0.012 A 
ATOM     89  C   UNL A   1      45.153  33.973  31.747  1.00  0.00     0.148 A 
ATOM     90  C   UNL A   1      45.536  34.109  34.527  1.00  0.00     0.002 A 
ATOM     91  C   UNL A   1      45.564  35.160  32.340  1.00  0.00     0.091 A 
ATOM     92  F   UNL A   1      44.928  33.885  30.428  1.00  0.00    -0.205 F 
ATOM     93  C   UNL A   1      45.743  35.234  33.732  1.00  0.00     0.022 A 
BRANCH  91  94
ATOM     94  S   UNL A   1      45.949  36.633  31.387  1.00  0.00     0.127 S 
ATOM     95  O   UNL A   1      44.645  36.973  30.823  1.00  0.00    -0.237 OA
ATOM     96  O   UNL A   1      46.426  37.553  32.420  1.00  0.00    -0.237 OA
ATOM     97  O   UNL A   1      46.963  36.232  30.419  1.00  0.00    -0.744 OA
ENDBRANCH  91  94
ENDBRANCH  64  87
ENDBRANCH  38  39
ENDBRANCH  30  33
ENDBRANCH  28  29
ENDBRANCH  27  28
ENDBRANCH  26  27
ENDBRANCH   1  26
TORSDOF 20
ENDMDL
MODEL 3
REMARK VINA RESULT:     -10.1      3.071      8.623
REMARK SMILES O=C(C[C@H]([NH2+]Cc1ccccc1C1CC1)c1cccs1)NCCCCNC(=O)c1ccc(-c2c3nc(c(-c4cccc(S(=O)(=O)[O-])c4F)c4ccc([nH]4)c(-c4cccc(S(=O)(=O)[O-])c4F)c4nc(c(-c5cccc(S(=O)(=O)[O-])c5F)c5ccc2[nH]5)C=C4)C=C3)cc1
REMARK SMILES IDX 22 1 21 2 1 3 2 4 3 6 4 7 16 8 17 9 20 10 18 11 19 12 5 13
REMARK SMILES IDX 6 16 7 17 8 18 12 19 9 20 11 21 10 22 13 23 14 24 15 25
REMARK SMILES IDX 23 26 24 27 25 28 26 29 27 30 28 32 29 33 30 34 91 35 31 36
REMARK SMILES IDX 90 37 32 38 33 39 34 40 84 41 35 42 89 43 83 44 85 45 36 46
REMARK SMILES IDX 88 47 82 48 81 49 37 51 69 52 49 53 68 54 50 55 53 56 67 57
REMARK SMILES IDX 86 58 51 59 52 60 66 62 87 63 54 64 38 65 39 66 47 67 40 68
REMARK SMILES IDX 42 69 48 70 41 71 43 72 44 73 45 74 46 75 70 76 71 77 79 78
REMARK SMILES IDX 72 79 74 80 80 81 73 82 75 83 76 84 77 85 78 86 55 87 56 88
REMARK SMILES IDX 64 89 57 90 59 91 65 92 58 93 60 94 61 95 62 96 63 97
REMARK H PARENT 21 5 5 14 5 15 26 31 85 50 53 61
REMARK Flexibility Score: inf
ROOT
ATOM      1  C   UNL A   1      33.964  22.718  23.032  1.00  0.00     0.116 C 
ENDROOT
BRANCH   1   2
ATOM      2  N   UNL A   1      32.974  23.778  23.059  1.00  0.00    -0.356 N 
ATOM      3  O   UNL A   1      33.587  24.704  21.060  1.00  0.00    -0.275 OA
ATOM      4  C   UNL A   1      32.801  24.646  22.003  1.00  0.00     0.226 C 
ATOM      5  H   UNL A   1      32.407  23.880  23.857  1.00  0.00     0.163 HD
BRANCH   4   6
ATOM      6  C   UNL A   1      31.567  25.535  22.064  1.00  0.00     0.171 C 
BRANCH   6   7
ATOM      7  C   UNL A   1      31.816  27.067  22.063  1.00  0.00     0.233 C 
BRANCH   7   8
ATOM      8  C   UNL A   1      30.524  27.769  22.476  1.00  0.00     0.062 A 
ATOM      9  C   UNL A   1      29.516  27.266  23.284  1.00  0.00     0.021 A 
ATOM     10  S   UNL A   1      30.187  29.402  22.052  1.00  0.00    -0.143 S 
ATOM     11  C   UNL A   1      28.482  28.216  23.540  1.00  0.00     0.012 A 
ATOM     12  C   UNL A   1      28.717  29.416  22.911  1.00  0.00     0.065 A 
ENDBRANCH   7   8
BRANCH   7  13
ATOM     13  N   UNL A   1      32.976  27.405  22.895  1.00  0.00    -0.335 N 
ATOM     14  H   UNL A   1      33.802  27.381  22.298  1.00  0.00     0.347 HD
ATOM     15  H   UNL A   1      32.972  26.719  23.649  1.00  0.00     0.347 HD
BRANCH  13  16
ATOM     16  C   UNL A   1      32.952  28.692  23.556  1.00  0.00     0.298 C 
BRANCH  16  17
ATOM     17  C   UNL A   1      32.514  28.648  25.024  1.00  0.00     0.010 A 
ATOM     18  C   UNL A   1      32.276  29.950  25.561  1.00  0.00     0.010 A 
ATOM     19  C   UNL A   1      32.263  27.516  25.853  1.00  0.00    -0.036 A 
ATOM     20  C   UNL A   1      31.843  30.166  26.868  1.00  0.00     0.001 A 
ATOM     21  C   UNL A   1      31.864  27.800  27.194  1.00  0.00     0.004 A 
ATOM     22  C   UNL A   1      31.649  29.082  27.696  1.00  0.00     0.000 A 
BRANCH  19  23
ATOM     23  C   UNL A   1      32.281  26.007  25.570  1.00  0.00     0.020 C 
ATOM     24  C   UNL A   1      32.431  24.847  26.539  1.00  0.00     0.009 C 
ATOM     25  C   UNL A   1      31.113  25.171  25.821  1.00  0.00     0.009 C 
ENDBRANCH  19  23
ENDBRANCH  16  17
ENDBRANCH  13  16
ENDBRANCH   7  13
ENDBRANCH   6   7
ENDBRANCH   4   6
ENDBRANCH   1   2
BRANCH   1  26
ATOM     26  C   UNL A   1      34.822  22.682  24.291  1.00  0.00     0.023 C 
BRANCH  26  27
ATOM     27  C   UNL A   1      35.581  23.978  24.583  1.00  0.00     0.023 C 
BRANCH  27  28
ATOM     28  C   UNL A   1      36.402  23.982  25.870  1.00  0.00     0.116 C 
BRANCH  28  29
ATOM     29  N   UNL A   1      37.331  22.867  25.955  1.00  0.00    -0.352 N 
ATOM     30  C   UNL A   1      38.656  22.863  26.322  1.00  0.00     0.251 C 
ATOM     31  H   UNL A   1      36.957  21.988  25.715  1.00  0.00     0.163 HD
ATOM     32  O   UNL A   1      39.322  21.838  26.191  1.00  0.00    -0.269 OA
BRANCH  30  33
ATOM     33  C   UNL A   1      39.292  24.094  26.846  1.00  0.00     0.039 A 
ATOM     34  C   UNL A   1      39.962  24.939  25.957  1.00  0.00     0.014 A 
ATOM     35  C   UNL A   1      39.229  24.420  28.203  1.00  0.00     0.014 A 
ATOM     36  C   UNL A   1      40.506  26.142  26.415  1.00  0.00     0.010 A 
ATOM     37  C   UNL A   1      39.704  25.654  28.644  1.00  0.00     0.010 A 
ATOM     38  C   UNL A   1      40.349  26.531  27.757  1.00  0.00    -0.014 A 
BRANCH  38  39
ATOM     39  C   UNL A   1      40.829  27.854  28.239  1.00  0.00     0.031 A 
ATOM     40  C   UNL A   1      42.298  28.105  28.452  1.00  0.00     0.074 A 
ATOM     41  C   UNL A   1      39.935  28.807  28.571  1.00  0.00     0.049 A 
ATOM     42  N   UNL A   1      42.894  29.170  28.924  1.00  0.00    -0.248 NA
ATOM     43  C   UNL A   1      43.218  27.005  28.114  1.00  0.00     0.031 C 
ATOM     44  C   UNL A   1      38.479  28.669  28.487  1.00  0.00     0.029 A 
ATOM     45  N   UNL A   1      40.116  30.074  29.073  1.00  0.00    -0.354 N 
ATOM     46  C   UNL A   1      44.248  28.861  28.971  1.00  0.00     0.074 A 
ATOM     47  C   UNL A   1      44.383  27.495  28.513  1.00  0.00     0.031 C 
ATOM     48  C   UNL A   1      37.902  29.801  28.918  1.00  0.00     0.029 A 
ATOM     49  C   UNL A   1      38.940  30.735  29.343  1.00  0.00     0.049 A 
ATOM     50  H   UNL A   1      41.004  30.471  29.224  1.00  0.00     0.167 HD
ATOM     51  C   UNL A   1      45.289  29.649  29.333  1.00  0.00     0.034 A 
ATOM     52  C   UNL A   1      38.719  31.948  29.885  1.00  0.00     0.034 A 
ATOM     53  C   UNL A   1      45.158  31.017  29.756  1.00  0.00     0.049 A 
ATOM     54  C   UNL A   1      39.893  32.815  30.255  1.00  0.00     0.074 A 
ATOM     55  C   UNL A   1      46.160  31.921  30.064  1.00  0.00     0.029 A 
ATOM     56  N   UNL A   1      43.954  31.680  29.941  1.00  0.00    -0.354 N 
ATOM     57  N   UNL A   1      41.174  32.557  30.147  1.00  0.00    -0.248 NA
ATOM     58  C   UNL A   1      39.592  34.152  30.787  1.00  0.00     0.031 C 
ATOM     59  C   UNL A   1      45.561  33.120  30.467  1.00  0.00     0.029 A 
ATOM     60  C   UNL A   1      44.186  32.975  30.372  1.00  0.00     0.049 A 
ATOM     61  H   UNL A   1      43.065  31.287  29.788  1.00  0.00     0.167 HD
ATOM     62  C   UNL A   1      41.830  33.711  30.562  1.00  0.00     0.074 A 
ATOM     63  C   UNL A   1      40.805  34.676  30.902  1.00  0.00     0.031 C 
ATOM     64  C   UNL A   1      43.162  33.945  30.661  1.00  0.00     0.034 A 
BRANCH  51  65
ATOM     65  C   UNL A   1      46.675  29.062  29.246  1.00  0.00     0.023 A 
ATOM     66  C   UNL A   1      47.225  28.401  30.363  1.00  0.00     0.012 A 
ATOM     67  C   UNL A   1      47.410  29.112  28.045  1.00  0.00     0.148 A 
ATOM     68  C   UNL A   1      48.497  27.834  30.301  1.00  0.00     0.002 A 
ATOM     69  C   UNL A   1      48.657  28.503  27.975  1.00  0.00     0.091 A 
ATOM     70  F   UNL A   1      46.881  29.761  26.997  1.00  0.00    -0.205 F 
ATOM     71  C   UNL A   1      49.208  27.875  29.105  1.00  0.00     0.022 A 
BRANCH  69  72
ATOM     72  S   UNL A   1      49.619  28.431  26.460  1.00  0.00     0.127 S 
ATOM     73  O   UNL A   1      48.708  27.719  25.566  1.00  0.00    -0.237 OA
ATOM     74  O   UNL A   1      49.799  29.849  26.143  1.00  0.00    -0.237 OA
ATOM     75  O   UNL A   1      50.846  27.723  26.795  1.00  0.00    -0.744 OA
ENDBRANCH  69  72
ENDBRANCH  51  65
BRANCH  52  76
ATOM     76  C   UNL A   1      37.323  32.440  30.066  1.00  0.00     0.023 A 
ATOM     77  C   UNL A   1      36.468  32.535  28.951  1.00  0.00     0.012 A 
ATOM     78  C   UNL A   1      36.832  32.789  31.339  1.00  0.00     0.148 A 
ATOM     79  C   UNL A   1      35.161  33.003  29.095  1.00  0.00     0.002 A 
ATOM     80  C   UNL A   1      35.512  33.199  31.483  1.00  0.00     0.091 A 
ATOM     81  F   UNL A   1      37.665  32.701  32.386  1.00  0.00    -0.205 F 
ATOM     82  C   UNL A   1      34.681  33.326  30.360  1.00  0.00     0.022 A 
BRANCH  80  83
ATOM     83  S   UNL A   1      34.770  33.506  33.091  1.00  0.00     0.127 S 
ATOM     84  O   UNL A   1      35.433  32.505  33.922  1.00  0.00    -0.237 OA
ATOM     85  O   UNL A   1      35.172  34.889  33.348  1.00  0.00    -0.237 OA
ATOM     86  O   UNL A   1      33.336  33.323  32.904  1.00  0.00    -0.744 OA
ENDBRANCH  80  83
ENDBRANCH  52  76
BRANCH  64  87
ATOM     87  C   UNL A   1      43.601  35.312  31.120  1.00  0.00     0.023 A 
ATOM     88  C   UNL A   1      43.869  35.548  32.482  1.00  0.00     0.012 A 
ATOM     89  C   UNL A   1      43.816  36.345  30.184  1.00  0.00     0.148 A 
ATOM     90  C   UNL A   1      44.312  36.799  32.912  1.00  0.00     0.002 A 
ATOM     91  C   UNL A   1      44.306  37.572  30.612  1.00  0.00     0.091 A 
ATOM     92  F   UNL A   1      43.537  36.107  28.894  1.00  0.00    -0.205 F 
ATOM     93  C   UNL A   1      44.541  37.806  31.977  1.00  0.00     0.022 A 
BRANCH  91  94
ATOM     94  S   UNL A   1      44.725  38.895  29.471  1.00  0.00     0.127 S 
ATOM     95  O   UNL A   1      43.419  39.222  28.902  1.00  0.00    -0.237 OA
ATOM     96  O   UNL A   1      45.272  39.914  30.368  1.00  0.00    -0.237 OA
ATOM     97  O   UNL A   1      45.690  38.330  28.537  1.00  0.00    -0.744 OA
ENDBRANCH  91  94
ENDBRANCH  64  87
ENDBRANCH  38  39
ENDBRANCH  30  33
ENDBRANCH  28  29
ENDBRANCH  27  28
ENDBRANCH  26  27
ENDBRANCH   1  26
TORSDOF 20
ENDMDL
