MODEL 1
REMARK VINA RESULT:     -11.9      0.000      0.000
REMARK SMILES CSc1cccc(N2C[C@@H](C(=O)NCCCCNC(=O)c3ccc(-c4c5nc(c(-c6cccc(S(=O)(=O)[O-])c6F)c6ccc([nH]6)c(-c6cccc(S(=O)(=O)[O-])c6F)c6nc(c(-c7cccc(S(=O)(=O)[O-])c7F)c7ccc4[nH]7)C=C6)C=C5)cc3)CC2=O)c1
REMARK SMILES IDX 16 1 15 2 14 3 13 4 11 5 12 6 10 8 8 9 9 10 85 11 84 12
REMARK SMILES IDX 86 13 7 14 3 15 4 16 87 17 5 18 6 19 2 20 1 21 17 22 18 23
REMARK SMILES IDX 19 24 20 26 21 27 22 28 83 29 23 30 82 31 24 32 25 33 26 34
REMARK SMILES IDX 76 35 27 36 81 37 75 38 77 39 28 40 80 41 74 42 73 43 29 45
REMARK SMILES IDX 61 46 41 47 60 48 42 49 45 50 59 51 78 52 43 53 44 54 58 56
REMARK SMILES IDX 79 57 46 58 30 59 31 60 39 61 32 62 34 63 40 64 33 65 35 66
REMARK SMILES IDX 36 67 37 68 38 69 62 70 63 71 71 72 64 73 66 74 72 75 65 76
REMARK SMILES IDX 67 77 68 78 69 79 70 80 47 81 48 82 56 83 49 84 51 85 57 86
REMARK SMILES IDX 50 87 52 88 53 89 54 90 55 91
REMARK H PARENT 13 7 18 25 77 44 45 55
REMARK Flexibility Score: inf
ROOT
ATOM      1  C   UNL A   1      31.513  29.114  25.031  1.00  0.00     0.023 C 
ENDROOT
BRANCH   1   2
ATOM      2  C   UNL A   1      31.659  29.039  23.510  1.00  0.00     0.023 C 
BRANCH   2   3
ATOM      3  C   UNL A   1      33.077  28.763  23.013  1.00  0.00     0.116 C 
BRANCH   3   4
ATOM      4  N   UNL A   1      33.107  27.728  21.995  1.00  0.00    -0.356 N 
ATOM      5  C   UNL A   1      33.337  26.393  22.071  1.00  0.00     0.225 C 
ATOM      6  O   UNL A   1      33.255  25.738  21.030  1.00  0.00    -0.275 OA
ATOM      7  H   UNL A   1      32.926  28.055  21.084  1.00  0.00     0.163 HD
BRANCH   5   8
ATOM      8  C   UNL A   1      33.637  25.681  23.374  1.00  0.00     0.107 C 
ATOM      9  N   UNL A   1      33.601  23.435  24.093  1.00  0.00    -0.312 N 
ATOM     10  C   UNL A   1      34.260  24.317  23.159  1.00  0.00     0.139 C 
ATOM     11  C   UNL A   1      32.501  24.034  24.703  1.00  0.00     0.227 C 
ATOM     12  C   UNL A   1      32.451  25.486  24.302  1.00  0.00     0.116 C 
ATOM     13  O   UNL A   1      31.701  23.533  25.484  1.00  0.00    -0.274 OA
BRANCH   9  14
ATOM     14  C   UNL A   1      34.013  22.094  24.290  1.00  0.00     0.045 A 
ATOM     15  C   UNL A   1      33.542  19.694  24.244  1.00  0.00     0.009 A 
ATOM     16  C   UNL A   1      34.827  19.449  24.744  1.00  0.00     0.015 A 
ATOM     17  C   UNL A   1      33.139  21.022  24.047  1.00  0.00     0.041 A 
ATOM     18  C   UNL A   1      35.702  20.502  25.001  1.00  0.00     0.003 A 
ATOM     19  C   UNL A   1      35.306  21.815  24.750  1.00  0.00     0.026 A 
BRANCH  15  20
ATOM     20  S   UNL A   1      32.530  18.254  23.912  1.00  0.00    -0.130 SA
ATOM     21  C   UNL A   1      33.387  16.925  24.800  1.00  0.00     0.091 C 
ENDBRANCH  15  20
ENDBRANCH   9  14
ENDBRANCH   5   8
ENDBRANCH   3   4
ENDBRANCH   2   3
ENDBRANCH   1   2
BRANCH   1  22
ATOM     22  C   UNL A   1      32.698  29.727  25.769  1.00  0.00     0.116 C 
BRANCH  22  23
ATOM     23  N   UNL A   1      32.425  31.069  26.267  1.00  0.00    -0.352 N 
ATOM     24  C   UNL A   1      33.120  31.804  27.198  1.00  0.00     0.251 C 
ATOM     25  H   UNL A   1      31.633  31.510  25.883  1.00  0.00     0.163 HD
ATOM     26  O   UNL A   1      32.667  32.872  27.600  1.00  0.00    -0.269 OA
BRANCH  24  27
ATOM     27  C   UNL A   1      34.395  31.284  27.734  1.00  0.00     0.039 A 
ATOM     28  C   UNL A   1      35.429  32.182  28.010  1.00  0.00     0.014 A 
ATOM     29  C   UNL A   1      34.551  29.923  28.003  1.00  0.00     0.014 A 
ATOM     30  C   UNL A   1      36.592  31.723  28.631  1.00  0.00     0.010 A 
ATOM     31  C   UNL A   1      35.677  29.482  28.695  1.00  0.00     0.010 A 
ATOM     32  C   UNL A   1      36.707  30.378  29.021  1.00  0.00    -0.014 A 
BRANCH  32  33
ATOM     33  C   UNL A   1      37.879  29.895  29.795  1.00  0.00     0.031 A 
ATOM     34  C   UNL A   1      38.140  30.412  31.183  1.00  0.00     0.074 A 
ATOM     35  C   UNL A   1      38.764  29.062  29.211  1.00  0.00     0.049 A 
ATOM     36  N   UNL A   1      39.141  30.154  31.984  1.00  0.00    -0.248 NA
ATOM     37  C   UNL A   1      37.161  31.362  31.737  1.00  0.00     0.031 C 
ATOM     38  C   UNL A   1      38.669  28.551  27.842  1.00  0.00     0.029 A 
ATOM     39  N   UNL A   1      39.933  28.518  29.684  1.00  0.00    -0.354 N 
ATOM     40  C   UNL A   1      38.934  30.932  33.116  1.00  0.00     0.074 A 
ATOM     41  C   UNL A   1      37.730  31.699  32.885  1.00  0.00     0.031 C 
ATOM     42  C   UNL A   1      39.729  27.768  27.587  1.00  0.00     0.029 A 
ATOM     43  C   UNL A   1      40.598  27.748  28.759  1.00  0.00     0.049 A 
ATOM     44  H   UNL A   1      40.264  28.667  30.599  1.00  0.00     0.167 HD
ATOM     45  C   UNL A   1      39.665  30.986  34.255  1.00  0.00     0.034 A 
ATOM     46  C   UNL A   1      41.782  27.107  28.839  1.00  0.00     0.034 A 
ATOM     47  C   UNL A   1      40.843  30.198  34.496  1.00  0.00     0.049 A 
ATOM     48  C   UNL A   1      42.560  27.164  30.125  1.00  0.00     0.074 A 
ATOM     49  C   UNL A   1      41.601  30.116  35.651  1.00  0.00     0.029 A 
ATOM     50  N   UNL A   1      41.447  29.370  33.562  1.00  0.00    -0.354 N 
ATOM     51  N   UNL A   1      42.263  27.779  31.243  1.00  0.00    -0.248 NA
ATOM     52  C   UNL A   1      43.822  26.411  30.172  1.00  0.00     0.031 C 
ATOM     53  C   UNL A   1      42.682  29.264  35.404  1.00  0.00     0.029 A 
ATOM     54  C   UNL A   1      42.576  28.784  34.108  1.00  0.00     0.049 A 
ATOM     55  H   UNL A   1      41.119  29.219  32.646  1.00  0.00     0.167 HD
ATOM     56  C   UNL A   1      43.278  27.459  32.137  1.00  0.00     0.074 A 
ATOM     57  C   UNL A   1      44.188  26.576  31.436  1.00  0.00     0.031 C 
ATOM     58  C   UNL A   1      43.449  27.870  33.418  1.00  0.00     0.034 A 
BRANCH  45  59
ATOM     59  C   UNL A   1      39.183  31.899  35.353  1.00  0.00     0.023 A 
ATOM     60  C   UNL A   1      38.220  31.438  36.274  1.00  0.00     0.012 A 
ATOM     61  C   UNL A   1      39.725  33.190  35.512  1.00  0.00     0.148 A 
ATOM     62  C   UNL A   1      37.775  32.259  37.310  1.00  0.00     0.002 A 
ATOM     63  C   UNL A   1      39.313  33.985  36.575  1.00  0.00     0.091 A 
ATOM     64  F   UNL A   1      40.625  33.620  34.616  1.00  0.00    -0.205 F 
ATOM     65  C   UNL A   1      38.329  33.526  37.466  1.00  0.00     0.022 A 
BRANCH  63  66
ATOM     66  S   UNL A   1      40.023  35.600  36.912  1.00  0.00     0.127 S 
ATOM     67  O   UNL A   1      39.384  35.944  38.182  1.00  0.00    -0.237 OA
ATOM     68  O   UNL A   1      41.450  35.292  37.011  1.00  0.00    -0.237 OA
ATOM     69  O   UNL A   1      39.659  36.443  35.782  1.00  0.00    -0.744 OA
ENDBRANCH  63  66
ENDBRANCH  45  59
BRANCH  46  70
ATOM     70  C   UNL A   1      42.280  26.312  27.680  1.00  0.00     0.023 A 
ATOM     71  C   UNL A   1      43.160  26.910  26.757  1.00  0.00     0.012 A 
ATOM     72  C   UNL A   1      41.904  24.968  27.498  1.00  0.00     0.148 A 
ATOM     73  C   UNL A   1      43.627  26.195  25.653  1.00  0.00     0.002 A 
ATOM     74  C   UNL A   1      42.418  24.243  26.429  1.00  0.00     0.091 A 
ATOM     75  F   UNL A   1      41.059  24.420  28.383  1.00  0.00    -0.205 F 
ATOM     76  C   UNL A   1      43.264  24.861  25.494  1.00  0.00     0.022 A 
BRANCH  74  77
ATOM     77  S   UNL A   1      42.112  22.486  26.219  1.00  0.00     0.127 S 
ATOM     78  O   UNL A   1      42.662  21.938  27.456  1.00  0.00    -0.237 OA
ATOM     79  O   UNL A   1      40.653  22.445  26.120  1.00  0.00    -0.237 OA
ATOM     80  O   UNL A   1      42.808  22.108  24.997  1.00  0.00    -0.744 OA
ENDBRANCH  74  77
ENDBRANCH  46  70
BRANCH  58  81
ATOM     81  C   UNL A   1      44.644  27.342  34.169  1.00  0.00     0.023 A 
ATOM     82  C   UNL A   1      45.842  28.085  34.200  1.00  0.00     0.012 A 
ATOM     83  C   UNL A   1      44.557  26.142  34.902  1.00  0.00     0.148 A 
ATOM     84  C   UNL A   1      46.944  27.623  34.921  1.00  0.00     0.002 A 
ATOM     85  C   UNL A   1      45.641  25.715  35.660  1.00  0.00     0.091 A 
ATOM     86  F   UNL A   1      43.416  25.441  34.845  1.00  0.00    -0.205 F 
ATOM     87  C   UNL A   1      46.839  26.447  35.659  1.00  0.00     0.022 A 
BRANCH  85  88
ATOM     88  S   UNL A   1      45.566  24.267  36.719  1.00  0.00     0.127 S 
ATOM     89  O   UNL A   1      46.948  24.169  37.187  1.00  0.00    -0.237 OA
ATOM     90  O   UNL A   1      44.604  24.681  37.740  1.00  0.00    -0.237 OA
ATOM     91  O   UNL A   1      45.115  23.171  35.872  1.00  0.00    -0.744 OA
ENDBRANCH  85  88
ENDBRANCH  58  81
ENDBRANCH  32  33
ENDBRANCH  24  27
ENDBRANCH  22  23
ENDBRANCH   1  22
TORSDOF 16
ENDMDL
MODEL 2
REMARK VINA RESULT:     -11.9      2.912      3.808
REMARK SMILES CSc1cccc(N2C[C@@H](C(=O)NCCCCNC(=O)c3ccc(-c4c5nc(c(-c6cccc(S(=O)(=O)[O-])c6F)c6ccc([nH]6)c(-c6cccc(S(=O)(=O)[O-])c6F)c6nc(c(-c7cccc(S(=O)(=O)[O-])c7F)c7ccc4[nH]7)C=C6)C=C5)cc3)CC2=O)c1
REMARK SMILES IDX 16 1 15 2 14 3 13 4 11 5 12 6 10 8 8 9 9 10 85 11 84 12
REMARK SMILES IDX 86 13 7 14 3 15 4 16 87 17 5 18 6 19 2 20 1 21 17 22 18 23
REMARK SMILES IDX 19 24 20 26 21 27 22 28 83 29 23 30 82 31 24 32 25 33 26 34
REMARK SMILES IDX 76 35 27 36 81 37 75 38 77 39 28 40 80 41 74 42 73 43 29 45
REMARK SMILES IDX 61 46 41 47 60 48 42 49 45 50 59 51 78 52 43 53 44 54 58 56
REMARK SMILES IDX 79 57 46 58 30 59 31 60 39 61 32 62 34 63 40 64 33 65 35 66
REMARK SMILES IDX 36 67 37 68 38 69 62 70 63 71 71 72 64 73 66 74 72 75 65 76
REMARK SMILES IDX 67 77 68 78 69 79 70 80 47 81 48 82 56 83 49 84 51 85 57 86
REMARK SMILES IDX 50 87 52 88 53 89 54 90 55 91
REMARK H PARENT 13 7 18 25 77 44 45 55
REMARK Flexibility Score: inf
ROOT
ATOM      1  C   UNL A   1      33.267  27.217  25.715  1.00  0.00     0.023 C 
ENDROOT
BRANCH   1   2
ATOM      2  C   UNL A   1      31.839  27.464  26.204  1.00  0.00     0.023 C 
BRANCH   2   3
ATOM      3  C   UNL A   1      30.863  26.318  25.942  1.00  0.00     0.116 C 
BRANCH   3   4
ATOM      4  N   UNL A   1      31.046  25.221  26.876  1.00  0.00    -0.356 N 
ATOM      5  C   UNL A   1      31.531  23.964  26.710  1.00  0.00     0.225 C 
ATOM      6  O   UNL A   1      31.613  23.246  27.709  1.00  0.00    -0.275 OA
ATOM      7  H   UNL A   1      30.768  25.428  27.798  1.00  0.00     0.163 HD
BRANCH   5   8
ATOM      8  C   UNL A   1      32.011  23.436  25.374  1.00  0.00     0.107 C 
ATOM      9  N   UNL A   1      32.831  21.365  24.598  1.00  0.00    -0.312 N 
ATOM     10  C   UNL A   1      31.653  21.979  25.164  1.00  0.00     0.139 C 
ATOM     11  C   UNL A   1      33.940  22.208  24.635  1.00  0.00     0.227 C 
ATOM     12  C   UNL A   1      33.502  23.568  25.116  1.00  0.00     0.116 C 
ATOM     13  O   UNL A   1      35.091  21.961  24.299  1.00  0.00    -0.274 OA
BRANCH   9  14
ATOM     14  C   UNL A   1      32.838  20.028  24.130  1.00  0.00     0.045 A 
ATOM     15  C   UNL A   1      33.421  17.671  24.431  1.00  0.00     0.009 A 
ATOM     16  C   UNL A   1      32.898  17.397  23.161  1.00  0.00     0.015 A 
ATOM     17  C   UNL A   1      33.408  18.994  24.892  1.00  0.00     0.041 A 
ATOM     18  C   UNL A   1      32.340  18.413  22.388  1.00  0.00     0.003 A 
ATOM     19  C   UNL A   1      32.287  19.716  22.881  1.00  0.00     0.026 A 
BRANCH  15  20
ATOM     20  S   UNL A   1      34.068  16.272  25.343  1.00  0.00    -0.130 SA
ATOM     21  C   UNL A   1      32.626  15.188  25.526  1.00  0.00     0.091 C 
ENDBRANCH  15  20
ENDBRANCH   9  14
ENDBRANCH   5   8
ENDBRANCH   3   4
ENDBRANCH   2   3
ENDBRANCH   1   2
BRANCH   1  22
ATOM     22  C   UNL A   1      34.338  28.083  26.369  1.00  0.00     0.116 C 
BRANCH  22  23
ATOM     23  N   UNL A   1      33.849  29.402  26.748  1.00  0.00    -0.352 N 
ATOM     24  C   UNL A   1      34.410  30.320  27.605  1.00  0.00     0.251 C 
ATOM     25  H   UNL A   1      32.998  29.674  26.333  1.00  0.00     0.163 HD
ATOM     26  O   UNL A   1      33.788  31.332  27.914  1.00  0.00    -0.269 OA
BRANCH  24  27
ATOM     27  C   UNL A   1      35.748  30.063  28.175  1.00  0.00     0.039 A 
ATOM     28  C   UNL A   1      35.846  29.557  29.473  1.00  0.00     0.014 A 
ATOM     29  C   UNL A   1      36.899  30.280  27.414  1.00  0.00     0.014 A 
ATOM     30  C   UNL A   1      37.095  29.193  29.979  1.00  0.00     0.010 A 
ATOM     31  C   UNL A   1      38.132  29.842  27.890  1.00  0.00     0.010 A 
ATOM     32  C   UNL A   1      38.243  29.289  29.174  1.00  0.00    -0.014 A 
BRANCH  32  33
ATOM     33  C   UNL A   1      39.560  28.790  29.646  1.00  0.00     0.031 A 
ATOM     34  C   UNL A   1      40.305  29.514  30.733  1.00  0.00     0.074 A 
ATOM     35  C   UNL A   1      40.131  27.735  29.029  1.00  0.00     0.049 A 
ATOM     36  N   UNL A   1      41.489  29.263  31.230  1.00  0.00    -0.248 NA
ATOM     37  C   UNL A   1      39.645  30.691  31.325  1.00  0.00     0.031 C 
ATOM     38  C   UNL A   1      39.548  26.994  27.908  1.00  0.00     0.029 A 
ATOM     39  N   UNL A   1      41.340  27.119  29.237  1.00  0.00    -0.354 N 
ATOM     40  C   UNL A   1      41.731  30.265  32.162  1.00  0.00     0.074 A 
ATOM     41  C   UNL A   1      40.586  31.149  32.138  1.00  0.00     0.031 C 
ATOM     42  C   UNL A   1      40.396  26.024  27.531  1.00  0.00     0.029 A 
ATOM     43  C   UNL A   1      41.598  26.095  28.356  1.00  0.00     0.049 A 
ATOM     44  H   UNL A   1      41.965  27.387  29.949  1.00  0.00     0.167 HD
ATOM     45  C   UNL A   1      42.797  30.422  32.982  1.00  0.00     0.034 A 
ATOM     46  C   UNL A   1      42.683  25.307  28.218  1.00  0.00     0.034 A 
ATOM     47  C   UNL A   1      43.919  29.524  33.028  1.00  0.00     0.049 A 
ATOM     48  C   UNL A   1      43.843  25.488  29.159  1.00  0.00     0.074 A 
ATOM     49  C   UNL A   1      45.004  29.547  33.886  1.00  0.00     0.029 A 
ATOM     50  N   UNL A   1      44.110  28.450  32.172  1.00  0.00    -0.354 N 
ATOM     51  N   UNL A   1      43.982  26.343  30.143  1.00  0.00    -0.248 NA
ATOM     52  C   UNL A   1      44.982  24.574  28.993  1.00  0.00     0.031 C 
ATOM     53  C   UNL A   1      45.869  28.509  33.526  1.00  0.00     0.029 A 
ATOM     54  C   UNL A   1      45.303  27.814  32.469  1.00  0.00     0.049 A 
ATOM     55  H   UNL A   1      43.489  28.180  31.458  1.00  0.00     0.167 HD
ATOM     56  C   UNL A   1      45.204  26.047  30.736  1.00  0.00     0.074 A 
ATOM     57  C   UNL A   1      45.756  24.919  30.014  1.00  0.00     0.031 C 
ATOM     58  C   UNL A   1      45.821  26.663  31.776  1.00  0.00     0.034 A 
BRANCH  45  59
ATOM     59  C   UNL A   1      42.781  31.590  33.935  1.00  0.00     0.023 A 
ATOM     60  C   UNL A   1      43.186  32.864  33.486  1.00  0.00     0.012 A 
ATOM     61  C   UNL A   1      42.310  31.442  35.254  1.00  0.00     0.148 A 
ATOM     62  C   UNL A   1      43.159  33.963  34.344  1.00  0.00     0.002 A 
ATOM     63  C   UNL A   1      42.241  32.551  36.089  1.00  0.00     0.091 A 
ATOM     64  F   UNL A   1      41.948  30.220  35.671  1.00  0.00    -0.205 F 
ATOM     65  C   UNL A   1      42.678  33.808  35.641  1.00  0.00     0.022 A 
BRANCH  63  66
ATOM     66  S   UNL A   1      41.560  32.474  37.749  1.00  0.00     0.127 S 
ATOM     67  O   UNL A   1      42.351  31.397  38.344  1.00  0.00    -0.237 OA
ATOM     68  O   UNL A   1      41.863  33.809  38.266  1.00  0.00    -0.237 OA
ATOM     69  O   UNL A   1      40.141  32.191  37.591  1.00  0.00    -0.744 OA
ENDBRANCH  63  66
ENDBRANCH  45  59
BRANCH  46  70
ATOM     70  C   UNL A   1      42.705  24.240  27.177  1.00  0.00     0.023 A 
ATOM     71  C   UNL A   1      43.372  24.474  25.959  1.00  0.00     0.012 A 
ATOM     72  C   UNL A   1      42.087  22.994  27.393  1.00  0.00     0.148 A 
ATOM     73  C   UNL A   1      43.391  23.500  24.960  1.00  0.00     0.002 A 
ATOM     74  C   UNL A   1      42.160  22.006  26.418  1.00  0.00     0.091 A 
ATOM     75  F   UNL A   1      41.450  22.795  28.556  1.00  0.00    -0.205 F 
ATOM     76  C   UNL A   1      42.794  22.264  25.193  1.00  0.00     0.022 A 
BRANCH  74  77
ATOM     77  S   UNL A   1      41.535  20.343  26.682  1.00  0.00     0.127 S 
ATOM     78  O   UNL A   1      42.307  19.915  27.846  1.00  0.00    -0.237 OA
ATOM     79  O   UNL A   1      40.117  20.592  26.939  1.00  0.00    -0.237 OA
ATOM     80  O   UNL A   1      41.804  19.621  25.446  1.00  0.00    -0.744 OA
ENDBRANCH  74  77
ENDBRANCH  46  70
BRANCH  58  81
ATOM     81  C   UNL A   1      47.148  26.110  32.229  1.00  0.00     0.023 A 
ATOM     82  C   UNL A   1      47.205  25.223  33.322  1.00  0.00     0.012 A 
ATOM     83  C   UNL A   1      48.329  26.417  31.525  1.00  0.00     0.148 A 
ATOM     84  C   UNL A   1      48.424  24.677  33.728  1.00  0.00     0.002 A 
ATOM     85  C   UNL A   1      49.530  25.829  31.902  1.00  0.00     0.091 A 
ATOM     86  F   UNL A   1      48.256  27.277  30.499  1.00  0.00    -0.205 F 
ATOM     87  C   UNL A   1      49.582  24.971  33.012  1.00  0.00     0.022 A 
BRANCH  85  88
ATOM     88  S   UNL A   1      51.053  26.070  30.981  1.00  0.00     0.127 S 
ATOM     89  O   UNL A   1      50.681  25.576  29.657  1.00  0.00    -0.237 OA
ATOM     90  O   UNL A   1      51.237  27.519  31.063  1.00  0.00    -0.237 OA
ATOM     91  O   UNL A   1      52.071  25.292  31.674  1.00  0.00    -0.744 OA
ENDBRANCH  85  88
ENDBRANCH  58  81
ENDBRANCH  32  33
ENDBRANCH  24  27
ENDBRANCH  22  23
ENDBRANCH   1  22
TORSDOF 16
ENDMDL
MODEL 3
REMARK VINA RESULT:     -11.9      2.524      8.128
REMARK SMILES CSc1cccc(N2C[C@@H](C(=O)NCCCCNC(=O)c3ccc(-c4c5nc(c(-c6cccc(S(=O)(=O)[O-])c6F)c6ccc([nH]6)c(-c6cccc(S(=O)(=O)[O-])c6F)c6nc(c(-c7cccc(S(=O)(=O)[O-])c7F)c7ccc4[nH]7)C=C6)C=C5)cc3)CC2=O)c1
REMARK SMILES IDX 16 1 15 2 14 3 13 4 11 5 12 6 10 8 8 9 9 10 85 11 84 12
REMARK SMILES IDX 86 13 7 14 3 15 4 16 87 17 5 18 6 19 2 20 1 21 17 22 18 23
REMARK SMILES IDX 19 24 20 26 21 27 22 28 83 29 23 30 82 31 24 32 25 33 26 34
REMARK SMILES IDX 76 35 27 36 81 37 75 38 77 39 28 40 80 41 74 42 73 43 29 45
REMARK SMILES IDX 61 46 41 47 60 48 42 49 45 50 59 51 78 52 43 53 44 54 58 56
REMARK SMILES IDX 79 57 46 58 30 59 31 60 39 61 32 62 34 63 40 64 33 65 35 66
REMARK SMILES IDX 36 67 37 68 38 69 62 70 63 71 71 72 64 73 66 74 72 75 65 76
REMARK SMILES IDX 67 77 68 78 69 79 70 80 47 81 48 82 56 83 49 84 51 85 57 86
REMARK SMILES IDX 50 87 52 88 53 89 54 90 55 91
REMARK H PARENT 13 7 18 25 77 44 45 55
REMARK Flexibility Score: inf
ROOT
ATOM      1  C   UNL A   1      32.037  31.420  27.021  1.00  0.00     0.023 C 
ENDROOT
BRANCH   1   2
ATOM      2  C   UNL A   1      32.446  29.979  26.710  1.00  0.00     0.023 C 
BRANCH   2   3
ATOM      3  C   UNL A   1      32.088  29.499  25.304  1.00  0.00     0.116 C 
BRANCH   3   4
ATOM      4  N   UNL A   1      33.254  29.409  24.444  1.00  0.00    -0.356 N 
ATOM      5  C   UNL A   1      33.640  28.472  23.541  1.00  0.00     0.225 C 
ATOM      6  O   UNL A   1      34.678  28.681  22.909  1.00  0.00    -0.275 OA
ATOM      7  H   UNL A   1      33.878  30.166  24.532  1.00  0.00     0.163 HD
BRANCH   5   8
ATOM      8  C   UNL A   1      32.832  27.225  23.251  1.00  0.00     0.107 C 
ATOM      9  N   UNL A   1      33.288  24.911  23.234  1.00  0.00    -0.312 N 
ATOM     10  C   UNL A   1      33.246  26.052  24.117  1.00  0.00     0.139 C 
ATOM     11  C   UNL A   1      33.166  25.271  21.894  1.00  0.00     0.227 C 
ATOM     12  C   UNL A   1      32.863  26.745  21.811  1.00  0.00     0.116 C 
ATOM     13  O   UNL A   1      33.233  24.549  20.907  1.00  0.00    -0.274 OA
BRANCH   9  14
ATOM     14  C   UNL A   1      33.501  23.592  23.709  1.00  0.00     0.045 A 
ATOM     15  C   UNL A   1      35.002  21.836  24.513  1.00  0.00     0.009 A 
ATOM     16  C   UNL A   1      33.911  20.962  24.589  1.00  0.00     0.015 A 
ATOM     17  C   UNL A   1      34.787  23.140  24.046  1.00  0.00     0.041 A 
ATOM     18  C   UNL A   1      32.631  21.391  24.246  1.00  0.00     0.003 A 
ATOM     19  C   UNL A   1      32.423  22.707  23.834  1.00  0.00     0.026 A 
BRANCH  15  20
ATOM     20  S   UNL A   1      36.587  21.177  25.024  1.00  0.00    -0.130 SA
ATOM     21  C   UNL A   1      37.548  22.662  25.427  1.00  0.00     0.091 C 
ENDBRANCH  15  20
ENDBRANCH   9  14
ENDBRANCH   5   8
ENDBRANCH   3   4
ENDBRANCH   2   3
ENDBRANCH   1   2
BRANCH   1  22
ATOM     22  C   UNL A   1      33.192  32.389  27.252  1.00  0.00     0.116 C 
BRANCH  22  23
ATOM     23  N   UNL A   1      32.746  33.735  27.586  1.00  0.00    -0.352 N 
ATOM     24  C   UNL A   1      33.184  34.567  28.589  1.00  0.00     0.251 C 
ATOM     25  H   UNL A   1      32.032  34.099  27.014  1.00  0.00     0.163 HD
ATOM     26  O   UNL A   1      32.598  35.623  28.810  1.00  0.00    -0.269 OA
BRANCH  24  27
ATOM     27  C   UNL A   1      34.340  34.167  29.417  1.00  0.00     0.039 A 
ATOM     28  C   UNL A   1      34.113  33.455  30.598  1.00  0.00     0.014 A 
ATOM     29  C   UNL A   1      35.643  34.455  29.007  1.00  0.00     0.014 A 
ATOM     30  C   UNL A   1      35.198  32.963  31.325  1.00  0.00     0.010 A 
ATOM     31  C   UNL A   1      36.720  33.896  29.689  1.00  0.00     0.010 A 
ATOM     32  C   UNL A   1      36.510  33.140  30.852  1.00  0.00    -0.014 A 
BRANCH  32  33
ATOM     33  C   UNL A   1      37.669  32.517  31.541  1.00  0.00     0.031 A 
ATOM     34  C   UNL A   1      38.412  31.376  30.902  1.00  0.00     0.074 A 
ATOM     35  C   UNL A   1      37.995  32.916  32.787  1.00  0.00     0.049 A 
ATOM     36  N   UNL A   1      39.405  30.670  31.377  1.00  0.00    -0.248 NA
ATOM     37  C   UNL A   1      37.967  30.955  29.562  1.00  0.00     0.031 C 
ATOM     38  C   UNL A   1      37.302  33.958  33.550  1.00  0.00     0.029 A 
ATOM     39  N   UNL A   1      38.973  32.477  33.644  1.00  0.00    -0.354 N 
ATOM     40  C   UNL A   1      39.679  29.703  30.417  1.00  0.00     0.074 A 
ATOM     41  C   UNL A   1      38.726  29.891  29.346  1.00  0.00     0.031 C 
ATOM     42  C   UNL A   1      37.879  34.079  34.756  1.00  0.00     0.029 A 
ATOM     43  C   UNL A   1      38.957  33.102  34.869  1.00  0.00     0.049 A 
ATOM     44  H   UNL A   1      39.625  31.778  33.405  1.00  0.00     0.167 HD
ATOM     45  C   UNL A   1      40.652  28.761  30.414  1.00  0.00     0.034 A 
ATOM     46  C   UNL A   1      39.715  32.904  35.966  1.00  0.00     0.034 A 
ATOM     47  C   UNL A   1      41.620  28.598  31.465  1.00  0.00     0.049 A 
ATOM     48  C   UNL A   1      40.805  31.868  35.926  1.00  0.00     0.074 A 
ATOM     49  C   UNL A   1      42.699  27.733  31.512  1.00  0.00     0.029 A 
ATOM     50  N   UNL A   1      41.620  29.302  32.659  1.00  0.00    -0.354 N 
ATOM     51  N   UNL A   1      41.151  31.072  34.944  1.00  0.00    -0.248 NA
ATOM     52  C   UNL A   1      41.630  31.724  37.134  1.00  0.00     0.031 C 
ATOM     53  C   UNL A   1      43.330  27.889  32.750  1.00  0.00     0.029 A 
ATOM     54  C   UNL A   1      42.669  28.880  33.458  1.00  0.00     0.049 A 
ATOM     55  H   UNL A   1      40.970  30.000  32.903  1.00  0.00     0.167 HD
ATOM     56  C   UNL A   1      42.255  30.361  35.400  1.00  0.00     0.074 A 
ATOM     57  C   UNL A   1      42.533  30.836  36.739  1.00  0.00     0.031 C 
ATOM     58  C   UNL A   1      42.966  29.392  34.771  1.00  0.00     0.034 A 
BRANCH  45  59
ATOM     59  C   UNL A   1      40.748  27.858  29.211  1.00  0.00     0.023 A 
ATOM     60  C   UNL A   1      39.918  26.723  29.121  1.00  0.00     0.012 A 
ATOM     61  C   UNL A   1      41.615  28.164  28.143  1.00  0.00     0.148 A 
ATOM     62  C   UNL A   1      39.975  25.885  28.008  1.00  0.00     0.002 A 
ATOM     63  C   UNL A   1      41.632  27.352  27.015  1.00  0.00     0.091 A 
ATOM     64  F   UNL A   1      42.412  29.237  28.253  1.00  0.00    -0.205 F 
ATOM     65  C   UNL A   1      40.823  26.205  26.952  1.00  0.00     0.022 A 
BRANCH  63  66
ATOM     66  S   UNL A   1      42.628  27.722  25.568  1.00  0.00     0.127 S 
ATOM     67  O   UNL A   1      42.530  26.473  24.814  1.00  0.00    -0.237 OA
ATOM     68  O   UNL A   1      41.904  28.849  24.978  1.00  0.00    -0.237 OA
ATOM     69  O   UNL A   1      43.957  28.047  26.066  1.00  0.00    -0.744 OA
ENDBRANCH  63  66
ENDBRANCH  45  59
BRANCH  46  70
ATOM     70  C   UNL A   1      39.502  33.741  37.182  1.00  0.00     0.023 A 
ATOM     71  C   UNL A   1      40.009  35.055  37.216  1.00  0.00     0.012 A 
ATOM     72  C   UNL A   1      38.788  33.252  38.292  1.00  0.00     0.148 A 
ATOM     73  C   UNL A   1      39.841  35.853  38.348  1.00  0.00     0.002 A 
ATOM     74  C   UNL A   1      38.573  34.072  39.394  1.00  0.00     0.091 A 
ATOM     75  F   UNL A   1      38.322  31.996  38.243  1.00  0.00    -0.205 F 
ATOM     76  C   UNL A   1      39.116  35.365  39.432  1.00  0.00     0.022 A 
BRANCH  74  77
ATOM     77  S   UNL A   1      37.541  33.577  40.778  1.00  0.00     0.127 S 
ATOM     78  O   UNL A   1      38.378  32.574  41.431  1.00  0.00    -0.237 OA
ATOM     79  O   UNL A   1      37.398  34.835  41.510  1.00  0.00    -0.237 OA
ATOM     80  O   UNL A   1      36.304  33.081  40.189  1.00  0.00    -0.744 OA
ENDBRANCH  74  77
ENDBRANCH  46  70
BRANCH  58  81
ATOM     81  C   UNL A   1      44.143  28.801  35.503  1.00  0.00     0.023 A 
ATOM     82  C   UNL A   1      45.431  29.346  35.325  1.00  0.00     0.012 A 
ATOM     83  C   UNL A   1      43.959  27.749  36.423  1.00  0.00     0.148 A 
ATOM     84  C   UNL A   1      46.521  28.830  36.025  1.00  0.00     0.002 A 
ATOM     85  C   UNL A   1      45.041  27.276  37.156  1.00  0.00     0.091 A 
ATOM     86  F   UNL A   1      42.730  27.233  36.565  1.00  0.00    -0.205 F 
ATOM     87  C   UNL A   1      46.325  27.805  36.947  1.00  0.00     0.022 A 
BRANCH  85  88
ATOM     88  S   UNL A   1      44.867  26.027  38.435  1.00  0.00     0.127 S 
ATOM     89  O   UNL A   1      46.251  25.859  38.876  1.00  0.00    -0.237 OA
ATOM     90  O   UNL A   1      43.996  26.696  39.402  1.00  0.00    -0.237 OA
ATOM     91  O   UNL A   1      44.273  24.866  37.787  1.00  0.00    -0.744 OA
ENDBRANCH  85  88
ENDBRANCH  58  81
ENDBRANCH  32  33
ENDBRANCH  24  27
ENDBRANCH  22  23
ENDBRANCH   1  22
TORSDOF 16
ENDMDL
