MODEL 1
REMARK VINA RESULT:     -12.5      0.000      0.000
REMARK SMILES O=C(NCCCCNC(=O)c1c(F)cccc1N1CC[C@@H]([NH+]2CCCCC2)C1)c1ccc(-c2c3nc(c(-c4cccc(S(=O)(=O)[O-])c4F)c4ccc([nH]4)c(-c4cccc(S(=O)(=O)[O-])c4F)c4nc(c(-c5cccc(S(=O)(=O)[O-])c5F)c5ccc2[nH]5)C=C4)C=C3)cc1
REMARK SMILES IDX 5 1 4 2 3 3 1 4 2 5 29 7 30 8 91 9 31 10 90 11 32 12 33 13
REMARK SMILES IDX 34 14 84 15 35 16 89 17 83 18 85 19 36 20 88 21 82 22 81 23
REMARK SMILES IDX 37 25 69 26 49 27 68 28 50 29 53 30 67 31 86 32 51 33 52 34
REMARK SMILES IDX 66 36 87 37 54 38 38 39 39 40 47 41 40 42 42 43 48 44 41 45
REMARK SMILES IDX 43 46 44 47 45 48 46 49 70 50 71 51 79 52 72 53 74 54 80 55
REMARK SMILES IDX 73 56 75 57 76 58 77 59 78 60 55 61 56 62 64 63 57 64 59 65
REMARK SMILES IDX 65 66 58 67 60 68 61 69 62 70 63 71 6 72 7 73 8 74 9 75
REMARK SMILES IDX 10 77 11 78 12 79 17 80 13 81 14 82 16 83 15 84 18 85 19 86
REMARK SMILES IDX 28 87 20 88 21 89 22 90 23 91 27 92 24 94 26 95 25 96
REMARK H PARENT 3 6 85 24 53 35 8 76 22 93
REMARK Flexibility Score: inf
ROOT
ATOM      1  C   UNL A   1      31.304  32.089  26.263  1.00  0.00     0.023 C 
ENDROOT
BRANCH   1   2
ATOM      2  C   UNL A   1      32.493  32.408  27.160  1.00  0.00     0.116 C 
BRANCH   2   3
ATOM      3  N   UNL A   1      32.534  33.794  27.598  1.00  0.00    -0.352 N 
ATOM      4  O   UNL A   1      33.217  35.586  28.773  1.00  0.00    -0.269 OA
ATOM      5  C   UNL A   1      33.419  34.420  28.445  1.00  0.00     0.251 C 
ATOM      6  H   UNL A   1      31.824  34.370  27.234  1.00  0.00     0.163 HD
BRANCH   5   7
ATOM      7  C   UNL A   1      34.582  33.681  28.990  1.00  0.00     0.039 A 
ATOM      8  C   UNL A   1      34.410  32.559  29.801  1.00  0.00     0.014 A 
ATOM      9  C   UNL A   1      35.872  34.126  28.681  1.00  0.00     0.014 A 
ATOM     10  C   UNL A   1      35.510  31.982  30.429  1.00  0.00     0.010 A 
ATOM     11  C   UNL A   1      36.983  33.489  29.244  1.00  0.00     0.010 A 
ATOM     12  C   UNL A   1      36.811  32.436  30.153  1.00  0.00    -0.014 A 
BRANCH  12  13
ATOM     13  C   UNL A   1      37.972  31.746  30.775  1.00  0.00     0.031 A 
ATOM     14  C   UNL A   1      38.364  32.001  32.205  1.00  0.00     0.074 A 
ATOM     15  C   UNL A   1      38.671  30.865  30.033  1.00  0.00     0.049 A 
ATOM     16  N   UNL A   1      39.329  31.454  32.900  1.00  0.00    -0.248 NA
ATOM     17  C   UNL A   1      37.582  32.998  32.954  1.00  0.00     0.031 C 
ATOM     18  C   UNL A   1      38.408  30.563  28.624  1.00  0.00     0.029 A 
ATOM     19  N   UNL A   1      39.735  30.059  30.352  1.00  0.00    -0.354 N 
ATOM     20  C   UNL A   1      39.293  32.057  34.152  1.00  0.00     0.074 A 
ATOM     21  C   UNL A   1      38.216  33.023  34.121  1.00  0.00     0.031 C 
ATOM     22  C   UNL A   1      39.259  29.613  28.210  1.00  0.00     0.029 A 
ATOM     23  C   UNL A   1      40.163  29.276  29.305  1.00  0.00     0.049 A 
ATOM     24  H   UNL A   1      40.152  30.043  31.244  1.00  0.00     0.167 HD
ATOM     25  C   UNL A   1      40.072  31.811  35.232  1.00  0.00     0.034 A 
ATOM     26  C   UNL A   1      41.174  28.390  29.226  1.00  0.00     0.034 A 
ATOM     27  C   UNL A   1      41.116  30.821  35.269  1.00  0.00     0.049 A 
ATOM     28  C   UNL A   1      42.010  28.128  30.444  1.00  0.00     0.074 A 
ATOM     29  C   UNL A   1      41.921  30.465  36.337  1.00  0.00     0.029 A 
ATOM     30  N   UNL A   1      41.500  30.029  34.199  1.00  0.00    -0.354 N 
ATOM     31  N   UNL A   1      41.886  28.629  31.649  1.00  0.00    -0.248 NA
ATOM     32  C   UNL A   1      43.111  27.165  30.303  1.00  0.00     0.031 C 
ATOM     33  C   UNL A   1      42.804  29.469  35.908  1.00  0.00     0.029 A 
ATOM     34  C   UNL A   1      42.535  29.191  34.577  1.00  0.00     0.049 A 
ATOM     35  H   UNL A   1      41.097  30.058  33.302  1.00  0.00     0.167 HD
ATOM     36  C   UNL A   1      42.879  28.031  32.414  1.00  0.00     0.074 A 
ATOM     37  C   UNL A   1      43.580  27.108  31.543  1.00  0.00     0.031 C 
ATOM     38  C   UNL A   1      43.194  28.243  33.715  1.00  0.00     0.034 A 
BRANCH  25  39
ATOM     39  C   UNL A   1      39.801  32.584  36.497  1.00  0.00     0.023 A 
ATOM     40  C   UNL A   1      40.486  33.795  36.724  1.00  0.00     0.012 A 
ATOM     41  C   UNL A   1      38.794  32.180  37.396  1.00  0.00     0.148 A 
ATOM     42  C   UNL A   1      40.184  34.584  37.834  1.00  0.00     0.002 A 
ATOM     43  C   UNL A   1      38.472  32.991  38.480  1.00  0.00     0.091 A 
ATOM     44  F   UNL A   1      38.165  31.017  37.171  1.00  0.00    -0.205 F 
ATOM     45  C   UNL A   1      39.170  34.189  38.704  1.00  0.00     0.022 A 
BRANCH  43  46
ATOM     46  S   UNL A   1      37.130  32.611  39.614  1.00  0.00     0.127 S 
ATOM     47  O   UNL A   1      35.968  32.686  38.729  1.00  0.00    -0.237 OA
ATOM     48  O   UNL A   1      37.472  31.259  40.055  1.00  0.00    -0.237 OA
ATOM     49  O   UNL A   1      37.186  33.625  40.657  1.00  0.00    -0.744 OA
ENDBRANCH  43  46
ENDBRANCH  25  39
BRANCH  26  50
ATOM     50  C   UNL A   1      41.393  27.647  27.953  1.00  0.00     0.023 A 
ATOM     51  C   UNL A   1      41.907  28.331  26.835  1.00  0.00     0.012 A 
ATOM     52  C   UNL A   1      41.182  26.257  27.871  1.00  0.00     0.148 A 
ATOM     53  C   UNL A   1      42.199  27.646  25.656  1.00  0.00     0.002 A 
ATOM     54  C   UNL A   1      41.531  25.570  26.715  1.00  0.00     0.091 A 
ATOM     55  F   UNL A   1      40.673  25.628  28.940  1.00  0.00    -0.205 F 
ATOM     56  C   UNL A   1      42.028  26.265  25.601  1.00  0.00     0.022 A 
BRANCH  54  57
ATOM     57  S   UNL A   1      41.492  23.777  26.616  1.00  0.00     0.127 S 
ATOM     58  O   UNL A   1      42.278  23.527  25.410  1.00  0.00    -0.237 OA
ATOM     59  O   UNL A   1      42.143  23.389  27.868  1.00  0.00    -0.237 OA
ATOM     60  O   UNL A   1      40.082  23.421  26.539  1.00  0.00    -0.744 OA
ENDBRANCH  54  57
ENDBRANCH  26  50
BRANCH  38  61
ATOM     61  C   UNL A   1      44.344  27.465  34.296  1.00  0.00     0.023 A 
ATOM     62  C   UNL A   1      45.648  27.990  34.207  1.00  0.00     0.012 A 
ATOM     63  C   UNL A   1      44.123  26.277  35.019  1.00  0.00     0.148 A 
ATOM     64  C   UNL A   1      46.718  27.334  34.813  1.00  0.00     0.002 A 
ATOM     65  C   UNL A   1      45.187  25.653  35.658  1.00  0.00     0.091 A 
ATOM     66  F   UNL A   1      42.877  25.785  35.075  1.00  0.00    -0.205 F 
ATOM     67  C   UNL A   1      46.487  26.175  35.550  1.00  0.00     0.022 A 
BRANCH  65  68
ATOM     68  S   UNL A   1      44.968  24.210  36.708  1.00  0.00     0.127 S 
ATOM     69  O   UNL A   1      44.134  24.747  37.781  1.00  0.00    -0.237 OA
ATOM     70  O   UNL A   1      44.283  23.276  35.812  1.00  0.00    -0.237 OA
ATOM     71  O   UNL A   1      46.307  23.794  37.103  1.00  0.00    -0.744 OA
ENDBRANCH  65  68
ENDBRANCH  38  61
ENDBRANCH  12  13
ENDBRANCH   5   7
ENDBRANCH   2   3
ENDBRANCH   1   2
BRANCH   1  72
ATOM     72  C   UNL A   1      31.153  30.629  25.845  1.00  0.00     0.023 C 
BRANCH  72  73
ATOM     73  C   UNL A   1      32.438  29.805  25.813  1.00  0.00     0.116 C 
BRANCH  73  74
ATOM     74  N   UNL A   1      32.982  29.633  24.478  1.00  0.00    -0.352 N 
ATOM     75  C   UNL A   1      32.448  28.948  23.409  1.00  0.00     0.256 C 
ATOM     76  H   UNL A   1      33.851  30.064  24.313  1.00  0.00     0.163 HD
ATOM     77  O   UNL A   1      33.030  28.943  22.328  1.00  0.00    -0.269 OA
BRANCH  75  78
ATOM     78  C   UNL A   1      31.192  28.196  23.582  1.00  0.00     0.098 A 
ATOM     79  C   UNL A   1      30.025  28.833  23.141  1.00  0.00     0.138 A 
ATOM     80  C   UNL A   1      31.164  26.868  24.066  1.00  0.00     0.053 A 
ATOM     81  F   UNL A   1      30.065  30.087  22.663  1.00  0.00    -0.206 F 
ATOM     82  C   UNL A   1      28.791  28.201  23.215  1.00  0.00     0.040 A 
ATOM     83  C   UNL A   1      29.902  26.242  24.088  1.00  0.00     0.027 A 
ATOM     84  C   UNL A   1      28.730  26.899  23.688  1.00  0.00     0.005 A 
BRANCH  80  85
ATOM     85  N   UNL A   1      32.260  26.178  24.530  1.00  0.00    -0.365 N 
ATOM     86  C   UNL A   1      32.603  26.023  25.931  1.00  0.00     0.123 C 
ATOM     87  C   UNL A   1      33.250  25.523  23.667  1.00  0.00     0.181 C 
ATOM     88  C   UNL A   1      34.108  25.825  25.909  1.00  0.00     0.088 C 
ATOM     89  C   UNL A   1      34.392  25.043  24.625  1.00  0.00     0.205 C 
BRANCH  89  90
ATOM     90  N   UNL A   1      34.554  23.577  24.714  1.00  0.00    -0.331 N 
ATOM     91  C   UNL A   1      35.236  23.025  25.882  1.00  0.00     0.262 C 
ATOM     92  C   UNL A   1      34.975  22.926  23.468  1.00  0.00     0.262 C 
ATOM     93  H   UNL A   1      33.581  23.319  24.880  1.00  0.00     0.348 HD
ATOM     94  C   UNL A   1      36.758  22.925  25.764  1.00  0.00     0.062 C 
ATOM     95  C   UNL A   1      36.487  22.843  23.253  1.00  0.00     0.062 C 
ATOM     96  C   UNL A   1      37.205  22.265  24.466  1.00  0.00     0.012 C 
ENDBRANCH  89  90
ENDBRANCH  80  85
ENDBRANCH  75  78
ENDBRANCH  73  74
ENDBRANCH  72  73
ENDBRANCH   1  72
TORSDOF 16
ENDMDL
MODEL 2
REMARK VINA RESULT:     -12.4      5.604      9.560
REMARK SMILES O=C(NCCCCNC(=O)c1c(F)cccc1N1CC[C@@H]([NH+]2CCCCC2)C1)c1ccc(-c2c3nc(c(-c4cccc(S(=O)(=O)[O-])c4F)c4ccc([nH]4)c(-c4cccc(S(=O)(=O)[O-])c4F)c4nc(c(-c5cccc(S(=O)(=O)[O-])c5F)c5ccc2[nH]5)C=C4)C=C3)cc1
REMARK SMILES IDX 5 1 4 2 3 3 1 4 2 5 29 7 30 8 91 9 31 10 90 11 32 12 33 13
REMARK SMILES IDX 34 14 84 15 35 16 89 17 83 18 85 19 36 20 88 21 82 22 81 23
REMARK SMILES IDX 37 25 69 26 49 27 68 28 50 29 53 30 67 31 86 32 51 33 52 34
REMARK SMILES IDX 66 36 87 37 54 38 38 39 39 40 47 41 40 42 42 43 48 44 41 45
REMARK SMILES IDX 43 46 44 47 45 48 46 49 70 50 71 51 79 52 72 53 74 54 80 55
REMARK SMILES IDX 73 56 75 57 76 58 77 59 78 60 55 61 56 62 64 63 57 64 59 65
REMARK SMILES IDX 65 66 58 67 60 68 61 69 62 70 63 71 6 72 7 73 8 74 9 75
REMARK SMILES IDX 10 77 11 78 12 79 17 80 13 81 14 82 16 83 15 84 18 85 19 86
REMARK SMILES IDX 28 87 20 88 21 89 22 90 23 91 27 92 24 94 26 95 25 96
REMARK H PARENT 3 6 85 24 53 35 8 76 22 93
REMARK Flexibility Score: inf
ROOT
ATOM      1  C   UNL A   1      38.117  19.574  24.770  1.00  0.00     0.023 C 
ENDROOT
BRANCH   1   2
ATOM      2  C   UNL A   1      38.985  20.113  25.899  1.00  0.00     0.116 C 
BRANCH   2   3
ATOM      3  N   UNL A   1      40.175  19.316  26.147  1.00  0.00    -0.352 N 
ATOM      4  O   UNL A   1      42.345  18.885  26.560  1.00  0.00    -0.269 OA
ATOM      5  C   UNL A   1      41.443  19.718  26.499  1.00  0.00     0.251 C 
ATOM      6  H   UNL A   1      40.056  18.343  26.049  1.00  0.00     0.163 HD
BRANCH   5   7
ATOM      7  C   UNL A   1      41.728  21.148  26.760  1.00  0.00     0.039 A 
ATOM      8  C   UNL A   1      41.550  22.114  25.768  1.00  0.00     0.014 A 
ATOM      9  C   UNL A   1      42.186  21.527  28.026  1.00  0.00     0.014 A 
ATOM     10  C   UNL A   1      41.976  23.420  25.987  1.00  0.00     0.010 A 
ATOM     11  C   UNL A   1      42.531  22.860  28.273  1.00  0.00     0.010 A 
ATOM     12  C   UNL A   1      42.466  23.811  27.245  1.00  0.00    -0.014 A 
BRANCH  12  13
ATOM     13  C   UNL A   1      42.836  25.233  27.475  1.00  0.00     0.031 A 
ATOM     14  C   UNL A   1      41.894  26.189  28.157  1.00  0.00     0.074 A 
ATOM     15  C   UNL A   1      44.049  25.657  27.072  1.00  0.00     0.049 A 
ATOM     16  N   UNL A   1      42.083  27.448  28.461  1.00  0.00    -0.248 NA
ATOM     17  C   UNL A   1      40.571  25.674  28.546  1.00  0.00     0.031 C 
ATOM     18  C   UNL A   1      45.033  24.831  26.367  1.00  0.00     0.029 A 
ATOM     19  N   UNL A   1      44.668  26.875  27.197  1.00  0.00    -0.354 N 
ATOM     20  C   UNL A   1      40.900  27.886  29.044  1.00  0.00     0.074 A 
ATOM     21  C   UNL A   1      39.991  26.760  29.044  1.00  0.00     0.031 C 
ATOM     22  C   UNL A   1      46.143  25.552  26.156  1.00  0.00     0.029 A 
ATOM     23  C   UNL A   1      45.934  26.905  26.661  1.00  0.00     0.049 A 
ATOM     24  H   UNL A   1      44.247  27.652  27.630  1.00  0.00     0.167 HD
ATOM     25  C   UNL A   1      40.609  29.107  29.552  1.00  0.00     0.034 A 
ATOM     26  C   UNL A   1      46.829  27.908  26.574  1.00  0.00     0.034 A 
ATOM     27  C   UNL A   1      41.532  30.211  29.586  1.00  0.00     0.049 A 
ATOM     28  C   UNL A   1      46.483  29.245  27.160  1.00  0.00     0.074 A 
ATOM     29  C   UNL A   1      41.343  31.470  30.129  1.00  0.00     0.029 A 
ATOM     30  N   UNL A   1      42.814  30.194  29.058  1.00  0.00    -0.354 N 
ATOM     31  N   UNL A   1      45.401  29.604  27.806  1.00  0.00    -0.248 NA
ATOM     32  C   UNL A   1      47.486  30.311  27.026  1.00  0.00     0.031 C 
ATOM     33  C   UNL A   1      42.503  32.219  29.916  1.00  0.00     0.029 A 
ATOM     34  C   UNL A   1      43.424  31.421  29.256  1.00  0.00     0.049 A 
ATOM     35  H   UNL A   1      43.229  29.423  28.609  1.00  0.00     0.167 HD
ATOM     36  C   UNL A   1      45.598  30.929  28.172  1.00  0.00     0.074 A 
ATOM     37  C   UNL A   1      46.916  31.303  27.699  1.00  0.00     0.031 C 
ATOM     38  C   UNL A   1      44.754  31.766  28.823  1.00  0.00     0.034 A 
BRANCH  25  39
ATOM     39  C   UNL A   1      39.251  29.316  30.171  1.00  0.00     0.023 A 
ATOM     40  C   UNL A   1      38.985  28.776  31.445  1.00  0.00     0.012 A 
ATOM     41  C   UNL A   1      38.287  30.138  29.553  1.00  0.00     0.148 A 
ATOM     42  C   UNL A   1      37.775  29.037  32.088  1.00  0.00     0.002 A 
ATOM     43  C   UNL A   1      37.100  30.425  30.217  1.00  0.00     0.091 A 
ATOM     44  F   UNL A   1      38.553  30.630  28.334  1.00  0.00    -0.205 F 
ATOM     45  C   UNL A   1      36.839  29.870  31.481  1.00  0.00     0.022 A 
BRANCH  43  46
ATOM     46  S   UNL A   1      35.863  31.550  29.556  1.00  0.00     0.127 S 
ATOM     47  O   UNL A   1      35.226  30.719  28.535  1.00  0.00    -0.237 OA
ATOM     48  O   UNL A   1      35.030  31.817  30.729  1.00  0.00    -0.237 OA
ATOM     49  O   UNL A   1      36.596  32.703  29.055  1.00  0.00    -0.744 OA
ENDBRANCH  43  46
ENDBRANCH  25  39
BRANCH  26  50
ATOM     50  C   UNL A   1      48.160  27.644  25.959  1.00  0.00     0.023 A 
ATOM     51  C   UNL A   1      49.219  27.197  26.772  1.00  0.00     0.012 A 
ATOM     52  C   UNL A   1      48.358  27.747  24.568  1.00  0.00     0.148 A 
ATOM     53  C   UNL A   1      50.452  26.864  26.212  1.00  0.00     0.002 A 
ATOM     54  C   UNL A   1      49.568  27.357  24.010  1.00  0.00     0.091 A 
ATOM     55  F   UNL A   1      47.343  28.194  23.814  1.00  0.00    -0.205 F 
ATOM     56  C   UNL A   1      50.622  26.928  24.831  1.00  0.00     0.022 A 
BRANCH  54  57
ATOM     57  S   UNL A   1      49.817  27.257  22.233  1.00  0.00     0.127 S 
ATOM     58  O   UNL A   1      51.195  26.780  22.150  1.00  0.00    -0.237 OA
ATOM     59  O   UNL A   1      48.801  26.280  21.839  1.00  0.00    -0.237 OA
ATOM     60  O   UNL A   1      49.579  28.603  21.729  1.00  0.00    -0.744 OA
ENDBRANCH  54  57
ENDBRANCH  26  50
BRANCH  38  61
ATOM     61  C   UNL A   1      45.218  33.176  29.076  1.00  0.00     0.023 A 
ATOM     62  C   UNL A   1      45.918  33.471  30.261  1.00  0.00     0.012 A 
ATOM     63  C   UNL A   1      45.056  34.177  28.098  1.00  0.00     0.148 A 
ATOM     64  C   UNL A   1      46.435  34.747  30.479  1.00  0.00     0.002 A 
ATOM     65  C   UNL A   1      45.613  35.434  28.302  1.00  0.00     0.091 A 
ATOM     66  F   UNL A   1      44.370  33.879  26.985  1.00  0.00    -0.205 F 
ATOM     67  C   UNL A   1      46.295  35.723  29.495  1.00  0.00     0.022 A 
BRANCH  65  68
ATOM     68  S   UNL A   1      45.565  36.723  27.051  1.00  0.00     0.127 S 
ATOM     69  O   UNL A   1      46.183  36.051  25.909  1.00  0.00    -0.237 OA
ATOM     70  O   UNL A   1      44.129  36.967  26.910  1.00  0.00    -0.237 OA
ATOM     71  O   UNL A   1      46.317  37.843  27.600  1.00  0.00    -0.744 OA
ENDBRANCH  65  68
ENDBRANCH  38  61
ENDBRANCH  12  13
ENDBRANCH   5   7
ENDBRANCH   2   3
ENDBRANCH   1   2
BRANCH   1  72
ATOM     72  C   UNL A   1      36.664  20.044  24.761  1.00  0.00     0.023 C 
BRANCH  72  73
ATOM     73  C   UNL A   1      36.400  21.418  25.369  1.00  0.00     0.116 C 
BRANCH  73  74
ATOM     74  N   UNL A   1      35.435  21.396  26.453  1.00  0.00    -0.352 N 
ATOM     75  C   UNL A   1      34.070  21.225  26.392  1.00  0.00     0.256 C 
ATOM     76  H   UNL A   1      35.807  21.520  27.357  1.00  0.00     0.163 HD
ATOM     77  O   UNL A   1      33.407  21.189  27.426  1.00  0.00    -0.269 OA
BRANCH  75  78
ATOM     78  C   UNL A   1      33.409  21.118  25.080  1.00  0.00     0.098 A 
ATOM     79  C   UNL A   1      33.202  19.819  24.596  1.00  0.00     0.138 A 
ATOM     80  C   UNL A   1      32.913  22.246  24.387  1.00  0.00     0.053 A 
ATOM     81  F   UNL A   1      33.659  18.754  25.272  1.00  0.00    -0.206 F 
ATOM     82  C   UNL A   1      32.550  19.599  23.390  1.00  0.00     0.040 A 
ATOM     83  C   UNL A   1      32.220  21.983  23.189  1.00  0.00     0.027 A 
ATOM     84  C   UNL A   1      32.055  20.685  22.685  1.00  0.00     0.005 A 
BRANCH  80  85
ATOM     85  N   UNL A   1      33.085  23.551  24.786  1.00  0.00    -0.365 N 
ATOM     86  C   UNL A   1      34.160  24.415  24.336  1.00  0.00     0.123 C 
ATOM     87  C   UNL A   1      32.215  24.243  25.746  1.00  0.00     0.181 C 
ATOM     88  C   UNL A   1      34.320  25.406  25.475  1.00  0.00     0.088 C 
ATOM     89  C   UNL A   1      32.907  25.620  26.024  1.00  0.00     0.205 C 
BRANCH  89  90
ATOM     90  N   UNL A   1      32.146  26.802  25.570  1.00  0.00    -0.331 N 
ATOM     91  C   UNL A   1      32.856  27.838  24.823  1.00  0.00     0.262 C 
ATOM     92  C   UNL A   1      31.231  27.367  26.567  1.00  0.00     0.262 C 
ATOM     93  H   UNL A   1      31.577  26.357  24.849  1.00  0.00     0.348 HD
ATOM     94  C   UNL A   1      33.521  28.919  25.677  1.00  0.00     0.062 C 
ATOM     95  C   UNL A   1      31.844  28.414  27.498  1.00  0.00     0.062 C 
ATOM     96  C   UNL A   1      32.584  29.500  26.727  1.00  0.00     0.012 C 
ENDBRANCH  89  90
ENDBRANCH  80  85
ENDBRANCH  75  78
ENDBRANCH  73  74
ENDBRANCH  72  73
ENDBRANCH   1  72
TORSDOF 16
ENDMDL
MODEL 3
REMARK VINA RESULT:     -12.3      0.333      7.446
REMARK SMILES O=C(NCCCCNC(=O)c1c(F)cccc1N1CC[C@@H]([NH+]2CCCCC2)C1)c1ccc(-c2c3nc(c(-c4cccc(S(=O)(=O)[O-])c4F)c4ccc([nH]4)c(-c4cccc(S(=O)(=O)[O-])c4F)c4nc(c(-c5cccc(S(=O)(=O)[O-])c5F)c5ccc2[nH]5)C=C4)C=C3)cc1
REMARK SMILES IDX 5 1 4 2 3 3 1 4 2 5 29 7 30 8 91 9 31 10 90 11 32 12 33 13
REMARK SMILES IDX 34 14 84 15 35 16 89 17 83 18 85 19 36 20 88 21 82 22 81 23
REMARK SMILES IDX 37 25 69 26 49 27 68 28 50 29 53 30 67 31 86 32 51 33 52 34
REMARK SMILES IDX 66 36 87 37 54 38 38 39 39 40 47 41 40 42 42 43 48 44 41 45
REMARK SMILES IDX 43 46 44 47 45 48 46 49 70 50 71 51 79 52 72 53 74 54 80 55
REMARK SMILES IDX 73 56 75 57 76 58 77 59 78 60 55 61 56 62 64 63 57 64 59 65
REMARK SMILES IDX 65 66 58 67 60 68 61 69 62 70 63 71 6 72 7 73 8 74 9 75
REMARK SMILES IDX 10 77 11 78 12 79 17 80 13 81 14 82 16 83 15 84 18 85 19 86
REMARK SMILES IDX 28 87 20 88 21 89 22 90 23 91 27 92 24 94 26 95 25 96
REMARK H PARENT 3 6 85 24 53 35 8 76 22 93
REMARK Flexibility Score: inf
ROOT
ATOM      1  C   UNL A   1      31.152  32.203  26.162  1.00  0.00     0.023 C 
ENDROOT
BRANCH   1   2
ATOM      2  C   UNL A   1      32.413  32.549  26.943  1.00  0.00     0.116 C 
BRANCH   2   3
ATOM      3  N   UNL A   1      32.437  33.918  27.430  1.00  0.00    -0.352 N 
ATOM      4  O   UNL A   1      33.070  35.667  28.697  1.00  0.00    -0.269 OA
ATOM      5  C   UNL A   1      33.285  34.512  28.337  1.00  0.00     0.251 C 
ATOM      6  H   UNL A   1      31.744  34.509  27.056  1.00  0.00     0.163 HD
BRANCH   5   7
ATOM      7  C   UNL A   1      34.421  33.751  28.907  1.00  0.00     0.039 A 
ATOM      8  C   UNL A   1      34.213  32.588  29.649  1.00  0.00     0.014 A 
ATOM      9  C   UNL A   1      35.723  34.217  28.692  1.00  0.00     0.014 A 
ATOM     10  C   UNL A   1      35.281  31.984  30.307  1.00  0.00     0.010 A 
ATOM     11  C   UNL A   1      36.806  33.557  29.282  1.00  0.00     0.010 A 
ATOM     12  C   UNL A   1      36.592  32.457  30.126  1.00  0.00    -0.014 A 
BRANCH  12  13
ATOM     13  C   UNL A   1      37.723  31.742  30.774  1.00  0.00     0.031 A 
ATOM     14  C   UNL A   1      38.555  30.740  30.019  1.00  0.00     0.074 A 
ATOM     15  C   UNL A   1      38.006  32.016  32.062  1.00  0.00     0.049 A 
ATOM     16  N   UNL A   1      39.594  30.060  30.433  1.00  0.00    -0.248 NA
ATOM     17  C   UNL A   1      38.176  30.460  28.624  1.00  0.00     0.031 C 
ATOM     18  C   UNL A   1      37.246  32.941  32.907  1.00  0.00     0.029 A 
ATOM     19  N   UNL A   1      39.003  31.557  32.885  1.00  0.00    -0.354 N 
ATOM     20  C   UNL A   1      39.974  29.251  29.369  1.00  0.00     0.074 A 
ATOM     21  C   UNL A   1      39.047  29.515  28.289  1.00  0.00     0.031 C 
ATOM     22  C   UNL A   1      37.825  33.010  34.115  1.00  0.00     0.029 A 
ATOM     23  C   UNL A   1      38.963  32.097  34.149  1.00  0.00     0.049 A 
ATOM     24  H   UNL A   1      39.682  30.904  32.599  1.00  0.00     0.167 HD
ATOM     25  C   UNL A   1      41.012  28.385  29.294  1.00  0.00     0.034 A 
ATOM     26  C   UNL A   1      39.746  31.881  35.224  1.00  0.00     0.034 A 
ATOM     27  C   UNL A   1      41.955  28.156  30.358  1.00  0.00     0.049 A 
ATOM     28  C   UNL A   1      40.898  30.927  35.105  1.00  0.00     0.074 A 
ATOM     29  C   UNL A   1      43.070  27.337  30.353  1.00  0.00     0.029 A 
ATOM     30  N   UNL A   1      41.897  28.743  31.612  1.00  0.00    -0.354 N 
ATOM     31  N   UNL A   1      41.305  30.258  34.055  1.00  0.00    -0.248 NA
ATOM     32  C   UNL A   1      41.713  30.713  36.309  1.00  0.00     0.031 C 
ATOM     33  C   UNL A   1      43.678  27.415  31.609  1.00  0.00     0.029 A 
ATOM     34  C   UNL A   1      42.951  28.298  32.392  1.00  0.00     0.049 A 
ATOM     35  H   UNL A   1      41.208  29.381  31.906  1.00  0.00     0.167 HD
ATOM     36  C   UNL A   1      42.432  29.557  34.463  1.00  0.00     0.074 A 
ATOM     37  C   UNL A   1      42.661  29.905  35.852  1.00  0.00     0.031 C 
ATOM     38  C   UNL A   1      43.196  28.688  33.757  1.00  0.00     0.034 A 
BRANCH  25  39
ATOM     39  C   UNL A   1      41.234  27.648  27.998  1.00  0.00     0.023 A 
ATOM     40  C   UNL A   1      41.699  28.358  26.873  1.00  0.00     0.012 A 
ATOM     41  C   UNL A   1      41.097  26.247  27.923  1.00  0.00     0.148 A 
ATOM     42  C   UNL A   1      42.010  27.688  25.689  1.00  0.00     0.002 A 
ATOM     43  C   UNL A   1      41.445  25.583  26.752  1.00  0.00     0.091 A 
ATOM     44  F   UNL A   1      40.637  25.592  28.999  1.00  0.00    -0.205 F 
ATOM     45  C   UNL A   1      41.896  26.302  25.633  1.00  0.00     0.022 A 
BRANCH  43  46
ATOM     46  S   UNL A   1      41.408  23.792  26.603  1.00  0.00     0.127 S 
ATOM     47  O   UNL A   1      42.044  23.380  27.854  1.00  0.00    -0.237 OA
ATOM     48  O   UNL A   1      39.973  23.517  26.530  1.00  0.00    -0.237 OA
ATOM     49  O   UNL A   1      42.151  23.474  25.392  1.00  0.00    -0.744 OA
ENDBRANCH  43  46
ENDBRANCH  25  39
BRANCH  26  50
ATOM     50  C   UNL A   1      39.488  32.642  36.478  1.00  0.00     0.023 A 
ATOM     51  C   UNL A   1      40.094  33.900  36.659  1.00  0.00     0.012 A 
ATOM     52  C   UNL A   1      38.580  32.172  37.447  1.00  0.00     0.148 A 
ATOM     53  C   UNL A   1      39.807  34.671  37.785  1.00  0.00     0.002 A 
ATOM     54  C   UNL A   1      38.252  32.970  38.535  1.00  0.00     0.091 A 
ATOM     55  F   UNL A   1      38.028  30.963  37.265  1.00  0.00    -0.205 F 
ATOM     56  C   UNL A   1      38.875  34.215  38.713  1.00  0.00     0.022 A 
BRANCH  54  57
ATOM     57  S   UNL A   1      36.948  32.529  39.690  1.00  0.00     0.127 S 
ATOM     58  O   UNL A   1      35.770  32.533  38.825  1.00  0.00    -0.237 OA
ATOM     59  O   UNL A   1      37.377  31.205  40.141  1.00  0.00    -0.237 OA
ATOM     60  O   UNL A   1      36.980  33.554  40.724  1.00  0.00    -0.744 OA
ENDBRANCH  54  57
ENDBRANCH  26  50
BRANCH  38  61
ATOM     61  C   UNL A   1      44.362  28.045  34.459  1.00  0.00     0.023 A 
ATOM     62  C   UNL A   1      45.587  28.736  34.541  1.00  0.00     0.012 A 
ATOM     63  C   UNL A   1      44.215  26.813  35.127  1.00  0.00     0.148 A 
ATOM     64  C   UNL A   1      46.654  28.202  35.261  1.00  0.00     0.002 A 
ATOM     65  C   UNL A   1      45.269  26.309  35.879  1.00  0.00     0.091 A 
ATOM     66  F   UNL A   1      43.047  26.164  35.020  1.00  0.00    -0.205 F 
ATOM     67  C   UNL A   1      46.491  26.998  35.941  1.00  0.00     0.022 A 
BRANCH  65  68
ATOM     68  S   UNL A   1      45.119  24.814  36.865  1.00  0.00     0.127 S 
ATOM     69  O   UNL A   1      43.972  25.132  37.714  1.00  0.00    -0.237 OA
ATOM     70  O   UNL A   1      44.860  23.795  35.847  1.00  0.00    -0.237 OA
ATOM     71  O   UNL A   1      46.389  24.663  37.561  1.00  0.00    -0.744 OA
ENDBRANCH  65  68
ENDBRANCH  38  61
ENDBRANCH  12  13
ENDBRANCH   5   7
ENDBRANCH   2   3
ENDBRANCH   1   2
BRANCH   1  72
ATOM     72  C   UNL A   1      31.001  30.742  25.747  1.00  0.00     0.023 C 
BRANCH  72  73
ATOM     73  C   UNL A   1      32.275  29.902  25.775  1.00  0.00     0.116 C 
BRANCH  73  74
ATOM     74  N   UNL A   1      32.858  29.692  24.462  1.00  0.00    -0.352 N 
ATOM     75  C   UNL A   1      32.367  28.958  23.405  1.00  0.00     0.256 C 
ATOM     76  H   UNL A   1      33.723  30.134  24.304  1.00  0.00     0.163 HD
ATOM     77  O   UNL A   1      32.979  28.925  22.341  1.00  0.00    -0.269 OA
BRANCH  75  78
ATOM     78  C   UNL A   1      31.121  28.188  23.572  1.00  0.00     0.098 A 
ATOM     79  C   UNL A   1      29.941  28.826  23.168  1.00  0.00     0.138 A 
ATOM     80  C   UNL A   1      31.113  26.845  24.014  1.00  0.00     0.053 A 
ATOM     81  F   UNL A   1      29.962  30.095  22.730  1.00  0.00    -0.206 F 
ATOM     82  C   UNL A   1      28.715  28.180  23.240  1.00  0.00     0.040 A 
ATOM     83  C   UNL A   1      29.859  26.206  24.035  1.00  0.00     0.027 A 
ATOM     84  C   UNL A   1      28.674  26.863  23.673  1.00  0.00     0.005 A 
BRANCH  80  85
ATOM     85  N   UNL A   1      32.223  26.153  24.440  1.00  0.00    -0.365 N 
ATOM     86  C   UNL A   1      32.611  25.992  25.828  1.00  0.00     0.123 C 
ATOM     87  C   UNL A   1      33.185  25.500  23.543  1.00  0.00     0.181 C 
ATOM     88  C   UNL A   1      34.114  25.793  25.757  1.00  0.00     0.088 C 
ATOM     89  C   UNL A   1      34.357  25.015  24.462  1.00  0.00     0.205 C 
BRANCH  89  90
ATOM     90  N   UNL A   1      34.520  23.549  24.540  1.00  0.00    -0.331 N 
ATOM     91  C   UNL A   1      35.097  22.979  25.755  1.00  0.00     0.262 C 
ATOM     92  C   UNL A   1      35.055  22.922  23.326  1.00  0.00     0.262 C 
ATOM     93  H   UNL A   1      33.537  23.283  24.614  1.00  0.00     0.348 HD
ATOM     94  C   UNL A   1      36.624  22.889  25.772  1.00  0.00     0.062 C 
ATOM     95  C   UNL A   1      36.580  22.850  23.246  1.00  0.00     0.062 C 
ATOM     96  C   UNL A   1      37.190  22.255  24.509  1.00  0.00     0.012 C 
ENDBRANCH  89  90
ENDBRANCH  80  85
ENDBRANCH  75  78
ENDBRANCH  73  74
ENDBRANCH  72  73
ENDBRANCH   1  72
TORSDOF 16
ENDMDL
