MODEL 1
REMARK VINA RESULT:     -12.2      0.000      0.000
REMARK SMILES O=C(NCCCCNC(=O)[C@@H]1CCN(C(=O)c2c(F)cc(Br)cc2F)C1)c1ccc(-c2c3nc(c(-c4cccc(S(=O)(=O)[O-])c4F)c4ccc([nH]4)c(-c4cccc(S(=O)(=O)[O-])c4F)c4nc(c(-c5cccc(S(=O)(=O)[O-])c5F)c5ccc2[nH]5)C=C4)C=C3)cc1
REMARK SMILES IDX 5 1 4 2 3 3 1 4 2 5 27 7 28 8 89 9 29 10 88 11 30 12 31 13
REMARK SMILES IDX 32 14 82 15 33 16 87 17 81 18 83 19 34 20 86 21 80 22 79 23
REMARK SMILES IDX 35 25 67 26 47 27 66 28 48 29 51 30 65 31 84 32 49 33 50 34
REMARK SMILES IDX 64 36 85 37 52 38 36 39 37 40 45 41 38 42 40 43 46 44 39 45
REMARK SMILES IDX 41 46 42 47 43 48 44 49 68 50 69 51 77 52 70 53 72 54 78 55
REMARK SMILES IDX 71 56 73 57 74 58 75 59 76 60 53 61 54 62 62 63 55 64 57 65
REMARK SMILES IDX 63 66 56 67 58 68 59 69 60 70 61 71 6 72 7 73 8 74 9 75
REMARK SMILES IDX 10 77 11 78 12 79 26 80 13 81 14 82 15 83 16 84 17 85 18 86
REMARK SMILES IDX 24 87 19 88 20 89 23 90 25 91 21 92 22 93
REMARK H PARENT 3 6 83 24 51 35 8 76
REMARK Flexibility Score: inf
ROOT
ATOM      1  C   UNL A   1      31.501  31.737  26.590  1.00  0.00     0.023 C 
ENDROOT
BRANCH   1   2
ATOM      2  C   UNL A   1      32.683  32.425  27.263  1.00  0.00     0.116 C 
BRANCH   2   3
ATOM      3  N   UNL A   1      32.462  33.833  27.558  1.00  0.00    -0.352 N 
ATOM      4  O   UNL A   1      32.821  35.773  28.665  1.00  0.00    -0.269 OA
ATOM      5  C   UNL A   1      33.158  34.618  28.456  1.00  0.00     0.251 C 
ATOM      6  H   UNL A   1      31.736  34.275  27.062  1.00  0.00     0.163 HD
BRANCH   5   7
ATOM      7  C   UNL A   1      34.286  34.001  29.183  1.00  0.00     0.039 A 
ATOM      8  C   UNL A   1      35.594  34.245  28.760  1.00  0.00     0.014 A 
ATOM      9  C   UNL A   1      34.025  33.094  30.212  1.00  0.00     0.014 A 
ATOM     10  C   UNL A   1      36.627  33.465  29.258  1.00  0.00     0.010 A 
ATOM     11  C   UNL A   1      35.083  32.377  30.777  1.00  0.00     0.010 A 
ATOM     12  C   UNL A   1      36.386  32.530  30.279  1.00  0.00    -0.014 A 
BRANCH  12  13
ATOM     13  C   UNL A   1      37.535  31.802  30.871  1.00  0.00     0.031 A 
ATOM     14  C   UNL A   1      38.309  30.778  30.090  1.00  0.00     0.074 A 
ATOM     15  C   UNL A   1      37.877  32.095  32.140  1.00  0.00     0.049 A 
ATOM     16  N   UNL A   1      39.349  30.079  30.467  1.00  0.00    -0.248 NA
ATOM     17  C   UNL A   1      37.863  30.489  28.717  1.00  0.00     0.031 C 
ATOM     18  C   UNL A   1      37.160  33.039  33.002  1.00  0.00     0.029 A 
ATOM     19  N   UNL A   1      38.903  31.642  32.927  1.00  0.00    -0.354 N 
ATOM     20  C   UNL A   1      39.652  29.235  29.405  1.00  0.00     0.074 A 
ATOM     21  C   UNL A   1      38.693  29.514  28.359  1.00  0.00     0.031 C 
ATOM     22  C   UNL A   1      37.786  33.121  34.183  1.00  0.00     0.029 A 
ATOM     23  C   UNL A   1      38.909  32.195  34.186  1.00  0.00     0.049 A 
ATOM     24  H   UNL A   1      39.569  30.986  32.620  1.00  0.00     0.167 HD
ATOM     25  C   UNL A   1      40.649  28.322  29.313  1.00  0.00     0.034 A 
ATOM     26  C   UNL A   1      39.719  31.967  35.238  1.00  0.00     0.034 A 
ATOM     27  C   UNL A   1      41.631  28.092  30.340  1.00  0.00     0.049 A 
ATOM     28  C   UNL A   1      40.841  30.985  35.083  1.00  0.00     0.074 A 
ATOM     29  C   UNL A   1      42.727  27.248  30.308  1.00  0.00     0.029 A 
ATOM     30  N   UNL A   1      41.637  28.705  31.585  1.00  0.00    -0.354 N 
ATOM     31  N   UNL A   1      41.189  30.297  34.023  1.00  0.00    -0.248 NA
ATOM     32  C   UNL A   1      41.692  30.761  36.257  1.00  0.00     0.031 C 
ATOM     33  C   UNL A   1      43.388  27.340  31.537  1.00  0.00     0.029 A 
ATOM     34  C   UNL A   1      42.708  28.249  32.333  1.00  0.00     0.049 A 
ATOM     35  H   UNL A   1      40.975  29.367  31.891  1.00  0.00     0.167 HD
ATOM     36  C   UNL A   1      42.303  29.562  34.399  1.00  0.00     0.074 A 
ATOM     37  C   UNL A   1      42.596  29.920  35.772  1.00  0.00     0.031 C 
ATOM     38  C   UNL A   1      43.005  28.650  33.683  1.00  0.00     0.034 A 
BRANCH  25  39
ATOM     39  C   UNL A   1      40.771  27.521  28.042  1.00  0.00     0.023 A 
ATOM     40  C   UNL A   1      41.369  28.106  26.910  1.00  0.00     0.012 A 
ATOM     41  C   UNL A   1      40.400  26.162  28.006  1.00  0.00     0.148 A 
ATOM     42  C   UNL A   1      41.588  27.355  25.755  1.00  0.00     0.002 A 
ATOM     43  C   UNL A   1      40.650  25.411  26.862  1.00  0.00     0.091 A 
ATOM     44  F   UNL A   1      39.814  25.630  29.089  1.00  0.00    -0.205 F 
ATOM     45  C   UNL A   1      41.241  26.006  25.735  1.00  0.00     0.022 A 
BRANCH  43  46
ATOM     46  S   UNL A   1      40.301  23.651  26.761  1.00  0.00     0.127 S 
ATOM     47  O   UNL A   1      38.886  23.652  26.390  1.00  0.00    -0.237 OA
ATOM     48  O   UNL A   1      41.209  23.215  25.698  1.00  0.00    -0.237 OA
ATOM     49  O   UNL A   1      40.602  23.105  28.078  1.00  0.00    -0.744 OA
ENDBRANCH  43  46
ENDBRANCH  25  39
BRANCH  26  50
ATOM     50  C   UNL A   1      39.505  32.721  36.503  1.00  0.00     0.023 A 
ATOM     51  C   UNL A   1      40.163  33.950  36.699  1.00  0.00     0.012 A 
ATOM     52  C   UNL A   1      38.596  32.267  37.477  1.00  0.00     0.148 A 
ATOM     53  C   UNL A   1      39.929  34.704  37.850  1.00  0.00     0.002 A 
ATOM     54  C   UNL A   1      38.319  33.054  38.589  1.00  0.00     0.091 A 
ATOM     55  F   UNL A   1      37.994  31.084  37.289  1.00  0.00    -0.205 F 
ATOM     56  C   UNL A   1      38.996  34.265  38.787  1.00  0.00     0.022 A 
BRANCH  54  57
ATOM     57  S   UNL A   1      37.000  32.615  39.727  1.00  0.00     0.127 S 
ATOM     58  O   UNL A   1      35.828  32.648  38.859  1.00  0.00    -0.237 OA
ATOM     59  O   UNL A   1      37.399  31.279  40.175  1.00  0.00    -0.237 OA
ATOM     60  O   UNL A   1      37.061  33.629  40.773  1.00  0.00    -0.744 OA
ENDBRANCH  54  57
ENDBRANCH  26  50
BRANCH  38  61
ATOM     61  C   UNL A   1      44.152  27.972  34.379  1.00  0.00     0.023 A 
ATOM     62  C   UNL A   1      45.434  28.553  34.318  1.00  0.00     0.012 A 
ATOM     63  C   UNL A   1      43.957  26.797  35.128  1.00  0.00     0.148 A 
ATOM     64  C   UNL A   1      46.513  27.959  34.971  1.00  0.00     0.002 A 
ATOM     65  C   UNL A   1      45.028  26.232  35.809  1.00  0.00     0.091 A 
ATOM     66  F   UNL A   1      42.734  26.246  35.152  1.00  0.00    -0.205 F 
ATOM     67  C   UNL A   1      46.308  26.805  35.724  1.00  0.00     0.022 A 
BRANCH  65  68
ATOM     68  S   UNL A   1      44.830  24.794  36.866  1.00  0.00     0.127 S 
ATOM     69  O   UNL A   1      44.409  23.774  35.907  1.00  0.00    -0.237 OA
ATOM     70  O   UNL A   1      46.180  24.606  37.401  1.00  0.00    -0.237 OA
ATOM     71  O   UNL A   1      43.837  25.172  37.864  1.00  0.00    -0.744 OA
ENDBRANCH  65  68
ENDBRANCH  38  61
ENDBRANCH  12  13
ENDBRANCH   5   7
ENDBRANCH   2   3
ENDBRANCH   1   2
BRANCH   1  72
ATOM     72  C   UNL A   1      31.780  30.324  26.087  1.00  0.00     0.023 C 
BRANCH  72  73
ATOM     73  C   UNL A   1      33.256  29.922  26.111  1.00  0.00     0.116 C 
BRANCH  73  74
ATOM     74  N   UNL A   1      33.665  29.302  24.866  1.00  0.00    -0.356 N 
ATOM     75  C   UNL A   1      33.548  28.070  24.323  1.00  0.00     0.224 C 
ATOM     76  H   UNL A   1      34.141  29.928  24.275  1.00  0.00     0.163 HD
ATOM     77  O   UNL A   1      34.067  27.939  23.205  1.00  0.00    -0.275 OA
BRANCH  75  78
ATOM     78  C   UNL A   1      32.847  26.857  24.930  1.00  0.00     0.099 C 
ATOM     79  C   UNL A   1      33.370  26.108  26.140  1.00  0.00     0.037 C 
ATOM     80  C   UNL A   1      32.740  25.738  23.885  1.00  0.00     0.133 C 
ATOM     81  C   UNL A   1      34.337  25.096  25.549  1.00  0.00     0.120 C 
ATOM     82  N   UNL A   1      33.735  24.743  24.277  1.00  0.00    -0.338 N 
BRANCH  82  83
ATOM     83  C   UNL A   1      34.016  23.679  23.435  1.00  0.00     0.259 C 
ATOM     84  O   UNL A   1      34.631  23.822  22.380  1.00  0.00    -0.269 OA
BRANCH  83  85
ATOM     85  C   UNL A   1      33.688  22.307  23.857  1.00  0.00     0.111 A 
ATOM     86  C   UNL A   1      32.493  21.666  23.549  1.00  0.00     0.140 A 
ATOM     87  C   UNL A   1      34.654  21.604  24.579  1.00  0.00     0.140 A 
ATOM     88  F   UNL A   1      31.576  22.242  22.759  1.00  0.00    -0.206 F 
ATOM     89  C   UNL A   1      32.222  20.384  24.031  1.00  0.00     0.056 A 
ATOM     90  C   UNL A   1      34.415  20.311  25.039  1.00  0.00     0.056 A 
ATOM     91  F   UNL A   1      35.838  22.162  24.872  1.00  0.00    -0.206 F 
ATOM     92  C   UNL A   1      33.186  19.714  24.780  1.00  0.00     0.023 A 
ATOM     93  Br  UNL A   1      32.827  17.980  25.437  1.00  0.00    -0.051 Br
ENDBRANCH  83  85
ENDBRANCH  82  83
ENDBRANCH  75  78
ENDBRANCH  73  74
ENDBRANCH  72  73
ENDBRANCH   1  72
TORSDOF 16
ENDMDL
MODEL 2
REMARK VINA RESULT:     -12.1      6.013     11.338
REMARK SMILES O=C(NCCCCNC(=O)[C@@H]1CCN(C(=O)c2c(F)cc(Br)cc2F)C1)c1ccc(-c2c3nc(c(-c4cccc(S(=O)(=O)[O-])c4F)c4ccc([nH]4)c(-c4cccc(S(=O)(=O)[O-])c4F)c4nc(c(-c5cccc(S(=O)(=O)[O-])c5F)c5ccc2[nH]5)C=C4)C=C3)cc1
REMARK SMILES IDX 5 1 4 2 3 3 1 4 2 5 27 7 28 8 89 9 29 10 88 11 30 12 31 13
REMARK SMILES IDX 32 14 82 15 33 16 87 17 81 18 83 19 34 20 86 21 80 22 79 23
REMARK SMILES IDX 35 25 67 26 47 27 66 28 48 29 51 30 65 31 84 32 49 33 50 34
REMARK SMILES IDX 64 36 85 37 52 38 36 39 37 40 45 41 38 42 40 43 46 44 39 45
REMARK SMILES IDX 41 46 42 47 43 48 44 49 68 50 69 51 77 52 70 53 72 54 78 55
REMARK SMILES IDX 71 56 73 57 74 58 75 59 76 60 53 61 54 62 62 63 55 64 57 65
REMARK SMILES IDX 63 66 56 67 58 68 59 69 60 70 61 71 6 72 7 73 8 74 9 75
REMARK SMILES IDX 10 77 11 78 12 79 26 80 13 81 14 82 15 83 16 84 17 85 18 86
REMARK SMILES IDX 24 87 19 88 20 89 23 90 25 91 21 92 22 93
REMARK H PARENT 3 6 83 24 51 35 8 76
REMARK Flexibility Score: inf
ROOT
ATOM      1  C   UNL A   1      37.568  19.512  24.991  1.00  0.00     0.023 C 
ENDROOT
BRANCH   1   2
ATOM      2  C   UNL A   1      38.754  20.092  25.752  1.00  0.00     0.116 C 
BRANCH   2   3
ATOM      3  N   UNL A   1      39.909  19.208  25.816  1.00  0.00    -0.352 N 
ATOM      4  O   UNL A   1      42.100  18.719  26.105  1.00  0.00    -0.269 OA
ATOM      5  C   UNL A   1      41.202  19.546  26.165  1.00  0.00     0.251 C 
ATOM      6  H   UNL A   1      39.751  18.265  25.585  1.00  0.00     0.163 HD
BRANCH   5   7
ATOM      7  C   UNL A   1      41.467  20.942  26.565  1.00  0.00     0.039 A 
ATOM      8  C   UNL A   1      41.030  21.988  25.749  1.00  0.00     0.014 A 
ATOM      9  C   UNL A   1      42.247  21.197  27.695  1.00  0.00     0.014 A 
ATOM     10  C   UNL A   1      41.505  23.272  25.973  1.00  0.00     0.010 A 
ATOM     11  C   UNL A   1      42.647  22.507  27.970  1.00  0.00     0.010 A 
ATOM     12  C   UNL A   1      42.310  23.548  27.091  1.00  0.00    -0.014 A 
BRANCH  12  13
ATOM     13  C   UNL A   1      42.699  24.953  27.365  1.00  0.00     0.031 A 
ATOM     14  C   UNL A   1      41.760  25.918  28.032  1.00  0.00     0.074 A 
ATOM     15  C   UNL A   1      43.936  25.344  27.003  1.00  0.00     0.049 A 
ATOM     16  N   UNL A   1      41.969  27.168  28.355  1.00  0.00    -0.248 NA
ATOM     17  C   UNL A   1      40.414  25.431  28.376  1.00  0.00     0.031 C 
ATOM     18  C   UNL A   1      44.909  24.498  26.305  1.00  0.00     0.029 A 
ATOM     19  N   UNL A   1      44.592  26.534  27.168  1.00  0.00    -0.354 N 
ATOM     20  C   UNL A   1      40.774  27.633  28.892  1.00  0.00     0.074 A 
ATOM     21  C   UNL A   1      39.842  26.526  28.863  1.00  0.00     0.031 C 
ATOM     22  C   UNL A   1      46.046  25.183  26.132  1.00  0.00     0.029 A 
ATOM     23  C   UNL A   1      45.867  26.532  26.651  1.00  0.00     0.049 A 
ATOM     24  H   UNL A   1      44.191  27.314  27.615  1.00  0.00     0.167 HD
ATOM     25  C   UNL A   1      40.490  28.867  29.375  1.00  0.00     0.034 A 
ATOM     26  C   UNL A   1      46.785  27.513  26.583  1.00  0.00     0.034 A 
ATOM     27  C   UNL A   1      41.444  29.943  29.448  1.00  0.00     0.049 A 
ATOM     28  C   UNL A   1      46.454  28.851  27.171  1.00  0.00     0.074 A 
ATOM     29  C   UNL A   1      41.276  31.204  29.995  1.00  0.00     0.029 A 
ATOM     30  N   UNL A   1      42.741  29.891  28.960  1.00  0.00    -0.354 N 
ATOM     31  N   UNL A   1      45.364  29.227  27.794  1.00  0.00    -0.248 NA
ATOM     32  C   UNL A   1      47.481  29.894  27.065  1.00  0.00     0.031 C 
ATOM     33  C   UNL A   1      42.467  31.917  29.825  1.00  0.00     0.029 A 
ATOM     34  C   UNL A   1      43.379  31.098  29.180  1.00  0.00     0.049 A 
ATOM     35  H   UNL A   1      43.146  29.109  28.519  1.00  0.00     0.167 HD
ATOM     36  C   UNL A   1      45.574  30.548  28.161  1.00  0.00     0.074 A 
ATOM     37  C   UNL A   1      46.913  30.894  27.726  1.00  0.00     0.031 C 
ATOM     38  C   UNL A   1      44.726  31.408  28.776  1.00  0.00     0.034 A 
BRANCH  25  39
ATOM     39  C   UNL A   1      39.105  29.126  29.909  1.00  0.00     0.023 A 
ATOM     40  C   UNL A   1      38.804  28.792  31.243  1.00  0.00     0.012 A 
ATOM     41  C   UNL A   1      38.145  29.801  29.129  1.00  0.00     0.148 A 
ATOM     42  C   UNL A   1      37.563  29.116  31.793  1.00  0.00     0.002 A 
ATOM     43  C   UNL A   1      36.922  30.148  29.693  1.00  0.00     0.091 A 
ATOM     44  F   UNL A   1      38.446  30.092  27.855  1.00  0.00    -0.205 F 
ATOM     45  C   UNL A   1      36.628  29.804  31.023  1.00  0.00     0.022 A 
BRANCH  43  46
ATOM     46  S   UNL A   1      35.676  31.093  28.807  1.00  0.00     0.127 S 
ATOM     47  O   UNL A   1      35.023  30.051  28.016  1.00  0.00    -0.237 OA
ATOM     48  O   UNL A   1      34.861  31.632  29.897  1.00  0.00    -0.237 OA
ATOM     49  O   UNL A   1      36.403  32.096  28.040  1.00  0.00    -0.744 OA
ENDBRANCH  43  46
ENDBRANCH  25  39
BRANCH  26  50
ATOM     50  C   UNL A   1      48.111  27.233  25.967  1.00  0.00     0.023 A 
ATOM     51  C   UNL A   1      49.127  26.642  26.742  1.00  0.00     0.012 A 
ATOM     52  C   UNL A   1      48.346  27.476  24.600  1.00  0.00     0.148 A 
ATOM     53  C   UNL A   1      50.356  26.314  26.170  1.00  0.00     0.002 A 
ATOM     54  C   UNL A   1      49.549  27.087  24.022  1.00  0.00     0.091 A 
ATOM     55  F   UNL A   1      47.378  28.061  23.879  1.00  0.00    -0.205 F 
ATOM     56  C   UNL A   1      50.562  26.520  24.807  1.00  0.00     0.022 A 
BRANCH  54  57
ATOM     57  S   UNL A   1      49.789  27.171  22.244  1.00  0.00     0.127 S 
ATOM     58  O   UNL A   1      48.701  26.333  21.751  1.00  0.00    -0.237 OA
ATOM     59  O   UNL A   1      49.638  28.601  21.970  1.00  0.00    -0.237 OA
ATOM     60  O   UNL A   1      51.141  26.670  22.029  1.00  0.00    -0.744 OA
ENDBRANCH  54  57
ENDBRANCH  26  50
BRANCH  38  61
ATOM     61  C   UNL A   1      45.222  32.808  29.007  1.00  0.00     0.023 A 
ATOM     62  C   UNL A   1      45.836  33.128  30.234  1.00  0.00     0.012 A 
ATOM     63  C   UNL A   1      45.129  33.787  28.000  1.00  0.00     0.148 A 
ATOM     64  C   UNL A   1      46.324  34.412  30.468  1.00  0.00     0.002 A 
ATOM     65  C   UNL A   1      45.654  35.055  28.226  1.00  0.00     0.091 A 
ATOM     66  F   UNL A   1      44.518  33.470  26.849  1.00  0.00    -0.205 F 
ATOM     67  C   UNL A   1      46.242  35.371  29.461  1.00  0.00     0.022 A 
BRANCH  65  68
ATOM     68  S   UNL A   1      45.661  36.321  26.952  1.00  0.00     0.127 S 
ATOM     69  O   UNL A   1      44.261  36.738  26.938  1.00  0.00    -0.237 OA
ATOM     70  O   UNL A   1      46.587  37.313  27.499  1.00  0.00    -0.237 OA
ATOM     71  O   UNL A   1      46.136  35.660  25.743  1.00  0.00    -0.744 OA
ENDBRANCH  65  68
ENDBRANCH  38  61
ENDBRANCH  12  13
ENDBRANCH   5   7
ENDBRANCH   2   3
ENDBRANCH   1   2
BRANCH   1  72
ATOM     72  C   UNL A   1      36.314  20.380  24.997  1.00  0.00     0.023 C 
BRANCH  72  73
ATOM     73  C   UNL A   1      36.479  21.729  25.698  1.00  0.00     0.116 C 
BRANCH  73  74
ATOM     74  N   UNL A   1      35.349  22.032  26.554  1.00  0.00    -0.356 N 
ATOM     75  C   UNL A   1      34.193  22.718  26.414  1.00  0.00     0.224 C 
ATOM     76  H   UNL A   1      35.447  21.645  27.454  1.00  0.00     0.163 HD
ATOM     77  O   UNL A   1      33.480  22.756  27.426  1.00  0.00    -0.275 OA
BRANCH  75  78
ATOM     78  C   UNL A   1      33.687  23.422  25.157  1.00  0.00     0.099 C 
ATOM     79  C   UNL A   1      34.438  24.544  24.468  1.00  0.00     0.037 C 
ATOM     80  C   UNL A   1      32.325  24.074  25.436  1.00  0.00     0.133 C 
ATOM     81  C   UNL A   1      33.976  25.793  25.201  1.00  0.00     0.120 C 
ATOM     82  N   UNL A   1      32.594  25.506  25.536  1.00  0.00    -0.338 N 
BRANCH  82  83
ATOM     83  C   UNL A   1      31.594  26.367  25.958  1.00  0.00     0.259 C 
ATOM     84  O   UNL A   1      31.291  26.490  27.144  1.00  0.00    -0.269 OA
BRANCH  83  85
ATOM     85  C   UNL A   1      30.945  27.266  24.989  1.00  0.00     0.111 A 
ATOM     86  C   UNL A   1      29.975  26.858  24.081  1.00  0.00     0.140 A 
ATOM     87  C   UNL A   1      31.309  28.614  25.014  1.00  0.00     0.140 A 
ATOM     88  F   UNL A   1      29.497  25.606  24.088  1.00  0.00    -0.206 F 
ATOM     89  C   UNL A   1      29.444  27.751  23.148  1.00  0.00     0.056 A 
ATOM     90  C   UNL A   1      30.764  29.527  24.114  1.00  0.00     0.056 A 
ATOM     91  F   UNL A   1      32.214  29.069  25.893  1.00  0.00    -0.206 F 
ATOM     92  C   UNL A   1      29.847  29.084  23.167  1.00  0.00     0.023 A 
ATOM     93  Br  UNL A   1      29.134  30.299  21.909  1.00  0.00    -0.051 Br
ENDBRANCH  83  85
ENDBRANCH  82  83
ENDBRANCH  75  78
ENDBRANCH  73  74
ENDBRANCH  72  73
ENDBRANCH   1  72
TORSDOF 16
ENDMDL
MODEL 3
REMARK VINA RESULT:     -11.9      2.039      7.950
REMARK SMILES O=C(NCCCCNC(=O)[C@@H]1CCN(C(=O)c2c(F)cc(Br)cc2F)C1)c1ccc(-c2c3nc(c(-c4cccc(S(=O)(=O)[O-])c4F)c4ccc([nH]4)c(-c4cccc(S(=O)(=O)[O-])c4F)c4nc(c(-c5cccc(S(=O)(=O)[O-])c5F)c5ccc2[nH]5)C=C4)C=C3)cc1
REMARK SMILES IDX 5 1 4 2 3 3 1 4 2 5 27 7 28 8 89 9 29 10 88 11 30 12 31 13
REMARK SMILES IDX 32 14 82 15 33 16 87 17 81 18 83 19 34 20 86 21 80 22 79 23
REMARK SMILES IDX 35 25 67 26 47 27 66 28 48 29 51 30 65 31 84 32 49 33 50 34
REMARK SMILES IDX 64 36 85 37 52 38 36 39 37 40 45 41 38 42 40 43 46 44 39 45
REMARK SMILES IDX 41 46 42 47 43 48 44 49 68 50 69 51 77 52 70 53 72 54 78 55
REMARK SMILES IDX 71 56 73 57 74 58 75 59 76 60 53 61 54 62 62 63 55 64 57 65
REMARK SMILES IDX 63 66 56 67 58 68 59 69 60 70 61 71 6 72 7 73 8 74 9 75
REMARK SMILES IDX 10 77 11 78 12 79 26 80 13 81 14 82 15 83 16 84 17 85 18 86
REMARK SMILES IDX 24 87 19 88 20 89 23 90 25 91 21 92 22 93
REMARK H PARENT 3 6 83 24 51 35 8 76
REMARK Flexibility Score: inf
ROOT
ATOM      1  C   UNL A   1      32.728  28.834  24.008  1.00  0.00     0.023 C 
ENDROOT
BRANCH   1   2
ATOM      2  C   UNL A   1      33.270  29.228  25.376  1.00  0.00     0.116 C 
BRANCH   2   3
ATOM      3  N   UNL A   1      32.693  30.451  25.915  1.00  0.00    -0.352 N 
ATOM      4  O   UNL A   1      32.585  32.214  27.330  1.00  0.00    -0.269 OA
ATOM      5  C   UNL A   1      33.210  31.249  26.916  1.00  0.00     0.251 C 
ATOM      6  H   UNL A   1      31.840  30.742  25.522  1.00  0.00     0.163 HD
BRANCH   5   7
ATOM      7  C   UNL A   1      34.515  30.870  27.497  1.00  0.00     0.039 A 
ATOM      8  C   UNL A   1      34.694  29.583  28.008  1.00  0.00     0.014 A 
ATOM      9  C   UNL A   1      35.514  31.836  27.629  1.00  0.00     0.014 A 
ATOM     10  C   UNL A   1      35.807  29.309  28.789  1.00  0.00     0.010 A 
ATOM     11  C   UNL A   1      36.677  31.526  28.338  1.00  0.00     0.010 A 
ATOM     12  C   UNL A   1      36.816  30.273  28.955  1.00  0.00    -0.014 A 
BRANCH  12  13
ATOM     13  C   UNL A   1      38.046  29.903  29.696  1.00  0.00     0.031 A 
ATOM     14  C   UNL A   1      38.328  30.429  31.075  1.00  0.00     0.074 A 
ATOM     15  C   UNL A   1      38.912  29.064  29.095  1.00  0.00     0.049 A 
ATOM     16  N   UNL A   1      39.349  30.174  31.853  1.00  0.00    -0.248 NA
ATOM     17  C   UNL A   1      37.351  31.362  31.660  1.00  0.00     0.031 C 
ATOM     18  C   UNL A   1      38.757  28.534  27.737  1.00  0.00     0.029 A 
ATOM     19  N   UNL A   1      40.082  28.506  29.535  1.00  0.00    -0.354 N 
ATOM     20  C   UNL A   1      39.168  30.949  32.993  1.00  0.00     0.074 A 
ATOM     21  C   UNL A   1      37.931  31.678  32.813  1.00  0.00     0.031 C 
ATOM     22  C   UNL A   1      39.772  27.704  27.468  1.00  0.00     0.029 A 
ATOM     23  C   UNL A   1      40.680  27.686  28.606  1.00  0.00     0.049 A 
ATOM     24  H   UNL A   1      40.458  28.674  30.430  1.00  0.00     0.167 HD
ATOM     25  C   UNL A   1      39.959  31.031  34.089  1.00  0.00     0.034 A 
ATOM     26  C   UNL A   1      41.843  27.010  28.655  1.00  0.00     0.034 A 
ATOM     27  C   UNL A   1      41.159  30.259  34.279  1.00  0.00     0.049 A 
ATOM     28  C   UNL A   1      42.668  27.085  29.904  1.00  0.00     0.074 A 
ATOM     29  C   UNL A   1      41.984  30.211  35.390  1.00  0.00     0.029 A 
ATOM     30  N   UNL A   1      41.710  29.402  33.337  1.00  0.00    -0.354 N 
ATOM     31  N   UNL A   1      42.409  27.720  31.021  1.00  0.00    -0.248 NA
ATOM     32  C   UNL A   1      43.932  26.341  29.909  1.00  0.00     0.031 C 
ATOM     33  C   UNL A   1      43.039  29.335  35.114  1.00  0.00     0.029 A 
ATOM     34  C   UNL A   1      42.867  28.831  33.835  1.00  0.00     0.049 A 
ATOM     35  H   UNL A   1      41.331  29.227  32.445  1.00  0.00     0.167 HD
ATOM     36  C   UNL A   1      43.474  27.448  31.866  1.00  0.00     0.074 A 
ATOM     37  C   UNL A   1      44.362  26.557  31.146  1.00  0.00     0.031 C 
ATOM     38  C   UNL A   1      43.714  27.915  33.116  1.00  0.00     0.034 A 
BRANCH  25  39
ATOM     39  C   UNL A   1      39.542  31.955  35.205  1.00  0.00     0.023 A 
ATOM     40  C   UNL A   1      39.810  33.333  35.100  1.00  0.00     0.012 A 
ATOM     41  C   UNL A   1      38.787  31.476  36.295  1.00  0.00     0.148 A 
ATOM     42  C   UNL A   1      39.344  34.222  36.068  1.00  0.00     0.002 A 
ATOM     43  C   UNL A   1      38.299  32.373  37.240  1.00  0.00     0.091 A 
ATOM     44  F   UNL A   1      38.560  30.158  36.385  1.00  0.00    -0.205 F 
ATOM     45  C   UNL A   1      38.580  33.745  37.130  1.00  0.00     0.022 A 
BRANCH  43  46
ATOM     46  S   UNL A   1      37.249  31.867  38.608  1.00  0.00     0.127 S 
ATOM     47  O   UNL A   1      37.019  30.456  38.295  1.00  0.00    -0.237 OA
ATOM     48  O   UNL A   1      38.112  32.102  39.765  1.00  0.00    -0.237 OA
ATOM     49  O   UNL A   1      36.070  32.721  38.545  1.00  0.00    -0.744 OA
ENDBRANCH  43  46
ENDBRANCH  25  39
BRANCH  26  50
ATOM     50  C   UNL A   1      42.255  26.178  27.492  1.00  0.00     0.023 A 
ATOM     51  C   UNL A   1      43.110  26.723  26.515  1.00  0.00     0.012 A 
ATOM     52  C   UNL A   1      41.871  24.827  27.388  1.00  0.00     0.148 A 
ATOM     53  C   UNL A   1      43.559  25.943  25.450  1.00  0.00     0.002 A 
ATOM     54  C   UNL A   1      42.375  24.038  26.361  1.00  0.00     0.091 A 
ATOM     55  F   UNL A   1      41.038  24.326  28.313  1.00  0.00    -0.205 F 
ATOM     56  C   UNL A   1      43.207  24.597  25.381  1.00  0.00     0.022 A 
BRANCH  54  57
ATOM     57  S   UNL A   1      42.091  22.265  26.333  1.00  0.00     0.127 S 
ATOM     58  O   UNL A   1      42.657  21.847  27.612  1.00  0.00    -0.237 OA
ATOM     59  O   UNL A   1      40.632  22.178  26.248  1.00  0.00    -0.237 OA
ATOM     60  O   UNL A   1      42.780  21.798  25.136  1.00  0.00    -0.744 OA
ENDBRANCH  54  57
ENDBRANCH  26  50
BRANCH  38  61
ATOM     61  C   UNL A   1      44.990  27.475  33.777  1.00  0.00     0.023 A 
ATOM     62  C   UNL A   1      46.148  28.263  33.630  1.00  0.00     0.012 A 
ATOM     63  C   UNL A   1      45.033  26.318  34.578  1.00  0.00     0.148 A 
ATOM     64  C   UNL A   1      47.341  27.891  34.249  1.00  0.00     0.002 A 
ATOM     65  C   UNL A   1      46.215  25.976  35.224  1.00  0.00     0.091 A 
ATOM     66  F   UNL A   1      43.926  25.569  34.684  1.00  0.00    -0.205 F 
ATOM     67  C   UNL A   1      47.371  26.754  35.053  1.00  0.00     0.022 A 
BRANCH  65  68
ATOM     68  S   UNL A   1      46.314  24.574  36.342  1.00  0.00     0.127 S 
ATOM     69  O   UNL A   1      47.758  24.368  36.436  1.00  0.00    -0.237 OA
ATOM     70  O   UNL A   1      45.693  25.096  37.560  1.00  0.00    -0.237 OA
ATOM     71  O   UNL A   1      45.563  23.503  35.699  1.00  0.00    -0.744 OA
ENDBRANCH  65  68
ENDBRANCH  38  61
ENDBRANCH  12  13
ENDBRANCH   5   7
ENDBRANCH   2   3
ENDBRANCH   1   2
BRANCH   1  72
ATOM     72  C   UNL A   1      31.280  29.236  23.748  1.00  0.00     0.023 C 
BRANCH  72  73
ATOM     73  C   UNL A   1      30.643  28.561  22.533  1.00  0.00     0.116 C 
BRANCH  73  74
ATOM     74  N   UNL A   1      31.353  27.355  22.154  1.00  0.00    -0.356 N 
ATOM     75  C   UNL A   1      31.275  26.048  22.489  1.00  0.00     0.224 C 
ATOM     76  H   UNL A   1      32.062  27.531  21.494  1.00  0.00     0.163 HD
ATOM     77  O   UNL A   1      32.105  25.315  21.932  1.00  0.00    -0.275 OA
BRANCH  75  78
ATOM     78  C   UNL A   1      30.282  25.401  23.452  1.00  0.00     0.099 C 
ATOM     79  C   UNL A   1      29.596  26.154  24.575  1.00  0.00     0.037 C 
ATOM     80  C   UNL A   1      30.962  24.251  24.208  1.00  0.00     0.133 C 
ATOM     81  C   UNL A   1      30.582  26.062  25.728  1.00  0.00     0.120 C 
ATOM     82  N   UNL A   1      31.191  24.756  25.560  1.00  0.00    -0.338 N 
BRANCH  82  83
ATOM     83  C   UNL A   1      31.951  24.018  26.452  1.00  0.00     0.259 C 
ATOM     84  O   UNL A   1      31.513  23.649  27.540  1.00  0.00    -0.269 OA
BRANCH  83  85
ATOM     85  C   UNL A   1      33.287  23.541  26.054  1.00  0.00     0.111 A 
ATOM     86  C   UNL A   1      34.376  24.377  25.833  1.00  0.00     0.140 A 
ATOM     87  C   UNL A   1      33.468  22.162  25.927  1.00  0.00     0.140 A 
ATOM     88  F   UNL A   1      34.297  25.696  26.055  1.00  0.00    -0.206 F 
ATOM     89  C   UNL A   1      35.599  23.863  25.400  1.00  0.00     0.056 A 
ATOM     90  C   UNL A   1      34.692  21.628  25.529  1.00  0.00     0.056 A 
ATOM     91  F   UNL A   1      32.462  21.308  26.163  1.00  0.00    -0.206 F 
ATOM     92  C   UNL A   1      35.749  22.487  25.245  1.00  0.00     0.023 A 
ATOM     93  Br  UNL A   1      37.400  21.782  24.659  1.00  0.00    -0.051 Br
ENDBRANCH  83  85
ENDBRANCH  82  83
ENDBRANCH  75  78
ENDBRANCH  73  74
ENDBRANCH  72  73
ENDBRANCH   1  72
TORSDOF 16
ENDMDL
