MODEL 1
REMARK VINA RESULT:     -12.8      0.000      0.000
REMARK SMILES O=C(NCCCCNC(=O)c1ccc(-c2c3nc(c(-c4cccc(S(=O)(=O)[O-])c4F)c4ccc([nH]4)c(-c4cccc(S(=O)(=O)[O-])c4F)c4nc(c(-c5cccc(S(=O)(=O)[O-])c5F)c5ccc2[nH]5)C=C4)C=C3)cc1)C1=Cc2c(Cl)ccc(Cl)c2O[C@@H]1C(F)(F)F
REMARK SMILES IDX 6 1 5 2 4 3 3 4 1 5 2 6 74 8 75 9 85 10 76 11 84 12 77 13
REMARK SMILES IDX 83 14 78 15 79 16 81 17 80 18 82 19 86 20 87 21 88 22 89 23
REMARK SMILES IDX 7 24 8 25 9 26 10 28 11 29 12 30 73 31 13 32 72 33 14 34
REMARK SMILES IDX 15 35 16 36 66 37 17 38 71 39 65 40 67 41 18 42 70 43 64 44
REMARK SMILES IDX 63 45 19 47 51 48 31 49 50 50 32 51 35 52 49 53 68 54 33 55
REMARK SMILES IDX 34 56 48 58 69 59 36 60 20 61 21 62 29 63 22 64 24 65 30 66
REMARK SMILES IDX 23 67 25 68 26 69 27 70 28 71 52 72 53 73 61 74 54 75 56 76
REMARK SMILES IDX 62 77 55 78 57 79 58 80 59 81 60 82 37 83 38 84 46 85 39 86
REMARK SMILES IDX 41 87 47 88 40 89 42 90 43 91 44 92 45 93
REMARK H PARENT 3 7 8 27 67 46 35 57
REMARK Flexibility Score: inf
ROOT
ATOM      1  C   UNL A   1      31.460  30.196  25.640  1.00  0.00     0.023 C 
ENDROOT
BRANCH   1   2
ATOM      2  C   UNL A   1      31.406  28.724  25.228  1.00  0.00     0.023 C 
BRANCH   2   3
ATOM      3  C   UNL A   1      31.743  27.727  26.340  1.00  0.00     0.116 C 
BRANCH   3   4
ATOM      4  N   UNL A   1      30.784  26.628  26.464  1.00  0.00    -0.352 N 
ATOM      5  O   UNL A   1      30.096  24.475  26.578  1.00  0.00    -0.270 OA
ATOM      6  C   UNL A   1      30.894  25.295  26.136  1.00  0.00     0.251 C 
ATOM      7  H   UNL A   1      29.914  26.885  26.844  1.00  0.00     0.163 HD
BRANCH   6   8
ATOM      8  C   UNL A   1      32.095  24.843  25.395  1.00  0.00     0.067 C 
ATOM      9  C   UNL A   1      33.086  24.126  25.940  1.00  0.00     0.027 C 
ATOM     10  C   UNL A   1      32.029  24.933  23.905  1.00  0.00     0.314 C 
ATOM     11  C   UNL A   1      33.269  22.811  25.293  1.00  0.00     0.037 A 
ATOM     12  O   UNL A   1      32.104  23.626  23.294  1.00  0.00    -0.474 OA
ATOM     13  C   UNL A   1      33.729  21.688  26.014  1.00  0.00     0.052 A 
ATOM     14  C   UNL A   1      32.684  22.609  24.022  1.00  0.00     0.148 A 
ATOM     15  Cl  UNL A   1      34.358  21.816  27.622  1.00  0.00    -0.084 Cl
ATOM     16  C   UNL A   1      33.575  20.398  25.494  1.00  0.00     0.023 A 
ATOM     17  C   UNL A   1      32.557  21.313  23.503  1.00  0.00     0.083 A 
ATOM     18  C   UNL A   1      32.982  20.212  24.245  1.00  0.00     0.026 A 
ATOM     19  Cl  UNL A   1      31.788  21.030  21.984  1.00  0.00    -0.080 Cl
BRANCH  10  20
ATOM     20  C   UNL A   1      33.149  25.856  23.370  1.00  0.00     0.429 C 
ATOM     21  F   UNL A   1      34.024  25.175  22.594  1.00  0.00    -0.167 F 
ATOM     22  F   UNL A   1      32.663  26.871  22.616  1.00  0.00    -0.167 F 
ATOM     23  F   UNL A   1      33.873  26.423  24.370  1.00  0.00    -0.167 F 
ENDBRANCH  10  20
ENDBRANCH   6   8
ENDBRANCH   3   4
ENDBRANCH   2   3
ENDBRANCH   1   2
BRANCH   1  24
ATOM     24  C   UNL A   1      32.274  30.540  26.887  1.00  0.00     0.116 C 
BRANCH  24  25
ATOM     25  N   UNL A   1      32.355  31.961  27.200  1.00  0.00    -0.352 N 
ATOM     26  C   UNL A   1      33.453  32.698  27.626  1.00  0.00     0.251 C 
ATOM     27  H   UNL A   1      31.517  32.468  27.093  1.00  0.00     0.163 HD
ATOM     28  O   UNL A   1      33.361  33.882  27.838  1.00  0.00    -0.269 OA
BRANCH  26  29
ATOM     29  C   UNL A   1      34.728  31.976  27.879  1.00  0.00     0.039 A 
ATOM     30  C   UNL A   1      35.900  32.724  28.019  1.00  0.00     0.014 A 
ATOM     31  C   UNL A   1      34.734  30.599  28.111  1.00  0.00     0.014 A 
ATOM     32  C   UNL A   1      37.046  32.114  28.535  1.00  0.00     0.010 A 
ATOM     33  C   UNL A   1      35.855  30.010  28.691  1.00  0.00     0.010 A 
ATOM     34  C   UNL A   1      37.006  30.772  28.951  1.00  0.00    -0.014 A 
BRANCH  34  35
ATOM     35  C   UNL A   1      38.092  30.188  29.783  1.00  0.00     0.031 A 
ATOM     36  C   UNL A   1      38.326  30.653  31.192  1.00  0.00     0.074 A 
ATOM     37  C   UNL A   1      38.969  29.338  29.209  1.00  0.00     0.049 A 
ATOM     38  N   UNL A   1      39.278  30.313  32.022  1.00  0.00    -0.248 NA
ATOM     39  C   UNL A   1      37.387  31.649  31.728  1.00  0.00     0.031 C 
ATOM     40  C   UNL A   1      38.923  28.896  27.812  1.00  0.00     0.029 A 
ATOM     41  N   UNL A   1      40.092  28.728  29.710  1.00  0.00    -0.354 N 
ATOM     42  C   UNL A   1      39.074  31.071  33.166  1.00  0.00     0.074 A 
ATOM     43  C   UNL A   1      37.924  31.914  32.911  1.00  0.00     0.031 C 
ATOM     44  C   UNL A   1      39.974  28.100  27.567  1.00  0.00     0.029 A 
ATOM     45  C   UNL A   1      40.784  27.992  28.775  1.00  0.00     0.049 A 
ATOM     46  H   UNL A   1      40.378  28.811  30.649  1.00  0.00     0.167 HD
ATOM     47  C   UNL A   1      39.758  31.047  34.335  1.00  0.00     0.034 A 
ATOM     48  C   UNL A   1      41.946  27.315  28.870  1.00  0.00     0.034 A 
ATOM     49  C   UNL A   1      40.875  30.180  34.603  1.00  0.00     0.049 A 
ATOM     50  C   UNL A   1      42.662  27.264  30.190  1.00  0.00     0.074 A 
ATOM     51  C   UNL A   1      41.551  29.993  35.795  1.00  0.00     0.029 A 
ATOM     52  N   UNL A   1      41.489  29.367  33.663  1.00  0.00    -0.354 N 
ATOM     53  N   UNL A   1      42.332  27.828  31.326  1.00  0.00    -0.248 NA
ATOM     54  C   UNL A   1      43.891  26.457  30.252  1.00  0.00     0.031 C 
ATOM     55  C   UNL A   1      42.586  29.076  35.572  1.00  0.00     0.029 A 
ATOM     56  C   UNL A   1      42.549  28.689  34.243  1.00  0.00     0.049 A 
ATOM     57  H   UNL A   1      41.214  29.284  32.722  1.00  0.00     0.167 HD
ATOM     58  C   UNL A   1      43.302  27.437  32.241  1.00  0.00     0.074 A 
ATOM     59  C   UNL A   1      44.215  26.562  31.535  1.00  0.00     0.031 C 
ATOM     60  C   UNL A   1      43.433  27.790  33.544  1.00  0.00     0.034 A 
BRANCH  47  61
ATOM     61  C   UNL A   1      39.261  31.938  35.441  1.00  0.00     0.023 A 
ATOM     62  C   UNL A   1      38.280  31.449  36.326  1.00  0.00     0.012 A 
ATOM     63  C   UNL A   1      39.778  33.233  35.629  1.00  0.00     0.148 A 
ATOM     64  C   UNL A   1      37.792  32.247  37.360  1.00  0.00     0.002 A 
ATOM     65  C   UNL A   1      39.313  34.012  36.685  1.00  0.00     0.091 A 
ATOM     66  F   UNL A   1      40.690  33.696  34.761  1.00  0.00    -0.205 F 
ATOM     67  C   UNL A   1      38.315  33.523  37.545  1.00  0.00     0.022 A 
BRANCH  65  68
ATOM     68  S   UNL A   1      39.979  35.643  37.030  1.00  0.00     0.127 S 
ATOM     69  O   UNL A   1      39.281  35.993  38.266  1.00  0.00    -0.237 OA
ATOM     70  O   UNL A   1      41.409  35.373  37.196  1.00  0.00    -0.237 OA
ATOM     71  O   UNL A   1      39.654  36.452  35.863  1.00  0.00    -0.744 OA
ENDBRANCH  65  68
ENDBRANCH  47  61
BRANCH  48  72
ATOM     72  C   UNL A   1      42.461  26.580  27.680  1.00  0.00     0.023 A 
ATOM     73  C   UNL A   1      43.376  27.215  26.820  1.00  0.00     0.012 A 
ATOM     74  C   UNL A   1      42.108  25.238  27.441  1.00  0.00     0.148 A 
ATOM     75  C   UNL A   1      43.923  26.531  25.734  1.00  0.00     0.002 A 
ATOM     76  C   UNL A   1      42.698  24.545  26.389  1.00  0.00     0.091 A 
ATOM     77  F   UNL A   1      41.223  24.657  28.262  1.00  0.00    -0.205 F 
ATOM     78  C   UNL A   1      43.594  25.193  25.526  1.00  0.00     0.022 A 
BRANCH  76  79
ATOM     79  S   UNL A   1      42.444  22.783  26.139  1.00  0.00     0.127 S 
ATOM     80  O   UNL A   1      43.027  22.581  24.817  1.00  0.00    -0.237 OA
ATOM     81  O   UNL A   1      43.208  22.207  27.246  1.00  0.00    -0.237 OA
ATOM     82  O   UNL A   1      41.005  22.578  26.239  1.00  0.00    -0.744 OA
ENDBRANCH  76  79
ENDBRANCH  48  72
BRANCH  60  83
ATOM     83  C   UNL A   1      44.614  27.243  34.299  1.00  0.00     0.023 A 
ATOM     84  C   UNL A   1      45.849  27.917  34.228  1.00  0.00     0.012 A 
ATOM     85  C   UNL A   1      44.488  26.117  35.137  1.00  0.00     0.148 A 
ATOM     86  C   UNL A   1      46.946  27.470  34.963  1.00  0.00     0.002 A 
ATOM     87  C   UNL A   1      45.575  25.700  35.897  1.00  0.00     0.091 A 
ATOM     88  F   UNL A   1      43.312  25.476  35.173  1.00  0.00    -0.205 F 
ATOM     89  C   UNL A   1      46.806  26.370  35.805  1.00  0.00     0.022 A 
BRANCH  87  90
ATOM     90  S   UNL A   1      45.464  24.344  37.072  1.00  0.00     0.127 S 
ATOM     91  O   UNL A   1      45.162  23.213  36.195  1.00  0.00    -0.237 OA
ATOM     92  O   UNL A   1      46.806  24.323  37.653  1.00  0.00    -0.237 OA
ATOM     93  O   UNL A   1      44.409  24.713  38.006  1.00  0.00    -0.744 OA
ENDBRANCH  87  90
ENDBRANCH  60  83
ENDBRANCH  34  35
ENDBRANCH  26  29
ENDBRANCH  24  25
ENDBRANCH   1  24
TORSDOF 15
ENDMDL
MODEL 2
REMARK VINA RESULT:     -12.8      5.116      8.077
REMARK SMILES O=C(NCCCCNC(=O)c1ccc(-c2c3nc(c(-c4cccc(S(=O)(=O)[O-])c4F)c4ccc([nH]4)c(-c4cccc(S(=O)(=O)[O-])c4F)c4nc(c(-c5cccc(S(=O)(=O)[O-])c5F)c5ccc2[nH]5)C=C4)C=C3)cc1)C1=Cc2c(Cl)ccc(Cl)c2O[C@@H]1C(F)(F)F
REMARK SMILES IDX 6 1 5 2 4 3 3 4 1 5 2 6 74 8 75 9 85 10 76 11 84 12 77 13
REMARK SMILES IDX 83 14 78 15 79 16 81 17 80 18 82 19 86 20 87 21 88 22 89 23
REMARK SMILES IDX 7 24 8 25 9 26 10 28 11 29 12 30 73 31 13 32 72 33 14 34
REMARK SMILES IDX 15 35 16 36 66 37 17 38 71 39 65 40 67 41 18 42 70 43 64 44
REMARK SMILES IDX 63 45 19 47 51 48 31 49 50 50 32 51 35 52 49 53 68 54 33 55
REMARK SMILES IDX 34 56 48 58 69 59 36 60 20 61 21 62 29 63 22 64 24 65 30 66
REMARK SMILES IDX 23 67 25 68 26 69 27 70 28 71 52 72 53 73 61 74 54 75 56 76
REMARK SMILES IDX 62 77 55 78 57 79 58 80 59 81 60 82 37 83 38 84 46 85 39 86
REMARK SMILES IDX 41 87 47 88 40 89 42 90 43 91 44 92 45 93
REMARK H PARENT 3 7 8 27 67 46 35 57
REMARK Flexibility Score: inf
ROOT
ATOM      1  C   UNL A   1      36.168  20.421  25.000  1.00  0.00     0.023 C 
ENDROOT
BRANCH   1   2
ATOM      2  C   UNL A   1      34.888  21.114  25.469  1.00  0.00     0.023 C 
BRANCH   2   3
ATOM      3  C   UNL A   1      34.951  22.643  25.495  1.00  0.00     0.116 C 
BRANCH   3   4
ATOM      4  N   UNL A   1      34.761  23.268  24.185  1.00  0.00    -0.352 N 
ATOM      5  O   UNL A   1      34.170  24.893  22.725  1.00  0.00    -0.270 OA
ATOM      6  C   UNL A   1      33.980  24.334  23.800  1.00  0.00     0.251 C 
ATOM      7  H   UNL A   1      35.277  22.855  23.455  1.00  0.00     0.163 HD
BRANCH   6   8
ATOM      8  C   UNL A   1      33.032  24.910  24.782  1.00  0.00     0.067 C 
ATOM      9  C   UNL A   1      33.335  25.911  25.619  1.00  0.00     0.027 C 
ATOM     10  C   UNL A   1      31.591  24.559  24.600  1.00  0.00     0.314 C 
ATOM     11  C   UNL A   1      32.491  27.106  25.420  1.00  0.00     0.037 A 
ATOM     12  O   UNL A   1      30.797  25.729  24.302  1.00  0.00    -0.474 OA
ATOM     13  C   UNL A   1      32.980  28.408  25.663  1.00  0.00     0.052 A 
ATOM     14  C   UNL A   1      31.292  26.956  24.687  1.00  0.00     0.148 A 
ATOM     15  Cl  UNL A   1      34.494  28.694  26.453  1.00  0.00    -0.084 Cl
ATOM     16  C   UNL A   1      32.307  29.525  25.156  1.00  0.00     0.023 A 
ATOM     17  C   UNL A   1      30.615  28.086  24.205  1.00  0.00     0.083 A 
ATOM     18  C   UNL A   1      31.132  29.363  24.421  1.00  0.00     0.026 A 
ATOM     19  Cl  UNL A   1      29.185  27.931  23.251  1.00  0.00    -0.080 Cl
BRANCH  10  20
ATOM     20  C   UNL A   1      31.050  23.831  25.854  1.00  0.00     0.429 C 
ATOM     21  F   UNL A   1      32.036  23.590  26.750  1.00  0.00    -0.167 F 
ATOM     22  F   UNL A   1      30.102  24.554  26.499  1.00  0.00    -0.167 F 
ATOM     23  F   UNL A   1      30.491  22.631  25.553  1.00  0.00    -0.167 F 
ENDBRANCH  10  20
ENDBRANCH   6   8
ENDBRANCH   3   4
ENDBRANCH   2   3
ENDBRANCH   1   2
BRANCH   1  24
ATOM     24  C   UNL A   1      37.491  21.129  25.292  1.00  0.00     0.116 C 
BRANCH  24  25
ATOM     25  N   UNL A   1      38.652  20.254  25.391  1.00  0.00    -0.352 N 
ATOM     26  C   UNL A   1      39.834  20.452  26.094  1.00  0.00     0.251 C 
ATOM     27  H   UNL A   1      38.589  19.407  24.893  1.00  0.00     0.163 HD
ATOM     28  O   UNL A   1      40.709  19.621  26.083  1.00  0.00    -0.269 OA
BRANCH  26  29
ATOM     29  C   UNL A   1      40.021  21.745  26.805  1.00  0.00     0.039 A 
ATOM     30  C   UNL A   1      40.922  21.792  27.872  1.00  0.00     0.014 A 
ATOM     31  C   UNL A   1      39.420  22.913  26.331  1.00  0.00     0.014 A 
ATOM     32  C   UNL A   1      41.331  23.033  28.369  1.00  0.00     0.010 A 
ATOM     33  C   UNL A   1      39.883  24.147  26.779  1.00  0.00     0.010 A 
ATOM     34  C   UNL A   1      40.876  24.219  27.770  1.00  0.00    -0.014 A 
BRANCH  34  35
ATOM     35  C   UNL A   1      41.522  25.528  28.058  1.00  0.00     0.031 A 
ATOM     36  C   UNL A   1      40.759  26.645  28.708  1.00  0.00     0.074 A 
ATOM     37  C   UNL A   1      42.767  25.757  27.589  1.00  0.00     0.049 A 
ATOM     38  N   UNL A   1      41.143  27.871  28.951  1.00  0.00    -0.248 NA
ATOM     39  C   UNL A   1      39.375  26.357  29.113  1.00  0.00     0.031 C 
ATOM     40  C   UNL A   1      43.576  24.794  26.837  1.00  0.00     0.029 A 
ATOM     41  N   UNL A   1      43.554  26.882  27.637  1.00  0.00    -0.354 N 
ATOM     42  C   UNL A   1      40.045  28.511  29.508  1.00  0.00     0.074 A 
ATOM     43  C   UNL A   1      38.967  27.544  29.539  1.00  0.00     0.031 C 
ATOM     44  C   UNL A   1      44.734  25.372  26.484  1.00  0.00     0.029 A 
ATOM     45  C   UNL A   1      44.745  26.751  26.959  1.00  0.00     0.049 A 
ATOM     46  H   UNL A   1      43.291  27.705  28.109  1.00  0.00     0.167 HD
ATOM     47  C   UNL A   1      39.949  29.777  29.982  1.00  0.00     0.034 A 
ATOM     48  C   UNL A   1      45.732  27.640  26.730  1.00  0.00     0.034 A 
ATOM     49  C   UNL A   1      41.032  30.724  29.990  1.00  0.00     0.049 A 
ATOM     50  C   UNL A   1      45.624  29.024  27.306  1.00  0.00     0.074 A 
ATOM     51  C   UNL A   1      41.068  31.983  30.561  1.00  0.00     0.029 A 
ATOM     52  N   UNL A   1      42.263  30.524  29.385  1.00  0.00    -0.354 N 
ATOM     53  N   UNL A   1      44.652  29.544  28.016  1.00  0.00    -0.248 NA
ATOM     54  C   UNL A   1      46.758  29.932  27.081  1.00  0.00     0.031 C 
ATOM     55  C   UNL A   1      42.319  32.551  30.289  1.00  0.00     0.029 A 
ATOM     56  C   UNL A   1      43.061  31.643  29.553  1.00  0.00     0.049 A 
ATOM     57  H   UNL A   1      42.531  29.707  28.906  1.00  0.00     0.167 HD
ATOM     58  C   UNL A   1      45.061  30.834  28.334  1.00  0.00     0.074 A 
ATOM     59  C   UNL A   1      46.383  31.006  27.765  1.00  0.00     0.031 C 
ATOM     60  C   UNL A   1      44.391  31.794  29.017  1.00  0.00     0.034 A 
BRANCH  47  61
ATOM     61  C   UNL A   1      38.640  30.180  30.605  1.00  0.00     0.023 A 
ATOM     62  C   UNL A   1      38.379  29.822  31.943  1.00  0.00     0.012 A 
ATOM     63  C   UNL A   1      37.688  30.932  29.892  1.00  0.00     0.148 A 
ATOM     64  C   UNL A   1      37.175  30.174  32.552  1.00  0.00     0.002 A 
ATOM     65  C   UNL A   1      36.504  31.311  30.517  1.00  0.00     0.091 A 
ATOM     66  F   UNL A   1      37.938  31.240  28.610  1.00  0.00    -0.205 F 
ATOM     67  C   UNL A   1      36.243  30.926  31.843  1.00  0.00     0.022 A 
BRANCH  65  68
ATOM     68  S   UNL A   1      35.279  32.334  29.694  1.00  0.00     0.127 S 
ATOM     69  O   UNL A   1      34.336  32.599  30.781  1.00  0.00    -0.237 OA
ATOM     70  O   UNL A   1      36.065  33.496  29.276  1.00  0.00    -0.237 OA
ATOM     71  O   UNL A   1      34.772  31.526  28.594  1.00  0.00    -0.744 OA
ENDBRANCH  65  68
ENDBRANCH  47  61
BRANCH  48  72
ATOM     72  C   UNL A   1      46.937  27.212  25.965  1.00  0.00     0.023 A 
ATOM     73  C   UNL A   1      47.024  27.510  24.593  1.00  0.00     0.012 A 
ATOM     74  C   UNL A   1      48.022  26.581  26.603  1.00  0.00     0.148 A 
ATOM     75  C   UNL A   1      48.167  27.178  23.864  1.00  0.00     0.002 A 
ATOM     76  C   UNL A   1      49.179  26.301  25.884  1.00  0.00     0.091 A 
ATOM     77  F   UNL A   1      47.912  26.292  27.908  1.00  0.00    -0.205 F 
ATOM     78  C   UNL A   1      49.249  26.585  24.513  1.00  0.00     0.022 A 
BRANCH  76  79
ATOM     79  S   UNL A   1      50.669  25.675  26.671  1.00  0.00     0.127 S 
ATOM     80  O   UNL A   1      51.565  25.512  25.531  1.00  0.00    -0.237 OA
ATOM     81  O   UNL A   1      51.016  26.772  27.578  1.00  0.00    -0.237 OA
ATOM     82  O   UNL A   1      50.268  24.449  27.348  1.00  0.00    -0.744 OA
ENDBRANCH  76  79
ENDBRANCH  48  72
BRANCH  60  83
ATOM     83  C   UNL A   1      45.065  33.130  29.183  1.00  0.00     0.023 A 
ATOM     84  C   UNL A   1      45.899  33.346  30.297  1.00  0.00     0.012 A 
ATOM     85  C   UNL A   1      44.941  34.137  28.205  1.00  0.00     0.148 A 
ATOM     86  C   UNL A   1      46.584  34.551  30.447  1.00  0.00     0.002 A 
ATOM     87  C   UNL A   1      45.658  35.321  28.342  1.00  0.00     0.091 A 
ATOM     88  F   UNL A   1      44.125  33.921  27.164  1.00  0.00    -0.205 F 
ATOM     89  C   UNL A   1      46.474  35.532  29.466  1.00  0.00     0.022 A 
BRANCH  87  90
ATOM     90  S   UNL A   1      45.641  36.607  27.087  1.00  0.00     0.127 S 
ATOM     91  O   UNL A   1      46.499  37.625  27.691  1.00  0.00    -0.237 OA
ATOM     92  O   UNL A   1      46.224  35.925  25.931  1.00  0.00    -0.237 OA
ATOM     93  O   UNL A   1      44.243  36.983  26.921  1.00  0.00    -0.744 OA
ENDBRANCH  87  90
ENDBRANCH  60  83
ENDBRANCH  34  35
ENDBRANCH  26  29
ENDBRANCH  24  25
ENDBRANCH   1  24
TORSDOF 15
ENDMDL
MODEL 3
REMARK VINA RESULT:     -12.7      1.130      7.847
REMARK SMILES O=C(NCCCCNC(=O)c1ccc(-c2c3nc(c(-c4cccc(S(=O)(=O)[O-])c4F)c4ccc([nH]4)c(-c4cccc(S(=O)(=O)[O-])c4F)c4nc(c(-c5cccc(S(=O)(=O)[O-])c5F)c5ccc2[nH]5)C=C4)C=C3)cc1)C1=Cc2c(Cl)ccc(Cl)c2O[C@@H]1C(F)(F)F
REMARK SMILES IDX 6 1 5 2 4 3 3 4 1 5 2 6 74 8 75 9 85 10 76 11 84 12 77 13
REMARK SMILES IDX 83 14 78 15 79 16 81 17 80 18 82 19 86 20 87 21 88 22 89 23
REMARK SMILES IDX 7 24 8 25 9 26 10 28 11 29 12 30 73 31 13 32 72 33 14 34
REMARK SMILES IDX 15 35 16 36 66 37 17 38 71 39 65 40 67 41 18 42 70 43 64 44
REMARK SMILES IDX 63 45 19 47 51 48 31 49 50 50 32 51 35 52 49 53 68 54 33 55
REMARK SMILES IDX 34 56 48 58 69 59 36 60 20 61 21 62 29 63 22 64 24 65 30 66
REMARK SMILES IDX 23 67 25 68 26 69 27 70 28 71 52 72 53 73 61 74 54 75 56 76
REMARK SMILES IDX 62 77 55 78 57 79 58 80 59 81 60 82 37 83 38 84 46 85 39 86
REMARK SMILES IDX 41 87 47 88 40 89 42 90 43 91 44 92 45 93
REMARK H PARENT 3 7 8 27 67 46 35 57
REMARK Flexibility Score: inf
ROOT
ATOM      1  C   UNL A   1      31.590  29.419  26.648  1.00  0.00     0.023 C 
ENDROOT
BRANCH   1   2
ATOM      2  C   UNL A   1      32.256  28.061  26.873  1.00  0.00     0.023 C 
BRANCH   2   3
ATOM      3  C   UNL A   1      31.611  26.891  26.127  1.00  0.00     0.116 C 
BRANCH   3   4
ATOM      4  N   UNL A   1      31.372  25.712  26.962  1.00  0.00    -0.352 N 
ATOM      5  O   UNL A   1      31.703  23.609  27.729  1.00  0.00    -0.270 OA
ATOM      6  C   UNL A   1      31.739  24.397  26.789  1.00  0.00     0.251 C 
ATOM      7  H   UNL A   1      30.863  25.890  27.785  1.00  0.00     0.163 HD
BRANCH   6   8
ATOM      8  C   UNL A   1      32.352  23.994  25.502  1.00  0.00     0.067 C 
ATOM      9  C   UNL A   1      33.653  24.126  25.217  1.00  0.00     0.027 C 
ATOM     10  C   UNL A   1      31.524  23.120  24.617  1.00  0.00     0.314 C 
ATOM     11  C   UNL A   1      34.314  22.836  24.931  1.00  0.00     0.037 A 
ATOM     12  O   UNL A   1      32.136  21.825  24.433  1.00  0.00    -0.474 OA
ATOM     13  C   UNL A   1      35.674  22.616  25.238  1.00  0.00     0.052 A 
ATOM     14  C   UNL A   1      33.496  21.723  24.633  1.00  0.00     0.148 A 
ATOM     15  Cl  UNL A   1      36.732  23.898  25.724  1.00  0.00    -0.084 Cl
ATOM     16  C   UNL A   1      36.191  21.316  25.282  1.00  0.00     0.023 A 
ATOM     17  C   UNL A   1      34.033  20.428  24.658  1.00  0.00     0.083 A 
ATOM     18  C   UNL A   1      35.369  20.225  25.001  1.00  0.00     0.026 A 
ATOM     19  Cl  UNL A   1      33.043  19.045  24.362  1.00  0.00    -0.080 Cl
BRANCH  10  20
ATOM     20  C   UNL A   1      31.277  23.811  23.254  1.00  0.00     0.429 C 
ATOM     21  F   UNL A   1      29.993  23.666  22.851  1.00  0.00    -0.167 F 
ATOM     22  F   UNL A   1      31.526  25.142  23.300  1.00  0.00    -0.167 F 
ATOM     23  F   UNL A   1      32.058  23.300  22.267  1.00  0.00    -0.167 F 
ENDBRANCH  10  20
ENDBRANCH   6   8
ENDBRANCH   3   4
ENDBRANCH   2   3
ENDBRANCH   1   2
BRANCH   1  24
ATOM     24  C   UNL A   1      32.489  30.569  26.193  1.00  0.00     0.116 C 
BRANCH  24  25
ATOM     25  N   UNL A   1      32.268  31.836  26.879  1.00  0.00    -0.352 N 
ATOM     26  C   UNL A   1      33.171  32.602  27.605  1.00  0.00     0.251 C 
ATOM     27  H   UNL A   1      31.354  32.197  26.819  1.00  0.00     0.163 HD
ATOM     28  O   UNL A   1      32.833  33.643  28.113  1.00  0.00    -0.269 OA
BRANCH  26  29
ATOM     29  C   UNL A   1      34.548  32.073  27.796  1.00  0.00     0.039 A 
ATOM     30  C   UNL A   1      35.598  32.985  27.930  1.00  0.00     0.014 A 
ATOM     31  C   UNL A   1      34.767  30.706  27.978  1.00  0.00     0.014 A 
ATOM     32  C   UNL A   1      36.839  32.538  28.392  1.00  0.00     0.010 A 
ATOM     33  C   UNL A   1      35.982  30.275  28.505  1.00  0.00     0.010 A 
ATOM     34  C   UNL A   1      37.014  31.193  28.760  1.00  0.00    -0.014 A 
BRANCH  34  35
ATOM     35  C   UNL A   1      38.202  30.754  29.541  1.00  0.00     0.031 A 
ATOM     36  C   UNL A   1      39.143  29.716  29.003  1.00  0.00     0.074 A 
ATOM     37  C   UNL A   1      38.346  31.189  30.810  1.00  0.00     0.049 A 
ATOM     38  N   UNL A   1      40.174  29.160  29.586  1.00  0.00    -0.248 NA
ATOM     39  C   UNL A   1      38.877  29.216  27.646  1.00  0.00     0.031 C 
ATOM     40  C   UNL A   1      37.434  32.110  31.494  1.00  0.00     0.029 A 
ATOM     41  N   UNL A   1      39.283  30.884  31.766  1.00  0.00    -0.354 N 
ATOM     42  C   UNL A   1      40.663  28.225  28.684  1.00  0.00     0.074 A 
ATOM     43  C   UNL A   1      39.795  28.267  27.525  1.00  0.00     0.031 C 
ATOM     44  C   UNL A   1      37.848  32.284  32.758  1.00  0.00     0.029 A 
ATOM     45  C   UNL A   1      39.038  31.471  32.986  1.00  0.00     0.049 A 
ATOM     46  H   UNL A   1      40.057  30.299  31.595  1.00  0.00     0.167 HD
ATOM     47  C   UNL A   1      41.752  27.428  28.794  1.00  0.00     0.034 A 
ATOM     48  C   UNL A   1      39.685  31.360  34.164  1.00  0.00     0.034 A 
ATOM     49  C   UNL A   1      42.638  27.416  29.928  1.00  0.00     0.049 A 
ATOM     50  C   UNL A   1      40.918  30.506  34.248  1.00  0.00     0.074 A 
ATOM     51  C   UNL A   1      43.834  26.737  30.077  1.00  0.00     0.029 A 
ATOM     52  N   UNL A   1      42.417  28.102  31.112  1.00  0.00    -0.354 N 
ATOM     53  N   UNL A   1      41.485  29.787  33.311  1.00  0.00    -0.248 NA
ATOM     54  C   UNL A   1      41.622  30.474  35.540  1.00  0.00     0.031 C 
ATOM     55  C   UNL A   1      44.330  27.002  31.360  1.00  0.00     0.029 A 
ATOM     56  C   UNL A   1      43.444  27.849  32.005  1.00  0.00     0.049 A 
ATOM     57  H   UNL A   1      41.643  28.683  31.292  1.00  0.00     0.167 HD
ATOM     58  C   UNL A   1      42.616  29.226  33.892  1.00  0.00     0.074 A 
ATOM     59  C   UNL A   1      42.672  29.715  35.255  1.00  0.00     0.031 C 
ATOM     60  C   UNL A   1      43.514  28.368  33.349  1.00  0.00     0.034 A 
BRANCH  47  61
ATOM     61  C   UNL A   1      42.088  26.555  27.614  1.00  0.00     0.023 A 
ATOM     62  C   UNL A   1      42.796  27.112  26.530  1.00  0.00     0.012 A 
ATOM     63  C   UNL A   1      41.738  25.193  27.585  1.00  0.00     0.148 A 
ATOM     64  C   UNL A   1      43.120  26.336  25.418  1.00  0.00     0.002 A 
ATOM     65  C   UNL A   1      42.096  24.415  26.488  1.00  0.00     0.091 A 
ATOM     66  F   UNL A   1      41.039  24.685  28.611  1.00  0.00    -0.205 F 
ATOM     67  C   UNL A   1      42.778  24.987  25.401  1.00  0.00     0.022 A 
BRANCH  65  68
ATOM     68  S   UNL A   1      41.750  22.654  26.416  1.00  0.00     0.127 S 
ATOM     69  O   UNL A   1      42.431  22.269  25.181  1.00  0.00    -0.237 OA
ATOM     70  O   UNL A   1      42.383  22.157  27.639  1.00  0.00    -0.237 OA
ATOM     71  O   UNL A   1      40.298  22.543  26.405  1.00  0.00    -0.744 OA
ENDBRANCH  65  68
ENDBRANCH  47  61
BRANCH  48  72
ATOM     72  C   UNL A   1      39.199  32.137  35.339  1.00  0.00     0.023 A 
ATOM     73  C   UNL A   1      38.322  31.527  36.255  1.00  0.00     0.012 A 
ATOM     74  C   UNL A   1      39.659  33.444  35.592  1.00  0.00     0.148 A 
ATOM     75  C   UNL A   1      37.900  32.208  37.397  1.00  0.00     0.002 A 
ATOM     76  C   UNL A   1      39.278  34.098  36.759  1.00  0.00     0.091 A 
ATOM     77  F   UNL A   1      40.482  34.013  34.699  1.00  0.00    -0.205 F 
ATOM     78  C   UNL A   1      38.388  33.488  37.655  1.00  0.00     0.022 A 
BRANCH  76  79
ATOM     79  S   UNL A   1      39.973  35.683  37.241  1.00  0.00     0.127 S 
ATOM     80  O   UNL A   1      39.636  36.520  36.095  1.00  0.00    -0.237 OA
ATOM     81  O   UNL A   1      39.227  35.981  38.465  1.00  0.00    -0.237 OA
ATOM     82  O   UNL A   1      41.394  35.438  37.455  1.00  0.00    -0.744 OA
ENDBRANCH  76  79
ENDBRANCH  48  72
BRANCH  60  83
ATOM     83  C   UNL A   1      44.635  27.884  34.228  1.00  0.00     0.023 A 
ATOM     84  C   UNL A   1      45.792  28.676  34.367  1.00  0.00     0.012 A 
ATOM     85  C   UNL A   1      44.516  26.696  34.976  1.00  0.00     0.148 A 
ATOM     86  C   UNL A   1      46.822  28.285  35.221  1.00  0.00     0.002 A 
ATOM     87  C   UNL A   1      45.530  26.332  35.855  1.00  0.00     0.091 A 
ATOM     88  F   UNL A   1      43.418  25.945  34.813  1.00  0.00    -0.205 F 
ATOM     89  C   UNL A   1      46.687  27.120  35.973  1.00  0.00     0.022 A 
BRANCH  87  90
ATOM     90  S   UNL A   1      45.406  24.893  36.926  1.00  0.00     0.127 S 
ATOM     91  O   UNL A   1      44.186  25.184  37.677  1.00  0.00    -0.237 OA
ATOM     92  O   UNL A   1      45.285  23.797  35.965  1.00  0.00    -0.237 OA
ATOM     93  O   UNL A   1      46.635  24.873  37.709  1.00  0.00    -0.744 OA
ENDBRANCH  87  90
ENDBRANCH  60  83
ENDBRANCH  34  35
ENDBRANCH  26  29
ENDBRANCH  24  25
ENDBRANCH   1  24
TORSDOF 15
ENDMDL
