MODEL 1
REMARK VINA RESULT:     -12.1      0.000      0.000
REMARK SMILES O=Cc1ccc2c(c1)C=C(C(=O)NCCCCNC(=O)c1ccc(-c3c4nc(c(-c5cccc(S(=O)(=O)[O-])c5F)c5ccc([nH]5)c(-c5cccc(S(=O)(=O)[O-])c5F)c5nc(c(-c6cccc(S(=O)(=O)[O-])c6F)c6ccc3[nH]6)C=C5)C=C4)cc1)[C@H](C(F)(F)F)O2
REMARK SMILES IDX 16 1 15 2 14 3 13 4 11 5 12 6 10 8 3 9 4 10 8 11 5 12 7 13
REMARK SMILES IDX 6 14 9 15 89 16 84 17 2 18 1 19 85 20 86 21 87 22 88 23
REMARK SMILES IDX 17 24 18 25 19 26 20 28 21 29 22 30 83 31 23 32 82 33 24 34
REMARK SMILES IDX 25 35 26 36 76 37 27 38 81 39 75 40 77 41 28 42 80 43 74 44
REMARK SMILES IDX 73 45 29 47 61 48 41 49 60 50 42 51 45 52 59 53 78 54 43 55
REMARK SMILES IDX 44 56 58 58 79 59 46 60 30 61 31 62 39 63 32 64 34 65 40 66
REMARK SMILES IDX 33 67 35 68 36 69 37 70 38 71 62 72 63 73 71 74 64 75 66 76
REMARK SMILES IDX 72 77 65 78 67 79 68 80 69 81 70 82 47 83 48 84 56 85 49 86
REMARK SMILES IDX 51 87 57 88 50 89 52 90 53 91 54 92 55 93
REMARK H PARENT 13 7 18 27 77 46 45 57
REMARK Flexibility Score: inf
ROOT
ATOM      1  C   UNL A   1      32.856  29.694  25.765  1.00  0.00     0.023 C 
ENDROOT
BRANCH   1   2
ATOM      2  C   UNL A   1      34.086  28.782  25.737  1.00  0.00     0.023 C 
BRANCH   2   3
ATOM      3  C   UNL A   1      33.781  27.317  25.405  1.00  0.00     0.116 C 
BRANCH   3   4
ATOM      4  N   UNL A   1      34.019  27.062  23.995  1.00  0.00    -0.352 N 
ATOM      5  C   UNL A   1      33.205  27.072  22.907  1.00  0.00     0.251 C 
ATOM      6  O   UNL A   1      33.659  26.665  21.839  1.00  0.00    -0.270 OA
ATOM      7  H   UNL A   1      34.954  26.839  23.786  1.00  0.00     0.163 HD
BRANCH   5   8
ATOM      8  C   UNL A   1      31.817  27.610  22.929  1.00  0.00     0.067 C 
ATOM      9  C   UNL A   1      28.392  30.859  21.903  1.00  0.00     0.015 A 
ATOM     10  C   UNL A   1      27.418  30.019  22.449  1.00  0.00     0.015 A 
ATOM     11  C   UNL A   1      29.737  30.481  21.913  1.00  0.00     0.023 A 
ATOM     12  C   UNL A   1      27.793  28.791  22.995  1.00  0.00     0.048 A 
ATOM     13  C   UNL A   1      30.106  29.248  22.466  1.00  0.00     0.018 A 
ATOM     14  C   UNL A   1      29.135  28.407  23.002  1.00  0.00     0.128 A 
ATOM     15  C   UNL A   1      31.489  28.805  22.421  1.00  0.00     0.025 C 
ATOM     16  O   UNL A   1      29.409  27.170  23.498  1.00  0.00    -0.475 OA
ATOM     17  C   UNL A   1      30.801  26.791  23.726  1.00  0.00     0.314 C 
BRANCH   9  18
ATOM     18  C   UNL A   1      28.008  32.144  21.284  1.00  0.00     0.260 C 
ATOM     19  O   UNL A   1      27.612  32.216  20.128  1.00  0.00    -0.298 OA
ENDBRANCH   9  18
BRANCH  17  20
ATOM     20  C   UNL A   1      30.882  25.255  23.566  1.00  0.00     0.429 C 
ATOM     21  F   UNL A   1      31.654  24.665  24.504  1.00  0.00    -0.167 F 
ATOM     22  F   UNL A   1      29.650  24.690  23.709  1.00  0.00    -0.167 F 
ATOM     23  F   UNL A   1      31.336  24.886  22.346  1.00  0.00    -0.167 F 
ENDBRANCH  17  20
ENDBRANCH   5   8
ENDBRANCH   3   4
ENDBRANCH   2   3
ENDBRANCH   1   2
BRANCH   1  24
ATOM     24  C   UNL A   1      32.542  30.302  27.128  1.00  0.00     0.116 C 
BRANCH  24  25
ATOM     25  N   UNL A   1      32.664  31.752  27.147  1.00  0.00    -0.352 N 
ATOM     26  C   UNL A   1      33.702  32.515  27.632  1.00  0.00     0.251 C 
ATOM     27  H   UNL A   1      31.906  32.252  26.765  1.00  0.00     0.163 HD
ATOM     28  O   UNL A   1      33.605  33.732  27.669  1.00  0.00    -0.269 OA
BRANCH  26  29
ATOM     29  C   UNL A   1      34.913  31.838  28.143  1.00  0.00     0.039 A 
ATOM     30  C   UNL A   1      36.148  32.473  28.002  1.00  0.00     0.014 A 
ATOM     31  C   UNL A   1      34.819  30.604  28.791  1.00  0.00     0.014 A 
ATOM     32  C   UNL A   1      37.286  31.898  28.571  1.00  0.00     0.010 A 
ATOM     33  C   UNL A   1      35.941  30.067  29.414  1.00  0.00     0.010 A 
ATOM     34  C   UNL A   1      37.185  30.708  29.310  1.00  0.00    -0.014 A 
BRANCH  34  35
ATOM     35  C   UNL A   1      38.365  30.120  29.991  1.00  0.00     0.031 A 
ATOM     36  C   UNL A   1      38.757  30.596  31.362  1.00  0.00     0.074 A 
ATOM     37  C   UNL A   1      39.131  29.224  29.338  1.00  0.00     0.049 A 
ATOM     38  N   UNL A   1      39.789  30.255  32.088  1.00  0.00    -0.248 NA
ATOM     39  C   UNL A   1      37.892  31.610  31.989  1.00  0.00     0.031 C 
ATOM     40  C   UNL A   1      38.895  28.740  27.976  1.00  0.00     0.029 A 
ATOM     41  N   UNL A   1      40.279  28.579  29.724  1.00  0.00    -0.354 N 
ATOM     42  C   UNL A   1      39.716  31.029  33.241  1.00  0.00     0.074 A 
ATOM     43  C   UNL A   1      38.559  31.886  33.100  1.00  0.00     0.031 C 
ATOM     44  C   UNL A   1      39.864  27.872  27.642  1.00  0.00     0.029 A 
ATOM     45  C   UNL A   1      40.801  27.754  28.754  1.00  0.00     0.049 A 
ATOM     46  H   UNL A   1      40.690  28.694  30.611  1.00  0.00     0.167 HD
ATOM     47  C   UNL A   1      40.515  31.003  34.333  1.00  0.00     0.034 A 
ATOM     48  C   UNL A   1      41.912  26.990  28.763  1.00  0.00     0.034 A 
ATOM     49  C   UNL A   1      41.634  30.116  34.489  1.00  0.00     0.049 A 
ATOM     50  C   UNL A   1      42.760  26.952  30.006  1.00  0.00     0.074 A 
ATOM     51  C   UNL A   1      42.466  29.963  35.584  1.00  0.00     0.029 A 
ATOM     52  N   UNL A   1      42.078  29.227  33.522  1.00  0.00    -0.354 N 
ATOM     53  N   UNL A   1      42.587  27.581  31.144  1.00  0.00    -0.248 NA
ATOM     54  C   UNL A   1      43.936  26.070  29.980  1.00  0.00     0.031 C 
ATOM     55  C   UNL A   1      43.418  28.984  35.277  1.00  0.00     0.029 A 
ATOM     56  C   UNL A   1      43.169  28.519  33.995  1.00  0.00     0.049 A 
ATOM     57  H   UNL A   1      41.677  29.115  32.631  1.00  0.00     0.167 HD
ATOM     58  C   UNL A   1      43.605  27.142  31.981  1.00  0.00     0.074 A 
ATOM     59  C   UNL A   1      44.380  26.178  31.226  1.00  0.00     0.031 C 
ATOM     60  C   UNL A   1      43.887  27.515  33.254  1.00  0.00     0.034 A 
BRANCH  47  61
ATOM     61  C   UNL A   1      40.157  31.911  35.479  1.00  0.00     0.023 A 
ATOM     62  C   UNL A   1      40.889  33.101  35.668  1.00  0.00     0.012 A 
ATOM     63  C   UNL A   1      39.073  31.624  36.332  1.00  0.00     0.148 A 
ATOM     64  C   UNL A   1      40.572  33.977  36.706  1.00  0.00     0.002 A 
ATOM     65  C   UNL A   1      38.736  32.523  37.340  1.00  0.00     0.091 A 
ATOM     66  F   UNL A   1      38.402  30.478  36.152  1.00  0.00    -0.205 F 
ATOM     67  C   UNL A   1      39.490  33.692  37.534  1.00  0.00     0.022 A 
BRANCH  65  68
ATOM     68  S   UNL A   1      37.316  32.285  38.414  1.00  0.00     0.127 S 
ATOM     69  O   UNL A   1      36.282  33.041  37.708  1.00  0.00    -0.237 OA
ATOM     70  O   UNL A   1      37.142  30.832  38.377  1.00  0.00    -0.237 OA
ATOM     71  O   UNL A   1      37.703  32.817  39.713  1.00  0.00    -0.744 OA
ENDBRANCH  65  68
ENDBRANCH  47  61
BRANCH  48  72
ATOM     72  C   UNL A   1      42.239  26.131  27.589  1.00  0.00     0.023 A 
ATOM     73  C   UNL A   1      42.962  26.687  26.516  1.00  0.00     0.012 A 
ATOM     74  C   UNL A   1      41.861  24.776  27.534  1.00  0.00     0.148 A 
ATOM     75  C   UNL A   1      43.272  25.920  25.393  1.00  0.00     0.002 A 
ATOM     76  C   UNL A   1      42.218  24.003  26.434  1.00  0.00     0.091 A 
ATOM     77  F   UNL A   1      41.160  24.268  28.557  1.00  0.00    -0.205 F 
ATOM     78  C   UNL A   1      42.908  24.577  25.355  1.00  0.00     0.022 A 
BRANCH  76  79
ATOM     79  S   UNL A   1      41.904  22.236  26.367  1.00  0.00     0.127 S 
ATOM     80  O   UNL A   1      40.453  22.196  26.210  1.00  0.00    -0.237 OA
ATOM     81  O   UNL A   1      42.664  21.833  25.182  1.00  0.00    -0.237 OA
ATOM     82  O   UNL A   1      42.427  21.703  27.618  1.00  0.00    -0.744 OA
ENDBRANCH  76  79
ENDBRANCH  48  72
BRANCH  60  83
ATOM     83  C   UNL A   1      45.056  26.854  33.932  1.00  0.00     0.023 A 
ATOM     84  C   UNL A   1      46.324  27.467  33.894  1.00  0.00     0.012 A 
ATOM     85  C   UNL A   1      44.883  25.668  34.672  1.00  0.00     0.148 A 
ATOM     86  C   UNL A   1      47.408  26.895  34.558  1.00  0.00     0.002 A 
ATOM     87  C   UNL A   1      45.957  25.127  35.369  1.00  0.00     0.091 A 
ATOM     88  F   UNL A   1      43.673  25.088  34.679  1.00  0.00    -0.205 F 
ATOM     89  C   UNL A   1      47.222  25.733  35.304  1.00  0.00     0.022 A 
BRANCH  87  90
ATOM     90  S   UNL A   1      45.786  23.688  36.430  1.00  0.00     0.127 S 
ATOM     91  O   UNL A   1      47.167  23.460  36.850  1.00  0.00    -0.237 OA
ATOM     92  O   UNL A   1      44.900  24.182  37.486  1.00  0.00    -0.237 OA
ATOM     93  O   UNL A   1      45.202  22.645  35.596  1.00  0.00    -0.744 OA
ENDBRANCH  87  90
ENDBRANCH  60  83
ENDBRANCH  34  35
ENDBRANCH  26  29
ENDBRANCH  24  25
ENDBRANCH   1  24
TORSDOF 16
ENDMDL
MODEL 2
REMARK VINA RESULT:     -12.1      2.521      4.146
REMARK SMILES O=Cc1ccc2c(c1)C=C(C(=O)NCCCCNC(=O)c1ccc(-c3c4nc(c(-c5cccc(S(=O)(=O)[O-])c5F)c5ccc([nH]5)c(-c5cccc(S(=O)(=O)[O-])c5F)c5nc(c(-c6cccc(S(=O)(=O)[O-])c6F)c6ccc3[nH]6)C=C5)C=C4)cc1)[C@H](C(F)(F)F)O2
REMARK SMILES IDX 16 1 15 2 14 3 13 4 11 5 12 6 10 8 3 9 4 10 8 11 5 12 7 13
REMARK SMILES IDX 6 14 9 15 89 16 84 17 2 18 1 19 85 20 86 21 87 22 88 23
REMARK SMILES IDX 17 24 18 25 19 26 20 28 21 29 22 30 83 31 23 32 82 33 24 34
REMARK SMILES IDX 25 35 26 36 76 37 27 38 81 39 75 40 77 41 28 42 80 43 74 44
REMARK SMILES IDX 73 45 29 47 61 48 41 49 60 50 42 51 45 52 59 53 78 54 43 55
REMARK SMILES IDX 44 56 58 58 79 59 46 60 30 61 31 62 39 63 32 64 34 65 40 66
REMARK SMILES IDX 33 67 35 68 36 69 37 70 38 71 62 72 63 73 71 74 64 75 66 76
REMARK SMILES IDX 72 77 65 78 67 79 68 80 69 81 70 82 47 83 48 84 56 85 49 86
REMARK SMILES IDX 51 87 57 88 50 89 52 90 53 91 54 92 55 93
REMARK H PARENT 13 7 18 27 77 46 45 57
REMARK Flexibility Score: inf
ROOT
ATOM      1  C   UNL A   1      33.840  28.433  25.711  1.00  0.00     0.023 C 
ENDROOT
BRANCH   1   2
ATOM      2  C   UNL A   1      33.026  29.235  24.691  1.00  0.00     0.023 C 
BRANCH   2   3
ATOM      3  C   UNL A   1      33.448  29.017  23.233  1.00  0.00     0.116 C 
BRANCH   3   4
ATOM      4  N   UNL A   1      32.388  28.351  22.498  1.00  0.00    -0.352 N 
ATOM      5  C   UNL A   1      31.964  27.061  22.459  1.00  0.00     0.251 C 
ATOM      6  O   UNL A   1      31.123  26.751  21.618  1.00  0.00    -0.270 OA
ATOM      7  H   UNL A   1      31.875  28.953  21.913  1.00  0.00     0.163 HD
BRANCH   5   8
ATOM      8  C   UNL A   1      32.418  26.022  23.424  1.00  0.00     0.067 C 
ATOM      9  C   UNL A   1      35.713  23.204  25.556  1.00  0.00     0.015 A 
ATOM     10  C   UNL A   1      34.750  22.740  26.454  1.00  0.00     0.015 A 
ATOM     11  C   UNL A   1      35.366  24.116  24.556  1.00  0.00     0.023 A 
ATOM     12  C   UNL A   1      33.436  23.203  26.358  1.00  0.00     0.048 A 
ATOM     13  C   UNL A   1      34.045  24.573  24.463  1.00  0.00     0.018 A 
ATOM     14  C   UNL A   1      33.087  24.119  25.364  1.00  0.00     0.128 A 
ATOM     15  C   UNL A   1      33.681  25.576  23.477  1.00  0.00     0.025 C 
ATOM     16  O   UNL A   1      31.801  24.565  25.376  1.00  0.00    -0.475 OA
ATOM     17  C   UNL A   1      31.317  25.357  24.249  1.00  0.00     0.314 C 
BRANCH   9  18
ATOM     18  C   UNL A   1      37.116  22.756  25.668  1.00  0.00     0.260 C 
ATOM     19  O   UNL A   1      37.508  21.711  25.164  1.00  0.00    -0.298 OA
ENDBRANCH   9  18
BRANCH  17  20
ATOM     20  C   UNL A   1      30.212  26.290  24.797  1.00  0.00     0.429 C 
ATOM     21  F   UNL A   1      29.258  26.575  23.884  1.00  0.00    -0.167 F 
ATOM     22  F   UNL A   1      29.551  25.700  25.832  1.00  0.00    -0.167 F 
ATOM     23  F   UNL A   1      30.710  27.455  25.272  1.00  0.00    -0.167 F 
ENDBRANCH  17  20
ENDBRANCH   5   8
ENDBRANCH   3   4
ENDBRANCH   2   3
ENDBRANCH   1   2
BRANCH   1  24
ATOM     24  C   UNL A   1      33.524  28.747  27.169  1.00  0.00     0.116 C 
BRANCH  24  25
ATOM     25  N   UNL A   1      33.526  30.173  27.459  1.00  0.00    -0.352 N 
ATOM     26  C   UNL A   1      34.514  30.921  28.059  1.00  0.00     0.251 C 
ATOM     27  H   UNL A   1      32.717  30.667  27.193  1.00  0.00     0.163 HD
ATOM     28  O   UNL A   1      34.319  32.096  28.327  1.00  0.00    -0.269 OA
BRANCH  26  29
ATOM     29  C   UNL A   1      35.794  30.269  28.410  1.00  0.00     0.039 A 
ATOM     30  C   UNL A   1      36.858  30.347  27.509  1.00  0.00     0.014 A 
ATOM     31  C   UNL A   1      35.951  29.620  29.637  1.00  0.00     0.014 A 
ATOM     32  C   UNL A   1      38.103  29.830  27.868  1.00  0.00     0.010 A 
ATOM     33  C   UNL A   1      37.208  29.165  30.019  1.00  0.00     0.010 A 
ATOM     34  C   UNL A   1      38.296  29.265  29.139  1.00  0.00    -0.014 A 
BRANCH  34  35
ATOM     35  C   UNL A   1      39.630  28.780  29.574  1.00  0.00     0.031 A 
ATOM     36  C   UNL A   1      40.384  29.514  30.648  1.00  0.00     0.074 A 
ATOM     37  C   UNL A   1      40.197  27.735  28.939  1.00  0.00     0.049 A 
ATOM     38  N   UNL A   1      41.584  29.286  31.114  1.00  0.00    -0.248 NA
ATOM     39  C   UNL A   1      39.712  30.673  31.262  1.00  0.00     0.031 C 
ATOM     40  C   UNL A   1      39.596  26.989  27.831  1.00  0.00     0.029 A 
ATOM     41  N   UNL A   1      41.417  27.134  29.118  1.00  0.00    -0.354 N 
ATOM     42  C   UNL A   1      41.824  30.285  32.050  1.00  0.00     0.074 A 
ATOM     43  C   UNL A   1      40.660  31.144  32.058  1.00  0.00     0.031 C 
ATOM     44  C   UNL A   1      40.446  26.029  27.433  1.00  0.00     0.029 A 
ATOM     45  C   UNL A   1      41.660  26.104  28.239  1.00  0.00     0.049 A 
ATOM     46  H   UNL A   1      42.059  27.414  29.810  1.00  0.00     0.167 HD
ATOM     47  C   UNL A   1      42.898  30.452  32.857  1.00  0.00     0.034 A 
ATOM     48  C   UNL A   1      42.741  25.311  28.101  1.00  0.00     0.034 A 
ATOM     49  C   UNL A   1      44.031  29.568  32.879  1.00  0.00     0.049 A 
ATOM     50  C   UNL A   1      43.904  25.495  29.037  1.00  0.00     0.074 A 
ATOM     51  C   UNL A   1      45.139  29.611  33.707  1.00  0.00     0.029 A 
ATOM     52  N   UNL A   1      44.200  28.479  32.039  1.00  0.00    -0.354 N 
ATOM     53  N   UNL A   1      44.047  26.354  30.018  1.00  0.00    -0.248 NA
ATOM     54  C   UNL A   1      45.041  24.576  28.873  1.00  0.00     0.031 C 
ATOM     55  C   UNL A   1      45.983  28.548  33.362  1.00  0.00     0.029 A 
ATOM     56  C   UNL A   1      45.392  27.838  32.329  1.00  0.00     0.049 A 
ATOM     57  H   UNL A   1      43.566  28.202  31.339  1.00  0.00     0.167 HD
ATOM     58  C   UNL A   1      45.267  26.054  30.613  1.00  0.00     0.074 A 
ATOM     59  C   UNL A   1      45.815  24.922  29.894  1.00  0.00     0.031 C 
ATOM     60  C   UNL A   1      45.889  26.671  31.648  1.00  0.00     0.034 A 
BRANCH  47  61
ATOM     61  C   UNL A   1      42.861  31.594  33.838  1.00  0.00     0.023 A 
ATOM     62  C   UNL A   1      43.251  32.880  33.411  1.00  0.00     0.012 A 
ATOM     63  C   UNL A   1      42.395  31.415  35.155  1.00  0.00     0.148 A 
ATOM     64  C   UNL A   1      43.209  33.965  34.285  1.00  0.00     0.002 A 
ATOM     65  C   UNL A   1      42.318  32.510  36.010  1.00  0.00     0.091 A 
ATOM     66  F   UNL A   1      42.051  30.182  35.551  1.00  0.00    -0.205 F 
ATOM     67  C   UNL A   1      42.733  33.781  35.581  1.00  0.00     0.022 A 
BRANCH  65  68
ATOM     68  S   UNL A   1      41.651  32.394  37.675  1.00  0.00     0.127 S 
ATOM     69  O   UNL A   1      40.249  32.077  37.409  1.00  0.00    -0.237 OA
ATOM     70  O   UNL A   1      42.428  31.290  38.241  1.00  0.00    -0.237 OA
ATOM     71  O   UNL A   1      41.895  33.688  38.295  1.00  0.00    -0.744 OA
ENDBRANCH  65  68
ENDBRANCH  47  61
BRANCH  48  72
ATOM     72  C   UNL A   1      42.740  24.213  27.092  1.00  0.00     0.023 A 
ATOM     73  C   UNL A   1      43.401  24.411  25.864  1.00  0.00     0.012 A 
ATOM     74  C   UNL A   1      42.111  22.978  27.341  1.00  0.00     0.148 A 
ATOM     75  C   UNL A   1      43.407  23.415  24.888  1.00  0.00     0.002 A 
ATOM     76  C   UNL A   1      42.165  21.970  26.385  1.00  0.00     0.091 A 
ATOM     77  F   UNL A   1      41.474  22.812  28.508  1.00  0.00    -0.205 F 
ATOM     78  C   UNL A   1      42.797  22.191  25.152  1.00  0.00     0.022 A 
BRANCH  76  79
ATOM     79  S   UNL A   1      41.520  20.323  26.697  1.00  0.00     0.127 S 
ATOM     80  O   UNL A   1      41.849  19.631  25.454  1.00  0.00    -0.237 OA
ATOM     81  O   UNL A   1      42.301  19.902  27.862  1.00  0.00    -0.237 OA
ATOM     82  O   UNL A   1      40.101  20.509  26.970  1.00  0.00    -0.744 OA
ENDBRANCH  76  79
ENDBRANCH  48  72
BRANCH  60  83
ATOM     83  C   UNL A   1      47.213  26.115  32.098  1.00  0.00     0.023 A 
ATOM     84  C   UNL A   1      48.403  26.573  31.498  1.00  0.00     0.012 A 
ATOM     85  C   UNL A   1      47.283  25.200  33.167  1.00  0.00     0.148 A 
ATOM     86  C   UNL A   1      49.641  26.106  31.937  1.00  0.00     0.002 A 
ATOM     87  C   UNL A   1      48.522  24.774  33.628  1.00  0.00     0.091 A 
ATOM     88  F   UNL A   1      46.138  24.761  33.711  1.00  0.00    -0.205 F 
ATOM     89  C   UNL A   1      49.701  25.217  33.008  1.00  0.00     0.022 A 
BRANCH  87  90
ATOM     90  S   UNL A   1      48.697  23.704  35.061  1.00  0.00     0.127 S 
ATOM     91  O   UNL A   1      50.148  23.562  35.153  1.00  0.00    -0.237 OA
ATOM     92  O   UNL A   1      48.094  24.508  36.126  1.00  0.00    -0.237 OA
ATOM     93  O   UNL A   1      47.964  22.486  34.741  1.00  0.00    -0.744 OA
ENDBRANCH  87  90
ENDBRANCH  60  83
ENDBRANCH  34  35
ENDBRANCH  26  29
ENDBRANCH  24  25
ENDBRANCH   1  24
TORSDOF 16
ENDMDL
MODEL 3
REMARK VINA RESULT:     -12.1      2.655      8.605
REMARK SMILES O=Cc1ccc2c(c1)C=C(C(=O)NCCCCNC(=O)c1ccc(-c3c4nc(c(-c5cccc(S(=O)(=O)[O-])c5F)c5ccc([nH]5)c(-c5cccc(S(=O)(=O)[O-])c5F)c5nc(c(-c6cccc(S(=O)(=O)[O-])c6F)c6ccc3[nH]6)C=C5)C=C4)cc1)[C@H](C(F)(F)F)O2
REMARK SMILES IDX 16 1 15 2 14 3 13 4 11 5 12 6 10 8 3 9 4 10 8 11 5 12 7 13
REMARK SMILES IDX 6 14 9 15 89 16 84 17 2 18 1 19 85 20 86 21 87 22 88 23
REMARK SMILES IDX 17 24 18 25 19 26 20 28 21 29 22 30 83 31 23 32 82 33 24 34
REMARK SMILES IDX 25 35 26 36 76 37 27 38 81 39 75 40 77 41 28 42 80 43 74 44
REMARK SMILES IDX 73 45 29 47 61 48 41 49 60 50 42 51 45 52 59 53 78 54 43 55
REMARK SMILES IDX 44 56 58 58 79 59 46 60 30 61 31 62 39 63 32 64 34 65 40 66
REMARK SMILES IDX 33 67 35 68 36 69 37 70 38 71 62 72 63 73 71 74 64 75 66 76
REMARK SMILES IDX 72 77 65 78 67 79 68 80 69 81 70 82 47 83 48 84 56 85 49 86
REMARK SMILES IDX 51 87 57 88 50 89 52 90 53 91 54 92 55 93
REMARK H PARENT 13 7 18 27 77 46 45 57
REMARK Flexibility Score: inf
ROOT
ATOM      1  C   UNL A   1      31.803  31.719  27.260  1.00  0.00     0.023 C 
ENDROOT
BRANCH   1   2
ATOM      2  C   UNL A   1      31.790  30.752  26.072  1.00  0.00     0.023 C 
BRANCH   2   3
ATOM      3  C   UNL A   1      33.037  29.866  25.963  1.00  0.00     0.116 C 
BRANCH   3   4
ATOM      4  N   UNL A   1      33.381  29.655  24.567  1.00  0.00    -0.352 N 
ATOM      5  C   UNL A   1      33.432  28.543  23.789  1.00  0.00     0.251 C 
ATOM      6  O   UNL A   1      33.909  28.645  22.661  1.00  0.00    -0.270 OA
ATOM      7  H   UNL A   1      33.626  30.482  24.092  1.00  0.00     0.163 HD
BRANCH   5   8
ATOM      8  C   UNL A   1      32.880  27.226  24.209  1.00  0.00     0.067 C 
ATOM      9  C   UNL A   1      32.877  23.121  26.757  1.00  0.00     0.015 A 
ATOM     10  C   UNL A   1      31.623  22.789  26.239  1.00  0.00     0.015 A 
ATOM     11  C   UNL A   1      33.518  24.296  26.357  1.00  0.00     0.023 A 
ATOM     12  C   UNL A   1      31.004  23.645  25.328  1.00  0.00     0.048 A 
ATOM     13  C   UNL A   1      32.892  25.149  25.439  1.00  0.00     0.018 A 
ATOM     14  C   UNL A   1      31.638  24.824  24.930  1.00  0.00     0.128 A 
ATOM     15  C   UNL A   1      33.509  26.410  25.067  1.00  0.00     0.025 C 
ATOM     16  O   UNL A   1      30.942  25.632  24.086  1.00  0.00    -0.475 OA
ATOM     17  C   UNL A   1      31.623  26.767  23.471  1.00  0.00     0.314 C 
BRANCH   9  18
ATOM     18  C   UNL A   1      33.529  22.246  27.753  1.00  0.00     0.260 C 
ATOM     19  O   UNL A   1      34.075  21.197  27.438  1.00  0.00    -0.298 OA
ENDBRANCH   9  18
BRANCH  17  20
ATOM     20  C   UNL A   1      30.549  27.849  23.209  1.00  0.00     0.429 C 
ATOM     21  F   UNL A   1      30.351  28.666  24.266  1.00  0.00    -0.167 F 
ATOM     22  F   UNL A   1      30.928  28.668  22.188  1.00  0.00    -0.167 F 
ATOM     23  F   UNL A   1      29.357  27.316  22.852  1.00  0.00    -0.167 F 
ENDBRANCH  17  20
ENDBRANCH   5   8
ENDBRANCH   3   4
ENDBRANCH   2   3
ENDBRANCH   1   2
BRANCH   1  24
ATOM     24  C   UNL A   1      32.977  32.692  27.277  1.00  0.00     0.116 C 
BRANCH  24  25
ATOM     25  N   UNL A   1      32.587  34.051  27.626  1.00  0.00    -0.352 N 
ATOM     26  C   UNL A   1      33.100  34.859  28.615  1.00  0.00     0.251 C 
ATOM     27  H   UNL A   1      31.863  34.442  27.085  1.00  0.00     0.163 HD
ATOM     28  O   UNL A   1      32.590  35.944  28.849  1.00  0.00    -0.269 OA
BRANCH  26  29
ATOM     29  C   UNL A   1      34.247  34.376  29.413  1.00  0.00     0.039 A 
ATOM     30  C   UNL A   1      33.996  33.678  30.596  1.00  0.00     0.014 A 
ATOM     31  C   UNL A   1      35.558  34.578  28.974  1.00  0.00     0.014 A 
ATOM     32  C   UNL A   1      35.061  33.123  31.307  1.00  0.00     0.010 A 
ATOM     33  C   UNL A   1      36.611  33.969  29.648  1.00  0.00     0.010 A 
ATOM     34  C   UNL A   1      36.373  33.237  30.820  1.00  0.00    -0.014 A 
BRANCH  34  35
ATOM     35  C   UNL A   1      37.514  32.589  31.516  1.00  0.00     0.031 A 
ATOM     36  C   UNL A   1      38.230  31.434  30.872  1.00  0.00     0.074 A 
ATOM     37  C   UNL A   1      37.843  32.983  32.762  1.00  0.00     0.049 A 
ATOM     38  N   UNL A   1      39.199  30.697  31.348  1.00  0.00    -0.248 NA
ATOM     39  C   UNL A   1      37.780  31.036  29.527  1.00  0.00     0.031 C 
ATOM     40  C   UNL A   1      37.173  34.041  33.521  1.00  0.00     0.029 A 
ATOM     41  N   UNL A   1      38.809  32.521  33.620  1.00  0.00    -0.354 N 
ATOM     42  C   UNL A   1      39.455  29.734  30.380  1.00  0.00     0.074 A 
ATOM     43  C   UNL A   1      38.513  29.955  29.305  1.00  0.00     0.031 C 
ATOM     44  C   UNL A   1      37.751  34.152  34.728  1.00  0.00     0.029 A 
ATOM     45  C   UNL A   1      38.815  33.159  34.839  1.00  0.00     0.049 A 
ATOM     46  H   UNL A   1      39.439  31.803  33.386  1.00  0.00     0.167 HD
ATOM     47  C   UNL A   1      40.412  28.776  30.368  1.00  0.00     0.034 A 
ATOM     48  C   UNL A   1      39.592  32.964  35.923  1.00  0.00     0.034 A 
ATOM     49  C   UNL A   1      41.377  28.591  31.416  1.00  0.00     0.049 A 
ATOM     50  C   UNL A   1      40.672  31.918  35.866  1.00  0.00     0.074 A 
ATOM     51  C   UNL A   1      42.429  27.693  31.469  1.00  0.00     0.029 A 
ATOM     52  N   UNL A   1      41.411  29.318  32.596  1.00  0.00    -0.354 N 
ATOM     53  N   UNL A   1      40.994  31.116  34.879  1.00  0.00    -0.248 NA
ATOM     54  C   UNL A   1      41.520  31.773  37.059  1.00  0.00     0.031 C 
ATOM     55  C   UNL A   1      43.097  27.875  32.686  1.00  0.00     0.029 A 
ATOM     56  C   UNL A   1      42.468  28.894  33.382  1.00  0.00     0.049 A 
ATOM     57  H   UNL A   1      40.777  30.030  32.839  1.00  0.00     0.167 HD
ATOM     58  C   UNL A   1      42.105  30.403  35.315  1.00  0.00     0.074 A 
ATOM     59  C   UNL A   1      42.412  30.881  36.648  1.00  0.00     0.031 C 
ATOM     60  C   UNL A   1      42.799  29.428  34.678  1.00  0.00     0.034 A 
BRANCH  47  61
ATOM     61  C   UNL A   1      40.508  27.904  29.144  1.00  0.00     0.023 A 
ATOM     62  C   UNL A   1      39.629  26.811  29.007  1.00  0.00     0.012 A 
ATOM     63  C   UNL A   1      41.421  28.190  28.109  1.00  0.00     0.148 A 
ATOM     64  C   UNL A   1      39.675  25.995  27.878  1.00  0.00     0.002 A 
ATOM     65  C   UNL A   1      41.434  27.396  26.967  1.00  0.00     0.091 A 
ATOM     66  F   UNL A   1      42.265  29.218  28.266  1.00  0.00    -0.205 F 
ATOM     67  C   UNL A   1      40.570  26.294  26.854  1.00  0.00     0.022 A 
BRANCH  65  68
ATOM     68  S   UNL A   1      42.499  27.739  25.561  1.00  0.00     0.127 S 
ATOM     69  O   UNL A   1      42.265  26.565  24.721  1.00  0.00    -0.237 OA
ATOM     70  O   UNL A   1      41.930  28.983  25.040  1.00  0.00    -0.237 OA
ATOM     71  O   UNL A   1      43.845  27.866  26.099  1.00  0.00    -0.744 OA
ENDBRANCH  65  68
ENDBRANCH  47  61
BRANCH  48  72
ATOM     72  C   UNL A   1      39.435  33.834  37.124  1.00  0.00     0.023 A 
ATOM     73  C   UNL A   1      39.914  35.158  37.077  1.00  0.00     0.012 A 
ATOM     74  C   UNL A   1      38.805  33.374  38.295  1.00  0.00     0.148 A 
ATOM     75  C   UNL A   1      39.803  35.996  38.186  1.00  0.00     0.002 A 
ATOM     76  C   UNL A   1      38.650  34.231  39.380  1.00  0.00     0.091 A 
ATOM     77  F   UNL A   1      38.369  32.107  38.328  1.00  0.00    -0.205 F 
ATOM     78  C   UNL A   1      39.162  35.536  39.334  1.00  0.00     0.022 A 
BRANCH  76  79
ATOM     79  S   UNL A   1      37.723  33.760  40.844  1.00  0.00     0.127 S 
ATOM     80  O   UNL A   1      37.544  35.045  41.512  1.00  0.00    -0.237 OA
ATOM     81  O   UNL A   1      36.504  33.190  40.267  1.00  0.00    -0.237 OA
ATOM     82  O   UNL A   1      38.561  32.790  41.536  1.00  0.00    -0.744 OA
ENDBRANCH  76  79
ENDBRANCH  48  72
BRANCH  60  83
ATOM     83  C   UNL A   1      43.984  28.835  35.391  1.00  0.00     0.023 A 
ATOM     84  C   UNL A   1      45.264  29.392  35.201  1.00  0.00     0.012 A 
ATOM     85  C   UNL A   1      43.817  27.778  36.308  1.00  0.00     0.148 A 
ATOM     86  C   UNL A   1      46.365  28.887  35.892  1.00  0.00     0.002 A 
ATOM     87  C   UNL A   1      44.911  27.310  37.025  1.00  0.00     0.091 A 
ATOM     88  F   UNL A   1      42.594  27.247  36.459  1.00  0.00    -0.205 F 
ATOM     89  C   UNL A   1      46.187  27.856  36.811  1.00  0.00     0.022 A 
BRANCH  87  90
ATOM     90  S   UNL A   1      44.757  26.050  38.297  1.00  0.00     0.127 S 
ATOM     91  O   UNL A   1      46.136  25.928  38.765  1.00  0.00    -0.237 OA
ATOM     92  O   UNL A   1      43.842  26.679  39.251  1.00  0.00    -0.237 OA
ATOM     93  O   UNL A   1      44.213  24.875  37.629  1.00  0.00    -0.744 OA
ENDBRANCH  87  90
ENDBRANCH  60  83
ENDBRANCH  34  35
ENDBRANCH  26  29
ENDBRANCH  24  25
ENDBRANCH   1  24
TORSDOF 16
ENDMDL
