MODEL 1
REMARK VINA RESULT:     -12.8      0.000      0.000
REMARK SMILES CC[C@@H](Oc1cc(Cl)ccc1Cl)C(=O)NNC(=O)[C@@H]1[C@@H]2CC[C@@H](C2)[C@@H]1C(=O)NCCCCNC(=O)c1ccc(-c2c3nc(c(-c4cccc(S(=O)(=O)[O-])c4F)c4ccc([nH]4)c(-c4cccc(S(=O)(=O)[O-])c4F)c4nc(c(-c5cccc(S(=O)(=O)[O-])c5F)c5ccc2[nH]5)C=C4)C=C3)cc1
REMARK SMILES IDX 29 1 28 2 26 3 27 4 25 6 19 7 20 8 21 9 24 10 23 11 22 12
REMARK SMILES IDX 17 13 16 14 18 16 15 17 13 18 14 19 3 21 2 22 1 23 4 24 5 25
REMARK SMILES IDX 6 26 11 27 7 28 10 29 12 30 8 31 9 32 30 33 31 34 32 35
REMARK SMILES IDX 33 36 34 37 35 39 36 40 37 41 98 42 38 43 97 44 39 45 40 46
REMARK SMILES IDX 41 47 91 48 42 49 96 50 90 51 92 52 43 53 95 54 89 55 88 56
REMARK SMILES IDX 44 58 76 59 56 60 75 61 57 62 60 63 74 64 93 65 58 66 59 67
REMARK SMILES IDX 73 69 94 70 61 71 45 72 46 73 54 74 47 75 49 76 55 77 48 78
REMARK SMILES IDX 50 79 51 80 52 81 53 82 77 83 78 84 86 85 79 86 81 87 87 88
REMARK SMILES IDX 80 89 82 90 83 91 84 92 85 93 62 94 63 95 71 96 64 97 66 98
REMARK SMILES IDX 72 99 65 100 67 101 68 102 69 103 70 104
REMARK H PARENT 28 5 16 15 15 20 33 38 92 57 60 68
REMARK Flexibility Score: inf
ROOT
ATOM      1  C   UNL A   1      32.458  29.300  27.275  1.00  0.00     0.116 C 
ENDROOT
BRANCH   1   2
ATOM      2  N   UNL A   1      33.311  28.210  26.843  1.00  0.00    -0.356 N 
ATOM      3  C   UNL A   1      33.030  27.128  26.066  1.00  0.00     0.224 C 
ATOM      4  O   UNL A   1      33.971  26.412  25.742  1.00  0.00    -0.275 OA
ATOM      5  H   UNL A   1      34.241  28.261  27.163  1.00  0.00     0.163 HD
BRANCH   3   6
ATOM      6  C   UNL A   1      31.602  26.876  25.621  1.00  0.00     0.094 C 
ATOM      7  C   UNL A   1      30.969  25.462  25.681  1.00  0.00     0.096 C 
ATOM      8  C   UNL A   1      30.260  25.326  24.302  1.00  0.00     0.002 C 
ATOM      9  C   UNL A   1      31.219  25.149  23.123  1.00  0.00     0.005 C 
ATOM     10  C   UNL A   1      29.835  26.783  24.045  1.00  0.00     0.009 C 
ATOM     11  C   UNL A   1      31.265  27.319  24.171  1.00  0.00     0.002 C 
ATOM     12  C   UNL A   1      31.996  26.473  23.111  1.00  0.00     0.005 C 
BRANCH   7  13
ATOM     13  C   UNL A   1      31.638  24.217  26.287  1.00  0.00     0.242 C 
ATOM     14  N   UNL A   1      32.733  23.594  25.770  1.00  0.00    -0.267 N 
ATOM     15  H   UNL A   1      33.026  22.760  26.203  1.00  0.00     0.191 HD
ATOM     16  O   UNL A   1      31.121  23.703  27.290  1.00  0.00    -0.273 OA
BRANCH  14  17
ATOM     17  N   UNL A   1      33.463  24.037  24.691  1.00  0.00    -0.264 N 
ATOM     18  C   UNL A   1      34.046  23.236  23.739  1.00  0.00     0.279 C 
ATOM     19  O   UNL A   1      34.308  23.697  22.625  1.00  0.00    -0.269 OA
ATOM     20  H   UNL A   1      33.577  25.009  24.592  1.00  0.00     0.191 HD
BRANCH  18  21
ATOM     21  C   UNL A   1      34.626  21.893  24.202  1.00  0.00     0.263 C 
BRANCH  21  22
ATOM     22  C   UNL A   1      35.750  22.282  25.190  1.00  0.00     0.052 C 
ATOM     23  C   UNL A   1      37.127  22.329  24.544  1.00  0.00     0.008 C 
ENDBRANCH  21  22
BRANCH  21  24
ATOM     24  O   UNL A   1      33.598  21.097  24.818  1.00  0.00    -0.479 OA
BRANCH  24  25
ATOM     25  C   UNL A   1      33.432  19.873  24.231  1.00  0.00     0.140 A 
ATOM     26  C   UNL A   1      34.068  18.775  24.816  1.00  0.00     0.068 A 
ATOM     27  C   UNL A   1      32.568  19.687  23.149  1.00  0.00     0.083 A 
ATOM     28  C   UNL A   1      33.921  17.511  24.254  1.00  0.00     0.044 A 
ATOM     29  C   UNL A   1      32.401  18.409  22.607  1.00  0.00     0.026 A 
ATOM     30  Cl  UNL A   1      31.680  20.998  22.466  1.00  0.00    -0.080 Cl
ATOM     31  Cl  UNL A   1      34.777  16.178  24.923  1.00  0.00    -0.084 Cl
ATOM     32  C   UNL A   1      33.092  17.322  23.151  1.00  0.00     0.022 A 
ENDBRANCH  24  25
ENDBRANCH  21  24
ENDBRANCH  18  21
ENDBRANCH  14  17
ENDBRANCH   7  13
ENDBRANCH   3   6
ENDBRANCH   1   2
BRANCH   1  33
ATOM     33  C   UNL A   1      32.185  30.323  26.176  1.00  0.00     0.023 C 
BRANCH  33  34
ATOM     34  C   UNL A   1      31.788  31.719  26.654  1.00  0.00     0.023 C 
BRANCH  34  35
ATOM     35  C   UNL A   1      32.851  32.481  27.434  1.00  0.00     0.116 C 
BRANCH  35  36
ATOM     36  N   UNL A   1      32.499  33.873  27.681  1.00  0.00    -0.352 N 
ATOM     37  C   UNL A   1      33.065  34.755  28.572  1.00  0.00     0.251 C 
ATOM     38  H   UNL A   1      31.758  34.229  27.139  1.00  0.00     0.163 HD
ATOM     39  O   UNL A   1      32.574  35.870  28.733  1.00  0.00    -0.269 OA
BRANCH  37  40
ATOM     40  C   UNL A   1      34.247  34.340  29.358  1.00  0.00     0.039 A 
ATOM     41  C   UNL A   1      34.060  33.733  30.603  1.00  0.00     0.014 A 
ATOM     42  C   UNL A   1      35.535  34.511  28.845  1.00  0.00     0.014 A 
ATOM     43  C   UNL A   1      35.161  33.228  31.300  1.00  0.00     0.010 A 
ATOM     44  C   UNL A   1      36.620  33.941  29.504  1.00  0.00     0.010 A 
ATOM     45  C   UNL A   1      36.445  33.294  30.737  1.00  0.00    -0.014 A 
BRANCH  45  46
ATOM     46  C   UNL A   1      37.632  32.704  31.411  1.00  0.00     0.031 A 
ATOM     47  C   UNL A   1      38.344  31.539  30.776  1.00  0.00     0.074 A 
ATOM     48  C   UNL A   1      38.001  33.134  32.634  1.00  0.00     0.049 A 
ATOM     49  N   UNL A   1      39.294  30.784  31.263  1.00  0.00    -0.248 NA
ATOM     50  C   UNL A   1      37.906  31.151  29.424  1.00  0.00     0.031 C 
ATOM     51  C   UNL A   1      37.361  34.219  33.381  1.00  0.00     0.029 A 
ATOM     52  N   UNL A   1      38.985  32.687  33.482  1.00  0.00    -0.354 N 
ATOM     53  C   UNL A   1      39.537  29.811  30.301  1.00  0.00     0.074 A 
ATOM     54  C   UNL A   1      38.612  30.050  29.215  1.00  0.00     0.031 C 
ATOM     55  C   UNL A   1      37.964  34.349  34.575  1.00  0.00     0.029 A 
ATOM     56  C   UNL A   1      39.009  33.337  34.695  1.00  0.00     0.049 A 
ATOM     57  H   UNL A   1      39.615  31.968  33.243  1.00  0.00     0.167 HD
ATOM     58  C   UNL A   1      40.467  28.827  30.305  1.00  0.00     0.034 A 
ATOM     59  C   UNL A   1      39.774  33.130  35.785  1.00  0.00     0.034 A 
ATOM     60  C   UNL A   1      41.418  28.622  31.362  1.00  0.00     0.049 A 
ATOM     61  C   UNL A   1      40.815  32.041  35.752  1.00  0.00     0.074 A 
ATOM     62  C   UNL A   1      42.438  27.690  31.433  1.00  0.00     0.029 A 
ATOM     63  N   UNL A   1      41.472  29.366  32.531  1.00  0.00    -0.354 N 
ATOM     64  N   UNL A   1      41.109  31.209  34.783  1.00  0.00    -0.248 NA
ATOM     65  C   UNL A   1      41.653  31.883  36.951  1.00  0.00     0.031 C 
ATOM     66  C   UNL A   1      43.103  27.863  32.652  1.00  0.00     0.029 A 
ATOM     67  C   UNL A   1      42.511  28.918  33.326  1.00  0.00     0.049 A 
ATOM     68  H   UNL A   1      40.861  30.102  32.760  1.00  0.00     0.167 HD
ATOM     69  C   UNL A   1      42.197  30.469  35.233  1.00  0.00     0.074 A 
ATOM     70  C   UNL A   1      42.515  30.955  36.560  1.00  0.00     0.031 C 
ATOM     71  C   UNL A   1      42.865  29.468  34.609  1.00  0.00     0.034 A 
BRANCH  58  72
ATOM     72  C   UNL A   1      40.541  27.931  29.095  1.00  0.00     0.023 A 
ATOM     73  C   UNL A   1      39.622  26.870  28.963  1.00  0.00     0.012 A 
ATOM     74  C   UNL A   1      41.474  28.170  28.066  1.00  0.00     0.148 A 
ATOM     75  C   UNL A   1      39.651  26.039  27.845  1.00  0.00     0.002 A 
ATOM     76  C   UNL A   1      41.466  27.365  26.933  1.00  0.00     0.091 A 
ATOM     77  F   UNL A   1      42.351  29.171  28.218  1.00  0.00    -0.205 F 
ATOM     78  C   UNL A   1      40.565  26.292  26.826  1.00  0.00     0.022 A 
BRANCH  76  79
ATOM     79  S   UNL A   1      42.549  27.656  25.530  1.00  0.00     0.127 S 
ATOM     80  O   UNL A   1      42.299  26.469  24.713  1.00  0.00    -0.237 OA
ATOM     81  O   UNL A   1      42.010  28.899  24.978  1.00  0.00    -0.237 OA
ATOM     82  O   UNL A   1      43.894  27.765  26.076  1.00  0.00    -0.744 OA
ENDBRANCH  76  79
ENDBRANCH  58  72
BRANCH  59  83
ATOM     83  C   UNL A   1      39.638  34.011  36.980  1.00  0.00     0.023 A 
ATOM     84  C   UNL A   1      40.096  35.342  36.908  1.00  0.00     0.012 A 
ATOM     85  C   UNL A   1      39.065  33.550  38.181  1.00  0.00     0.148 A 
ATOM     86  C   UNL A   1      40.023  36.183  38.018  1.00  0.00     0.002 A 
ATOM     87  C   UNL A   1      38.945  34.410  39.267  1.00  0.00     0.091 A 
ATOM     88  F   UNL A   1      38.646  32.278  38.237  1.00  0.00    -0.205 F 
ATOM     89  C   UNL A   1      39.441  35.721  39.195  1.00  0.00     0.022 A 
BRANCH  87  90
ATOM     90  S   UNL A   1      38.097  33.938  40.778  1.00  0.00     0.127 S 
ATOM     91  O   UNL A   1      38.078  35.198  41.517  1.00  0.00    -0.237 OA
ATOM     92  O   UNL A   1      36.796  33.499  40.273  1.00  0.00    -0.237 OA
ATOM     93  O   UNL A   1      38.902  32.872  41.360  1.00  0.00    -0.744 OA
ENDBRANCH  87  90
ENDBRANCH  59  83
BRANCH  71  94
ATOM     94  C   UNL A   1      44.056  28.871  35.310  1.00  0.00     0.023 A 
ATOM     95  C   UNL A   1      45.339  29.418  35.115  1.00  0.00     0.012 A 
ATOM     96  C   UNL A   1      43.882  27.825  36.240  1.00  0.00     0.148 A 
ATOM     97  C   UNL A   1      46.435  28.917  35.818  1.00  0.00     0.002 A 
ATOM     98  C   UNL A   1      44.969  27.366  36.972  1.00  0.00     0.091 A 
ATOM     99  F   UNL A   1      42.655  27.307  36.396  1.00  0.00    -0.205 F 
ATOM    100  C   UNL A   1      46.248  27.903  36.755  1.00  0.00     0.022 A 
BRANCH  98 101
ATOM    101  S   UNL A   1      44.806  26.134  38.269  1.00  0.00     0.127 S 
ATOM    102  O   UNL A   1      44.545  24.921  37.497  1.00  0.00    -0.237 OA
ATOM    103  O   UNL A   1      46.123  26.180  38.907  1.00  0.00    -0.237 OA
ATOM    104  O   UNL A   1      43.709  26.583  39.115  1.00  0.00    -0.744 OA
ENDBRANCH  98 101
ENDBRANCH  71  94
ENDBRANCH  45  46
ENDBRANCH  37  40
ENDBRANCH  35  36
ENDBRANCH  34  35
ENDBRANCH  33  34
ENDBRANCH   1  33
TORSDOF 20
ENDMDL
MODEL 2
REMARK VINA RESULT:     -11.3      1.714      2.121
REMARK SMILES CC[C@@H](Oc1cc(Cl)ccc1Cl)C(=O)NNC(=O)[C@@H]1[C@@H]2CC[C@@H](C2)[C@@H]1C(=O)NCCCCNC(=O)c1ccc(-c2c3nc(c(-c4cccc(S(=O)(=O)[O-])c4F)c4ccc([nH]4)c(-c4cccc(S(=O)(=O)[O-])c4F)c4nc(c(-c5cccc(S(=O)(=O)[O-])c5F)c5ccc2[nH]5)C=C4)C=C3)cc1
REMARK SMILES IDX 29 1 28 2 26 3 27 4 25 6 19 7 20 8 21 9 24 10 23 11 22 12
REMARK SMILES IDX 17 13 16 14 18 16 15 17 13 18 14 19 3 21 2 22 1 23 4 24 5 25
REMARK SMILES IDX 6 26 11 27 7 28 10 29 12 30 8 31 9 32 30 33 31 34 32 35
REMARK SMILES IDX 33 36 34 37 35 39 36 40 37 41 98 42 38 43 97 44 39 45 40 46
REMARK SMILES IDX 41 47 91 48 42 49 96 50 90 51 92 52 43 53 95 54 89 55 88 56
REMARK SMILES IDX 44 58 76 59 56 60 75 61 57 62 60 63 74 64 93 65 58 66 59 67
REMARK SMILES IDX 73 69 94 70 61 71 45 72 46 73 54 74 47 75 49 76 55 77 48 78
REMARK SMILES IDX 50 79 51 80 52 81 53 82 77 83 78 84 86 85 79 86 81 87 87 88
REMARK SMILES IDX 80 89 82 90 83 91 84 92 85 93 62 94 63 95 71 96 64 97 66 98
REMARK SMILES IDX 72 99 65 100 67 101 68 102 69 103 70 104
REMARK H PARENT 28 5 16 15 15 20 33 38 92 57 60 68
REMARK Flexibility Score: inf
ROOT
ATOM      1  C   UNL A   1      32.065  28.769  27.634  1.00  0.00     0.116 C 
ENDROOT
BRANCH   1   2
ATOM      2  N   UNL A   1      32.948  27.880  26.903  1.00  0.00    -0.356 N 
ATOM      3  C   UNL A   1      32.707  27.102  25.814  1.00  0.00     0.224 C 
ATOM      4  O   UNL A   1      33.668  26.533  25.308  1.00  0.00    -0.275 OA
ATOM      5  H   UNL A   1      33.868  27.834  27.252  1.00  0.00     0.163 HD
BRANCH   3   6
ATOM      6  C   UNL A   1      31.296  26.994  25.267  1.00  0.00     0.094 C 
ATOM      7  C   UNL A   1      30.521  25.651  25.273  1.00  0.00     0.096 C 
ATOM      8  C   UNL A   1      29.903  25.586  23.846  1.00  0.00     0.002 C 
ATOM      9  C   UNL A   1      30.920  25.313  22.737  1.00  0.00     0.005 C 
ATOM     10  C   UNL A   1      29.645  27.078  23.570  1.00  0.00     0.009 C 
ATOM     11  C   UNL A   1      31.109  27.468  23.800  1.00  0.00     0.002 C 
ATOM     12  C   UNL A   1      31.825  26.552  22.789  1.00  0.00     0.005 C 
BRANCH   7  13
ATOM     13  C   UNL A   1      31.017  24.345  25.917  1.00  0.00     0.242 C 
ATOM     14  N   UNL A   1      32.118  23.651  25.516  1.00  0.00    -0.267 N 
ATOM     15  H   UNL A   1      32.294  22.787  25.956  1.00  0.00     0.191 HD
ATOM     16  O   UNL A   1      30.345  23.850  26.834  1.00  0.00    -0.273 OA
BRANCH  14  17
ATOM     17  N   UNL A   1      33.006  24.060  24.547  1.00  0.00    -0.264 N 
ATOM     18  C   UNL A   1      33.753  23.229  23.748  1.00  0.00     0.279 C 
ATOM     19  O   UNL A   1      34.183  23.641  22.668  1.00  0.00    -0.269 OA
ATOM     20  H   UNL A   1      33.115  25.029  24.416  1.00  0.00     0.191 HD
BRANCH  18  21
ATOM     21  C   UNL A   1      34.275  21.927  24.370  1.00  0.00     0.263 C 
BRANCH  21  22
ATOM     22  C   UNL A   1      35.163  22.396  25.547  1.00  0.00     0.052 C 
ATOM     23  C   UNL A   1      34.728  21.828  26.890  1.00  0.00     0.008 C 
ENDBRANCH  21  22
BRANCH  21  24
ATOM     24  O   UNL A   1      33.174  21.108  24.801  1.00  0.00    -0.479 OA
BRANCH  24  25
ATOM     25  C   UNL A   1      33.158  19.870  24.221  1.00  0.00     0.140 A 
ATOM     26  C   UNL A   1      33.676  18.798  24.952  1.00  0.00     0.068 A 
ATOM     27  C   UNL A   1      32.544  19.644  22.985  1.00  0.00     0.083 A 
ATOM     28  C   UNL A   1      33.674  17.521  24.401  1.00  0.00     0.044 A 
ATOM     29  C   UNL A   1      32.519  18.352  22.450  1.00  0.00     0.026 A 
ATOM     30  Cl  UNL A   1      31.797  20.921  22.101  1.00  0.00    -0.080 Cl
ATOM     31  Cl  UNL A   1      34.394  16.221  25.266  1.00  0.00    -0.084 Cl
ATOM     32  C   UNL A   1      33.100  17.292  23.153  1.00  0.00     0.022 A 
ENDBRANCH  24  25
ENDBRANCH  21  24
ENDBRANCH  18  21
ENDBRANCH  14  17
ENDBRANCH   7  13
ENDBRANCH   3   6
ENDBRANCH   1   2
BRANCH   1  33
ATOM     33  C   UNL A   1      31.765  30.066  26.888  1.00  0.00     0.023 C 
BRANCH  33  34
ATOM     34  C   UNL A   1      32.274  31.345  27.551  1.00  0.00     0.023 C 
BRANCH  34  35
ATOM     35  C   UNL A   1      32.518  32.525  26.619  1.00  0.00     0.116 C 
BRANCH  35  36
ATOM     36  N   UNL A   1      32.338  33.818  27.265  1.00  0.00    -0.352 N 
ATOM     37  C   UNL A   1      33.061  34.369  28.297  1.00  0.00     0.251 C 
ATOM     38  H   UNL A   1      31.600  34.370  26.918  1.00  0.00     0.163 HD
ATOM     39  O   UNL A   1      32.707  35.432  28.801  1.00  0.00    -0.269 OA
BRANCH  37  40
ATOM     40  C   UNL A   1      34.249  33.656  28.817  1.00  0.00     0.039 A 
ATOM     41  C   UNL A   1      35.519  34.029  28.367  1.00  0.00     0.014 A 
ATOM     42  C   UNL A   1      34.110  32.652  29.778  1.00  0.00     0.014 A 
ATOM     43  C   UNL A   1      36.654  33.448  28.938  1.00  0.00     0.010 A 
ATOM     44  C   UNL A   1      35.241  32.131  30.397  1.00  0.00     0.010 A 
ATOM     45  C   UNL A   1      36.525  32.522  29.985  1.00  0.00    -0.014 A 
BRANCH  45  46
ATOM     46  C   UNL A   1      37.707  31.935  30.669  1.00  0.00     0.031 A 
ATOM     47  C   UNL A   1      38.499  30.852  29.986  1.00  0.00     0.074 A 
ATOM     48  C   UNL A   1      38.002  32.288  31.936  1.00  0.00     0.049 A 
ATOM     49  N   UNL A   1      39.460  30.104  30.461  1.00  0.00    -0.248 NA
ATOM     50  C   UNL A   1      38.139  30.548  28.590  1.00  0.00     0.031 C 
ATOM     51  C   UNL A   1      37.280  33.286  32.729  1.00  0.00     0.029 A 
ATOM     52  N   UNL A   1      38.967  31.822  32.794  1.00  0.00    -0.354 N 
ATOM     53  C   UNL A   1      39.790  29.217  29.443  1.00  0.00     0.074 A 
ATOM     54  C   UNL A   1      38.903  29.497  28.335  1.00  0.00     0.031 C 
ATOM     55  C   UNL A   1      37.824  33.353  33.956  1.00  0.00     0.029 A 
ATOM     56  C   UNL A   1      38.908  32.380  34.052  1.00  0.00     0.049 A 
ATOM     57  H   UNL A   1      39.639  31.150  32.535  1.00  0.00     0.167 HD
ATOM     58  C   UNL A   1      40.763  28.276  29.419  1.00  0.00     0.034 A 
ATOM     59  C   UNL A   1      39.633  32.125  35.159  1.00  0.00     0.034 A 
ATOM     60  C   UNL A   1      41.676  28.034  30.502  1.00  0.00     0.049 A 
ATOM     61  C   UNL A   1      40.723  31.087  35.096  1.00  0.00     0.074 A 
ATOM     62  C   UNL A   1      42.733  27.143  30.554  1.00  0.00     0.029 A 
ATOM     63  N   UNL A   1      41.644  28.690  31.724  1.00  0.00    -0.354 N 
ATOM     64  N   UNL A   1      41.098  30.343  34.084  1.00  0.00    -0.248 NA
ATOM     65  C   UNL A   1      41.514  30.876  36.318  1.00  0.00     0.031 C 
ATOM     66  C   UNL A   1      43.335  27.253  31.812  1.00  0.00     0.029 A 
ATOM     67  C   UNL A   1      42.667  28.229  32.533  1.00  0.00     0.049 A 
ATOM     68  H   UNL A   1      40.990  29.381  31.977  1.00  0.00     0.167 HD
ATOM     69  C   UNL A   1      42.198  29.619  34.530  1.00  0.00     0.074 A 
ATOM     70  C   UNL A   1      42.435  30.018  35.902  1.00  0.00     0.031 C 
ATOM     71  C   UNL A   1      42.938  28.697  33.867  1.00  0.00     0.034 A 
BRANCH  58  72
ATOM     72  C   UNL A   1      40.932  27.477  28.152  1.00  0.00     0.023 A 
ATOM     73  C   UNL A   1      41.592  28.059  27.052  1.00  0.00     0.012 A 
ATOM     74  C   UNL A   1      40.494  26.140  28.069  1.00  0.00     0.148 A 
ATOM     75  C   UNL A   1      41.783  27.337  25.875  1.00  0.00     0.002 A 
ATOM     76  C   UNL A   1      40.729  25.413  26.909  1.00  0.00     0.091 A 
ATOM     77  F   UNL A   1      39.852  25.611  29.119  1.00  0.00    -0.205 F 
ATOM     78  C   UNL A   1      41.362  26.013  25.806  1.00  0.00     0.022 A 
BRANCH  76  79
ATOM     79  S   UNL A   1      40.297  23.677  26.748  1.00  0.00     0.127 S 
ATOM     80  O   UNL A   1      38.922  23.759  26.258  1.00  0.00    -0.237 OA
ATOM     81  O   UNL A   1      41.269  23.209  25.759  1.00  0.00    -0.237 OA
ATOM     82  O   UNL A   1      40.454  23.099  28.075  1.00  0.00    -0.744 OA
ENDBRANCH  76  79
ENDBRANCH  58  72
BRANCH  59  83
ATOM     83  C   UNL A   1      39.404  32.908  36.407  1.00  0.00     0.023 A 
ATOM     84  C   UNL A   1      38.498  32.418  37.369  1.00  0.00     0.012 A 
ATOM     85  C   UNL A   1      40.068  34.125  36.651  1.00  0.00     0.148 A 
ATOM     86  C   UNL A   1      38.227  33.143  38.529  1.00  0.00     0.002 A 
ATOM     87  C   UNL A   1      39.835  34.816  37.835  1.00  0.00     0.091 A 
ATOM     88  F   UNL A   1      40.917  34.583  35.721  1.00  0.00    -0.205 F 
ATOM     89  C   UNL A   1      38.901  34.337  38.767  1.00  0.00     0.022 A 
BRANCH  87  90
ATOM     90  S   UNL A   1      40.750  36.296  38.281  1.00  0.00     0.127 S 
ATOM     91  O   UNL A   1      39.674  37.260  38.498  1.00  0.00    -0.237 OA
ATOM     92  O   UNL A   1      41.449  35.868  39.493  1.00  0.00    -0.237 OA
ATOM     93  O   UNL A   1      41.627  36.567  37.150  1.00  0.00    -0.744 OA
ENDBRANCH  87  90
ENDBRANCH  59  83
BRANCH  71  94
ATOM     94  C   UNL A   1      44.124  28.100  34.578  1.00  0.00     0.023 A 
ATOM     95  C   UNL A   1      45.367  28.762  34.559  1.00  0.00     0.012 A 
ATOM     96  C   UNL A   1      43.974  26.929  35.349  1.00  0.00     0.148 A 
ATOM     97  C   UNL A   1      46.449  28.254  35.276  1.00  0.00     0.002 A 
ATOM     98  C   UNL A   1      45.042  26.457  36.100  1.00  0.00     0.091 A 
ATOM     99  F   UNL A   1      42.787  26.305  35.338  1.00  0.00    -0.205 F 
ATOM    100  C   UNL A   1      46.283  27.112  36.057  1.00  0.00     0.022 A 
BRANCH  98 101
ATOM    101  S   UNL A   1      44.894  25.053  37.210  1.00  0.00     0.127 S 
ATOM    102  O   UNL A   1      44.448  25.695  38.446  1.00  0.00    -0.237 OA
ATOM    103  O   UNL A   1      43.877  24.238  36.544  1.00  0.00    -0.237 OA
ATOM    104  O   UNL A   1      46.216  24.442  37.267  1.00  0.00    -0.744 OA
ENDBRANCH  98 101
ENDBRANCH  71  94
ENDBRANCH  45  46
ENDBRANCH  37  40
ENDBRANCH  35  36
ENDBRANCH  34  35
ENDBRANCH  33  34
ENDBRANCH   1  33
TORSDOF 20
ENDMDL
MODEL 3
REMARK VINA RESULT:     -11.0      3.111      8.208
REMARK SMILES CC[C@@H](Oc1cc(Cl)ccc1Cl)C(=O)NNC(=O)[C@@H]1[C@@H]2CC[C@@H](C2)[C@@H]1C(=O)NCCCCNC(=O)c1ccc(-c2c3nc(c(-c4cccc(S(=O)(=O)[O-])c4F)c4ccc([nH]4)c(-c4cccc(S(=O)(=O)[O-])c4F)c4nc(c(-c5cccc(S(=O)(=O)[O-])c5F)c5ccc2[nH]5)C=C4)C=C3)cc1
REMARK SMILES IDX 29 1 28 2 26 3 27 4 25 6 19 7 20 8 21 9 24 10 23 11 22 12
REMARK SMILES IDX 17 13 16 14 18 16 15 17 13 18 14 19 3 21 2 22 1 23 4 24 5 25
REMARK SMILES IDX 6 26 11 27 7 28 10 29 12 30 8 31 9 32 30 33 31 34 32 35
REMARK SMILES IDX 33 36 34 37 35 39 36 40 37 41 98 42 38 43 97 44 39 45 40 46
REMARK SMILES IDX 41 47 91 48 42 49 96 50 90 51 92 52 43 53 95 54 89 55 88 56
REMARK SMILES IDX 44 58 76 59 56 60 75 61 57 62 60 63 74 64 93 65 58 66 59 67
REMARK SMILES IDX 73 69 94 70 61 71 45 72 46 73 54 74 47 75 49 76 55 77 48 78
REMARK SMILES IDX 50 79 51 80 52 81 53 82 77 83 78 84 86 85 79 86 81 87 87 88
REMARK SMILES IDX 80 89 82 90 83 91 84 92 85 93 62 94 63 95 71 96 64 97 66 98
REMARK SMILES IDX 72 99 65 100 67 101 68 102 69 103 70 104
REMARK H PARENT 28 5 16 15 15 20 33 38 92 57 60 68
REMARK Flexibility Score: inf
ROOT
ATOM      1  C   UNL A   1      32.760  29.509  26.783  1.00  0.00     0.116 C 
ENDROOT
BRANCH   1   2
ATOM      2  N   UNL A   1      32.247  29.549  25.428  1.00  0.00    -0.356 N 
ATOM      3  C   UNL A   1      31.424  28.686  24.774  1.00  0.00     0.224 C 
ATOM      4  O   UNL A   1      31.035  29.018  23.659  1.00  0.00    -0.275 OA
ATOM      5  H   UNL A   1      32.541  30.324  24.898  1.00  0.00     0.163 HD
BRANCH   3   6
ATOM      6  C   UNL A   1      31.008  27.391  25.446  1.00  0.00     0.094 C 
ATOM      7  C   UNL A   1      31.956  26.166  25.509  1.00  0.00     0.096 C 
ATOM      8  C   UNL A   1      31.033  24.976  25.116  1.00  0.00     0.002 C 
ATOM      9  C   UNL A   1      30.646  24.949  23.636  1.00  0.00     0.005 C 
ATOM     10  C   UNL A   1      29.689  25.439  25.705  1.00  0.00     0.009 C 
ATOM     11  C   UNL A   1      29.694  26.755  24.918  1.00  0.00     0.002 C 
ATOM     12  C   UNL A   1      29.828  26.238  23.473  1.00  0.00     0.005 C 
BRANCH   7  13
ATOM     13  C   UNL A   1      33.417  26.151  25.028  1.00  0.00     0.242 C 
ATOM     14  N   UNL A   1      34.378  25.302  25.489  1.00  0.00    -0.267 N 
ATOM     15  H   UNL A   1      35.296  25.438  25.161  1.00  0.00     0.191 HD
ATOM     16  O   UNL A   1      33.771  27.002  24.199  1.00  0.00    -0.273 OA
BRANCH  14  17
ATOM     17  N   UNL A   1      34.168  24.271  26.375  1.00  0.00    -0.264 N 
ATOM     18  C   UNL A   1      35.031  23.227  26.604  1.00  0.00     0.279 C 
ATOM     19  O   UNL A   1      34.973  22.604  27.667  1.00  0.00    -0.269 OA
ATOM     20  H   UNL A   1      33.328  24.282  26.889  1.00  0.00     0.191 HD
BRANCH  18  21
ATOM     21  C   UNL A   1      35.823  22.687  25.406  1.00  0.00     0.263 C 
BRANCH  21  22
ATOM     22  C   UNL A   1      37.278  22.594  25.920  1.00  0.00     0.052 C 
ATOM     23  C   UNL A   1      37.887  23.950  26.247  1.00  0.00     0.008 C 
ENDBRANCH  21  22
BRANCH  21  24
ATOM     24  O   UNL A   1      35.298  21.411  25.000  1.00  0.00    -0.479 OA
BRANCH  24  25
ATOM     25  C   UNL A   1      34.218  21.508  24.165  1.00  0.00     0.140 A 
ATOM     26  C   UNL A   1      34.191  22.563  23.250  1.00  0.00     0.068 A 
ATOM     27  C   UNL A   1      33.221  20.529  24.136  1.00  0.00     0.083 A 
ATOM     28  C   UNL A   1      33.114  22.694  22.379  1.00  0.00     0.044 A 
ATOM     29  C   UNL A   1      32.157  20.651  23.238  1.00  0.00     0.026 A 
ATOM     30  Cl  UNL A   1      33.274  19.153  25.175  1.00  0.00    -0.080 Cl
ATOM     31  Cl  UNL A   1      33.041  24.045  21.317  1.00  0.00    -0.084 Cl
ATOM     32  C   UNL A   1      32.095  21.745  22.370  1.00  0.00     0.022 A 
ENDBRANCH  24  25
ENDBRANCH  21  24
ENDBRANCH  18  21
ENDBRANCH  14  17
ENDBRANCH   7  13
ENDBRANCH   3   6
ENDBRANCH   1   2
BRANCH   1  33
ATOM     33  C   UNL A   1      33.283  30.856  27.270  1.00  0.00     0.023 C 
BRANCH  33  34
ATOM     34  C   UNL A   1      34.766  30.900  27.635  1.00  0.00     0.023 C 
BRANCH  34  35
ATOM     35  C   UNL A   1      35.300  32.255  28.084  1.00  0.00     0.116 C 
BRANCH  35  36
ATOM     36  N   UNL A   1      34.607  32.791  29.248  1.00  0.00    -0.352 N 
ATOM     37  C   UNL A   1      34.965  32.704  30.574  1.00  0.00     0.251 C 
ATOM     38  H   UNL A   1      33.774  33.280  29.062  1.00  0.00     0.163 HD
ATOM     39  O   UNL A   1      34.207  33.121  31.446  1.00  0.00    -0.269 OA
BRANCH  37  40
ATOM     40  C   UNL A   1      36.252  32.074  30.942  1.00  0.00     0.039 A 
ATOM     41  C   UNL A   1      36.243  30.861  31.637  1.00  0.00     0.014 A 
ATOM     42  C   UNL A   1      37.462  32.659  30.562  1.00  0.00     0.014 A 
ATOM     43  C   UNL A   1      37.447  30.196  31.884  1.00  0.00     0.010 A 
ATOM     44  C   UNL A   1      38.651  31.960  30.742  1.00  0.00     0.010 A 
ATOM     45  C   UNL A   1      38.658  30.722  31.405  1.00  0.00    -0.014 A 
BRANCH  45  46
ATOM     46  C   UNL A   1      39.951  30.011  31.582  1.00  0.00     0.031 A 
ATOM     47  C   UNL A   1      40.913  30.472  32.646  1.00  0.00     0.074 A 
ATOM     48  C   UNL A   1      40.311  29.034  30.726  1.00  0.00     0.049 A 
ATOM     49  N   UNL A   1      42.145  30.097  32.866  1.00  0.00    -0.248 NA
ATOM     50  C   UNL A   1      40.433  31.519  33.564  1.00  0.00     0.031 C 
ATOM     51  C   UNL A   1      39.493  28.531  29.620  1.00  0.00     0.029 A 
ATOM     52  N   UNL A   1      41.475  28.311  30.630  1.00  0.00    -0.354 N 
ATOM     53  C   UNL A   1      42.601  30.887  33.915  1.00  0.00     0.074 A 
ATOM     54  C   UNL A   1      41.524  31.786  34.265  1.00  0.00     0.031 C 
ATOM     55  C   UNL A   1      40.182  27.587  28.956  1.00  0.00     0.029 A 
ATOM     56  C   UNL A   1      41.501  27.442  29.563  1.00  0.00     0.049 A 
ATOM     57  H   UNL A   1      42.222  28.406  31.265  1.00  0.00     0.167 HD
ATOM     58  C   UNL A   1      43.796  30.848  34.551  1.00  0.00     0.034 A 
ATOM     59  C   UNL A   1      42.482  26.632  29.116  1.00  0.00     0.034 A 
ATOM     60  C   UNL A   1      44.846  29.920  34.234  1.00  0.00     0.049 A 
ATOM     61  C   UNL A   1      43.793  26.594  29.857  1.00  0.00     0.074 A 
ATOM     62  C   UNL A   1      46.071  29.761  34.857  1.00  0.00     0.029 A 
ATOM     63  N   UNL A   1      44.794  28.988  33.208  1.00  0.00    -0.354 N 
ATOM     64  N   UNL A   1      44.159  27.264  30.922  1.00  0.00    -0.248 NA
ATOM     65  C   UNL A   1      44.816  25.663  29.354  1.00  0.00     0.031 C 
ATOM     66  C   UNL A   1      46.765  28.739  34.201  1.00  0.00     0.029 A 
ATOM     67  C   UNL A   1      45.961  28.247  33.185  1.00  0.00     0.049 A 
ATOM     68  H   UNL A   1      44.038  28.873  32.588  1.00  0.00     0.167 HD
ATOM     69  C   UNL A   1      45.429  26.798  31.247  1.00  0.00     0.074 A 
ATOM     70  C   UNL A   1      45.766  25.783  30.270  1.00  0.00     0.031 C 
ATOM     71  C   UNL A   1      46.247  27.184  32.257  1.00  0.00     0.034 A 
BRANCH  58  72
ATOM     72  C   UNL A   1      44.008  31.799  35.700  1.00  0.00     0.023 A 
ATOM     73  C   UNL A   1      44.611  33.050  35.458  1.00  0.00     0.012 A 
ATOM     74  C   UNL A   1      43.561  31.486  36.999  1.00  0.00     0.148 A 
ATOM     75  C   UNL A   1      44.799  33.961  36.497  1.00  0.00     0.002 A 
ATOM     76  C   UNL A   1      43.711  32.417  38.019  1.00  0.00     0.091 A 
ATOM     77  F   UNL A   1      43.007  30.285  37.212  1.00  0.00    -0.205 F 
ATOM     78  C   UNL A   1      44.341  33.649  37.774  1.00  0.00     0.022 A 
BRANCH  76  79
ATOM     79  S   UNL A   1      43.084  32.146  39.680  1.00  0.00     0.127 S 
ATOM     80  O   UNL A   1      43.386  33.425  40.322  1.00  0.00    -0.237 OA
ATOM     81  O   UNL A   1      41.660  31.909  39.437  1.00  0.00    -0.237 OA
ATOM     82  O   UNL A   1      43.811  30.997  40.202  1.00  0.00    -0.744 OA
ENDBRANCH  76  79
ENDBRANCH  58  72
BRANCH  59  83
ATOM     83  C   UNL A   1      42.246  25.738  27.946  1.00  0.00     0.023 A 
ATOM     84  C   UNL A   1      42.269  26.285  26.648  1.00  0.00     0.012 A 
ATOM     85  C   UNL A   1      42.001  24.361  28.103  1.00  0.00     0.148 A 
ATOM     86  C   UNL A   1      42.013  25.488  25.532  1.00  0.00     0.002 A 
ATOM     87  C   UNL A   1      41.800  23.560  26.984  1.00  0.00     0.091 A 
ATOM     88  F   UNL A   1      41.970  23.859  29.345  1.00  0.00    -0.205 F 
ATOM     89  C   UNL A   1      41.786  24.124  25.699  1.00  0.00     0.022 A 
BRANCH  87  90
ATOM     90  S   UNL A   1      41.625  21.776  27.096  1.00  0.00     0.127 S 
ATOM     91  O   UNL A   1      42.658  21.435  28.071  1.00  0.00    -0.237 OA
ATOM     92  O   UNL A   1      40.251  21.635  27.577  1.00  0.00    -0.237 OA
ATOM     93  O   UNL A   1      41.839  21.278  25.743  1.00  0.00    -0.744 OA
ENDBRANCH  87  90
ENDBRANCH  59  83
BRANCH  71  94
ATOM     94  C   UNL A   1      47.560  26.465  32.415  1.00  0.00     0.023 A 
ATOM     95  C   UNL A   1      48.707  26.934  31.746  1.00  0.00     0.012 A 
ATOM     96  C   UNL A   1      47.673  25.381  33.310  1.00  0.00     0.148 A 
ATOM     97  C   UNL A   1      49.943  26.318  31.946  1.00  0.00     0.002 A 
ATOM     98  C   UNL A   1      48.916  24.806  33.542  1.00  0.00     0.091 A 
ATOM     99  F   UNL A   1      46.565  24.940  33.922  1.00  0.00    -0.205 F 
ATOM    100  C   UNL A   1      50.049  25.266  32.853  1.00  0.00     0.022 A 
BRANCH  98 101
ATOM    101  S   UNL A   1      49.166  23.513  34.763  1.00  0.00     0.127 S 
ATOM    102  O   UNL A   1      50.591  23.227  34.607  1.00  0.00    -0.237 OA
ATOM    103  O   UNL A   1      48.814  24.194  36.010  1.00  0.00    -0.237 OA
ATOM    104  O   UNL A   1      48.268  22.428  34.392  1.00  0.00    -0.744 OA
ENDBRANCH  98 101
ENDBRANCH  71  94
ENDBRANCH  45  46
ENDBRANCH  37  40
ENDBRANCH  35  36
ENDBRANCH  34  35
ENDBRANCH  33  34
ENDBRANCH   1  33
TORSDOF 20
ENDMDL
