MODEL 1
REMARK VINA RESULT:     -13.1      0.000      0.000
REMARK SMILES COc1ccc(-c2cnc(N)c(C(=O)NCCCCNC(=O)c3ccc(-c4c5nc(c(-c6cccc(S(=O)(=O)[O-])c6F)c6ccc([nH]6)c(-c6cccc(S(=O)(=O)[O-])c6F)c6nc(c(-c7cccc(S(=O)(=O)[O-])c7F)c7ccc4[nH]7)C=C6)C=C5)cc3)c2)c(C)c1
REMARK SMILES IDX 18 1 17 2 16 3 15 4 13 5 14 6 12 8 7 9 8 10 86 11 9 12 10 13
REMARK SMILES IDX 6 14 3 15 4 16 89 17 5 18 87 19 88 20 2 21 1 22 11 23 19 26
REMARK SMILES IDX 20 27 21 28 22 30 23 31 24 32 85 33 25 34 84 35 26 36 27 37
REMARK SMILES IDX 28 38 78 39 29 40 83 41 77 42 79 43 30 44 82 45 76 46 75 47
REMARK SMILES IDX 31 49 63 50 43 51 62 52 44 53 47 54 61 55 80 56 45 57 46 58
REMARK SMILES IDX 60 60 81 61 48 62 32 63 33 64 41 65 34 66 36 67 42 68 35 69
REMARK SMILES IDX 37 70 38 71 39 72 40 73 64 74 65 75 73 76 66 77 68 78 74 79
REMARK SMILES IDX 67 80 69 81 70 82 71 83 72 84 49 85 50 86 58 87 51 88 53 89
REMARK SMILES IDX 59 90 52 91 54 92 55 93 56 94 57 95
REMARK H PARENT 15 7 11 24 11 25 20 29 79 48 47 59
REMARK Flexibility Score: inf
ROOT
ATOM      1  C   UNL A   1      37.380  21.781  24.652  1.00  0.00     0.023 C 
ENDROOT
BRANCH   1   2
ATOM      2  C   UNL A   1      36.541  22.550  23.638  1.00  0.00     0.023 C 
BRANCH   2   3
ATOM      3  C   UNL A   1      35.090  22.843  24.021  1.00  0.00     0.116 C 
BRANCH   3   4
ATOM      4  N   UNL A   1      34.261  21.665  24.234  1.00  0.00    -0.352 N 
ATOM      5  C   UNL A   1      33.000  21.559  24.779  1.00  0.00     0.255 C 
ATOM      6  O   UNL A   1      32.474  20.449  24.846  1.00  0.00    -0.269 OA
ATOM      7  H   UNL A   1      34.663  20.813  23.945  1.00  0.00     0.163 HD
BRANCH   5   8
ATOM      8  C   UNL A   1      32.293  22.715  25.379  1.00  0.00     0.082 A 
ATOM      9  C   UNL A   1      31.107  24.804  24.967  1.00  0.00     0.001 A 
ATOM     10  C   UNL A   1      30.829  24.793  26.333  1.00  0.00     0.122 A 
ATOM     11  C   UNL A   1      31.836  23.711  24.494  1.00  0.00     0.028 A 
ATOM     12  N   UNL A   1      31.320  23.899  27.221  1.00  0.00    -0.238 NA
ATOM     13  C   UNL A   1      32.113  22.918  26.747  1.00  0.00     0.136 A 
BRANCH   9  14
ATOM     14  C   UNL A   1      30.739  25.969  24.139  1.00  0.00    -0.014 A 
ATOM     15  C   UNL A   1      29.789  28.174  22.623  1.00  0.00     0.119 A 
ATOM     16  C   UNL A   1      28.904  27.429  23.387  1.00  0.00     0.047 A 
ATOM     17  C   UNL A   1      31.137  27.813  22.598  1.00  0.00     0.050 A 
ATOM     18  C   UNL A   1      29.378  26.352  24.137  1.00  0.00     0.013 A 
ATOM     19  C   UNL A   1      31.632  26.721  23.346  1.00  0.00    -0.040 A 
ATOM     20  C   UNL A   1      33.111  26.457  23.267  1.00  0.00     0.045 C 
BRANCH  15  21
ATOM     21  O   UNL A   1      29.440  29.242  21.842  1.00  0.00    -0.497 OA
ATOM     22  C   UNL A   1      28.178  29.827  22.153  1.00  0.00     0.278 C 
ENDBRANCH  15  21
ENDBRANCH   9  14
BRANCH  13  23
ATOM     23  N   UNL A   1      32.702  22.157  27.734  1.00  0.00    -0.383 N 
ATOM     24  H   UNL A   1      33.272  21.391  27.492  1.00  0.00     0.158 HD
ATOM     25  H   UNL A   1      32.552  22.379  28.682  1.00  0.00     0.158 HD
ENDBRANCH  13  23
ENDBRANCH   5   8
ENDBRANCH   3   4
ENDBRANCH   2   3
ENDBRANCH   1   2
BRANCH   1  26
ATOM     26  C   UNL A   1      37.731  22.538  25.921  1.00  0.00     0.116 C 
BRANCH  26  27
ATOM     27  N   UNL A   1      39.031  22.226  26.478  1.00  0.00    -0.352 N 
ATOM     28  C   UNL A   1      40.034  23.062  26.944  1.00  0.00     0.251 C 
ATOM     29  H   UNL A   1      39.235  21.264  26.534  1.00  0.00     0.163 HD
ATOM     30  O   UNL A   1      41.117  22.550  27.193  1.00  0.00    -0.269 OA
BRANCH  28  31
ATOM     31  C   UNL A   1      39.785  24.503  27.260  1.00  0.00     0.039 A 
ATOM     32  C   UNL A   1      40.402  25.478  26.452  1.00  0.00     0.014 A 
ATOM     33  C   UNL A   1      39.108  24.920  28.400  1.00  0.00     0.014 A 
ATOM     34  C   UNL A   1      40.530  26.796  26.901  1.00  0.00     0.010 A 
ATOM     35  C   UNL A   1      39.297  26.190  28.886  1.00  0.00     0.010 A 
ATOM     36  C   UNL A   1      40.067  27.107  28.170  1.00  0.00    -0.014 A 
BRANCH  36  37
ATOM     37  C   UNL A   1      40.363  28.308  28.930  1.00  0.00     0.031 A 
ATOM     38  C   UNL A   1      39.476  29.480  28.831  1.00  0.00     0.074 A 
ATOM     39  C   UNL A   1      41.158  28.123  30.009  1.00  0.00     0.049 A 
ATOM     40  N   UNL A   1      39.630  30.550  29.531  1.00  0.00    -0.248 NA
ATOM     41  C   UNL A   1      38.337  29.545  27.915  1.00  0.00     0.031 C 
ATOM     42  C   UNL A   1      41.149  28.856  31.269  1.00  0.00     0.029 A 
ATOM     43  N   UNL A   1      42.315  27.340  30.083  1.00  0.00    -0.354 N 
ATOM     44  C   UNL A   1      38.465  31.270  29.420  1.00  0.00     0.074 A 
ATOM     45  C   UNL A   1      37.764  30.690  28.303  1.00  0.00     0.031 C 
ATOM     46  C   UNL A   1      42.352  28.724  31.850  1.00  0.00     0.029 A 
ATOM     47  C   UNL A   1      43.212  28.079  30.872  1.00  0.00     0.049 A 
ATOM     48  H   UNL A   1      42.469  26.459  29.669  1.00  0.00     0.167 HD
ATOM     49  C   UNL A   1      38.168  32.173  30.392  1.00  0.00     0.034 A 
ATOM     50  C   UNL A   1      44.370  28.609  30.380  1.00  0.00     0.034 A 
ATOM     51  C   UNL A   1      39.339  32.436  31.236  1.00  0.00     0.049 A 
ATOM     52  C   UNL A   1      44.454  30.120  30.533  1.00  0.00     0.074 A 
ATOM     53  C   UNL A   1      39.698  32.089  32.526  1.00  0.00     0.029 A 
ATOM     54  N   UNL A   1      40.483  32.958  30.638  1.00  0.00    -0.354 N 
ATOM     55  N   UNL A   1      43.466  30.882  30.918  1.00  0.00    -0.248 NA
ATOM     56  C   UNL A   1      45.661  30.893  30.259  1.00  0.00     0.031 C 
ATOM     57  C   UNL A   1      41.106  32.285  32.652  1.00  0.00     0.029 A 
ATOM     58  C   UNL A   1      41.587  32.803  31.459  1.00  0.00     0.049 A 
ATOM     59  H   UNL A   1      40.504  33.383  29.750  1.00  0.00     0.167 HD
ATOM     60  C   UNL A   1      43.823  32.203  30.831  1.00  0.00     0.074 A 
ATOM     61  C   UNL A   1      45.236  32.148  30.495  1.00  0.00     0.031 C 
ATOM     62  C   UNL A   1      42.908  33.214  30.982  1.00  0.00     0.034 A 
BRANCH  49  63
ATOM     63  C   UNL A   1      36.790  32.731  30.691  1.00  0.00     0.023 A 
ATOM     64  C   UNL A   1      36.279  32.528  31.992  1.00  0.00     0.012 A 
ATOM     65  C   UNL A   1      35.909  33.345  29.765  1.00  0.00     0.148 A 
ATOM     66  C   UNL A   1      34.982  32.912  32.357  1.00  0.00     0.002 A 
ATOM     67  C   UNL A   1      34.644  33.801  30.151  1.00  0.00     0.091 A 
ATOM     68  F   UNL A   1      36.227  33.402  28.468  1.00  0.00    -0.205 F 
ATOM     69  C   UNL A   1      34.171  33.571  31.444  1.00  0.00     0.022 A 
BRANCH  67  70
ATOM     70  S   UNL A   1      33.581  34.729  29.030  1.00  0.00     0.127 S 
ATOM     71  O   UNL A   1      32.566  35.265  29.935  1.00  0.00    -0.237 OA
ATOM     72  O   UNL A   1      34.494  35.733  28.480  1.00  0.00    -0.237 OA
ATOM     73  O   UNL A   1      33.099  33.765  28.047  1.00  0.00    -0.744 OA
ENDBRANCH  67  70
ENDBRANCH  49  63
BRANCH  50  74
ATOM     74  C   UNL A   1      44.966  27.802  29.272  1.00  0.00     0.023 A 
ATOM     75  C   UNL A   1      45.470  26.527  29.627  1.00  0.00     0.012 A 
ATOM     76  C   UNL A   1      44.657  28.056  27.922  1.00  0.00     0.148 A 
ATOM     77  C   UNL A   1      45.531  25.491  28.693  1.00  0.00     0.002 A 
ATOM     78  C   UNL A   1      44.724  27.015  26.994  1.00  0.00     0.091 A 
ATOM     79  F   UNL A   1      44.213  29.273  27.587  1.00  0.00    -0.205 F 
ATOM     80  C   UNL A   1      45.123  25.726  27.386  1.00  0.00     0.022 A 
BRANCH  78  81
ATOM     81  S   UNL A   1      44.166  27.209  25.294  1.00  0.00     0.127 S 
ATOM     82  O   UNL A   1      45.403  27.602  24.624  1.00  0.00    -0.237 OA
ATOM     83  O   UNL A   1      43.688  25.866  24.968  1.00  0.00    -0.237 OA
ATOM     84  O   UNL A   1      43.118  28.215  25.353  1.00  0.00    -0.744 OA
ENDBRANCH  78  81
ENDBRANCH  50  74
BRANCH  62  85
ATOM     85  C   UNL A   1      43.140  34.687  30.654  1.00  0.00     0.023 A 
ATOM     86  C   UNL A   1      43.578  35.620  31.614  1.00  0.00     0.012 A 
ATOM     87  C   UNL A   1      43.067  35.157  29.314  1.00  0.00     0.148 A 
ATOM     88  C   UNL A   1      43.873  36.950  31.284  1.00  0.00     0.002 A 
ATOM     89  C   UNL A   1      43.473  36.447  28.974  1.00  0.00     0.091 A 
ATOM     90  F   UNL A   1      42.583  34.363  28.348  1.00  0.00    -0.205 F 
ATOM     91  C   UNL A   1      43.846  37.358  29.960  1.00  0.00     0.022 A 
BRANCH  89  92
ATOM     92  S   UNL A   1      43.688  36.918  27.250  1.00  0.00     0.127 S 
ATOM     93  O   UNL A   1      44.595  35.883  26.759  1.00  0.00    -0.237 OA
ATOM     94  O   UNL A   1      42.324  36.832  26.723  1.00  0.00    -0.237 OA
ATOM     95  O   UNL A   1      44.219  38.275  27.298  1.00  0.00    -0.744 OA
ENDBRANCH  89  92
ENDBRANCH  62  85
ENDBRANCH  36  37
ENDBRANCH  28  31
ENDBRANCH  26  27
ENDBRANCH   1  26
TORSDOF 17
ENDMDL
MODEL 2
REMARK VINA RESULT:     -13.0      4.024      9.513
REMARK SMILES COc1ccc(-c2cnc(N)c(C(=O)NCCCCNC(=O)c3ccc(-c4c5nc(c(-c6cccc(S(=O)(=O)[O-])c6F)c6ccc([nH]6)c(-c6cccc(S(=O)(=O)[O-])c6F)c6nc(c(-c7cccc(S(=O)(=O)[O-])c7F)c7ccc4[nH]7)C=C6)C=C5)cc3)c2)c(C)c1
REMARK SMILES IDX 18 1 17 2 16 3 15 4 13 5 14 6 12 8 7 9 8 10 86 11 9 12 10 13
REMARK SMILES IDX 6 14 3 15 4 16 89 17 5 18 87 19 88 20 2 21 1 22 11 23 19 26
REMARK SMILES IDX 20 27 21 28 22 30 23 31 24 32 85 33 25 34 84 35 26 36 27 37
REMARK SMILES IDX 28 38 78 39 29 40 83 41 77 42 79 43 30 44 82 45 76 46 75 47
REMARK SMILES IDX 31 49 63 50 43 51 62 52 44 53 47 54 61 55 80 56 45 57 46 58
REMARK SMILES IDX 60 60 81 61 48 62 32 63 33 64 41 65 34 66 36 67 42 68 35 69
REMARK SMILES IDX 37 70 38 71 39 72 40 73 64 74 65 75 73 76 66 77 68 78 74 79
REMARK SMILES IDX 67 80 69 81 70 82 71 83 72 84 49 85 50 86 58 87 51 88 53 89
REMARK SMILES IDX 59 90 52 91 54 92 55 93 56 94 57 95
REMARK H PARENT 15 7 11 24 11 25 20 29 79 48 47 59
REMARK Flexibility Score: inf
ROOT
ATOM      1  C   UNL A   1      32.317  30.477  26.881  1.00  0.00     0.023 C 
ENDROOT
BRANCH   1   2
ATOM      2  C   UNL A   1      31.679  29.578  25.828  1.00  0.00     0.023 C 
BRANCH   2   3
ATOM      3  C   UNL A   1      32.396  29.472  24.481  1.00  0.00     0.116 C 
BRANCH   3   4
ATOM      4  N   UNL A   1      31.521  29.275  23.334  1.00  0.00    -0.352 N 
ATOM      5  C   UNL A   1      30.816  28.158  22.943  1.00  0.00     0.255 C 
ATOM      6  O   UNL A   1      30.114  28.222  21.934  1.00  0.00    -0.269 OA
ATOM      7  H   UNL A   1      31.417  30.060  22.748  1.00  0.00     0.163 HD
BRANCH   5   8
ATOM      8  C   UNL A   1      30.947  26.852  23.632  1.00  0.00     0.082 A 
ATOM      9  C   UNL A   1      32.459  25.087  24.364  1.00  0.00     0.001 A 
ATOM     10  C   UNL A   1      31.350  24.552  25.018  1.00  0.00     0.122 A 
ATOM     11  C   UNL A   1      32.235  26.285  23.682  1.00  0.00     0.028 A 
ATOM     12  N   UNL A   1      30.087  25.026  24.922  1.00  0.00    -0.238 NA
ATOM     13  C   UNL A   1      29.885  26.122  24.164  1.00  0.00     0.136 A 
BRANCH   9  14
ATOM     14  C   UNL A   1      33.732  24.343  24.323  1.00  0.00    -0.014 A 
ATOM     15  C   UNL A   1      36.246  23.029  24.465  1.00  0.00     0.119 A 
ATOM     16  C   UNL A   1      35.874  23.918  25.462  1.00  0.00     0.047 A 
ATOM     17  C   UNL A   1      35.380  22.808  23.393  1.00  0.00     0.050 A 
ATOM     18  C   UNL A   1      34.634  24.554  25.391  1.00  0.00     0.013 A 
ATOM     19  C   UNL A   1      34.124  23.450  23.303  1.00  0.00    -0.040 A 
ATOM     20  C   UNL A   1      33.264  23.099  22.119  1.00  0.00     0.045 C 
BRANCH  15  21
ATOM     21  O   UNL A   1      37.436  22.356  24.423  1.00  0.00    -0.497 OA
ATOM     22  C   UNL A   1      38.107  22.240  25.675  1.00  0.00     0.278 C 
ENDBRANCH  15  21
ENDBRANCH   9  14
BRANCH  13  23
ATOM     23  N   UNL A   1      28.554  26.434  23.987  1.00  0.00    -0.383 N 
ATOM     24  H   UNL A   1      28.287  27.074  23.287  1.00  0.00     0.158 HD
ATOM     25  H   UNL A   1      27.870  26.019  24.561  1.00  0.00     0.158 HD
ENDBRANCH  13  23
ENDBRANCH   5   8
ENDBRANCH   3   4
ENDBRANCH   2   3
ENDBRANCH   1   2
BRANCH   1  26
ATOM     26  C   UNL A   1      33.807  30.279  27.095  1.00  0.00     0.116 C 
BRANCH  26  27
ATOM     27  N   UNL A   1      34.552  31.492  27.361  1.00  0.00    -0.352 N 
ATOM     28  C   UNL A   1      35.766  31.679  28.004  1.00  0.00     0.251 C 
ATOM     29  H   UNL A   1      34.126  32.317  27.032  1.00  0.00     0.163 HD
ATOM     30  O   UNL A   1      36.088  32.830  28.265  1.00  0.00    -0.269 OA
BRANCH  28  31
ATOM     31  C   UNL A   1      36.713  30.550  28.260  1.00  0.00     0.039 A 
ATOM     32  C   UNL A   1      36.863  30.093  29.584  1.00  0.00     0.014 A 
ATOM     33  C   UNL A   1      37.562  30.040  27.284  1.00  0.00     0.014 A 
ATOM     34  C   UNL A   1      37.976  29.331  29.951  1.00  0.00     0.010 A 
ATOM     35  C   UNL A   1      38.698  29.361  27.648  1.00  0.00     0.010 A 
ATOM     36  C   UNL A   1      38.939  29.067  28.990  1.00  0.00    -0.014 A 
BRANCH  36  37
ATOM     37  C   UNL A   1      40.282  28.566  29.225  1.00  0.00     0.031 A 
ATOM     38  C   UNL A   1      40.584  27.141  29.007  1.00  0.00     0.074 A 
ATOM     39  C   UNL A   1      41.259  29.502  29.184  1.00  0.00     0.049 A 
ATOM     40  N   UNL A   1      41.765  26.639  29.119  1.00  0.00    -0.248 NA
ATOM     41  C   UNL A   1      39.566  26.152  28.654  1.00  0.00     0.031 C 
ATOM     42  C   UNL A   1      42.641  29.341  28.750  1.00  0.00     0.029 A 
ATOM     43  N   UNL A   1      41.231  30.778  29.756  1.00  0.00    -0.354 N 
ATOM     44  C   UNL A   1      41.726  25.395  28.539  1.00  0.00     0.074 A 
ATOM     45  C   UNL A   1      40.327  25.081  28.405  1.00  0.00     0.031 C 
ATOM     46  C   UNL A   1      43.381  30.310  29.310  1.00  0.00     0.029 A 
ATOM     47  C   UNL A   1      42.523  30.979  30.273  1.00  0.00     0.049 A 
ATOM     48  H   UNL A   1      40.470  31.402  29.791  1.00  0.00     0.167 HD
ATOM     49  C   UNL A   1      42.892  24.849  28.100  1.00  0.00     0.034 A 
ATOM     50  C   UNL A   1      42.779  31.081  31.610  1.00  0.00     0.034 A 
ATOM     51  C   UNL A   1      44.045  25.584  28.631  1.00  0.00     0.049 A 
ATOM     52  C   UNL A   1      43.756  30.032  32.118  1.00  0.00     0.074 A 
ATOM     53  C   UNL A   1      44.966  26.461  28.087  1.00  0.00     0.029 A 
ATOM     54  N   UNL A   1      44.211  25.650  30.012  1.00  0.00    -0.354 N 
ATOM     55  N   UNL A   1      44.179  29.014  31.419  1.00  0.00    -0.248 NA
ATOM     56  C   UNL A   1      44.330  30.046  33.459  1.00  0.00     0.031 C 
ATOM     57  C   UNL A   1      45.594  27.154  29.164  1.00  0.00     0.029 A 
ATOM     58  C   UNL A   1      45.095  26.657  30.359  1.00  0.00     0.049 A 
ATOM     59  H   UNL A   1      43.759  25.059  30.657  1.00  0.00     0.167 HD
ATOM     60  C   UNL A   1      44.946  28.187  32.200  1.00  0.00     0.074 A 
ATOM     61  C   UNL A   1      45.078  28.927  33.444  1.00  0.00     0.031 C 
ATOM     62  C   UNL A   1      45.347  26.947  31.770  1.00  0.00     0.034 A 
BRANCH  49  63
ATOM     63  C   UNL A   1      43.018  23.736  27.079  1.00  0.00     0.023 A 
ATOM     64  C   UNL A   1      43.702  24.034  25.880  1.00  0.00     0.012 A 
ATOM     65  C   UNL A   1      42.426  22.449  27.154  1.00  0.00     0.148 A 
ATOM     66  C   UNL A   1      43.799  23.118  24.824  1.00  0.00     0.002 A 
ATOM     67  C   UNL A   1      42.591  21.507  26.133  1.00  0.00     0.091 A 
ATOM     68  F   UNL A   1      41.598  22.146  28.158  1.00  0.00    -0.205 F 
ATOM     69  C   UNL A   1      43.265  21.845  24.958  1.00  0.00     0.022 A 
BRANCH  67  70
ATOM     70  S   UNL A   1      41.985  19.817  26.287  1.00  0.00     0.127 S 
ATOM     71  O   UNL A   1      42.470  19.432  27.611  1.00  0.00    -0.237 OA
ATOM     72  O   UNL A   1      40.534  19.987  26.199  1.00  0.00    -0.237 OA
ATOM     73  O   UNL A   1      42.564  19.082  25.169  1.00  0.00    -0.744 OA
ENDBRANCH  67  70
ENDBRANCH  49  63
BRANCH  50  74
ATOM     74  C   UNL A   1      41.650  31.681  32.385  1.00  0.00     0.023 A 
ATOM     75  C   UNL A   1      41.326  33.026  32.079  1.00  0.00     0.012 A 
ATOM     76  C   UNL A   1      40.686  30.881  33.027  1.00  0.00     0.148 A 
ATOM     77  C   UNL A   1      40.035  33.519  32.278  1.00  0.00     0.002 A 
ATOM     78  C   UNL A   1      39.398  31.384  33.226  1.00  0.00     0.091 A 
ATOM     79  F   UNL A   1      41.008  29.622  33.343  1.00  0.00    -0.205 F 
ATOM     80  C   UNL A   1      39.063  32.686  32.817  1.00  0.00     0.022 A 
BRANCH  78  81
ATOM     81  S   UNL A   1      38.059  30.365  33.866  1.00  0.00     0.127 S 
ATOM     82  O   UNL A   1      36.886  31.089  33.385  1.00  0.00    -0.237 OA
ATOM     83  O   UNL A   1      38.304  29.081  33.210  1.00  0.00    -0.237 OA
ATOM     84  O   UNL A   1      38.257  30.344  35.307  1.00  0.00    -0.744 OA
ENDBRANCH  78  81
ENDBRANCH  50  74
BRANCH  62  85
ATOM     85  C   UNL A   1      45.972  25.859  32.639  1.00  0.00     0.023 A 
ATOM     86  C   UNL A   1      47.365  25.710  32.787  1.00  0.00     0.012 A 
ATOM     87  C   UNL A   1      45.165  25.030  33.466  1.00  0.00     0.148 A 
ATOM     88  C   UNL A   1      47.929  24.765  33.654  1.00  0.00     0.002 A 
ATOM     89  C   UNL A   1      45.731  24.175  34.411  1.00  0.00     0.091 A 
ATOM     90  F   UNL A   1      43.830  25.045  33.335  1.00  0.00    -0.205 F 
ATOM     91  C   UNL A   1      47.114  24.014  34.486  1.00  0.00     0.022 A 
BRANCH  89  92
ATOM     92  S   UNL A   1      44.710  23.386  35.665  1.00  0.00     0.127 S 
ATOM     93  O   UNL A   1      44.159  24.534  36.380  1.00  0.00    -0.237 OA
ATOM     94  O   UNL A   1      43.734  22.644  34.863  1.00  0.00    -0.237 OA
ATOM     95  O   UNL A   1      45.628  22.537  36.413  1.00  0.00    -0.744 OA
ENDBRANCH  89  92
ENDBRANCH  62  85
ENDBRANCH  36  37
ENDBRANCH  28  31
ENDBRANCH  26  27
ENDBRANCH   1  26
TORSDOF 17
ENDMDL
MODEL 3
REMARK VINA RESULT:     -12.8      1.545      2.114
REMARK SMILES COc1ccc(-c2cnc(N)c(C(=O)NCCCCNC(=O)c3ccc(-c4c5nc(c(-c6cccc(S(=O)(=O)[O-])c6F)c6ccc([nH]6)c(-c6cccc(S(=O)(=O)[O-])c6F)c6nc(c(-c7cccc(S(=O)(=O)[O-])c7F)c7ccc4[nH]7)C=C6)C=C5)cc3)c2)c(C)c1
REMARK SMILES IDX 18 1 17 2 16 3 15 4 13 5 14 6 12 8 7 9 8 10 86 11 9 12 10 13
REMARK SMILES IDX 6 14 3 15 4 16 89 17 5 18 87 19 88 20 2 21 1 22 11 23 19 26
REMARK SMILES IDX 20 27 21 28 22 30 23 31 24 32 85 33 25 34 84 35 26 36 27 37
REMARK SMILES IDX 28 38 78 39 29 40 83 41 77 42 79 43 30 44 82 45 76 46 75 47
REMARK SMILES IDX 31 49 63 50 43 51 62 52 44 53 47 54 61 55 80 56 45 57 46 58
REMARK SMILES IDX 60 60 81 61 48 62 32 63 33 64 41 65 34 66 36 67 42 68 35 69
REMARK SMILES IDX 37 70 38 71 39 72 40 73 64 74 65 75 73 76 66 77 68 78 74 79
REMARK SMILES IDX 67 80 69 81 70 82 71 83 72 84 49 85 50 86 58 87 51 88 53 89
REMARK SMILES IDX 59 90 52 91 54 92 55 93 56 94 57 95
REMARK H PARENT 15 7 11 24 11 25 20 29 79 48 47 59
REMARK Flexibility Score: inf
ROOT
ATOM      1  C   UNL A   1      37.746  20.833  25.393  1.00  0.00     0.023 C 
ENDROOT
BRANCH   1   2
ATOM      2  C   UNL A   1      36.325  21.062  24.892  1.00  0.00     0.023 C 
BRANCH   2   3
ATOM      3  C   UNL A   1      35.253  21.333  25.947  1.00  0.00     0.116 C 
BRANCH   3   4
ATOM      4  N   UNL A   1      34.032  20.554  25.796  1.00  0.00    -0.352 N 
ATOM      5  C   UNL A   1      32.887  20.837  25.084  1.00  0.00     0.255 C 
ATOM      6  O   UNL A   1      31.971  20.015  25.080  1.00  0.00    -0.269 OA
ATOM      7  H   UNL A   1      34.023  19.693  26.275  1.00  0.00     0.163 HD
BRANCH   5   8
ATOM      8  C   UNL A   1      32.673  22.136  24.403  1.00  0.00     0.082 A 
ATOM      9  C   UNL A   1      32.646  24.563  24.625  1.00  0.00     0.001 A 
ATOM     10  C   UNL A   1      32.479  24.583  23.242  1.00  0.00     0.122 A 
ATOM     11  C   UNL A   1      32.772  23.295  25.198  1.00  0.00     0.028 A 
ATOM     12  N   UNL A   1      32.298  23.492  22.463  1.00  0.00    -0.238 NA
ATOM     13  C   UNL A   1      32.314  22.285  23.064  1.00  0.00     0.136 A 
BRANCH   9  14
ATOM     14  C   UNL A   1      32.569  25.813  25.405  1.00  0.00    -0.014 A 
ATOM     15  C   UNL A   1      32.674  28.245  26.868  1.00  0.00     0.119 A 
ATOM     16  C   UNL A   1      33.830  27.729  26.303  1.00  0.00     0.047 A 
ATOM     17  C   UNL A   1      31.475  27.546  26.723  1.00  0.00     0.050 A 
ATOM     18  C   UNL A   1      33.771  26.538  25.578  1.00  0.00     0.013 A 
ATOM     19  C   UNL A   1      31.400  26.335  25.997  1.00  0.00    -0.040 A 
ATOM     20  C   UNL A   1      30.042  25.697  25.879  1.00  0.00     0.045 C 
BRANCH  15  21
ATOM     21  O   UNL A   1      32.612  29.395  27.607  1.00  0.00    -0.497 OA
ATOM     22  C   UNL A   1      33.267  30.519  27.025  1.00  0.00     0.278 C 
ENDBRANCH  15  21
ENDBRANCH   9  14
BRANCH  13  23
ATOM     23  N   UNL A   1      31.957  21.247  22.230  1.00  0.00    -0.383 N 
ATOM     24  H   UNL A   1      31.038  21.192  21.878  1.00  0.00     0.158 HD
ATOM     25  H   UNL A   1      32.619  20.561  21.986  1.00  0.00     0.158 HD
ENDBRANCH  13  23
ENDBRANCH   5   8
ENDBRANCH   3   4
ENDBRANCH   2   3
ENDBRANCH   1   2
BRANCH   1  26
ATOM     26  C   UNL A   1      38.493  22.079  25.835  1.00  0.00     0.116 C 
BRANCH  26  27
ATOM     27  N   UNL A   1      39.803  21.836  26.403  1.00  0.00    -0.352 N 
ATOM     28  C   UNL A   1      40.768  22.725  26.852  1.00  0.00     0.251 C 
ATOM     29  H   UNL A   1      40.047  20.885  26.483  1.00  0.00     0.163 HD
ATOM     30  O   UNL A   1      41.870  22.266  27.116  1.00  0.00    -0.269 OA
BRANCH  28  31
ATOM     31  C   UNL A   1      40.457  24.161  27.132  1.00  0.00     0.039 A 
ATOM     32  C   UNL A   1      41.086  25.145  26.344  1.00  0.00     0.014 A 
ATOM     33  C   UNL A   1      39.706  24.572  28.227  1.00  0.00     0.014 A 
ATOM     34  C   UNL A   1      41.148  26.472  26.779  1.00  0.00     0.010 A 
ATOM     35  C   UNL A   1      39.828  25.854  28.703  1.00  0.00     0.010 A 
ATOM     36  C   UNL A   1      40.606  26.785  28.015  1.00  0.00    -0.014 A 
BRANCH  36  37
ATOM     37  C   UNL A   1      40.823  28.006  28.772  1.00  0.00     0.031 A 
ATOM     38  C   UNL A   1      39.897  29.141  28.619  1.00  0.00     0.074 A 
ATOM     39  C   UNL A   1      41.576  27.864  29.888  1.00  0.00     0.049 A 
ATOM     40  N   UNL A   1      39.980  30.224  29.310  1.00  0.00    -0.248 NA
ATOM     41  C   UNL A   1      38.799  29.152  27.653  1.00  0.00     0.031 C 
ATOM     42  C   UNL A   1      41.483  28.610  31.136  1.00  0.00     0.029 A 
ATOM     43  N   UNL A   1      42.757  27.126  30.022  1.00  0.00    -0.354 N 
ATOM     44  C   UNL A   1      38.795  30.898  29.139  1.00  0.00     0.074 A 
ATOM     45  C   UNL A   1      38.166  30.279  28.001  1.00  0.00     0.031 C 
ATOM     46  C   UNL A   1      42.663  28.531  31.771  1.00  0.00     0.029 A 
ATOM     47  C   UNL A   1      43.590  27.909  30.840  1.00  0.00     0.049 A 
ATOM     48  H   UNL A   1      42.962  26.247  29.627  1.00  0.00     0.167 HD
ATOM     49  C   UNL A   1      38.421  31.800  30.085  1.00  0.00     0.034 A 
ATOM     50  C   UNL A   1      44.748  28.477  30.393  1.00  0.00     0.034 A 
ATOM     51  C   UNL A   1      39.543  32.118  30.977  1.00  0.00     0.049 A 
ATOM     52  C   UNL A   1      44.767  29.991  30.530  1.00  0.00     0.074 A 
ATOM     53  C   UNL A   1      39.856  31.799  32.285  1.00  0.00     0.029 A 
ATOM     54  N   UNL A   1      40.691  32.676  30.423  1.00  0.00    -0.354 N 
ATOM     55  N   UNL A   1      43.736  30.719  30.861  1.00  0.00    -0.248 NA
ATOM     56  C   UNL A   1      45.955  30.807  30.298  1.00  0.00     0.031 C 
ATOM     57  C   UNL A   1      41.249  32.051  32.470  1.00  0.00     0.029 A 
ATOM     58  C   UNL A   1      41.763  32.573  31.293  1.00  0.00     0.049 A 
ATOM     59  H   UNL A   1      40.735  33.091  29.531  1.00  0.00     0.167 HD
ATOM     60  C   UNL A   1      44.045  32.052  30.772  1.00  0.00     0.074 A 
ATOM     61  C   UNL A   1      45.473  32.048  30.499  1.00  0.00     0.031 C 
ATOM     62  C   UNL A   1      43.087  33.029  30.869  1.00  0.00     0.034 A 
BRANCH  49  63
ATOM     63  C   UNL A   1      37.011  32.308  30.315  1.00  0.00     0.023 A 
ATOM     64  C   UNL A   1      36.367  31.909  31.508  1.00  0.00     0.012 A 
ATOM     65  C   UNL A   1      36.224  33.058  29.405  1.00  0.00     0.148 A 
ATOM     66  C   UNL A   1      35.033  32.235  31.786  1.00  0.00     0.002 A 
ATOM     67  C   UNL A   1      34.919  33.451  29.718  1.00  0.00     0.091 A 
ATOM     68  F   UNL A   1      36.678  33.312  28.174  1.00  0.00    -0.205 F 
ATOM     69  C   UNL A   1      34.314  33.027  30.903  1.00  0.00     0.022 A 
BRANCH  67  70
ATOM     70  S   UNL A   1      33.967  34.542  28.643  1.00  0.00     0.127 S 
ATOM     71  O   UNL A   1      33.814  33.733  27.436  1.00  0.00    -0.237 OA
ATOM     72  O   UNL A   1      32.731  34.740  29.402  1.00  0.00    -0.237 OA
ATOM     73  O   UNL A   1      34.769  35.751  28.491  1.00  0.00    -0.744 OA
ENDBRANCH  67  70
ENDBRANCH  49  63
BRANCH  50  74
ATOM     74  C   UNL A   1      45.422  27.680  29.323  1.00  0.00     0.023 A 
ATOM     75  C   UNL A   1      45.801  26.360  29.669  1.00  0.00     0.012 A 
ATOM     76  C   UNL A   1      45.294  28.013  27.961  1.00  0.00     0.148 A 
ATOM     77  C   UNL A   1      45.910  25.364  28.697  1.00  0.00     0.002 A 
ATOM     78  C   UNL A   1      45.409  27.011  26.995  1.00  0.00     0.091 A 
ATOM     79  F   UNL A   1      44.969  29.270  27.638  1.00  0.00    -0.205 F 
ATOM     80  C   UNL A   1      45.678  25.683  27.365  1.00  0.00     0.022 A 
BRANCH  78  81
ATOM     81  S   UNL A   1      45.074  27.315  25.253  1.00  0.00     0.127 S 
ATOM     82  O   UNL A   1      45.254  25.983  24.683  1.00  0.00    -0.237 OA
ATOM     83  O   UNL A   1      43.692  27.793  25.280  1.00  0.00    -0.237 OA
ATOM     84  O   UNL A   1      46.043  28.323  24.853  1.00  0.00    -0.744 OA
ENDBRANCH  78  81
ENDBRANCH  50  74
BRANCH  62  85
ATOM     85  C   UNL A   1      43.277  34.506  30.533  1.00  0.00     0.023 A 
ATOM     86  C   UNL A   1      43.584  35.475  31.507  1.00  0.00     0.012 A 
ATOM     87  C   UNL A   1      43.302  34.949  29.181  1.00  0.00     0.148 A 
ATOM     88  C   UNL A   1      43.844  36.812  31.177  1.00  0.00     0.002 A 
ATOM     89  C   UNL A   1      43.675  36.252  28.852  1.00  0.00     0.091 A 
ATOM     90  F   UNL A   1      42.944  34.117  28.193  1.00  0.00    -0.205 F 
ATOM     91  C   UNL A   1      43.915  37.196  29.848  1.00  0.00     0.022 A 
BRANCH  89  92
ATOM     92  S   UNL A   1      44.021  36.704  27.144  1.00  0.00     0.127 S 
ATOM     93  O   UNL A   1      42.702  36.595  26.524  1.00  0.00    -0.237 OA
ATOM     94  O   UNL A   1      44.520  38.076  27.271  1.00  0.00    -0.237 OA
ATOM     95  O   UNL A   1      45.026  35.747  26.701  1.00  0.00    -0.744 OA
ENDBRANCH  89  92
ENDBRANCH  62  85
ENDBRANCH  36  37
ENDBRANCH  28  31
ENDBRANCH  26  27
ENDBRANCH   1  26
TORSDOF 17
ENDMDL
