MODEL 1
REMARK VINA RESULT:     -10.5      0.000      0.000
REMARK SMILES O=C(Cn1cc(C(=O)C(F)(F)F)c2ccccc21)NCCCCNC(=O)c1ccc(-c2c3nc(c(-c4cccc(S(=O)(=O)[O-])c4F)c4ccc([nH]4)c(-c4cccc(S(=O)(=O)[O-])c4F)c4nc(c(-c5cccc(S(=O)(=O)[O-])c5F)c5ccc2[nH]5)C=C4)C=C3)cc1
REMARK SMILES IDX 21 1 20 2 19 3 1 4 2 5 3 7 4 8 5 9 18 10 6 11 13 12 17 13
REMARK SMILES IDX 14 14 16 15 15 16 7 17 8 18 9 19 10 20 11 21 12 22 22 23
REMARK SMILES IDX 23 24 24 25 25 26 26 28 27 29 28 30 89 31 29 32 88 33 30 34
REMARK SMILES IDX 31 35 32 36 82 37 33 38 87 39 81 40 83 41 34 42 86 43 80 44
REMARK SMILES IDX 79 45 35 47 67 48 47 49 66 50 48 51 51 52 65 53 84 54 49 55
REMARK SMILES IDX 50 56 64 58 85 59 52 60 36 61 37 62 45 63 38 64 40 65 46 66
REMARK SMILES IDX 39 67 41 68 42 69 43 70 44 71 68 72 69 73 77 74 70 75 72 76
REMARK SMILES IDX 78 77 71 78 73 79 74 80 75 81 76 82 53 83 54 84 62 85 55 86
REMARK SMILES IDX 57 87 63 88 56 89 58 90 59 91 60 92 61 93
REMARK H PARENT 19 6 24 27 83 46 51 57
REMARK Flexibility Score: inf
ROOT
ATOM      1  C   UNL A   1      43.384  18.846  26.089  1.00  0.00     0.023 C 
ENDROOT
BRANCH   1   2
ATOM      2  C   UNL A   1      44.249  19.188  24.877  1.00  0.00     0.116 C 
BRANCH   2   3
ATOM      3  N   UNL A   1      44.216  20.605  24.565  1.00  0.00    -0.355 N 
ATOM      4  O   UNL A   1      46.444  20.988  24.981  1.00  0.00    -0.273 OA
ATOM      5  C   UNL A   1      45.338  21.402  24.640  1.00  0.00     0.239 C 
ATOM      6  H   UNL A   1      43.362  21.011  24.290  1.00  0.00     0.163 HD
BRANCH   5   7
ATOM      7  C   UNL A   1      45.107  22.860  24.308  1.00  0.00     0.222 C 
BRANCH   7   8
ATOM      8  N   UNL A   1      45.959  23.759  25.078  1.00  0.00    -0.337 N 
ATOM      9  C   UNL A   1      47.014  24.463  24.549  1.00  0.00     0.099 A 
ATOM     10  C   UNL A   1      45.867  23.996  26.433  1.00  0.00     0.049 A 
ATOM     11  C   UNL A   1      47.611  25.200  25.557  1.00  0.00     0.053 A 
ATOM     12  C   UNL A   1      46.887  24.899  26.759  1.00  0.00     0.011 A 
ATOM     13  C   UNL A   1      44.982  23.496  27.405  1.00  0.00     0.027 A 
ATOM     14  C   UNL A   1      47.014  25.314  28.103  1.00  0.00     0.011 A 
ATOM     15  C   UNL A   1      45.137  23.922  28.728  1.00  0.00     0.002 A 
ATOM     16  C   UNL A   1      46.138  24.820  29.075  1.00  0.00     0.001 A 
BRANCH  11  17
ATOM     17  C   UNL A   1      48.766  26.098  25.410  1.00  0.00     0.268 C 
ATOM     18  O   UNL A   1      49.912  25.685  25.615  1.00  0.00    -0.284 OA
BRANCH  17  19
ATOM     19  C   UNL A   1      48.501  27.543  24.989  1.00  0.00     0.454 C 
ATOM     20  F   UNL A   1      49.348  28.427  25.592  1.00  0.00    -0.163 F 
ATOM     21  F   UNL A   1      48.644  27.736  23.646  1.00  0.00    -0.163 F 
ATOM     22  F   UNL A   1      47.241  27.969  25.295  1.00  0.00    -0.163 F 
ENDBRANCH  17  19
ENDBRANCH  11  17
ENDBRANCH   7   8
ENDBRANCH   5   7
ENDBRANCH   2   3
ENDBRANCH   1   2
BRANCH   1  23
ATOM     23  C   UNL A   1      41.894  19.184  25.941  1.00  0.00     0.023 C 
BRANCH  23  24
ATOM     24  C   UNL A   1      41.342  20.112  27.023  1.00  0.00     0.116 C 
BRANCH  24  25
ATOM     25  N   UNL A   1      40.059  20.703  26.710  1.00  0.00    -0.352 N 
ATOM     26  C   UNL A   1      39.637  21.983  26.468  1.00  0.00     0.251 C 
ATOM     27  H   UNL A   1      39.331  20.041  26.660  1.00  0.00     0.163 HD
ATOM     28  O   UNL A   1      38.507  22.106  25.991  1.00  0.00    -0.269 OA
BRANCH  26  29
ATOM     29  C   UNL A   1      40.394  23.195  26.870  1.00  0.00     0.039 A 
ATOM     30  C   UNL A   1      41.331  23.247  27.902  1.00  0.00     0.014 A 
ATOM     31  C   UNL A   1      40.008  24.390  26.236  1.00  0.00     0.014 A 
ATOM     32  C   UNL A   1      41.695  24.464  28.445  1.00  0.00     0.010 A 
ATOM     33  C   UNL A   1      40.407  25.614  26.745  1.00  0.00     0.010 A 
ATOM     34  C   UNL A   1      41.167  25.635  27.909  1.00  0.00    -0.014 A 
BRANCH  34  35
ATOM     35  C   UNL A   1      41.497  26.883  28.573  1.00  0.00     0.031 A 
ATOM     36  C   UNL A   1      42.838  27.424  28.211  1.00  0.00     0.074 A 
ATOM     37  C   UNL A   1      40.605  27.501  29.372  1.00  0.00     0.049 A 
ATOM     38  N   UNL A   1      43.841  27.677  28.989  1.00  0.00    -0.248 NA
ATOM     39  C   UNL A   1      43.143  27.552  26.775  1.00  0.00     0.031 C 
ATOM     40  C   UNL A   1      39.193  27.162  29.582  1.00  0.00     0.029 A 
ATOM     41  N   UNL A   1      40.737  28.666  30.057  1.00  0.00    -0.354 N 
ATOM     42  C   UNL A   1      44.830  28.201  28.156  1.00  0.00     0.074 A 
ATOM     43  C   UNL A   1      44.415  27.944  26.802  1.00  0.00     0.031 C 
ATOM     44  C   UNL A   1      38.551  28.237  30.092  1.00  0.00     0.029 A 
ATOM     45  C   UNL A   1      39.523  29.280  30.362  1.00  0.00     0.049 A 
ATOM     46  H   UNL A   1      41.609  29.043  30.313  1.00  0.00     0.167 HD
ATOM     47  C   UNL A   1      45.818  29.014  28.616  1.00  0.00     0.034 A 
ATOM     48  C   UNL A   1      39.352  30.585  30.695  1.00  0.00     0.034 A 
ATOM     49  C   UNL A   1      45.981  28.927  30.038  1.00  0.00     0.049 A 
ATOM     50  C   UNL A   1      40.677  31.083  31.141  1.00  0.00     0.074 A 
ATOM     51  C   UNL A   1      46.350  27.926  30.914  1.00  0.00     0.029 A 
ATOM     52  N   UNL A   1      45.359  29.884  30.801  1.00  0.00    -0.354 N 
ATOM     53  N   UNL A   1      41.290  30.653  32.207  1.00  0.00    -0.248 NA
ATOM     54  C   UNL A   1      41.517  31.740  30.152  1.00  0.00     0.031 C 
ATOM     55  C   UNL A   1      45.509  28.104  32.050  1.00  0.00     0.029 A 
ATOM     56  C   UNL A   1      44.722  29.235  31.827  1.00  0.00     0.049 A 
ATOM     57  H   UNL A   1      45.369  30.856  30.641  1.00  0.00     0.167 HD
ATOM     58  C   UNL A   1      42.624  30.581  31.833  1.00  0.00     0.074 A 
ATOM     59  C   UNL A   1      42.716  31.347  30.591  1.00  0.00     0.031 C 
ATOM     60  C   UNL A   1      43.467  29.669  32.397  1.00  0.00     0.034 A 
BRANCH  47  61
ATOM     61  C   UNL A   1      46.414  30.128  27.800  1.00  0.00     0.023 A 
ATOM     62  C   UNL A   1      47.815  30.275  27.769  1.00  0.00     0.012 A 
ATOM     63  C   UNL A   1      45.638  31.180  27.258  1.00  0.00     0.148 A 
ATOM     64  C   UNL A   1      48.413  31.416  27.219  1.00  0.00     0.002 A 
ATOM     65  C   UNL A   1      46.236  32.275  26.647  1.00  0.00     0.091 A 
ATOM     66  F   UNL A   1      44.313  31.188  27.446  1.00  0.00    -0.205 F 
ATOM     67  C   UNL A   1      47.625  32.408  26.643  1.00  0.00     0.022 A 
BRANCH  65  68
ATOM     68  S   UNL A   1      45.264  33.565  25.863  1.00  0.00     0.127 S 
ATOM     69  O   UNL A   1      44.557  34.135  27.003  1.00  0.00    -0.237 OA
ATOM     70  O   UNL A   1      46.303  34.415  25.285  1.00  0.00    -0.237 OA
ATOM     71  O   UNL A   1      44.438  32.877  24.872  1.00  0.00    -0.744 OA
ENDBRANCH  65  68
ENDBRANCH  47  61
BRANCH  48  72
ATOM     72  C   UNL A   1      38.261  31.530  30.328  1.00  0.00     0.023 A 
ATOM     73  C   UNL A   1      37.728  31.474  29.020  1.00  0.00     0.012 A 
ATOM     74  C   UNL A   1      37.531  32.246  31.303  1.00  0.00     0.148 A 
ATOM     75  C   UNL A   1      36.486  32.044  28.714  1.00  0.00     0.002 A 
ATOM     76  C   UNL A   1      36.301  32.822  30.989  1.00  0.00     0.091 A 
ATOM     77  F   UNL A   1      37.983  32.280  32.562  1.00  0.00    -0.205 F 
ATOM     78  C   UNL A   1      35.766  32.705  29.703  1.00  0.00     0.022 A 
BRANCH  76  79
ATOM     79  S   UNL A   1      35.315  33.681  32.224  1.00  0.00     0.127 S 
ATOM     80  O   UNL A   1      34.104  34.015  31.472  1.00  0.00    -0.237 OA
ATOM     81  O   UNL A   1      35.138  32.648  33.242  1.00  0.00    -0.237 OA
ATOM     82  O   UNL A   1      36.104  34.839  32.624  1.00  0.00    -0.744 OA
ENDBRANCH  76  79
ENDBRANCH  48  72
BRANCH  60  83
ATOM     83  C   UNL A   1      42.948  28.864  33.564  1.00  0.00     0.023 A 
ATOM     84  C   UNL A   1      41.915  27.912  33.421  1.00  0.00     0.012 A 
ATOM     85  C   UNL A   1      43.631  28.945  34.787  1.00  0.00     0.148 A 
ATOM     86  C   UNL A   1      41.563  27.068  34.479  1.00  0.00     0.002 A 
ATOM     87  C   UNL A   1      43.302  28.082  35.825  1.00  0.00     0.091 A 
ATOM     88  F   UNL A   1      44.618  29.845  34.898  1.00  0.00    -0.205 F 
ATOM     89  C   UNL A   1      42.266  27.145  35.678  1.00  0.00     0.022 A 
BRANCH  87  90
ATOM     90  S   UNL A   1      44.233  28.056  37.357  1.00  0.00     0.127 S 
ATOM     91  O   UNL A   1      44.012  29.405  37.873  1.00  0.00    -0.237 OA
ATOM     92  O   UNL A   1      43.562  26.994  38.111  1.00  0.00    -0.237 OA
ATOM     93  O   UNL A   1      45.609  27.745  36.989  1.00  0.00    -0.744 OA
ENDBRANCH  87  90
ENDBRANCH  60  83
ENDBRANCH  34  35
ENDBRANCH  26  29
ENDBRANCH  24  25
ENDBRANCH  23  24
ENDBRANCH   1  23
TORSDOF 17
ENDMDL
MODEL 2
REMARK VINA RESULT:     -10.3      5.230     10.957
REMARK SMILES O=C(Cn1cc(C(=O)C(F)(F)F)c2ccccc21)NCCCCNC(=O)c1ccc(-c2c3nc(c(-c4cccc(S(=O)(=O)[O-])c4F)c4ccc([nH]4)c(-c4cccc(S(=O)(=O)[O-])c4F)c4nc(c(-c5cccc(S(=O)(=O)[O-])c5F)c5ccc2[nH]5)C=C4)C=C3)cc1
REMARK SMILES IDX 21 1 20 2 19 3 1 4 2 5 3 7 4 8 5 9 18 10 6 11 13 12 17 13
REMARK SMILES IDX 14 14 16 15 15 16 7 17 8 18 9 19 10 20 11 21 12 22 22 23
REMARK SMILES IDX 23 24 24 25 25 26 26 28 27 29 28 30 89 31 29 32 88 33 30 34
REMARK SMILES IDX 31 35 32 36 82 37 33 38 87 39 81 40 83 41 34 42 86 43 80 44
REMARK SMILES IDX 79 45 35 47 67 48 47 49 66 50 48 51 51 52 65 53 84 54 49 55
REMARK SMILES IDX 50 56 64 58 85 59 52 60 36 61 37 62 45 63 38 64 40 65 46 66
REMARK SMILES IDX 39 67 41 68 42 69 43 70 44 71 68 72 69 73 77 74 70 75 72 76
REMARK SMILES IDX 78 77 71 78 73 79 74 80 75 81 76 82 53 83 54 84 62 85 55 86
REMARK SMILES IDX 57 87 63 88 56 89 58 90 59 91 60 92 61 93
REMARK H PARENT 19 6 24 27 83 46 51 57
REMARK Flexibility Score: inf
ROOT
ATOM      1  C   UNL A   1      32.781  28.496  26.007  1.00  0.00     0.023 C 
ENDROOT
BRANCH   1   2
ATOM      2  C   UNL A   1      31.451  27.751  26.105  1.00  0.00     0.116 C 
BRANCH   2   3
ATOM      3  N   UNL A   1      31.615  26.405  26.621  1.00  0.00    -0.355 N 
ATOM      4  O   UNL A   1      31.239  25.339  24.620  1.00  0.00    -0.273 OA
ATOM      5  C   UNL A   1      31.498  25.289  25.820  1.00  0.00     0.239 C 
ATOM      6  H   UNL A   1      31.817  26.284  27.577  1.00  0.00     0.163 HD
BRANCH   5   7
ATOM      7  C   UNL A   1      31.671  23.968  26.538  1.00  0.00     0.222 C 
BRANCH   7   8
ATOM      8  N   UNL A   1      32.420  22.992  25.756  1.00  0.00    -0.337 N 
ATOM      9  C   UNL A   1      31.865  21.872  25.185  1.00  0.00     0.099 A 
ATOM     10  C   UNL A   1      33.777  23.019  25.515  1.00  0.00     0.049 A 
ATOM     11  C   UNL A   1      32.858  21.162  24.532  1.00  0.00     0.053 A 
ATOM     12  C   UNL A   1      34.078  21.887  24.747  1.00  0.00     0.011 A 
ATOM     13  C   UNL A   1      34.772  23.933  25.908  1.00  0.00     0.027 A 
ATOM     14  C   UNL A   1      35.419  21.675  24.358  1.00  0.00     0.011 A 
ATOM     15  C   UNL A   1      36.090  23.692  25.510  1.00  0.00     0.002 A 
ATOM     16  C   UNL A   1      36.413  22.579  24.745  1.00  0.00     0.001 A 
BRANCH  11  17
ATOM     17  C   UNL A   1      32.682  19.909  23.783  1.00  0.00     0.268 C 
ATOM     18  O   UNL A   1      32.151  19.914  22.668  1.00  0.00    -0.284 OA
BRANCH  17  19
ATOM     19  C   UNL A   1      33.187  18.616  24.421  1.00  0.00     0.454 C 
ATOM     20  F   UNL A   1      32.468  18.264  25.527  1.00  0.00    -0.163 F 
ATOM     21  F   UNL A   1      33.125  17.550  23.573  1.00  0.00    -0.163 F 
ATOM     22  F   UNL A   1      34.486  18.691  24.831  1.00  0.00    -0.163 F 
ENDBRANCH  17  19
ENDBRANCH  11  17
ENDBRANCH   7   8
ENDBRANCH   5   7
ENDBRANCH   2   3
ENDBRANCH   1   2
BRANCH   1  23
ATOM     23  C   UNL A   1      33.266  29.135  27.316  1.00  0.00     0.023 C 
BRANCH  23  24
ATOM     24  C   UNL A   1      33.723  30.588  27.183  1.00  0.00     0.116 C 
BRANCH  24  25
ATOM     25  N   UNL A   1      34.052  31.231  28.436  1.00  0.00    -0.352 N 
ATOM     26  C   UNL A   1      35.228  31.545  29.062  1.00  0.00     0.251 C 
ATOM     27  H   UNL A   1      33.257  31.501  28.951  1.00  0.00     0.163 HD
ATOM     28  O   UNL A   1      35.150  32.316  30.021  1.00  0.00    -0.269 OA
BRANCH  26  29
ATOM     29  C   UNL A   1      36.533  30.914  28.740  1.00  0.00     0.039 A 
ATOM     30  C   UNL A   1      36.696  29.614  28.261  1.00  0.00     0.014 A 
ATOM     31  C   UNL A   1      37.673  31.662  29.089  1.00  0.00     0.014 A 
ATOM     32  C   UNL A   1      37.927  28.993  28.349  1.00  0.00     0.010 A 
ATOM     33  C   UNL A   1      38.918  31.060  29.134  1.00  0.00     0.010 A 
ATOM     34  C   UNL A   1      39.012  29.701  28.859  1.00  0.00    -0.014 A 
BRANCH  34  35
ATOM     35  C   UNL A   1      40.261  28.980  29.028  1.00  0.00     0.031 A 
ATOM     36  C   UNL A   1      40.671  28.809  30.451  1.00  0.00     0.074 A 
ATOM     37  C   UNL A   1      40.910  28.459  27.969  1.00  0.00     0.049 A 
ATOM     38  N   UNL A   1      41.757  29.210  31.030  1.00  0.00    -0.248 NA
ATOM     39  C   UNL A   1      39.668  28.251  31.375  1.00  0.00     0.031 C 
ATOM     40  C   UNL A   1      40.450  28.374  26.579  1.00  0.00     0.029 A 
ATOM     41  N   UNL A   1      42.070  27.752  27.943  1.00  0.00    -0.354 N 
ATOM     42  C   UNL A   1      41.660  28.761  32.347  1.00  0.00     0.074 A 
ATOM     43  C   UNL A   1      40.300  28.334  32.544  1.00  0.00     0.031 C 
ATOM     44  C   UNL A   1      41.168  27.429  25.931  1.00  0.00     0.029 A 
ATOM     45  C   UNL A   1      42.210  26.943  26.816  1.00  0.00     0.049 A 
ATOM     46  H   UNL A   1      42.748  27.807  28.654  1.00  0.00     0.167 HD
ATOM     47  C   UNL A   1      42.752  28.552  33.131  1.00  0.00     0.034 A 
ATOM     48  C   UNL A   1      43.052  25.884  26.697  1.00  0.00     0.034 A 
ATOM     49  C   UNL A   1      43.918  29.221  32.633  1.00  0.00     0.049 A 
ATOM     50  C   UNL A   1      44.092  26.052  27.742  1.00  0.00     0.074 A 
ATOM     51  C   UNL A   1      44.271  30.541  32.435  1.00  0.00     0.029 A 
ATOM     52  N   UNL A   1      44.791  28.480  31.875  1.00  0.00    -0.354 N 
ATOM     53  N   UNL A   1      44.954  27.028  27.753  1.00  0.00    -0.248 NA
ATOM     54  C   UNL A   1      43.883  25.380  29.014  1.00  0.00     0.031 C 
ATOM     55  C   UNL A   1      45.000  30.546  31.211  1.00  0.00     0.029 A 
ATOM     56  C   UNL A   1      45.101  29.225  30.767  1.00  0.00     0.049 A 
ATOM     57  H   UNL A   1      45.132  27.581  32.089  1.00  0.00     0.167 HD
ATOM     58  C   UNL A   1      45.058  27.382  29.091  1.00  0.00     0.074 A 
ATOM     59  C   UNL A   1      44.448  26.276  29.828  1.00  0.00     0.031 C 
ATOM     60  C   UNL A   1      45.357  28.660  29.463  1.00  0.00     0.034 A 
BRANCH  47  61
ATOM     61  C   UNL A   1      42.822  27.470  34.173  1.00  0.00     0.023 A 
ATOM     62  C   UNL A   1      42.587  27.808  35.520  1.00  0.00     0.012 A 
ATOM     63  C   UNL A   1      43.345  26.182  33.907  1.00  0.00     0.148 A 
ATOM     64  C   UNL A   1      42.859  26.901  36.553  1.00  0.00     0.002 A 
ATOM     65  C   UNL A   1      43.543  25.261  34.926  1.00  0.00     0.091 A 
ATOM     66  F   UNL A   1      43.777  25.887  32.675  1.00  0.00    -0.205 F 
ATOM     67  C   UNL A   1      43.320  25.622  36.256  1.00  0.00     0.022 A 
BRANCH  65  68
ATOM     68  S   UNL A   1      44.107  23.589  34.592  1.00  0.00     0.127 S 
ATOM     69  O   UNL A   1      45.320  23.837  33.824  1.00  0.00    -0.237 OA
ATOM     70  O   UNL A   1      44.317  23.067  35.940  1.00  0.00    -0.237 OA
ATOM     71  O   UNL A   1      43.008  22.949  33.870  1.00  0.00    -0.744 OA
ENDBRANCH  65  68
ENDBRANCH  47  61
BRANCH  48  72
ATOM     72  C   UNL A   1      42.846  24.572  26.023  1.00  0.00     0.023 A 
ATOM     73  C   UNL A   1      43.842  24.103  25.136  1.00  0.00     0.012 A 
ATOM     74  C   UNL A   1      41.874  23.648  26.465  1.00  0.00     0.148 A 
ATOM     75  C   UNL A   1      43.909  22.754  24.763  1.00  0.00     0.002 A 
ATOM     76  C   UNL A   1      41.938  22.309  26.081  1.00  0.00     0.091 A 
ATOM     77  F   UNL A   1      40.944  24.047  27.341  1.00  0.00    -0.205 F 
ATOM     78  C   UNL A   1      42.965  21.855  25.248  1.00  0.00     0.022 A 
BRANCH  76  79
ATOM     79  S   UNL A   1      40.756  21.093  26.681  1.00  0.00     0.127 S 
ATOM     80  O   UNL A   1      40.914  21.201  28.132  1.00  0.00    -0.237 OA
ATOM     81  O   UNL A   1      39.495  21.617  26.161  1.00  0.00    -0.237 OA
ATOM     82  O   UNL A   1      41.190  19.816  26.129  1.00  0.00    -0.744 OA
ENDBRANCH  76  79
ENDBRANCH  48  72
BRANCH  60  83
ATOM     83  C   UNL A   1      45.746  29.632  28.375  1.00  0.00     0.023 A 
ATOM     84  C   UNL A   1      44.786  30.372  27.649  1.00  0.00     0.012 A 
ATOM     85  C   UNL A   1      47.105  29.932  28.204  1.00  0.00     0.148 A 
ATOM     86  C   UNL A   1      45.177  31.380  26.762  1.00  0.00     0.002 A 
ATOM     87  C   UNL A   1      47.488  30.957  27.347  1.00  0.00     0.091 A 
ATOM     88  F   UNL A   1      48.000  29.229  28.913  1.00  0.00    -0.205 F 
ATOM     89  C   UNL A   1      46.529  31.681  26.620  1.00  0.00     0.022 A 
BRANCH  87  90
ATOM     90  S   UNL A   1      49.200  31.467  27.196  1.00  0.00     0.127 S 
ATOM     91  O   UNL A   1      49.090  32.670  26.373  1.00  0.00    -0.237 OA
ATOM     92  O   UNL A   1      49.577  31.711  28.590  1.00  0.00    -0.237 OA
ATOM     93  O   UNL A   1      49.902  30.350  26.577  1.00  0.00    -0.744 OA
ENDBRANCH  87  90
ENDBRANCH  60  83
ENDBRANCH  34  35
ENDBRANCH  26  29
ENDBRANCH  24  25
ENDBRANCH  23  24
ENDBRANCH   1  23
TORSDOF 17
ENDMDL
MODEL 3
REMARK VINA RESULT:     -10.2      4.993     10.797
REMARK SMILES O=C(Cn1cc(C(=O)C(F)(F)F)c2ccccc21)NCCCCNC(=O)c1ccc(-c2c3nc(c(-c4cccc(S(=O)(=O)[O-])c4F)c4ccc([nH]4)c(-c4cccc(S(=O)(=O)[O-])c4F)c4nc(c(-c5cccc(S(=O)(=O)[O-])c5F)c5ccc2[nH]5)C=C4)C=C3)cc1
REMARK SMILES IDX 21 1 20 2 19 3 1 4 2 5 3 7 4 8 5 9 18 10 6 11 13 12 17 13
REMARK SMILES IDX 14 14 16 15 15 16 7 17 8 18 9 19 10 20 11 21 12 22 22 23
REMARK SMILES IDX 23 24 24 25 25 26 26 28 27 29 28 30 89 31 29 32 88 33 30 34
REMARK SMILES IDX 31 35 32 36 82 37 33 38 87 39 81 40 83 41 34 42 86 43 80 44
REMARK SMILES IDX 79 45 35 47 67 48 47 49 66 50 48 51 51 52 65 53 84 54 49 55
REMARK SMILES IDX 50 56 64 58 85 59 52 60 36 61 37 62 45 63 38 64 40 65 46 66
REMARK SMILES IDX 39 67 41 68 42 69 43 70 44 71 68 72 69 73 77 74 70 75 72 76
REMARK SMILES IDX 78 77 71 78 73 79 74 80 75 81 76 82 53 83 54 84 62 85 55 86
REMARK SMILES IDX 57 87 63 88 56 89 58 90 59 91 60 92 61 93
REMARK H PARENT 19 6 24 27 83 46 51 57
REMARK Flexibility Score: inf
ROOT
ATOM      1  C   UNL A   1      32.777  27.959  26.079  1.00  0.00     0.023 C 
ENDROOT
BRANCH   1   2
ATOM      2  C   UNL A   1      33.773  26.802  26.140  1.00  0.00     0.116 C 
BRANCH   2   3
ATOM      3  N   UNL A   1      33.513  25.803  25.120  1.00  0.00    -0.355 N 
ATOM      4  O   UNL A   1      32.753  24.185  26.565  1.00  0.00    -0.273 OA
ATOM      5  C   UNL A   1      33.010  24.555  25.422  1.00  0.00     0.239 C 
ATOM      6  H   UNL A   1      33.702  26.025  24.179  1.00  0.00     0.163 HD
BRANCH   5   7
ATOM      7  C   UNL A   1      32.833  23.635  24.233  1.00  0.00     0.222 C 
BRANCH   7   8
ATOM      8  N   UNL A   1      33.433  22.322  24.438  1.00  0.00    -0.337 N 
ATOM      9  C   UNL A   1      32.714  21.160  24.578  1.00  0.00     0.099 A 
ATOM     10  C   UNL A   1      34.780  22.061  24.566  1.00  0.00     0.049 A 
ATOM     11  C   UNL A   1      33.594  20.109  24.772  1.00  0.00     0.053 A 
ATOM     12  C   UNL A   1      34.910  20.681  24.771  1.00  0.00     0.011 A 
ATOM     13  C   UNL A   1      35.900  22.912  24.525  1.00  0.00     0.027 A 
ATOM     14  C   UNL A   1      36.207  20.145  24.934  1.00  0.00     0.011 A 
ATOM     15  C   UNL A   1      37.169  22.351  24.694  1.00  0.00     0.002 A 
ATOM     16  C   UNL A   1      37.324  20.986  24.895  1.00  0.00     0.001 A 
BRANCH  11  17
ATOM     17  C   UNL A   1      33.235  18.695  24.953  1.00  0.00     0.268 C 
ATOM     18  O   UNL A   1      32.553  18.340  25.919  1.00  0.00    -0.284 OA
BRANCH  17  19
ATOM     19  C   UNL A   1      33.720  17.692  23.906  1.00  0.00     0.454 C 
ATOM     20  F   UNL A   1      33.284  16.423  24.156  1.00  0.00    -0.163 F 
ATOM     21  F   UNL A   1      33.297  17.998  22.646  1.00  0.00    -0.163 F 
ATOM     22  F   UNL A   1      35.080  17.610  23.833  1.00  0.00    -0.163 F 
ENDBRANCH  17  19
ENDBRANCH  11  17
ENDBRANCH   7   8
ENDBRANCH   5   7
ENDBRANCH   2   3
ENDBRANCH   1   2
BRANCH   1  23
ATOM     23  C   UNL A   1      33.107  29.149  26.991  1.00  0.00     0.023 C 
BRANCH  23  24
ATOM     24  C   UNL A   1      34.591  29.508  27.057  1.00  0.00     0.116 C 
BRANCH  24  25
ATOM     25  N   UNL A   1      34.861  30.888  27.393  1.00  0.00    -0.352 N 
ATOM     26  C   UNL A   1      35.966  31.556  27.851  1.00  0.00     0.251 C 
ATOM     27  H   UNL A   1      34.081  31.476  27.265  1.00  0.00     0.163 HD
ATOM     28  O   UNL A   1      35.921  32.786  27.803  1.00  0.00    -0.269 OA
BRANCH  26  29
ATOM     29  C   UNL A   1      37.120  30.894  28.510  1.00  0.00     0.039 A 
ATOM     30  C   UNL A   1      38.153  31.559  29.169  1.00  0.00     0.014 A 
ATOM     31  C   UNL A   1      37.217  29.504  28.313  1.00  0.00     0.014 A 
ATOM     32  C   UNL A   1      39.349  30.910  29.414  1.00  0.00     0.010 A 
ATOM     33  C   UNL A   1      38.395  28.837  28.599  1.00  0.00     0.010 A 
ATOM     34  C   UNL A   1      39.483  29.572  29.055  1.00  0.00    -0.014 A 
BRANCH  34  35
ATOM     35  C   UNL A   1      40.787  28.959  29.237  1.00  0.00     0.031 A 
ATOM     36  C   UNL A   1      41.139  28.701  30.662  1.00  0.00     0.074 A 
ATOM     37  C   UNL A   1      41.538  28.597  28.178  1.00  0.00     0.049 A 
ATOM     38  N   UNL A   1      42.148  29.149  31.336  1.00  0.00    -0.248 NA
ATOM     39  C   UNL A   1      40.149  27.971  31.475  1.00  0.00     0.031 C 
ATOM     40  C   UNL A   1      41.160  28.595  26.760  1.00  0.00     0.029 A 
ATOM     41  N   UNL A   1      42.762  28.008  28.161  1.00  0.00    -0.354 N 
ATOM     42  C   UNL A   1      42.029  28.577  32.603  1.00  0.00     0.074 A 
ATOM     43  C   UNL A   1      40.709  28.008  32.682  1.00  0.00     0.031 C 
ATOM     44  C   UNL A   1      41.999  27.783  26.080  1.00  0.00     0.029 A 
ATOM     45  C   UNL A   1      43.038  27.320  26.981  1.00  0.00     0.049 A 
ATOM     46  H   UNL A   1      43.394  28.062  28.914  1.00  0.00     0.167 HD
ATOM     47  C   UNL A   1      43.095  28.402  33.430  1.00  0.00     0.034 A 
ATOM     48  C   UNL A   1      43.985  26.359  26.824  1.00  0.00     0.034 A 
ATOM     49  C   UNL A   1      44.214  29.219  33.060  1.00  0.00     0.049 A 
ATOM     50  C   UNL A   1      44.949  26.530  27.940  1.00  0.00     0.074 A 
ATOM     51  C   UNL A   1      44.444  30.579  32.995  1.00  0.00     0.029 A 
ATOM     52  N   UNL A   1      45.193  28.634  32.296  1.00  0.00    -0.354 N 
ATOM     53  N   UNL A   1      45.709  27.578  28.084  1.00  0.00    -0.248 NA
ATOM     54  C   UNL A   1      44.742  25.730  29.136  1.00  0.00     0.031 C 
ATOM     55  C   UNL A   1      45.230  30.761  31.821  1.00  0.00     0.029 A 
ATOM     56  C   UNL A   1      45.484  29.501  31.275  1.00  0.00     0.049 A 
ATOM     57  H   UNL A   1      45.609  27.756  32.454  1.00  0.00     0.167 HD
ATOM     58  C   UNL A   1      45.709  27.819  29.451  1.00  0.00     0.074 A 
ATOM     59  C   UNL A   1      45.174  26.599  30.054  1.00  0.00     0.031 C 
ATOM     60  C   UNL A   1      45.861  29.081  29.946  1.00  0.00     0.034 A 
BRANCH  47  61
ATOM     61  C   UNL A   1      43.217  27.242  34.380  1.00  0.00     0.023 A 
ATOM     62  C   UNL A   1      43.118  27.484  35.764  1.00  0.00     0.012 A 
ATOM     63  C   UNL A   1      43.666  25.964  33.974  1.00  0.00     0.148 A 
ATOM     64  C   UNL A   1      43.447  26.495  36.699  1.00  0.00     0.002 A 
ATOM     65  C   UNL A   1      43.920  24.962  34.901  1.00  0.00     0.091 A 
ATOM     66  F   UNL A   1      43.975  25.749  32.689  1.00  0.00    -0.205 F 
ATOM     67  C   UNL A   1      43.832  25.228  36.269  1.00  0.00     0.022 A 
BRANCH  65  68
ATOM     68  S   UNL A   1      44.390  23.304  34.395  1.00  0.00     0.127 S 
ATOM     69  O   UNL A   1      44.431  22.607  35.673  1.00  0.00    -0.237 OA
ATOM     70  O   UNL A   1      43.282  22.933  33.517  1.00  0.00    -0.237 OA
ATOM     71  O   UNL A   1      45.670  23.460  33.705  1.00  0.00    -0.744 OA
ENDBRANCH  65  68
ENDBRANCH  47  61
BRANCH  48  72
ATOM     72  C   UNL A   1      43.944  25.099  26.031  1.00  0.00     0.023 A 
ATOM     73  C   UNL A   1      45.010  24.821  25.146  1.00  0.00     0.012 A 
ATOM     74  C   UNL A   1      43.068  24.039  26.354  1.00  0.00     0.148 A 
ATOM     75  C   UNL A   1      45.236  23.527  24.660  1.00  0.00     0.002 A 
ATOM     76  C   UNL A   1      43.290  22.756  25.858  1.00  0.00     0.091 A 
ATOM     77  F   UNL A   1      42.076  24.255  27.226  1.00  0.00    -0.205 F 
ATOM     78  C   UNL A   1      44.384  22.491  25.028  1.00  0.00     0.022 A 
BRANCH  76  79
ATOM     79  S   UNL A   1      42.233  21.370  26.305  1.00  0.00     0.127 S 
ATOM     80  O   UNL A   1      42.773  20.292  25.474  1.00  0.00    -0.237 OA
ATOM     81  O   UNL A   1      42.502  21.234  27.734  1.00  0.00    -0.237 OA
ATOM     82  O   UNL A   1      40.880  21.775  25.947  1.00  0.00    -0.744 OA
ENDBRANCH  76  79
ENDBRANCH  48  72
BRANCH  60  83
ATOM     83  C   UNL A   1      46.207  30.178  28.968  1.00  0.00     0.023 A 
ATOM     84  C   UNL A   1      47.542  30.478  28.616  1.00  0.00     0.012 A 
ATOM     85  C   UNL A   1      45.164  30.797  28.263  1.00  0.00     0.148 A 
ATOM     86  C   UNL A   1      47.828  31.386  27.592  1.00  0.00     0.002 A 
ATOM     87  C   UNL A   1      45.452  31.673  27.224  1.00  0.00     0.091 A 
ATOM     88  F   UNL A   1      43.905  30.488  28.602  1.00  0.00    -0.205 F 
ATOM     89  C   UNL A   1      46.782  31.974  26.887  1.00  0.00     0.022 A 
BRANCH  87  90
ATOM     90  S   UNL A   1      44.158  32.384  26.207  1.00  0.00     0.127 S 
ATOM     91  O   UNL A   1      44.916  32.927  25.082  1.00  0.00    -0.237 OA
ATOM     92  O   UNL A   1      43.336  31.215  25.885  1.00  0.00    -0.237 OA
ATOM     93  O   UNL A   1      43.486  33.372  27.041  1.00  0.00    -0.744 OA
ENDBRANCH  87  90
ENDBRANCH  60  83
ENDBRANCH  34  35
ENDBRANCH  26  29
ENDBRANCH  24  25
ENDBRANCH  23  24
ENDBRANCH   1  23
TORSDOF 17
ENDMDL
