MODEL 1
REMARK VINA RESULT:     -10.4      0.000      0.000
REMARK SMILES CCC[NH+]1CCC([NH2+]CC(C)(C)C(=O)NCCCCNC(=O)c2ccc(-c3c4nc(c(-c5cccc(S(=O)(=O)[O-])c5F)c5ccc([nH]5)c(-c5cccc(S(=O)(=O)[O-])c5F)c5nc(c(-c6cccc(S(=O)(=O)[O-])c6F)c6ccc3[nH]6)C=C5)C=C4)cc2)CC1
REMARK SMILES IDX 16 1 15 2 13 3 14 4 10 6 11 7 12 8 9 9 8 10 7 13 4 14 5 15
REMARK SMILES IDX 87 16 6 18 86 19 3 20 2 21 1 22 17 23 18 24 19 25 20 26
REMARK SMILES IDX 21 27 22 29 23 30 24 31 85 32 25 33 84 34 26 35 27 36 28 37
REMARK SMILES IDX 78 38 29 39 83 40 77 41 79 42 30 43 82 44 76 45 75 46 31 48
REMARK SMILES IDX 63 49 43 50 62 51 44 52 47 53 61 54 80 55 45 56 46 57 60 59
REMARK SMILES IDX 81 60 48 61 32 62 33 63 41 64 34 65 36 66 42 67 35 68 37 69
REMARK SMILES IDX 38 70 39 71 40 72 64 73 65 74 73 75 66 76 68 77 74 78 67 79
REMARK SMILES IDX 69 80 70 81 71 82 72 83 49 84 50 85 58 86 51 87 53 88 59 89
REMARK SMILES IDX 52 90 54 91 55 92 56 93 57 94
REMARK H PARENT 15 5 8 11 8 12 4 17 20 28 79 47 47 58
REMARK Flexibility Score: inf
ROOT
ATOM      1  C   UNL A   1      36.754  21.442  25.086  1.00  0.00     0.116 C 
ENDROOT
BRANCH   1   2
ATOM      2  N   UNL A   1      36.247  22.151  23.935  1.00  0.00    -0.355 N 
ATOM      3  C   UNL A   1      35.318  23.124  23.788  1.00  0.00     0.231 C 
ATOM      4  O   UNL A   1      34.963  23.316  22.618  1.00  0.00    -0.274 OA
ATOM      5  H   UNL A   1      36.661  21.872  23.086  1.00  0.00     0.163 HD
BRANCH   3   6
ATOM      6  C   UNL A   1      34.676  23.911  24.959  1.00  0.00     0.092 C 
ATOM      7  C   UNL A   1      33.926  25.229  24.667  1.00  0.00     0.027 C 
ATOM      8  C   UNL A   1      35.875  24.245  25.873  1.00  0.00     0.027 C 
BRANCH   6   9
ATOM      9  C   UNL A   1      33.688  22.944  25.725  1.00  0.00     0.277 C 
BRANCH   9  10
ATOM     10  N   UNL A   1      32.379  22.557  25.129  1.00  0.00    -0.343 N 
ATOM     11  H   UNL A   1      31.641  22.836  25.775  1.00  0.00     0.346 HD
ATOM     12  H   UNL A   1      32.325  23.031  24.226  1.00  0.00     0.346 HD
BRANCH  10  13
ATOM     13  C   UNL A   1      32.226  21.119  24.852  1.00  0.00     0.193 C 
ATOM     14  N   UNL A   1      33.235  18.481  24.028  1.00  0.00    -0.335 N 
ATOM     15  C   UNL A   1      32.327  19.222  23.122  1.00  0.00     0.268 C 
ATOM     16  C   UNL A   1      32.896  18.825  25.404  1.00  0.00     0.268 C 
ATOM     17  H   UNL A   1      34.190  18.762  23.806  1.00  0.00     0.348 HD
ATOM     18  C   UNL A   1      32.375  20.763  23.353  1.00  0.00     0.126 C 
ATOM     19  C   UNL A   1      33.280  20.276  25.565  1.00  0.00     0.126 C 
BRANCH  14  20
ATOM     20  C   UNL A   1      33.206  17.026  23.834  1.00  0.00     0.261 C 
BRANCH  20  21
ATOM     21  C   UNL A   1      33.669  16.237  25.080  1.00  0.00     0.058 C 
ATOM     22  C   UNL A   1      35.165  15.978  25.231  1.00  0.00     0.010 C 
ENDBRANCH  20  21
ENDBRANCH  14  20
ENDBRANCH  10  13
ENDBRANCH   9  10
ENDBRANCH   6   9
ENDBRANCH   3   6
ENDBRANCH   1   2
BRANCH   1  23
ATOM     23  C   UNL A   1      36.803  19.941  24.813  1.00  0.00     0.023 C 
BRANCH  23  24
ATOM     24  C   UNL A   1      38.179  19.296  24.992  1.00  0.00     0.023 C 
BRANCH  24  25
ATOM     25  C   UNL A   1      39.184  20.138  25.770  1.00  0.00     0.116 C 
BRANCH  25  26
ATOM     26  N   UNL A   1      40.395  19.394  26.087  1.00  0.00    -0.352 N 
ATOM     27  C   UNL A   1      41.641  19.863  26.433  1.00  0.00     0.251 C 
ATOM     28  H   UNL A   1      40.311  18.415  26.049  1.00  0.00     0.163 HD
ATOM     29  O   UNL A   1      42.600  19.101  26.451  1.00  0.00    -0.269 OA
BRANCH  27  30
ATOM     30  C   UNL A   1      41.814  21.291  26.770  1.00  0.00     0.039 A 
ATOM     31  C   UNL A   1      41.918  21.667  28.110  1.00  0.00     0.014 A 
ATOM     32  C   UNL A   1      41.883  22.253  25.759  1.00  0.00     0.014 A 
ATOM     33  C   UNL A   1      42.159  23.005  28.432  1.00  0.00     0.010 A 
ATOM     34  C   UNL A   1      42.209  23.567  26.078  1.00  0.00     0.010 A 
ATOM     35  C   UNL A   1      42.342  23.959  27.417  1.00  0.00    -0.014 A 
BRANCH  35  36
ATOM     36  C   UNL A   1      42.682  25.369  27.737  1.00  0.00     0.031 A 
ATOM     37  C   UNL A   1      44.105  25.847  27.637  1.00  0.00     0.074 A 
ATOM     38  C   UNL A   1      41.723  26.197  28.196  1.00  0.00     0.049 A 
ATOM     39  N   UNL A   1      44.602  27.023  27.921  1.00  0.00    -0.248 NA
ATOM     40  C   UNL A   1      45.108  24.868  27.186  1.00  0.00     0.031 C 
ATOM     41  C   UNL A   1      40.320  25.832  28.411  1.00  0.00     0.029 A 
ATOM     42  N   UNL A   1      41.786  27.511  28.589  1.00  0.00    -0.354 N 
ATOM     43  C   UNL A   1      45.973  26.918  27.715  1.00  0.00     0.074 A 
ATOM     44  C   UNL A   1      46.236  25.550  27.323  1.00  0.00     0.031 C 
ATOM     45  C   UNL A   1      39.655  26.898  28.883  1.00  0.00     0.029 A 
ATOM     46  C   UNL A   1      40.586  28.011  29.041  1.00  0.00     0.049 A 
ATOM     47  H   UNL A   1      42.611  28.046  28.550  1.00  0.00     0.167 HD
ATOM     48  C   UNL A   1      46.923  27.877  27.812  1.00  0.00     0.034 A 
ATOM     49  C   UNL A   1      40.273  29.224  29.534  1.00  0.00     0.034 A 
ATOM     50  C   UNL A   1      46.652  29.242  28.173  1.00  0.00     0.049 A 
ATOM     51  C   UNL A   1      41.344  30.278  29.615  1.00  0.00     0.074 A 
ATOM     52  C   UNL A   1      47.532  30.309  28.221  1.00  0.00     0.029 A 
ATOM     53  N   UNL A   1      45.413  29.729  28.558  1.00  0.00    -0.354 N 
ATOM     54  N   UNL A   1      42.606  30.201  29.268  1.00  0.00    -0.248 NA
ATOM     55  C   UNL A   1      40.941  31.596  30.124  1.00  0.00     0.031 C 
ATOM     56  C   UNL A   1      46.831  31.433  28.670  1.00  0.00     0.029 A 
ATOM     57  C   UNL A   1      45.505  31.076  28.861  1.00  0.00     0.049 A 
ATOM     58  H   UNL A   1      44.587  29.194  28.609  1.00  0.00     0.167 HD
ATOM     59  C   UNL A   1      43.138  31.468  29.479  1.00  0.00     0.074 A 
ATOM     60  C   UNL A   1      42.055  32.298  29.964  1.00  0.00     0.031 C 
ATOM     61  C   UNL A   1      44.409  31.903  29.299  1.00  0.00     0.034 A 
BRANCH  48  62
ATOM     62  C   UNL A   1      48.342  27.490  27.482  1.00  0.00     0.023 A 
ATOM     63  C   UNL A   1      49.153  26.895  28.471  1.00  0.00     0.012 A 
ATOM     64  C   UNL A   1      48.859  27.669  26.184  1.00  0.00     0.148 A 
ATOM     65  C   UNL A   1      50.466  26.524  28.188  1.00  0.00     0.002 A 
ATOM     66  C   UNL A   1      50.153  27.251  25.895  1.00  0.00     0.091 A 
ATOM     67  F   UNL A   1      48.083  28.253  25.260  1.00  0.00    -0.205 F 
ATOM     68  C   UNL A   1      50.962  26.693  26.898  1.00  0.00     0.022 A 
BRANCH  66  69
ATOM     69  S   UNL A   1      50.858  27.347  24.245  1.00  0.00     0.127 S 
ATOM     70  O   UNL A   1      51.001  28.792  24.070  1.00  0.00    -0.237 OA
ATOM     71  O   UNL A   1      52.120  26.625  24.408  1.00  0.00    -0.237 OA
ATOM     72  O   UNL A   1      49.899  26.704  23.360  1.00  0.00    -0.744 OA
ENDBRANCH  66  69
ENDBRANCH  48  62
BRANCH  49  73
ATOM     73  C   UNL A   1      38.871  29.529  29.936  1.00  0.00     0.023 A 
ATOM     74  C   UNL A   1      38.443  29.222  31.244  1.00  0.00     0.012 A 
ATOM     75  C   UNL A   1      37.967  30.136  29.044  1.00  0.00     0.148 A 
ATOM     76  C   UNL A   1      37.131  29.480  31.643  1.00  0.00     0.002 A 
ATOM     77  C   UNL A   1      36.679  30.444  29.465  1.00  0.00     0.091 A 
ATOM     78  F   UNL A   1      38.390  30.413  27.803  1.00  0.00    -0.205 F 
ATOM     79  C   UNL A   1      36.253  30.100  30.758  1.00  0.00     0.022 A 
BRANCH  77  80
ATOM     80  S   UNL A   1      35.519  31.354  28.440  1.00  0.00     0.127 S 
ATOM     81  O   UNL A   1      36.299  32.538  28.086  1.00  0.00    -0.237 OA
ATOM     82  O   UNL A   1      35.288  30.415  27.342  1.00  0.00    -0.237 OA
ATOM     83  O   UNL A   1      34.355  31.595  29.281  1.00  0.00    -0.744 OA
ENDBRANCH  77  80
ENDBRANCH  49  73
BRANCH  61  84
ATOM     84  C   UNL A   1      44.700  33.354  29.585  1.00  0.00     0.023 A 
ATOM     85  C   UNL A   1      45.199  33.738  30.844  1.00  0.00     0.012 A 
ATOM     86  C   UNL A   1      44.543  34.326  28.576  1.00  0.00     0.148 A 
ATOM     87  C   UNL A   1      45.504  35.074  31.108  1.00  0.00     0.002 A 
ATOM     88  C   UNL A   1      44.899  35.644  28.830  1.00  0.00     0.091 A 
ATOM     89  F   UNL A   1      44.050  33.942  27.390  1.00  0.00    -0.205 F 
ATOM     90  C   UNL A   1      45.365  36.023  30.099  1.00  0.00     0.022 A 
BRANCH  88  91
ATOM     91  S   UNL A   1      44.850  36.917  27.562  1.00  0.00     0.127 S 
ATOM     92  O   UNL A   1      45.138  38.122  28.339  1.00  0.00    -0.237 OA
ATOM     93  O   UNL A   1      45.926  36.499  26.664  1.00  0.00    -0.237 OA
ATOM     94  O   UNL A   1      43.516  36.855  26.980  1.00  0.00    -0.744 OA
ENDBRANCH  88  91
ENDBRANCH  61  84
ENDBRANCH  35  36
ENDBRANCH  27  30
ENDBRANCH  25  26
ENDBRANCH  24  25
ENDBRANCH  23  24
ENDBRANCH   1  23
TORSDOF 19
ENDMDL
MODEL 2
REMARK VINA RESULT:     -10.2      1.134      7.630
REMARK SMILES CCC[NH+]1CCC([NH2+]CC(C)(C)C(=O)NCCCCNC(=O)c2ccc(-c3c4nc(c(-c5cccc(S(=O)(=O)[O-])c5F)c5ccc([nH]5)c(-c5cccc(S(=O)(=O)[O-])c5F)c5nc(c(-c6cccc(S(=O)(=O)[O-])c6F)c6ccc3[nH]6)C=C5)C=C4)cc2)CC1
REMARK SMILES IDX 16 1 15 2 13 3 14 4 10 6 11 7 12 8 9 9 8 10 7 13 4 14 5 15
REMARK SMILES IDX 87 16 6 18 86 19 3 20 2 21 1 22 17 23 18 24 19 25 20 26
REMARK SMILES IDX 21 27 22 29 23 30 24 31 85 32 25 33 84 34 26 35 27 36 28 37
REMARK SMILES IDX 78 38 29 39 83 40 77 41 79 42 30 43 82 44 76 45 75 46 31 48
REMARK SMILES IDX 63 49 43 50 62 51 44 52 47 53 61 54 80 55 45 56 46 57 60 59
REMARK SMILES IDX 81 60 48 61 32 62 33 63 41 64 34 65 36 66 42 67 35 68 37 69
REMARK SMILES IDX 38 70 39 71 40 72 64 73 65 74 73 75 66 76 68 77 74 78 67 79
REMARK SMILES IDX 69 80 70 81 71 82 72 83 49 84 50 85 58 86 51 87 53 88 59 89
REMARK SMILES IDX 52 90 54 91 55 92 56 93 57 94
REMARK H PARENT 15 5 8 11 8 12 4 17 20 28 79 47 47 58
REMARK Flexibility Score: inf
ROOT
ATOM      1  C   UNL A   1      36.484  21.266  25.120  1.00  0.00     0.116 C 
ENDROOT
BRANCH   1   2
ATOM      2  N   UNL A   1      36.141  22.091  23.985  1.00  0.00    -0.355 N 
ATOM      3  C   UNL A   1      35.295  23.136  23.828  1.00  0.00     0.231 C 
ATOM      4  O   UNL A   1      35.071  23.436  22.649  1.00  0.00    -0.274 OA
ATOM      5  H   UNL A   1      36.618  21.845  23.160  1.00  0.00     0.163 HD
BRANCH   3   6
ATOM      6  C   UNL A   1      34.590  23.879  24.991  1.00  0.00     0.092 C 
ATOM      7  C   UNL A   1      34.160  25.350  24.802  1.00  0.00     0.027 C 
ATOM      8  C   UNL A   1      35.631  23.836  26.132  1.00  0.00     0.027 C 
BRANCH   6   9
ATOM      9  C   UNL A   1      33.316  23.046  25.415  1.00  0.00     0.277 C 
BRANCH   9  10
ATOM     10  N   UNL A   1      32.398  22.475  24.390  1.00  0.00    -0.343 N 
ATOM     11  H   UNL A   1      31.495  22.939  24.479  1.00  0.00     0.346 HD
ATOM     12  H   UNL A   1      32.845  22.634  23.486  1.00  0.00     0.346 HD
BRANCH  10  13
ATOM     13  C   UNL A   1      32.181  21.022  24.495  1.00  0.00     0.193 C 
ATOM     14  N   UNL A   1      33.099  18.230  24.614  1.00  0.00    -0.335 N 
ATOM     15  C   UNL A   1      32.409  18.712  23.395  1.00  0.00     0.268 C 
ATOM     16  C   UNL A   1      32.572  18.960  25.762  1.00  0.00     0.268 C 
ATOM     17  H   UNL A   1      34.097  18.408  24.496  1.00  0.00     0.348 HD
ATOM     18  C   UNL A   1      32.539  20.252  23.201  1.00  0.00     0.126 C 
ATOM     19  C   UNL A   1      33.037  20.384  25.584  1.00  0.00     0.126 C 
BRANCH  14  20
ATOM     20  C   UNL A   1      32.989  16.781  24.824  1.00  0.00     0.261 C 
BRANCH  20  21
ATOM     21  C   UNL A   1      34.282  16.015  24.464  1.00  0.00     0.058 C 
ATOM     22  C   UNL A   1      35.484  16.193  25.386  1.00  0.00     0.010 C 
ENDBRANCH  20  21
ENDBRANCH  14  20
ENDBRANCH  10  13
ENDBRANCH   9  10
ENDBRANCH   6   9
ENDBRANCH   3   6
ENDBRANCH   1   2
BRANCH   1  23
ATOM     23  C   UNL A   1      36.620  19.805  24.700  1.00  0.00     0.023 C 
BRANCH  23  24
ATOM     24  C   UNL A   1      38.053  19.270  24.675  1.00  0.00     0.023 C 
BRANCH  24  25
ATOM     25  C   UNL A   1      38.939  19.760  25.815  1.00  0.00     0.116 C 
BRANCH  25  26
ATOM     26  N   UNL A   1      40.140  18.950  25.965  1.00  0.00    -0.352 N 
ATOM     27  C   UNL A   1      41.446  19.349  26.126  1.00  0.00     0.251 C 
ATOM     28  H   UNL A   1      39.996  17.977  25.952  1.00  0.00     0.163 HD
ATOM     29  O   UNL A   1      42.353  18.533  26.017  1.00  0.00    -0.269 OA
BRANCH  27  30
ATOM     30  C   UNL A   1      41.744  20.766  26.417  1.00  0.00     0.039 A 
ATOM     31  C   UNL A   1      41.879  21.174  27.745  1.00  0.00     0.014 A 
ATOM     32  C   UNL A   1      41.901  21.684  25.376  1.00  0.00     0.014 A 
ATOM     33  C   UNL A   1      42.237  22.495  28.026  1.00  0.00     0.010 A 
ATOM     34  C   UNL A   1      42.342  22.974  25.654  1.00  0.00     0.010 A 
ATOM     35  C   UNL A   1      42.507  23.396  26.981  1.00  0.00    -0.014 A 
BRANCH  35  36
ATOM     36  C   UNL A   1      42.969  24.780  27.257  1.00  0.00     0.031 A 
ATOM     37  C   UNL A   1      42.043  25.774  27.904  1.00  0.00     0.074 A 
ATOM     38  C   UNL A   1      44.195  25.166  26.851  1.00  0.00     0.049 A 
ATOM     39  N   UNL A   1      42.249  27.036  28.178  1.00  0.00    -0.248 NA
ATOM     40  C   UNL A   1      40.697  25.296  28.265  1.00  0.00     0.031 C 
ATOM     41  C   UNL A   1      45.158  24.317  26.144  1.00  0.00     0.029 A 
ATOM     42  N   UNL A   1      44.833  26.377  26.952  1.00  0.00    -0.354 N 
ATOM     43  C   UNL A   1      41.056  27.510  28.712  1.00  0.00     0.074 A 
ATOM     44  C   UNL A   1      40.116  26.410  28.683  1.00  0.00     0.031 C 
ATOM     45  C   UNL A   1      46.267  25.030  25.888  1.00  0.00     0.029 A 
ATOM     46  C   UNL A   1      46.082  26.393  26.376  1.00  0.00     0.049 A 
ATOM     47  H   UNL A   1      44.435  27.160  27.395  1.00  0.00     0.167 HD
ATOM     48  C   UNL A   1      40.776  28.738  29.208  1.00  0.00     0.034 A 
ATOM     49  C   UNL A   1      46.975  27.393  26.248  1.00  0.00     0.034 A 
ATOM     50  C   UNL A   1      41.723  29.818  29.262  1.00  0.00     0.049 A 
ATOM     51  C   UNL A   1      46.646  28.743  26.824  1.00  0.00     0.074 A 
ATOM     52  C   UNL A   1      41.563  31.074  29.819  1.00  0.00     0.029 A 
ATOM     53  N   UNL A   1      43.003  29.776  28.731  1.00  0.00    -0.354 N 
ATOM     54  N   UNL A   1      45.567  29.128  27.464  1.00  0.00    -0.248 NA
ATOM     55  C   UNL A   1      47.670  29.789  26.692  1.00  0.00     0.031 C 
ATOM     56  C   UNL A   1      42.734  31.805  29.593  1.00  0.00     0.029 A 
ATOM     57  C   UNL A   1      43.639  30.989  28.931  1.00  0.00     0.049 A 
ATOM     58  H   UNL A   1      43.400  28.999  28.276  1.00  0.00     0.167 HD
ATOM     59  C   UNL A   1      45.798  30.445  27.844  1.00  0.00     0.074 A 
ATOM     60  C   UNL A   1      47.128  30.785  27.381  1.00  0.00     0.031 C 
ATOM     61  C   UNL A   1      44.980  31.300  28.506  1.00  0.00     0.034 A 
BRANCH  48  62
ATOM     62  C   UNL A   1      39.397  28.964  29.774  1.00  0.00     0.023 A 
ATOM     63  C   UNL A   1      39.134  28.647  31.124  1.00  0.00     0.012 A 
ATOM     64  C   UNL A   1      38.375  29.532  28.989  1.00  0.00     0.148 A 
ATOM     65  C   UNL A   1      37.869  28.852  31.671  1.00  0.00     0.002 A 
ATOM     66  C   UNL A   1      37.130  29.779  29.555  1.00  0.00     0.091 A 
ATOM     67  F   UNL A   1      38.634  29.809  27.704  1.00  0.00    -0.205 F 
ATOM     68  C   UNL A   1      36.870  29.427  30.890  1.00  0.00     0.022 A 
BRANCH  66  69
ATOM     69  S   UNL A   1      35.801  30.593  28.660  1.00  0.00     0.127 S 
ATOM     70  O   UNL A   1      35.112  31.302  29.739  1.00  0.00    -0.237 OA
ATOM     71  O   UNL A   1      36.537  31.457  27.736  1.00  0.00    -0.237 OA
ATOM     72  O   UNL A   1      35.036  29.532  28.023  1.00  0.00    -0.744 OA
ENDBRANCH  66  69
ENDBRANCH  48  62
BRANCH  49  73
ATOM     73  C   UNL A   1      48.291  27.142  25.595  1.00  0.00     0.023 A 
ATOM     74  C   UNL A   1      49.336  26.565  26.345  1.00  0.00     0.012 A 
ATOM     75  C   UNL A   1      48.509  27.450  24.239  1.00  0.00     0.148 A 
ATOM     76  C   UNL A   1      50.584  26.334  25.765  1.00  0.00     0.002 A 
ATOM     77  C   UNL A   1      49.735  27.164  23.652  1.00  0.00     0.091 A 
ATOM     78  F   UNL A   1      47.505  28.005  23.546  1.00  0.00    -0.205 F 
ATOM     79  C   UNL A   1      50.780  26.624  24.418  1.00  0.00     0.022 A 
BRANCH  77  80
ATOM     80  S   UNL A   1      50.040  27.384  21.896  1.00  0.00     0.127 S 
ATOM     81  O   UNL A   1      51.322  26.703  21.727  1.00  0.00    -0.237 OA
ATOM     82  O   UNL A   1      48.893  26.696  21.304  1.00  0.00    -0.237 OA
ATOM     83  O   UNL A   1      50.057  28.824  21.677  1.00  0.00    -0.744 OA
ENDBRANCH  77  80
ENDBRANCH  49  73
BRANCH  61  84
ATOM     84  C   UNL A   1      45.508  32.678  28.812  1.00  0.00     0.023 A 
ATOM     85  C   UNL A   1      46.137  32.934  30.046  1.00  0.00     0.012 A 
ATOM     86  C   UNL A   1      45.443  33.700  27.844  1.00  0.00     0.148 A 
ATOM     87  C   UNL A   1      46.660  34.196  30.327  1.00  0.00     0.002 A 
ATOM     88  C   UNL A   1      46.013  34.938  28.110  1.00  0.00     0.091 A 
ATOM     89  F   UNL A   1      44.826  33.440  26.682  1.00  0.00    -0.205 F 
ATOM     90  C   UNL A   1      46.608  35.193  29.355  1.00  0.00     0.022 A 
BRANCH  88  91
ATOM     91  S   UNL A   1      46.085  36.250  26.884  1.00  0.00     0.127 S 
ATOM     92  O   UNL A   1      46.584  35.533  25.711  1.00  0.00    -0.237 OA
ATOM     93  O   UNL A   1      44.685  36.665  26.794  1.00  0.00    -0.237 OA
ATOM     94  O   UNL A   1      46.983  37.260  27.426  1.00  0.00    -0.744 OA
ENDBRANCH  88  91
ENDBRANCH  61  84
ENDBRANCH  35  36
ENDBRANCH  27  30
ENDBRANCH  25  26
ENDBRANCH  24  25
ENDBRANCH  23  24
ENDBRANCH   1  23
TORSDOF 19
ENDMDL
MODEL 3
REMARK VINA RESULT:     -10.1      5.419     10.152
REMARK SMILES CCC[NH+]1CCC([NH2+]CC(C)(C)C(=O)NCCCCNC(=O)c2ccc(-c3c4nc(c(-c5cccc(S(=O)(=O)[O-])c5F)c5ccc([nH]5)c(-c5cccc(S(=O)(=O)[O-])c5F)c5nc(c(-c6cccc(S(=O)(=O)[O-])c6F)c6ccc3[nH]6)C=C5)C=C4)cc2)CC1
REMARK SMILES IDX 16 1 15 2 13 3 14 4 10 6 11 7 12 8 9 9 8 10 7 13 4 14 5 15
REMARK SMILES IDX 87 16 6 18 86 19 3 20 2 21 1 22 17 23 18 24 19 25 20 26
REMARK SMILES IDX 21 27 22 29 23 30 24 31 85 32 25 33 84 34 26 35 27 36 28 37
REMARK SMILES IDX 78 38 29 39 83 40 77 41 79 42 30 43 82 44 76 45 75 46 31 48
REMARK SMILES IDX 63 49 43 50 62 51 44 52 47 53 61 54 80 55 45 56 46 57 60 59
REMARK SMILES IDX 81 60 48 61 32 62 33 63 41 64 34 65 36 66 42 67 35 68 37 69
REMARK SMILES IDX 38 70 39 71 40 72 64 73 65 74 73 75 66 76 68 77 74 78 67 79
REMARK SMILES IDX 69 80 70 81 71 82 72 83 49 84 50 85 58 86 51 87 53 88 59 89
REMARK SMILES IDX 52 90 54 91 55 92 56 93 57 94
REMARK H PARENT 15 5 8 11 8 12 4 17 20 28 79 47 47 58
REMARK Flexibility Score: inf
ROOT
ATOM      1  C   UNL A   1      33.556  27.486  23.386  1.00  0.00     0.116 C 
ENDROOT
BRANCH   1   2
ATOM      2  N   UNL A   1      32.962  26.258  22.914  1.00  0.00    -0.355 N 
ATOM      3  C   UNL A   1      32.880  25.013  23.436  1.00  0.00     0.231 C 
ATOM      4  O   UNL A   1      32.511  24.147  22.633  1.00  0.00    -0.274 OA
ATOM      5  H   UNL A   1      32.527  26.343  22.034  1.00  0.00     0.163 HD
BRANCH   3   6
ATOM      6  C   UNL A   1      33.269  24.643  24.891  1.00  0.00     0.092 C 
ATOM      7  C   UNL A   1      32.424  25.188  26.063  1.00  0.00     0.027 C 
ATOM      8  C   UNL A   1      34.699  25.208  25.039  1.00  0.00     0.027 C 
BRANCH   6   9
ATOM      9  C   UNL A   1      33.314  23.068  25.009  1.00  0.00     0.277 C 
BRANCH   9  10
ATOM     10  N   UNL A   1      32.152  22.306  25.546  1.00  0.00    -0.343 N 
ATOM     11  H   UNL A   1      32.229  22.286  26.563  1.00  0.00     0.346 HD
ATOM     12  H   UNL A   1      31.316  22.790  25.215  1.00  0.00     0.346 HD
BRANCH  10  13
ATOM     13  C   UNL A   1      32.046  20.919  25.066  1.00  0.00     0.193 C 
ATOM     14  N   UNL A   1      33.171  18.398  24.048  1.00  0.00    -0.335 N 
ATOM     15  C   UNL A   1      32.390  19.262  23.132  1.00  0.00     0.268 C 
ATOM     16  C   UNL A   1      32.646  18.564  25.399  1.00  0.00     0.268 C 
ATOM     17  H   UNL A   1      34.146  18.693  23.996  1.00  0.00     0.348 HD
ATOM     18  C   UNL A   1      32.398  20.759  23.567  1.00  0.00     0.126 C 
ATOM     19  C   UNL A   1      32.997  19.977  25.798  1.00  0.00     0.126 C 
BRANCH  14  20
ATOM     20  C   UNL A   1      33.177  16.981  23.663  1.00  0.00     0.261 C 
BRANCH  20  21
ATOM     21  C   UNL A   1      33.629  16.043  24.805  1.00  0.00     0.058 C 
ATOM     22  C   UNL A   1      35.112  16.038  25.164  1.00  0.00     0.010 C 
ENDBRANCH  20  21
ENDBRANCH  14  20
ENDBRANCH  10  13
ENDBRANCH   9  10
ENDBRANCH   6   9
ENDBRANCH   3   6
ENDBRANCH   1   2
BRANCH   1  23
ATOM     23  C   UNL A   1      32.517  28.603  23.431  1.00  0.00     0.023 C 
BRANCH  23  24
ATOM     24  C   UNL A   1      31.727  28.698  24.738  1.00  0.00     0.023 C 
BRANCH  24  25
ATOM     25  C   UNL A   1      32.525  29.205  25.933  1.00  0.00     0.116 C 
BRANCH  25  26
ATOM     26  N   UNL A   1      32.291  30.620  26.190  1.00  0.00    -0.352 N 
ATOM     27  C   UNL A   1      32.970  31.479  27.022  1.00  0.00     0.251 C 
ATOM     28  H   UNL A   1      31.539  31.019  25.697  1.00  0.00     0.163 HD
ATOM     29  O   UNL A   1      32.500  32.580  27.282  1.00  0.00    -0.269 OA
BRANCH  27  30
ATOM     30  C   UNL A   1      34.259  31.058  27.607  1.00  0.00     0.039 A 
ATOM     31  C   UNL A   1      35.232  32.023  27.876  1.00  0.00     0.014 A 
ATOM     32  C   UNL A   1      34.498  29.713  27.900  1.00  0.00     0.014 A 
ATOM     33  C   UNL A   1      36.422  31.644  28.500  1.00  0.00     0.010 A 
ATOM     34  C   UNL A   1      35.646  29.353  28.598  1.00  0.00     0.010 A 
ATOM     35  C   UNL A   1      36.623  30.312  28.899  1.00  0.00    -0.014 A 
BRANCH  35  36
ATOM     36  C   UNL A   1      37.845  29.904  29.639  1.00  0.00     0.031 A 
ATOM     37  C   UNL A   1      38.117  30.452  31.014  1.00  0.00     0.074 A 
ATOM     38  C   UNL A   1      38.751  29.106  29.040  1.00  0.00     0.049 A 
ATOM     39  N   UNL A   1      39.149  30.253  31.791  1.00  0.00    -0.248 NA
ATOM     40  C   UNL A   1      37.111  31.367  31.579  1.00  0.00     0.031 C 
ATOM     41  C   UNL A   1      38.640  28.571  27.680  1.00  0.00     0.029 A 
ATOM     42  N   UNL A   1      39.956  28.624  29.487  1.00  0.00    -0.354 N 
ATOM     43  C   UNL A   1      38.934  31.037  32.919  1.00  0.00     0.074 A 
ATOM     44  C   UNL A   1      37.694  31.750  32.705  1.00  0.00     0.031 C 
ATOM     45  C   UNL A   1      39.724  27.826  27.410  1.00  0.00     0.029 A 
ATOM     46  C   UNL A   1      40.624  27.859  28.559  1.00  0.00     0.049 A 
ATOM     47  H   UNL A   1      40.308  28.807  30.387  1.00  0.00     0.167 HD
ATOM     48  C   UNL A   1      39.684  31.134  34.042  1.00  0.00     0.034 A 
ATOM     49  C   UNL A   1      41.827  27.258  28.622  1.00  0.00     0.034 A 
ATOM     50  C   UNL A   1      40.900  30.401  34.262  1.00  0.00     0.049 A 
ATOM     51  C   UNL A   1      42.632  27.367  29.889  1.00  0.00     0.074 A 
ATOM     52  C   UNL A   1      41.690  30.367  35.397  1.00  0.00     0.029 A 
ATOM     53  N   UNL A   1      41.511  29.582  33.326  1.00  0.00    -0.354 N 
ATOM     54  N   UNL A   1      42.336  27.991  31.004  1.00  0.00    -0.248 NA
ATOM     55  C   UNL A   1      43.920  26.661  29.919  1.00  0.00     0.031 C 
ATOM     56  C   UNL A   1      42.798  29.554  35.135  1.00  0.00     0.029 A 
ATOM     57  C   UNL A   1      42.676  29.049  33.850  1.00  0.00     0.049 A 
ATOM     58  H   UNL A   1      41.168  29.405  32.420  1.00  0.00     0.167 HD
ATOM     59  C   UNL A   1      43.381  27.721  31.880  1.00  0.00     0.074 A 
ATOM     60  C   UNL A   1      44.306  26.859  31.173  1.00  0.00     0.031 C 
ATOM     61  C   UNL A   1      43.565  28.156  33.151  1.00  0.00     0.034 A 
BRANCH  48  62
ATOM     62  C   UNL A   1      39.182  32.038  35.140  1.00  0.00     0.023 A 
ATOM     63  C   UNL A   1      39.282  33.438  34.993  1.00  0.00     0.012 A 
ATOM     64  C   UNL A   1      38.569  31.509  36.292  1.00  0.00     0.148 A 
ATOM     65  C   UNL A   1      38.821  34.293  35.992  1.00  0.00     0.002 A 
ATOM     66  C   UNL A   1      38.067  32.369  37.261  1.00  0.00     0.091 A 
ATOM     67  F   UNL A   1      38.499  30.176  36.425  1.00  0.00    -0.205 F 
ATOM     68  C   UNL A   1      38.205  33.759  37.121  1.00  0.00     0.022 A 
BRANCH  66  69
ATOM     69  S   UNL A   1      37.181  31.786  38.711  1.00  0.00     0.127 S 
ATOM     70  O   UNL A   1      38.161  32.027  39.771  1.00  0.00    -0.237 OA
ATOM     71  O   UNL A   1      36.020  32.676  38.741  1.00  0.00    -0.237 OA
ATOM     72  O   UNL A   1      36.869  30.387  38.458  1.00  0.00    -0.744 OA
ENDBRANCH  66  69
ENDBRANCH  48  62
BRANCH  49  73
ATOM     73  C   UNL A   1      42.321  26.450  27.471  1.00  0.00     0.023 A 
ATOM     74  C   UNL A   1      43.126  27.064  26.490  1.00  0.00     0.012 A 
ATOM     75  C   UNL A   1      42.019  25.081  27.352  1.00  0.00     0.148 A 
ATOM     76  C   UNL A   1      43.589  26.337  25.393  1.00  0.00     0.002 A 
ATOM     77  C   UNL A   1      42.531  24.349  26.287  1.00  0.00     0.091 A 
ATOM     78  F   UNL A   1      41.246  24.518  28.291  1.00  0.00    -0.205 F 
ATOM     79  C   UNL A   1      43.300  24.979  25.296  1.00  0.00     0.022 A 
BRANCH  77  80
ATOM     80  S   UNL A   1      42.319  22.571  26.147  1.00  0.00     0.127 S 
ATOM     81  O   UNL A   1      40.869  22.452  26.014  1.00  0.00    -0.237 OA
ATOM     82  O   UNL A   1      43.077  22.273  24.932  1.00  0.00    -0.237 OA
ATOM     83  O   UNL A   1      42.888  22.009  27.364  1.00  0.00    -0.744 OA
ENDBRANCH  77  80
ENDBRANCH  49  73
BRANCH  61  84
ATOM     84  C   UNL A   1      44.792  27.676  33.884  1.00  0.00     0.023 A 
ATOM     85  C   UNL A   1      45.972  28.444  33.861  1.00  0.00     0.012 A 
ATOM     86  C   UNL A   1      44.748  26.497  34.656  1.00  0.00     0.148 A 
ATOM     87  C   UNL A   1      47.103  28.026  34.563  1.00  0.00     0.002 A 
ATOM     88  C   UNL A   1      45.860  26.117  35.395  1.00  0.00     0.091 A 
ATOM     89  F   UNL A   1      43.620  25.772  34.651  1.00  0.00    -0.205 F 
ATOM     90  C   UNL A   1      47.043  26.871  35.339  1.00  0.00     0.022 A 
BRANCH  88  91
ATOM     91  S   UNL A   1      45.844  24.701  36.501  1.00  0.00     0.127 S 
ATOM     92  O   UNL A   1      47.022  24.957  37.329  1.00  0.00    -0.237 OA
ATOM     93  O   UNL A   1      44.566  24.864  37.193  1.00  0.00    -0.237 OA
ATOM     94  O   UNL A   1      45.927  23.522  35.649  1.00  0.00    -0.744 OA
ENDBRANCH  88  91
ENDBRANCH  61  84
ENDBRANCH  35  36
ENDBRANCH  27  30
ENDBRANCH  25  26
ENDBRANCH  24  25
ENDBRANCH  23  24
ENDBRANCH   1  23
TORSDOF 19
ENDMDL
