MODEL 1
REMARK VINA RESULT:     -12.0      0.000      0.000
REMARK SMILES CC[NH2+][C@@]1(C(=O)NCCCCNC(=O)c2ccc(-c3c4nc(c(-c5cccc(S(=O)(=O)[O-])c5F)c5ccc([nH]5)c(-c5cccc(S(=O)(=O)[O-])c5F)c5nc(c(-c6cccc(S(=O)(=O)[O-])c6F)c6ccc3[nH]6)C=C5)C=C4)cc2)CCC[C@@H]([N@@H+](C)C2CCCC2)C1
REMARK SMILES IDX 10 1 9 2 8 3 7 4 5 5 6 6 4 8 78 9 89 10 79 11 81 12 80 13
REMARK SMILES IDX 3 14 2 17 1 18 82 19 83 20 84 22 85 23 88 24 86 25 87 26
REMARK SMILES IDX 11 27 12 28 13 29 14 31 15 32 16 33 77 34 17 35 76 36 18 37
REMARK SMILES IDX 19 38 20 39 70 40 21 41 75 42 69 43 71 44 22 45 74 46 68 47
REMARK SMILES IDX 67 48 23 50 55 51 35 52 54 53 36 54 39 55 53 56 72 57 37 58
REMARK SMILES IDX 38 59 52 61 73 62 40 63 24 64 25 65 33 66 26 67 28 68 34 69
REMARK SMILES IDX 27 70 29 71 30 72 31 73 32 74 56 75 57 76 65 77 58 78 60 79
REMARK SMILES IDX 66 80 59 81 61 82 62 83 63 84 64 85 41 86 42 87 50 88 43 89
REMARK SMILES IDX 45 90 51 91 44 92 46 93 47 94 48 95 49 96
REMARK H PARENT 7 7 3 15 3 16 82 21 12 30 71 49 39 60
REMARK Flexibility Score: inf
ROOT
ATOM      1  C   UNL A   1      31.773  29.006  27.140  1.00  0.00     0.023 C 
ENDROOT
BRANCH   1   2
ATOM      2  C   UNL A   1      32.078  27.533  26.913  1.00  0.00     0.023 C 
BRANCH   2   3
ATOM      3  C   UNL A   1      30.968  26.732  26.235  1.00  0.00     0.116 C 
BRANCH   3   4
ATOM      4  N   UNL A   1      30.820  25.393  26.762  1.00  0.00    -0.351 N 
ATOM      5  C   UNL A   1      31.416  24.200  26.552  1.00  0.00     0.281 C 
ATOM      6  O   UNL A   1      31.333  23.445  27.540  1.00  0.00    -0.268 OA
ATOM      7  H   UNL A   1      30.110  25.339  27.442  1.00  0.00     0.163 HD
BRANCH   5   8
ATOM      8  C   UNL A   1      32.205  23.682  25.264  1.00  0.00     0.181 C 
ATOM      9  C   UNL A   1      33.692  23.416  25.561  1.00  0.00     0.079 C 
ATOM     10  C   UNL A   1      32.073  24.445  23.934  1.00  0.00     0.144 C 
ATOM     11  C   UNL A   1      34.616  24.621  25.470  1.00  0.00     0.013 C 
ATOM     12  C   UNL A   1      32.927  25.702  23.791  1.00  0.00     0.190 C 
ATOM     13  C   UNL A   1      34.385  25.549  24.272  1.00  0.00     0.065 C 
BRANCH   8  14
ATOM     14  N   UNL A   1      31.643  22.277  25.024  1.00  0.00    -0.334 N 
ATOM     15  H   UNL A   1      31.278  21.924  25.908  1.00  0.00     0.347 HD
ATOM     16  H   UNL A   1      30.923  22.368  24.307  1.00  0.00     0.347 HD
BRANCH  14  17
ATOM     17  C   UNL A   1      32.630  21.312  24.512  1.00  0.00     0.257 C 
ATOM     18  C   UNL A   1      32.216  20.832  23.127  1.00  0.00     0.071 C 
ENDBRANCH  14  17
ENDBRANCH   8  14
BRANCH  12  19
ATOM     19  N   UNL A   1      32.704  26.421  22.507  1.00  0.00    -0.332 N 
ATOM     20  C   UNL A   1      32.603  25.501  21.370  1.00  0.00     0.333 C 
ATOM     21  H   UNL A   1      33.567  26.964  22.488  1.00  0.00     0.348 HD
BRANCH  19  22
ATOM     22  C   UNL A   1      31.718  27.501  22.400  1.00  0.00     0.184 C 
ATOM     23  C   UNL A   1      30.240  27.225  22.680  1.00  0.00     0.065 C 
ATOM     24  C   UNL A   1      32.027  28.794  23.186  1.00  0.00     0.065 C 
ATOM     25  C   UNL A   1      29.647  28.625  22.717  1.00  0.00     0.006 C 
ATOM     26  C   UNL A   1      30.661  29.380  23.565  1.00  0.00     0.006 C 
ENDBRANCH  19  22
ENDBRANCH  12  19
ENDBRANCH   5   8
ENDBRANCH   3   4
ENDBRANCH   2   3
ENDBRANCH   1   2
BRANCH   1  27
ATOM     27  C   UNL A   1      32.839  29.966  26.628  1.00  0.00     0.116 C 
BRANCH  27  28
ATOM     28  N   UNL A   1      32.709  31.347  27.092  1.00  0.00    -0.352 N 
ATOM     29  C   UNL A   1      33.697  32.111  27.681  1.00  0.00     0.251 C 
ATOM     30  H   UNL A   1      31.829  31.773  26.973  1.00  0.00     0.163 HD
ATOM     31  O   UNL A   1      33.488  33.258  28.058  1.00  0.00    -0.269 OA
BRANCH  29  32
ATOM     32  C   UNL A   1      35.008  31.467  27.886  1.00  0.00     0.039 A 
ATOM     33  C   UNL A   1      36.132  32.272  28.078  1.00  0.00     0.014 A 
ATOM     34  C   UNL A   1      35.052  30.093  28.130  1.00  0.00     0.014 A 
ATOM     35  C   UNL A   1      37.285  31.709  28.628  1.00  0.00     0.010 A 
ATOM     36  C   UNL A   1      36.167  29.560  28.760  1.00  0.00     0.010 A 
ATOM     37  C   UNL A   1      37.287  30.364  29.034  1.00  0.00    -0.014 A 
BRANCH  37  38
ATOM     38  C   UNL A   1      38.425  29.763  29.776  1.00  0.00     0.031 A 
ATOM     39  C   UNL A   1      38.753  30.272  31.153  1.00  0.00     0.074 A 
ATOM     40  C   UNL A   1      39.245  28.883  29.165  1.00  0.00     0.049 A 
ATOM     41  N   UNL A   1      39.802  30.032  31.893  1.00  0.00    -0.248 NA
ATOM     42  C   UNL A   1      37.797  31.218  31.753  1.00  0.00     0.031 C 
ATOM     43  C   UNL A   1      39.089  28.380  27.798  1.00  0.00     0.029 A 
ATOM     44  N   UNL A   1      40.399  28.284  29.605  1.00  0.00    -0.354 N 
ATOM     45  C   UNL A   1      39.667  30.847  33.009  1.00  0.00     0.074 A 
ATOM     46  C   UNL A   1      38.449  31.607  32.838  1.00  0.00     0.031 C 
ATOM     47  C   UNL A   1      40.104  27.546  27.515  1.00  0.00     0.029 A 
ATOM     48  C   UNL A   1      40.999  27.476  28.665  1.00  0.00     0.049 A 
ATOM     49  H   UNL A   1      40.764  28.417  30.510  1.00  0.00     0.167 HD
ATOM     50  C   UNL A   1      40.467  30.933  34.097  1.00  0.00     0.034 A 
ATOM     51  C   UNL A   1      42.144  26.766  28.723  1.00  0.00     0.034 A 
ATOM     52  C   UNL A   1      41.619  30.104  34.309  1.00  0.00     0.049 A 
ATOM     53  C   UNL A   1      42.955  26.792  29.992  1.00  0.00     0.074 A 
ATOM     54  C   UNL A   1      42.432  30.031  35.425  1.00  0.00     0.029 A 
ATOM     55  N   UNL A   1      42.109  29.186  33.393  1.00  0.00    -0.354 N 
ATOM     56  N   UNL A   1      42.730  27.458  31.098  1.00  0.00    -0.248 NA
ATOM     57  C   UNL A   1      44.156  25.944  30.037  1.00  0.00     0.031 C 
ATOM     58  C   UNL A   1      43.409  29.059  35.188  1.00  0.00     0.029 A 
ATOM     59  C   UNL A   1      43.204  28.530  33.923  1.00  0.00     0.049 A 
ATOM     60  H   UNL A   1      41.732  29.025  32.497  1.00  0.00     0.167 HD
ATOM     61  C   UNL A   1      43.736  27.083  31.980  1.00  0.00     0.074 A 
ATOM     62  C   UNL A   1      44.565  26.119  31.286  1.00  0.00     0.031 C 
ATOM     63  C   UNL A   1      43.965  27.513  33.245  1.00  0.00     0.034 A 
BRANCH  50  64
ATOM     64  C   UNL A   1      40.069  31.902  35.175  1.00  0.00     0.023 A 
ATOM     65  C   UNL A   1      40.641  33.190  35.191  1.00  0.00     0.012 A 
ATOM     66  C   UNL A   1      39.113  31.556  36.149  1.00  0.00     0.148 A 
ATOM     67  C   UNL A   1      40.297  34.108  36.181  1.00  0.00     0.002 A 
ATOM     68  C   UNL A   1      38.743  32.492  37.109  1.00  0.00     0.091 A 
ATOM     69  F   UNL A   1      38.601  30.318  36.137  1.00  0.00    -0.205 F 
ATOM     70  C   UNL A   1      39.342  33.763  37.133  1.00  0.00     0.022 A 
BRANCH  68  71
ATOM     71  S   UNL A   1      37.469  32.162  38.331  1.00  0.00     0.127 S 
ATOM     72  O   UNL A   1      38.072  32.714  39.543  1.00  0.00    -0.237 OA
ATOM     73  O   UNL A   1      36.334  32.925  37.813  1.00  0.00    -0.237 OA
ATOM     74  O   UNL A   1      37.278  30.718  38.322  1.00  0.00    -0.744 OA
ENDBRANCH  68  71
ENDBRANCH  50  64
BRANCH  51  75
ATOM     75  C   UNL A   1      42.541  25.895  27.580  1.00  0.00     0.023 A 
ATOM     76  C   UNL A   1      43.404  26.415  26.594  1.00  0.00     0.012 A 
ATOM     77  C   UNL A   1      42.106  24.560  27.473  1.00  0.00     0.148 A 
ATOM     78  C   UNL A   1      43.803  25.632  25.511  1.00  0.00     0.002 A 
ATOM     79  C   UNL A   1      42.547  23.770  26.415  1.00  0.00     0.091 A 
ATOM     80  F   UNL A   1      41.273  24.085  28.410  1.00  0.00    -0.205 F 
ATOM     81  C   UNL A   1      43.384  24.309  25.425  1.00  0.00     0.022 A 
BRANCH  79  82
ATOM     82  S   UNL A   1      42.156  22.019  26.304  1.00  0.00     0.127 S 
ATOM     83  O   UNL A   1      40.716  22.049  26.056  1.00  0.00    -0.237 OA
ATOM     84  O   UNL A   1      42.969  21.594  25.162  1.00  0.00    -0.237 OA
ATOM     85  O   UNL A   1      42.575  21.451  27.577  1.00  0.00    -0.744 OA
ENDBRANCH  79  82
ENDBRANCH  51  75
BRANCH  63  86
ATOM     86  C   UNL A   1      45.128  26.921  33.992  1.00  0.00     0.023 A 
ATOM     87  C   UNL A   1      46.381  27.560  33.944  1.00  0.00     0.012 A 
ATOM     88  C   UNL A   1      44.946  25.806  34.834  1.00  0.00     0.148 A 
ATOM     89  C   UNL A   1      47.443  27.091  34.716  1.00  0.00     0.002 A 
ATOM     90  C   UNL A   1      45.998  25.368  35.630  1.00  0.00     0.091 A 
ATOM     91  F   UNL A   1      43.749  25.201  34.847  1.00  0.00    -0.205 F 
ATOM     92  C   UNL A   1      47.248  26.005  35.568  1.00  0.00     0.022 A 
BRANCH  90  93
ATOM     93  S   UNL A   1      45.808  24.038  36.823  1.00  0.00     0.127 S 
ATOM     94  O   UNL A   1      44.738  24.554  37.677  1.00  0.00    -0.237 OA
ATOM     95  O   UNL A   1      45.421  22.910  35.975  1.00  0.00    -0.237 OA
ATOM     96  O   UNL A   1      47.107  23.890  37.466  1.00  0.00    -0.744 OA
ENDBRANCH  90  93
ENDBRANCH  63  86
ENDBRANCH  37  38
ENDBRANCH  29  32
ENDBRANCH  27  28
ENDBRANCH   1  27
TORSDOF 18
ENDMDL
MODEL 2
REMARK VINA RESULT:     -11.8      1.529      2.061
REMARK SMILES CC[NH2+][C@@]1(C(=O)NCCCCNC(=O)c2ccc(-c3c4nc(c(-c5cccc(S(=O)(=O)[O-])c5F)c5ccc([nH]5)c(-c5cccc(S(=O)(=O)[O-])c5F)c5nc(c(-c6cccc(S(=O)(=O)[O-])c6F)c6ccc3[nH]6)C=C5)C=C4)cc2)CCC[C@@H]([N@@H+](C)C2CCCC2)C1
REMARK SMILES IDX 10 1 9 2 8 3 7 4 5 5 6 6 4 8 78 9 89 10 79 11 81 12 80 13
REMARK SMILES IDX 3 14 2 17 1 18 82 19 83 20 84 22 85 23 88 24 86 25 87 26
REMARK SMILES IDX 11 27 12 28 13 29 14 31 15 32 16 33 77 34 17 35 76 36 18 37
REMARK SMILES IDX 19 38 20 39 70 40 21 41 75 42 69 43 71 44 22 45 74 46 68 47
REMARK SMILES IDX 67 48 23 50 55 51 35 52 54 53 36 54 39 55 53 56 72 57 37 58
REMARK SMILES IDX 38 59 52 61 73 62 40 63 24 64 25 65 33 66 26 67 28 68 34 69
REMARK SMILES IDX 27 70 29 71 30 72 31 73 32 74 56 75 57 76 65 77 58 78 60 79
REMARK SMILES IDX 66 80 59 81 61 82 62 83 63 84 64 85 41 86 42 87 50 88 43 89
REMARK SMILES IDX 45 90 51 91 44 92 46 93 47 94 48 95 49 96
REMARK H PARENT 7 7 3 15 3 16 82 21 12 30 71 49 39 60
REMARK Flexibility Score: inf
ROOT
ATOM      1  C   UNL A   1      31.741  29.283  27.018  1.00  0.00     0.023 C 
ENDROOT
BRANCH   1   2
ATOM      2  C   UNL A   1      31.824  27.910  26.371  1.00  0.00     0.023 C 
BRANCH   2   3
ATOM      3  C   UNL A   1      32.962  27.726  25.369  1.00  0.00     0.116 C 
BRANCH   3   4
ATOM      4  N   UNL A   1      33.698  26.495  25.552  1.00  0.00    -0.351 N 
ATOM      5  C   UNL A   1      33.755  25.300  24.926  1.00  0.00     0.281 C 
ATOM      6  O   UNL A   1      34.847  24.724  25.095  1.00  0.00    -0.268 OA
ATOM      7  H   UNL A   1      34.310  26.540  26.323  1.00  0.00     0.163 HD
BRANCH   5   8
ATOM      8  C   UNL A   1      32.653  24.589  24.014  1.00  0.00     0.181 C 
ATOM      9  C   UNL A   1      33.167  24.318  22.588  1.00  0.00     0.079 C 
ATOM     10  C   UNL A   1      31.230  25.169  23.949  1.00  0.00     0.144 C 
ATOM     11  C   UNL A   1      33.037  25.471  21.603  1.00  0.00     0.013 C 
ATOM     12  C   UNL A   1      31.033  26.368  23.025  1.00  0.00     0.190 C 
ATOM     13  C   UNL A   1      31.710  26.236  21.644  1.00  0.00     0.065 C 
BRANCH   8  14
ATOM     14  N   UNL A   1      32.529  23.182  24.609  1.00  0.00    -0.334 N 
ATOM     15  H   UNL A   1      32.586  22.507  23.848  1.00  0.00     0.347 HD
ATOM     16  H   UNL A   1      33.287  23.081  25.284  1.00  0.00     0.347 HD
BRANCH  14  17
ATOM     17  C   UNL A   1      31.275  22.946  25.343  1.00  0.00     0.257 C 
ATOM     18  C   UNL A   1      31.543  22.950  26.842  1.00  0.00     0.071 C 
ENDBRANCH  14  17
ENDBRANCH   8  14
BRANCH  12  19
ATOM     19  N   UNL A   1      29.650  26.914  23.057  1.00  0.00    -0.332 N 
ATOM     20  C   UNL A   1      28.903  26.455  24.233  1.00  0.00     0.333 C 
ATOM     21  H   UNL A   1      29.303  26.497  22.194  1.00  0.00     0.348 HD
BRANCH  19  22
ATOM     22  C   UNL A   1      29.382  28.330  22.784  1.00  0.00     0.184 C 
ATOM     23  C   UNL A   1      27.989  28.911  23.025  1.00  0.00     0.065 C 
ATOM     24  C   UNL A   1      30.344  29.348  23.434  1.00  0.00     0.065 C 
ATOM     25  C   UNL A   1      28.226  30.406  22.877  1.00  0.00     0.006 C 
ATOM     26  C   UNL A   1      29.503  30.607  23.682  1.00  0.00     0.006 C 
ENDBRANCH  19  22
ENDBRANCH  12  19
ENDBRANCH   5   8
ENDBRANCH   3   4
ENDBRANCH   2   3
ENDBRANCH   1   2
BRANCH   1  27
ATOM     27  C   UNL A   1      32.613  30.350  26.368  1.00  0.00     0.116 C 
BRANCH  27  28
ATOM     28  N   UNL A   1      32.442  31.703  26.898  1.00  0.00    -0.352 N 
ATOM     29  C   UNL A   1      33.392  32.446  27.571  1.00  0.00     0.251 C 
ATOM     30  H   UNL A   1      31.563  32.124  26.762  1.00  0.00     0.163 HD
ATOM     31  O   UNL A   1      33.149  33.568  27.999  1.00  0.00    -0.269 OA
BRANCH  29  32
ATOM     32  C   UNL A   1      34.701  31.807  27.803  1.00  0.00     0.039 A 
ATOM     33  C   UNL A   1      35.815  32.616  28.037  1.00  0.00     0.014 A 
ATOM     34  C   UNL A   1      34.748  30.430  28.028  1.00  0.00     0.014 A 
ATOM     35  C   UNL A   1      36.956  32.053  28.610  1.00  0.00     0.010 A 
ATOM     36  C   UNL A   1      35.849  29.895  28.679  1.00  0.00     0.010 A 
ATOM     37  C   UNL A   1      36.956  30.701  28.995  1.00  0.00    -0.014 A 
BRANCH  37  38
ATOM     38  C   UNL A   1      38.078  30.097  29.759  1.00  0.00     0.031 A 
ATOM     39  C   UNL A   1      38.314  30.530  31.180  1.00  0.00     0.074 A 
ATOM     40  C   UNL A   1      38.962  29.288  29.140  1.00  0.00     0.049 A 
ATOM     41  N   UNL A   1      39.333  30.282  31.959  1.00  0.00    -0.248 NA
ATOM     42  C   UNL A   1      37.292  31.400  31.785  1.00  0.00     0.031 C 
ATOM     43  C   UNL A   1      38.896  28.867  27.738  1.00  0.00     0.029 A 
ATOM     44  N   UNL A   1      40.115  28.704  29.603  1.00  0.00    -0.354 N 
ATOM     45  C   UNL A   1      39.109  31.019  33.113  1.00  0.00     0.074 A 
ATOM     46  C   UNL A   1      37.873  31.744  32.924  1.00  0.00     0.031 C 
ATOM     47  C   UNL A   1      39.956  28.089  27.459  1.00  0.00     0.029 A 
ATOM     48  C   UNL A   1      40.794  27.980  28.648  1.00  0.00     0.049 A 
ATOM     49  H   UNL A   1      40.428  28.794  30.532  1.00  0.00     0.167 HD
ATOM     50  C   UNL A   1      39.849  31.065  34.246  1.00  0.00     0.034 A 
ATOM     51  C   UNL A   1      41.961  27.310  28.724  1.00  0.00     0.034 A 
ATOM     52  C   UNL A   1      41.020  30.267  34.468  1.00  0.00     0.049 A 
ATOM     53  C   UNL A   1      42.705  27.285  30.034  1.00  0.00     0.074 A 
ATOM     54  C   UNL A   1      41.778  30.153  35.619  1.00  0.00     0.029 A 
ATOM     55  N   UNL A   1      41.592  29.427  33.525  1.00  0.00    -0.354 N 
ATOM     56  N   UNL A   1      42.398  27.871  31.165  1.00  0.00    -0.248 NA
ATOM     57  C   UNL A   1      43.934  26.480  30.091  1.00  0.00     0.031 C 
ATOM     58  C   UNL A   1      42.804  29.234  35.375  1.00  0.00     0.029 A 
ATOM     59  C   UNL A   1      42.684  28.780  34.071  1.00  0.00     0.049 A 
ATOM     60  H   UNL A   1      41.268  29.310  32.602  1.00  0.00     0.167 HD
ATOM     61  C   UNL A   1      43.372  27.478  32.075  1.00  0.00     0.074 A 
ATOM     62  C   UNL A   1      44.272  26.591  31.369  1.00  0.00     0.031 C 
ATOM     63  C   UNL A   1      43.519  27.835  33.374  1.00  0.00     0.034 A 
BRANCH  50  64
ATOM     64  C   UNL A   1      39.358  31.949  35.359  1.00  0.00     0.023 A 
ATOM     65  C   UNL A   1      38.416  31.443  36.278  1.00  0.00     0.012 A 
ATOM     66  C   UNL A   1      39.847  33.260  35.518  1.00  0.00     0.148 A 
ATOM     67  C   UNL A   1      37.939  32.240  37.316  1.00  0.00     0.002 A 
ATOM     68  C   UNL A   1      39.397  34.034  36.582  1.00  0.00     0.091 A 
ATOM     69  F   UNL A   1      40.720  33.735  34.619  1.00  0.00    -0.205 F 
ATOM     70  C   UNL A   1      38.436  33.530  37.474  1.00  0.00     0.022 A 
BRANCH  68  71
ATOM     71  S   UNL A   1      40.034  35.682  36.906  1.00  0.00     0.127 S 
ATOM     72  O   UNL A   1      39.359  36.019  38.158  1.00  0.00    -0.237 OA
ATOM     73  O   UNL A   1      41.472  35.442  37.035  1.00  0.00    -0.237 OA
ATOM     74  O   UNL A   1      39.659  36.485  35.751  1.00  0.00    -0.744 OA
ENDBRANCH  68  71
ENDBRANCH  50  64
BRANCH  51  75
ATOM     75  C   UNL A   1      42.451  26.527  27.553  1.00  0.00     0.023 A 
ATOM     76  C   UNL A   1      43.297  27.158  26.618  1.00  0.00     0.012 A 
ATOM     77  C   UNL A   1      42.118  25.172  27.370  1.00  0.00     0.148 A 
ATOM     78  C   UNL A   1      43.781  26.460  25.511  1.00  0.00     0.002 A 
ATOM     79  C   UNL A   1      42.643  24.469  26.289  1.00  0.00     0.091 A 
ATOM     80  F   UNL A   1      41.299  24.591  28.259  1.00  0.00    -0.205 F 
ATOM     81  C   UNL A   1      43.462  25.116  25.350  1.00  0.00     0.022 A 
BRANCH  79  82
ATOM     82  S   UNL A   1      42.385  22.703  26.082  1.00  0.00     0.127 S 
ATOM     83  O   UNL A   1      43.043  22.451  24.803  1.00  0.00    -0.237 OA
ATOM     84  O   UNL A   1      43.076  22.152  27.250  1.00  0.00    -0.237 OA
ATOM     85  O   UNL A   1      40.940  22.521  26.106  1.00  0.00    -0.744 OA
ENDBRANCH  79  82
ENDBRANCH  51  75
BRANCH  63  86
ATOM     86  C   UNL A   1      44.664  27.240  34.144  1.00  0.00     0.023 A 
ATOM     87  C   UNL A   1      45.907  27.902  34.163  1.00  0.00     0.012 A 
ATOM     88  C   UNL A   1      44.473  26.096  34.944  1.00  0.00     0.148 A 
ATOM     89  C   UNL A   1      46.948  27.428  34.958  1.00  0.00     0.002 A 
ATOM     90  C   UNL A   1      45.503  25.652  35.764  1.00  0.00     0.091 A 
ATOM     91  F   UNL A   1      43.288  25.471  34.894  1.00  0.00    -0.205 F 
ATOM     92  C   UNL A   1      46.743  26.312  35.768  1.00  0.00     0.022 A 
BRANCH  90  93
ATOM     93  S   UNL A   1      45.295  24.281  36.907  1.00  0.00     0.127 S 
ATOM     94  O   UNL A   1      44.277  24.804  37.818  1.00  0.00    -0.237 OA
ATOM     95  O   UNL A   1      44.833  23.207  36.027  1.00  0.00    -0.237 OA
ATOM     96  O   UNL A   1      46.606  24.052  37.499  1.00  0.00    -0.744 OA
ENDBRANCH  90  93
ENDBRANCH  63  86
ENDBRANCH  37  38
ENDBRANCH  29  32
ENDBRANCH  27  28
ENDBRANCH   1  27
TORSDOF 18
ENDMDL
MODEL 3
REMARK VINA RESULT:     -11.6      2.470      2.890
REMARK SMILES CC[NH2+][C@@]1(C(=O)NCCCCNC(=O)c2ccc(-c3c4nc(c(-c5cccc(S(=O)(=O)[O-])c5F)c5ccc([nH]5)c(-c5cccc(S(=O)(=O)[O-])c5F)c5nc(c(-c6cccc(S(=O)(=O)[O-])c6F)c6ccc3[nH]6)C=C5)C=C4)cc2)CCC[C@@H]([N@@H+](C)C2CCCC2)C1
REMARK SMILES IDX 10 1 9 2 8 3 7 4 5 5 6 6 4 8 78 9 89 10 79 11 81 12 80 13
REMARK SMILES IDX 3 14 2 17 1 18 82 19 83 20 84 22 85 23 88 24 86 25 87 26
REMARK SMILES IDX 11 27 12 28 13 29 14 31 15 32 16 33 77 34 17 35 76 36 18 37
REMARK SMILES IDX 19 38 20 39 70 40 21 41 75 42 69 43 71 44 22 45 74 46 68 47
REMARK SMILES IDX 67 48 23 50 55 51 35 52 54 53 36 54 39 55 53 56 72 57 37 58
REMARK SMILES IDX 38 59 52 61 73 62 40 63 24 64 25 65 33 66 26 67 28 68 34 69
REMARK SMILES IDX 27 70 29 71 30 72 31 73 32 74 56 75 57 76 65 77 58 78 60 79
REMARK SMILES IDX 66 80 59 81 61 82 62 83 63 84 64 85 41 86 42 87 50 88 43 89
REMARK SMILES IDX 45 90 51 91 44 92 46 93 47 94 48 95 49 96
REMARK H PARENT 7 7 3 15 3 16 82 21 12 30 71 49 39 60
REMARK Flexibility Score: inf
ROOT
ATOM      1  C   UNL A   1      31.912  29.269  27.106  1.00  0.00     0.023 C 
ENDROOT
BRANCH   1   2
ATOM      2  C   UNL A   1      31.709  27.810  27.483  1.00  0.00     0.023 C 
BRANCH   2   3
ATOM      3  C   UNL A   1      30.957  26.967  26.456  1.00  0.00     0.116 C 
BRANCH   3   4
ATOM      4  N   UNL A   1      30.825  25.578  26.836  1.00  0.00    -0.351 N 
ATOM      5  C   UNL A   1      31.448  24.424  26.512  1.00  0.00     0.281 C 
ATOM      6  O   UNL A   1      31.362  23.567  27.413  1.00  0.00    -0.268 OA
ATOM      7  H   UNL A   1      30.105  25.439  27.492  1.00  0.00     0.163 HD
BRANCH   5   8
ATOM      8  C   UNL A   1      32.268  24.060  25.191  1.00  0.00     0.181 C 
ATOM      9  C   UNL A   1      33.790  24.128  25.415  1.00  0.00     0.079 C 
ATOM     10  C   UNL A   1      31.912  24.746  23.861  1.00  0.00     0.144 C 
ATOM     11  C   UNL A   1      34.426  25.502  25.263  1.00  0.00     0.013 C 
ATOM     12  C   UNL A   1      32.465  26.155  23.659  1.00  0.00     0.190 C 
ATOM     13  C   UNL A   1      33.943  26.331  24.068  1.00  0.00     0.065 C 
BRANCH   8  14
ATOM     14  N   UNL A   1      32.014  22.562  24.997  1.00  0.00    -0.334 N 
ATOM     15  H   UNL A   1      32.068  22.107  25.908  1.00  0.00     0.347 HD
ATOM     16  H   UNL A   1      31.093  22.474  24.566  1.00  0.00     0.347 HD
BRANCH  14  17
ATOM     17  C   UNL A   1      32.969  21.900  24.092  1.00  0.00     0.257 C 
ATOM     18  C   UNL A   1      32.217  21.195  22.971  1.00  0.00     0.071 C 
ENDBRANCH  14  17
ENDBRANCH   8  14
BRANCH  12  19
ATOM     19  N   UNL A   1      32.031  26.779  22.381  1.00  0.00    -0.332 N 
ATOM     20  C   UNL A   1      31.957  25.804  21.288  1.00  0.00     0.333 C 
ATOM     21  H   UNL A   1      32.806  27.432  22.263  1.00  0.00     0.348 HD
BRANCH  19  22
ATOM     22  C   UNL A   1      30.900  27.710  22.333  1.00  0.00     0.184 C 
ATOM     23  C   UNL A   1      29.601  27.383  23.070  1.00  0.00     0.065 C 
ATOM     24  C   UNL A   1      31.202  29.177  22.711  1.00  0.00     0.065 C 
ATOM     25  C   UNL A   1      28.834  28.693  22.979  1.00  0.00     0.006 C 
ATOM     26  C   UNL A   1      29.905  29.716  23.329  1.00  0.00     0.006 C 
ENDBRANCH  19  22
ENDBRANCH  12  19
ENDBRANCH   5   8
ENDBRANCH   3   4
ENDBRANCH   2   3
ENDBRANCH   1   2
BRANCH   1  27
ATOM     27  C   UNL A   1      33.368  29.702  26.983  1.00  0.00     0.116 C 
BRANCH  27  28
ATOM     28  N   UNL A   1      33.652  31.068  27.421  1.00  0.00    -0.352 N 
ATOM     29  C   UNL A   1      34.821  31.517  28.003  1.00  0.00     0.251 C 
ATOM     30  H   UNL A   1      32.938  31.733  27.287  1.00  0.00     0.163 HD
ATOM     31  O   UNL A   1      34.960  32.681  28.358  1.00  0.00    -0.269 OA
BRANCH  29  32
ATOM     32  C   UNL A   1      35.882  30.517  28.231  1.00  0.00     0.039 A 
ATOM     33  C   UNL A   1      36.957  30.460  27.341  1.00  0.00     0.014 A 
ATOM     34  C   UNL A   1      35.912  29.833  29.448  1.00  0.00     0.014 A 
ATOM     35  C   UNL A   1      38.123  29.798  27.728  1.00  0.00     0.010 A 
ATOM     36  C   UNL A   1      37.104  29.256  29.862  1.00  0.00     0.010 A 
ATOM     37  C   UNL A   1      38.227  29.249  29.017  1.00  0.00    -0.014 A 
BRANCH  37  38
ATOM     38  C   UNL A   1      39.500  28.685  29.536  1.00  0.00     0.031 A 
ATOM     39  C   UNL A   1      40.204  29.384  30.666  1.00  0.00     0.074 A 
ATOM     40  C   UNL A   1      40.092  27.650  28.904  1.00  0.00     0.049 A 
ATOM     41  N   UNL A   1      41.404  29.181  31.142  1.00  0.00    -0.248 NA
ATOM     42  C   UNL A   1      39.481  30.492  31.311  1.00  0.00     0.031 C 
ATOM     43  C   UNL A   1      39.555  26.944  27.738  1.00  0.00     0.029 A 
ATOM     44  N   UNL A   1      41.299  27.036  29.132  1.00  0.00    -0.354 N 
ATOM     45  C   UNL A   1      41.605  30.177  32.088  1.00  0.00     0.074 A 
ATOM     46  C   UNL A   1      40.415  30.998  32.102  1.00  0.00     0.031 C 
ATOM     47  C   UNL A   1      40.425  25.992  27.358  1.00  0.00     0.029 A 
ATOM     48  C   UNL A   1      41.593  26.038  28.231  1.00  0.00     0.049 A 
ATOM     49  H   UNL A   1      41.898  27.286  29.872  1.00  0.00     0.167 HD
ATOM     50  C   UNL A   1      42.670  30.373  32.899  1.00  0.00     0.034 A 
ATOM     51  C   UNL A   1      42.684  25.253  28.119  1.00  0.00     0.034 A 
ATOM     52  C   UNL A   1      43.805  29.496  32.953  1.00  0.00     0.049 A 
ATOM     53  C   UNL A   1      43.806  25.419  29.110  1.00  0.00     0.074 A 
ATOM     54  C   UNL A   1      44.885  29.539  33.816  1.00  0.00     0.029 A 
ATOM     55  N   UNL A   1      43.996  28.402  32.123  1.00  0.00    -0.354 N 
ATOM     56  N   UNL A   1      43.912  26.274  30.097  1.00  0.00    -0.248 NA
ATOM     57  C   UNL A   1      44.942  24.492  28.996  1.00  0.00     0.031 C 
ATOM     58  C   UNL A   1      45.725  28.463  33.514  1.00  0.00     0.029 A 
ATOM     59  C   UNL A   1      45.168  27.752  32.462  1.00  0.00     0.049 A 
ATOM     60  H   UNL A   1      43.386  28.129  31.399  1.00  0.00     0.167 HD
ATOM     61  C   UNL A   1      45.104  25.966  30.743  1.00  0.00     0.074 A 
ATOM     62  C   UNL A   1      45.678  24.835  30.045  1.00  0.00     0.031 C 
ATOM     63  C   UNL A   1      45.680  26.577  31.806  1.00  0.00     0.034 A 
BRANCH  50  64
ATOM     64  C   UNL A   1      42.614  31.536  33.850  1.00  0.00     0.023 A 
ATOM     65  C   UNL A   1      43.127  32.785  33.444  1.00  0.00     0.012 A 
ATOM     66  C   UNL A   1      42.029  31.407  35.124  1.00  0.00     0.148 A 
ATOM     67  C   UNL A   1      43.094  33.880  34.305  1.00  0.00     0.002 A 
ATOM     68  C   UNL A   1      41.962  32.516  35.962  1.00  0.00     0.091 A 
ATOM     69  F   UNL A   1      41.572  30.206  35.504  1.00  0.00    -0.205 F 
ATOM     70  C   UNL A   1      42.503  33.748  35.558  1.00  0.00     0.022 A 
BRANCH  68  71
ATOM     71  S   UNL A   1      41.155  32.459  37.566  1.00  0.00     0.127 S 
ATOM     72  O   UNL A   1      42.050  31.580  38.315  1.00  0.00    -0.237 OA
ATOM     73  O   UNL A   1      41.188  33.861  37.982  1.00  0.00    -0.237 OA
ATOM     74  O   UNL A   1      39.819  31.936  37.317  1.00  0.00    -0.744 OA
ENDBRANCH  68  71
ENDBRANCH  50  64
BRANCH  51  75
ATOM     75  C   UNL A   1      42.726  24.175  27.089  1.00  0.00     0.023 A 
ATOM     76  C   UNL A   1      43.455  24.395  25.904  1.00  0.00     0.012 A 
ATOM     77  C   UNL A   1      42.087  22.936  27.281  1.00  0.00     0.148 A 
ATOM     78  C   UNL A   1      43.524  23.411  24.916  1.00  0.00     0.002 A 
ATOM     79  C   UNL A   1      42.200  21.941  26.313  1.00  0.00     0.091 A 
ATOM     80  F   UNL A   1      41.384  22.748  28.407  1.00  0.00    -0.205 F 
ATOM     81  C   UNL A   1      42.905  22.182  25.124  1.00  0.00     0.022 A 
BRANCH  79  82
ATOM     82  S   UNL A   1      41.541  20.288  26.562  1.00  0.00     0.127 S 
ATOM     83  O   UNL A   1      42.141  19.915  27.840  1.00  0.00    -0.237 OA
ATOM     84  O   UNL A   1      40.098  20.535  26.606  1.00  0.00    -0.237 OA
ATOM     85  O   UNL A   1      41.978  19.523  25.402  1.00  0.00    -0.744 OA
ENDBRANCH  79  82
ENDBRANCH  51  75
BRANCH  63  86
ATOM     86  C   UNL A   1      46.978  26.020  32.322  1.00  0.00     0.023 A 
ATOM     87  C   UNL A   1      46.970  25.165  33.440  1.00  0.00     0.012 A 
ATOM     88  C   UNL A   1      48.181  26.244  31.625  1.00  0.00     0.148 A 
ATOM     89  C   UNL A   1      48.146  24.550  33.867  1.00  0.00     0.002 A 
ATOM     90  C   UNL A   1      49.342  25.597  32.033  1.00  0.00     0.091 A 
ATOM     91  F   UNL A   1      48.168  27.079  30.575  1.00  0.00    -0.205 F 
ATOM     92  C   UNL A   1      49.327  24.755  33.156  1.00  0.00     0.022 A 
BRANCH  90  93
ATOM     93  S   UNL A   1      50.884  25.730  31.121  1.00  0.00     0.127 S 
ATOM     94  O   UNL A   1      51.197  27.151  31.269  1.00  0.00    -0.237 OA
ATOM     95  O   UNL A   1      51.767  24.830  31.865  1.00  0.00    -0.237 OA
ATOM     96  O   UNL A   1      50.585  25.293  29.764  1.00  0.00    -0.744 OA
ENDBRANCH  90  93
ENDBRANCH  63  86
ENDBRANCH  37  38
ENDBRANCH  29  32
ENDBRANCH  27  28
ENDBRANCH   1  27
TORSDOF 18
ENDMDL
