MODEL 1
REMARK VINA RESULT:     -13.2      0.000      0.000
REMARK SMILES COc1ccc(-c2cc(Cl)cc3c2O[C@@H](C(F)(F)F)C(C(=O)NCCCCNC(=O)c2ccc(-c4c5nc(c(-c6cccc(S(=O)(=O)[O-])c6F)c6ccc([nH]6)c(-c6cccc(S(=O)(=O)[O-])c6F)c6nc(c(-c7cccc(S(=O)(=O)[O-])c7F)c7ccc4[nH]7)C=C6)C=C5)cc2)=C3)cc1C
REMARK SMILES IDX 26 1 25 2 24 3 23 4 21 5 22 6 20 8 7 9 8 10 13 11 9 12 12 13
REMARK SMILES IDX 14 14 10 15 11 16 94 17 15 18 6 19 3 20 4 21 96 22 5 23
REMARK SMILES IDX 95 24 97 25 2 26 1 27 16 28 17 29 18 30 19 31 27 32 28 33
REMARK SMILES IDX 29 34 30 36 31 37 32 38 93 39 33 40 92 41 34 42 35 43 36 44
REMARK SMILES IDX 86 45 37 46 91 47 85 48 87 49 38 50 90 51 84 52 83 53 39 55
REMARK SMILES IDX 71 56 51 57 70 58 52 59 55 60 69 61 88 62 53 63 54 64 68 66
REMARK SMILES IDX 89 67 56 68 40 69 41 70 49 71 42 72 44 73 50 74 43 75 45 76
REMARK SMILES IDX 46 77 47 78 48 79 72 80 73 81 81 82 74 83 76 84 82 85 75 86
REMARK SMILES IDX 77 87 78 88 79 89 80 90 57 91 58 92 66 93 59 94 61 95 67 96
REMARK SMILES IDX 60 97 62 98 63 99 64 100 65 101
REMARK H PARENT 23 7 28 35 87 54 55 65
REMARK Flexibility Score: inf
ROOT
ATOM      1  C   UNL A   1      37.104  21.519  25.768  1.00  0.00     0.023 C 
ENDROOT
BRANCH   1   2
ATOM      2  C   UNL A   1      35.727  22.167  25.701  1.00  0.00     0.023 C 
BRANCH   2   3
ATOM      3  C   UNL A   1      35.575  23.565  25.069  1.00  0.00     0.116 C 
BRANCH   3   4
ATOM      4  N   UNL A   1      34.634  24.545  25.617  1.00  0.00    -0.352 N 
ATOM      5  C   UNL A   1      33.255  24.586  25.764  1.00  0.00     0.251 C 
ATOM      6  O   UNL A   1      32.810  25.332  26.641  1.00  0.00    -0.270 OA
ATOM      7  H   UNL A   1      35.080  25.355  25.956  1.00  0.00     0.163 HD
BRANCH   5   8
ATOM      8  C   UNL A   1      32.244  23.892  24.816  1.00  0.00     0.067 C 
ATOM      9  C   UNL A   1      31.577  27.659  24.018  1.00  0.00     0.026 A 
ATOM     10  C   UNL A   1      30.285  28.137  23.680  1.00  0.00     0.033 A 
ATOM     11  C   UNL A   1      31.735  26.274  23.922  1.00  0.00     0.135 A 
ATOM     12  C   UNL A   1      29.204  27.260  23.541  1.00  0.00     0.042 A 
ATOM     13  C   UNL A   1      30.618  25.480  24.269  1.00  0.00     0.019 A 
ATOM     14  O   UNL A   1      32.872  25.592  23.346  1.00  0.00    -0.475 OA
ATOM     15  Cl  UNL A   1      27.652  27.873  23.118  1.00  0.00    -0.084 Cl
ATOM     16  C   UNL A   1      29.350  25.930  23.920  1.00  0.00     0.032 A 
ATOM     17  C   UNL A   1      30.917  24.162  24.936  1.00  0.00     0.025 C 
ATOM     18  C   UNL A   1      32.579  24.134  23.375  1.00  0.00     0.314 C 
BRANCH   9  19
ATOM     19  C   UNL A   1      32.232  28.476  25.103  1.00  0.00    -0.014 A 
ATOM     20  C   UNL A   1      33.516  30.399  26.776  1.00  0.00     0.121 A 
ATOM     21  C   UNL A   1      34.174  29.234  26.353  1.00  0.00     0.047 A 
ATOM     22  C   UNL A   1      32.197  30.628  26.385  1.00  0.00    -0.008 A 
ATOM     23  C   UNL A   1      33.543  28.281  25.527  1.00  0.00     0.013 A 
ATOM     24  C   UNL A   1      31.563  29.639  25.597  1.00  0.00     0.016 A 
ATOM     25  C   UNL A   1      31.464  31.901  26.717  1.00  0.00     0.048 C 
BRANCH  20  26
ATOM     26  O   UNL A   1      34.290  31.326  27.428  1.00  0.00    -0.496 OA
ATOM     27  C   UNL A   1      34.556  31.012  28.796  1.00  0.00     0.278 C 
ENDBRANCH  20  26
ENDBRANCH   9  19
BRANCH  18  28
ATOM     28  C   UNL A   1      33.284  22.850  22.865  1.00  0.00     0.429 C 
ATOM     29  F   UNL A   1      32.610  22.385  21.769  1.00  0.00    -0.167 F 
ATOM     30  F   UNL A   1      34.561  23.035  22.485  1.00  0.00    -0.167 F 
ATOM     31  F   UNL A   1      33.232  21.803  23.730  1.00  0.00    -0.167 F 
ENDBRANCH  18  28
ENDBRANCH   5   8
ENDBRANCH   3   4
ENDBRANCH   2   3
ENDBRANCH   1   2
BRANCH   1  32
ATOM     32  C   UNL A   1      38.257  22.493  25.758  1.00  0.00     0.116 C 
BRANCH  32  33
ATOM     33  N   UNL A   1      39.303  22.293  26.732  1.00  0.00    -0.352 N 
ATOM     34  C   UNL A   1      40.066  23.264  27.362  1.00  0.00     0.251 C 
ATOM     35  H   UNL A   1      39.497  21.360  26.979  1.00  0.00     0.163 HD
ATOM     36  O   UNL A   1      41.065  22.880  27.979  1.00  0.00    -0.269 OA
BRANCH  34  37
ATOM     37  C   UNL A   1      39.622  24.693  27.445  1.00  0.00     0.039 A 
ATOM     38  C   UNL A   1      40.248  25.619  26.598  1.00  0.00     0.014 A 
ATOM     39  C   UNL A   1      38.866  25.178  28.508  1.00  0.00     0.014 A 
ATOM     40  C   UNL A   1      40.398  26.939  27.008  1.00  0.00     0.010 A 
ATOM     41  C   UNL A   1      39.113  26.431  28.986  1.00  0.00     0.010 A 
ATOM     42  C   UNL A   1      39.972  27.266  28.281  1.00  0.00    -0.014 A 
BRANCH  42  43
ATOM     43  C   UNL A   1      40.320  28.447  29.032  1.00  0.00     0.031 A 
ATOM     44  C   UNL A   1      39.434  29.605  28.945  1.00  0.00     0.074 A 
ATOM     45  C   UNL A   1      41.147  28.218  30.075  1.00  0.00     0.049 A 
ATOM     46  N   UNL A   1      39.631  30.708  29.567  1.00  0.00    -0.248 NA
ATOM     47  C   UNL A   1      38.225  29.594  28.133  1.00  0.00     0.031 C 
ATOM     48  C   UNL A   1      41.217  28.887  31.365  1.00  0.00     0.029 A 
ATOM     49  N   UNL A   1      42.196  27.308  30.118  1.00  0.00    -0.354 N 
ATOM     50  C   UNL A   1      38.456  31.424  29.495  1.00  0.00     0.074 A 
ATOM     51  C   UNL A   1      37.670  30.752  28.492  1.00  0.00     0.031 C 
ATOM     52  C   UNL A   1      42.371  28.547  31.969  1.00  0.00     0.029 A 
ATOM     53  C   UNL A   1      43.165  27.824  30.988  1.00  0.00     0.049 A 
ATOM     54  H   UNL A   1      42.249  26.457  29.629  1.00  0.00     0.167 HD
ATOM     55  C   UNL A   1      38.252  32.396  30.429  1.00  0.00     0.034 A 
ATOM     56  C   UNL A   1      44.334  28.290  30.439  1.00  0.00     0.034 A 
ATOM     57  C   UNL A   1      39.466  32.549  31.261  1.00  0.00     0.049 A 
ATOM     58  C   UNL A   1      44.481  29.802  30.546  1.00  0.00     0.074 A 
ATOM     59  C   UNL A   1      39.820  32.084  32.518  1.00  0.00     0.029 A 
ATOM     60  N   UNL A   1      40.653  32.953  30.652  1.00  0.00    -0.354 N 
ATOM     61  N   UNL A   1      43.544  30.625  30.937  1.00  0.00    -0.248 NA
ATOM     62  C   UNL A   1      45.722  30.502  30.233  1.00  0.00     0.031 C 
ATOM     63  C   UNL A   1      41.244  32.132  32.621  1.00  0.00     0.029 A 
ATOM     64  C   UNL A   1      41.755  32.661  31.446  1.00  0.00     0.049 A 
ATOM     65  H   UNL A   1      40.704  33.390  29.771  1.00  0.00     0.167 HD
ATOM     66  C   UNL A   1      43.963  31.924  30.815  1.00  0.00     0.074 A 
ATOM     67  C   UNL A   1      45.369  31.779  30.458  1.00  0.00     0.031 C 
ATOM     68  C   UNL A   1      43.105  32.989  30.969  1.00  0.00     0.034 A 
BRANCH  55  69
ATOM     69  C   UNL A   1      36.912  33.029  30.788  1.00  0.00     0.023 A 
ATOM     70  C   UNL A   1      36.377  32.705  32.055  1.00  0.00     0.012 A 
ATOM     71  C   UNL A   1      36.100  33.869  29.984  1.00  0.00     0.148 A 
ATOM     72  C   UNL A   1      35.106  33.125  32.473  1.00  0.00     0.002 A 
ATOM     73  C   UNL A   1      34.821  34.271  30.386  1.00  0.00     0.091 A 
ATOM     74  F   UNL A   1      36.555  34.338  28.826  1.00  0.00    -0.205 F 
ATOM     75  C   UNL A   1      34.320  33.895  31.632  1.00  0.00     0.022 A 
BRANCH  73  76
ATOM     76  S   UNL A   1      33.730  35.257  29.337  1.00  0.00     0.127 S 
ATOM     77  O   UNL A   1      34.594  35.559  28.195  1.00  0.00    -0.237 OA
ATOM     78  O   UNL A   1      32.645  34.320  29.045  1.00  0.00    -0.237 OA
ATOM     79  O   UNL A   1      33.343  36.426  30.118  1.00  0.00    -0.744 OA
ENDBRANCH  73  76
ENDBRANCH  55  69
BRANCH  56  80
ATOM     80  C   UNL A   1      44.754  27.450  29.258  1.00  0.00     0.023 A 
ATOM     81  C   UNL A   1      44.936  26.063  29.502  1.00  0.00     0.012 A 
ATOM     82  C   UNL A   1      44.485  27.868  27.942  1.00  0.00     0.148 A 
ATOM     83  C   UNL A   1      44.621  25.117  28.522  1.00  0.00     0.002 A 
ATOM     84  C   UNL A   1      44.207  26.915  26.959  1.00  0.00     0.091 A 
ATOM     85  F   UNL A   1      44.444  29.179  27.676  1.00  0.00    -0.205 F 
ATOM     86  C   UNL A   1      44.206  25.545  27.265  1.00  0.00     0.022 A 
BRANCH  84  87
ATOM     87  S   UNL A   1      43.739  27.423  25.298  1.00  0.00     0.127 S 
ATOM     88  O   UNL A   1      42.899  28.587  25.570  1.00  0.00    -0.237 OA
ATOM     89  O   UNL A   1      45.022  27.737  24.669  1.00  0.00    -0.237 OA
ATOM     90  O   UNL A   1      43.068  26.263  24.730  1.00  0.00    -0.744 OA
ENDBRANCH  84  87
ENDBRANCH  56  80
BRANCH  68  91
ATOM     91  C   UNL A   1      43.418  34.457  30.667  1.00  0.00     0.023 A 
ATOM     92  C   UNL A   1      43.898  35.356  31.636  1.00  0.00     0.012 A 
ATOM     93  C   UNL A   1      43.338  34.969  29.340  1.00  0.00     0.148 A 
ATOM     94  C   UNL A   1      44.233  36.683  31.333  1.00  0.00     0.002 A 
ATOM     95  C   UNL A   1      43.794  36.245  29.020  1.00  0.00     0.091 A 
ATOM     96  F   UNL A   1      42.774  34.240  28.367  1.00  0.00    -0.205 F 
ATOM     97  C   UNL A   1      44.213  37.118  30.020  1.00  0.00     0.022 A 
BRANCH  95  98
ATOM     98  S   UNL A   1      43.999  36.774  27.312  1.00  0.00     0.127 S 
ATOM     99  O   UNL A   1      42.612  36.868  26.860  1.00  0.00    -0.237 OA
ATOM    100  O   UNL A   1      44.677  38.062  27.469  1.00  0.00    -0.237 OA
ATOM    101  O   UNL A   1      44.810  35.745  26.678  1.00  0.00    -0.744 OA
ENDBRANCH  95  98
ENDBRANCH  68  91
ENDBRANCH  42  43
ENDBRANCH  34  37
ENDBRANCH  32  33
ENDBRANCH   1  32
TORSDOF 17
ENDMDL
MODEL 2
REMARK VINA RESULT:     -12.9      1.557      1.997
REMARK SMILES COc1ccc(-c2cc(Cl)cc3c2O[C@@H](C(F)(F)F)C(C(=O)NCCCCNC(=O)c2ccc(-c4c5nc(c(-c6cccc(S(=O)(=O)[O-])c6F)c6ccc([nH]6)c(-c6cccc(S(=O)(=O)[O-])c6F)c6nc(c(-c7cccc(S(=O)(=O)[O-])c7F)c7ccc4[nH]7)C=C6)C=C5)cc2)=C3)cc1C
REMARK SMILES IDX 26 1 25 2 24 3 23 4 21 5 22 6 20 8 7 9 8 10 13 11 9 12 12 13
REMARK SMILES IDX 14 14 10 15 11 16 94 17 15 18 6 19 3 20 4 21 96 22 5 23
REMARK SMILES IDX 95 24 97 25 2 26 1 27 16 28 17 29 18 30 19 31 27 32 28 33
REMARK SMILES IDX 29 34 30 36 31 37 32 38 93 39 33 40 92 41 34 42 35 43 36 44
REMARK SMILES IDX 86 45 37 46 91 47 85 48 87 49 38 50 90 51 84 52 83 53 39 55
REMARK SMILES IDX 71 56 51 57 70 58 52 59 55 60 69 61 88 62 53 63 54 64 68 66
REMARK SMILES IDX 89 67 56 68 40 69 41 70 49 71 42 72 44 73 50 74 43 75 45 76
REMARK SMILES IDX 46 77 47 78 48 79 72 80 73 81 81 82 74 83 76 84 82 85 75 86
REMARK SMILES IDX 77 87 78 88 79 89 80 90 57 91 58 92 66 93 59 94 61 95 67 96
REMARK SMILES IDX 60 97 62 98 63 99 64 100 65 101
REMARK H PARENT 23 7 28 35 87 54 55 65
REMARK Flexibility Score: inf
ROOT
ATOM      1  C   UNL A   1      36.625  21.777  25.776  1.00  0.00     0.023 C 
ENDROOT
BRANCH   1   2
ATOM      2  C   UNL A   1      35.326  22.517  26.067  1.00  0.00     0.023 C 
BRANCH   2   3
ATOM      3  C   UNL A   1      35.049  23.865  25.374  1.00  0.00     0.116 C 
BRANCH   3   4
ATOM      4  N   UNL A   1      34.049  24.797  25.903  1.00  0.00    -0.352 N 
ATOM      5  C   UNL A   1      32.670  24.905  25.786  1.00  0.00     0.251 C 
ATOM      6  O   UNL A   1      32.081  25.515  26.683  1.00  0.00    -0.270 OA
ATOM      7  H   UNL A   1      34.442  25.503  26.464  1.00  0.00     0.163 HD
BRANCH   5   8
ATOM      8  C   UNL A   1      31.849  24.459  24.549  1.00  0.00     0.067 C 
ATOM      9  C   UNL A   1      32.051  28.319  23.977  1.00  0.00     0.026 A 
ATOM     10  C   UNL A   1      30.992  29.043  23.370  1.00  0.00     0.033 A 
ATOM     11  C   UNL A   1      31.997  26.936  23.791  1.00  0.00     0.135 A 
ATOM     12  C   UNL A   1      29.859  28.389  22.876  1.00  0.00     0.042 A 
ATOM     13  C   UNL A   1      30.714  26.344  23.764  1.00  0.00     0.019 A 
ATOM     14  O   UNL A   1      33.119  26.085  23.459  1.00  0.00    -0.475 OA
ATOM     15  Cl  UNL A   1      28.600  29.298  22.135  1.00  0.00    -0.084 Cl
ATOM     16  C   UNL A   1      29.677  27.038  23.149  1.00  0.00     0.032 A 
ATOM     17  C   UNL A   1      30.602  24.963  24.354  1.00  0.00     0.025 C 
ATOM     18  C   UNL A   1      32.592  24.707  23.271  1.00  0.00     0.314 C 
BRANCH   9  19
ATOM     19  C   UNL A   1      32.517  28.946  25.266  1.00  0.00    -0.014 A 
ATOM     20  C   UNL A   1      33.547  30.544  27.396  1.00  0.00     0.121 A 
ATOM     21  C   UNL A   1      34.201  29.379  26.965  1.00  0.00     0.047 A 
ATOM     22  C   UNL A   1      32.357  30.935  26.782  1.00  0.00    -0.008 A 
ATOM     23  C   UNL A   1      33.695  28.586  25.915  1.00  0.00     0.013 A 
ATOM     24  C   UNL A   1      31.838  30.102  25.763  1.00  0.00     0.016 A 
ATOM     25  C   UNL A   1      31.656  32.223  27.123  1.00  0.00     0.048 C 
BRANCH  20  26
ATOM     26  O   UNL A   1      34.228  31.317  28.302  1.00  0.00    -0.496 OA
ATOM     27  C   UNL A   1      35.278  32.101  27.735  1.00  0.00     0.278 C 
ENDBRANCH  20  26
ENDBRANCH   9  19
BRANCH  18  28
ATOM     28  C   UNL A   1      33.186  23.342  22.836  1.00  0.00     0.429 C 
ATOM     29  F   UNL A   1      34.538  23.481  22.679  1.00  0.00    -0.167 F 
ATOM     30  F   UNL A   1      33.000  22.349  23.724  1.00  0.00    -0.167 F 
ATOM     31  F   UNL A   1      32.774  22.917  21.612  1.00  0.00    -0.167 F 
ENDBRANCH  18  28
ENDBRANCH   5   8
ENDBRANCH   3   4
ENDBRANCH   2   3
ENDBRANCH   1   2
BRANCH   1  32
ATOM     32  C   UNL A   1      37.848  22.658  25.703  1.00  0.00     0.116 C 
BRANCH  32  33
ATOM     33  N   UNL A   1      38.963  22.319  26.553  1.00  0.00    -0.352 N 
ATOM     34  C   UNL A   1      39.859  23.186  27.158  1.00  0.00     0.251 C 
ATOM     35  H   UNL A   1      39.105  21.359  26.724  1.00  0.00     0.163 HD
ATOM     36  O   UNL A   1      40.879  22.689  27.647  1.00  0.00    -0.269 OA
BRANCH  34  37
ATOM     37  C   UNL A   1      39.540  24.635  27.370  1.00  0.00     0.039 A 
ATOM     38  C   UNL A   1      40.088  25.560  26.469  1.00  0.00     0.014 A 
ATOM     39  C   UNL A   1      39.003  25.114  28.561  1.00  0.00     0.014 A 
ATOM     40  C   UNL A   1      40.399  26.844  26.901  1.00  0.00     0.010 A 
ATOM     41  C   UNL A   1      39.416  26.322  29.041  1.00  0.00     0.010 A 
ATOM     42  C   UNL A   1      40.209  27.134  28.238  1.00  0.00    -0.014 A 
BRANCH  42  43
ATOM     43  C   UNL A   1      40.760  28.249  28.968  1.00  0.00     0.031 A 
ATOM     44  C   UNL A   1      39.877  29.368  29.285  1.00  0.00     0.074 A 
ATOM     45  C   UNL A   1      41.874  27.956  29.672  1.00  0.00     0.049 A 
ATOM     46  N   UNL A   1      40.245  30.412  29.931  1.00  0.00    -0.248 NA
ATOM     47  C   UNL A   1      38.475  29.382  28.891  1.00  0.00     0.031 C 
ATOM     48  C   UNL A   1      42.335  28.496  30.942  1.00  0.00     0.029 A 
ATOM     49  N   UNL A   1      42.896  27.095  29.290  1.00  0.00    -0.354 N 
ATOM     50  C   UNL A   1      39.097  31.078  30.305  1.00  0.00     0.074 A 
ATOM     51  C   UNL A   1      38.046  30.473  29.527  1.00  0.00     0.031 C 
ATOM     52  C   UNL A   1      43.625  28.150  31.119  1.00  0.00     0.029 A 
ATOM     53  C   UNL A   1      44.081  27.566  29.868  1.00  0.00     0.049 A 
ATOM     54  H   UNL A   1      42.803  26.299  28.719  1.00  0.00     0.167 HD
ATOM     55  C   UNL A   1      39.183  31.942  31.355  1.00  0.00     0.034 A 
ATOM     56  C   UNL A   1      45.014  28.137  29.038  1.00  0.00     0.034 A 
ATOM     57  C   UNL A   1      40.594  32.067  31.782  1.00  0.00     0.049 A 
ATOM     58  C   UNL A   1      45.169  29.636  29.257  1.00  0.00     0.074 A 
ATOM     59  C   UNL A   1      41.330  31.496  32.809  1.00  0.00     0.029 A 
ATOM     60  N   UNL A   1      41.526  32.582  30.883  1.00  0.00    -0.354 N 
ATOM     61  N   UNL A   1      44.391  30.372  30.005  1.00  0.00    -0.248 NA
ATOM     62  C   UNL A   1      46.240  30.419  28.653  1.00  0.00     0.031 C 
ATOM     63  C   UNL A   1      42.713  31.598  32.471  1.00  0.00     0.029 A 
ATOM     64  C   UNL A   1      42.825  32.264  31.261  1.00  0.00     0.049 A 
ATOM     65  H   UNL A   1      41.295  33.106  30.083  1.00  0.00     0.167 HD
ATOM     66  C   UNL A   1      44.734  31.695  29.901  1.00  0.00     0.074 A 
ATOM     67  C   UNL A   1      45.960  31.650  29.113  1.00  0.00     0.031 C 
ATOM     68  C   UNL A   1      43.954  32.699  30.428  1.00  0.00     0.034 A 
BRANCH  55  69
ATOM     69  C   UNL A   1      38.015  32.474  32.178  1.00  0.00     0.023 A 
ATOM     70  C   UNL A   1      38.056  32.231  33.570  1.00  0.00     0.012 A 
ATOM     71  C   UNL A   1      36.854  33.144  31.714  1.00  0.00     0.148 A 
ATOM     72  C   UNL A   1      37.002  32.566  34.430  1.00  0.00     0.002 A 
ATOM     73  C   UNL A   1      35.788  33.458  32.565  1.00  0.00     0.091 A 
ATOM     74  F   UNL A   1      36.763  33.534  30.446  1.00  0.00    -0.205 F 
ATOM     75  C   UNL A   1      35.859  33.165  33.926  1.00  0.00     0.022 A 
BRANCH  73  76
ATOM     76  S   UNL A   1      34.258  34.220  31.978  1.00  0.00     0.127 S 
ATOM     77  O   UNL A   1      33.281  33.738  32.955  1.00  0.00    -0.237 OA
ATOM     78  O   UNL A   1      34.561  35.646  32.074  1.00  0.00    -0.237 OA
ATOM     79  O   UNL A   1      34.040  33.725  30.623  1.00  0.00    -0.744 OA
ENDBRANCH  73  76
ENDBRANCH  55  69
BRANCH  56  80
ATOM     80  C   UNL A   1      45.054  27.437  27.701  1.00  0.00     0.023 A 
ATOM     81  C   UNL A   1      44.538  28.162  26.593  1.00  0.00     0.012 A 
ATOM     82  C   UNL A   1      45.975  26.403  27.453  1.00  0.00     0.148 A 
ATOM     83  C   UNL A   1      45.102  28.022  25.322  1.00  0.00     0.002 A 
ATOM     84  C   UNL A   1      46.508  26.246  26.171  1.00  0.00     0.091 A 
ATOM     85  F   UNL A   1      46.366  25.628  28.472  1.00  0.00    -0.205 F 
ATOM     86  C   UNL A   1      46.124  27.100  25.124  1.00  0.00     0.022 A 
BRANCH  84  87
ATOM     87  S   UNL A   1      47.778  25.014  25.852  1.00  0.00     0.127 S 
ATOM     88  O   UNL A   1      48.015  25.196  24.423  1.00  0.00    -0.237 OA
ATOM     89  O   UNL A   1      48.885  25.444  26.709  1.00  0.00    -0.237 OA
ATOM     90  O   UNL A   1      47.178  23.749  26.251  1.00  0.00    -0.744 OA
ENDBRANCH  84  87
ENDBRANCH  56  80
BRANCH  68  91
ATOM     91  C   UNL A   1      44.139  34.203  30.205  1.00  0.00     0.023 A 
ATOM     92  C   UNL A   1      44.992  34.998  30.990  1.00  0.00     0.012 A 
ATOM     93  C   UNL A   1      43.524  34.864  29.102  1.00  0.00     0.148 A 
ATOM     94  C   UNL A   1      45.195  36.362  30.739  1.00  0.00     0.002 A 
ATOM     95  C   UNL A   1      43.828  36.184  28.780  1.00  0.00     0.091 A 
ATOM     96  F   UNL A   1      42.595  34.235  28.369  1.00  0.00    -0.205 F 
ATOM     97  C   UNL A   1      44.639  36.948  29.616  1.00  0.00     0.022 A 
BRANCH  95  98
ATOM     98  S   UNL A   1      43.315  36.918  27.219  1.00  0.00     0.127 S 
ATOM     99  O   UNL A   1      44.247  38.038  27.094  1.00  0.00    -0.237 OA
ATOM    100  O   UNL A   1      43.549  35.823  26.275  1.00  0.00    -0.237 OA
ATOM    101  O   UNL A   1      41.914  37.269  27.393  1.00  0.00    -0.744 OA
ENDBRANCH  95  98
ENDBRANCH  68  91
ENDBRANCH  42  43
ENDBRANCH  34  37
ENDBRANCH  32  33
ENDBRANCH   1  32
TORSDOF 17
ENDMDL
MODEL 3
REMARK VINA RESULT:     -12.8      3.661      8.911
REMARK SMILES COc1ccc(-c2cc(Cl)cc3c2O[C@@H](C(F)(F)F)C(C(=O)NCCCCNC(=O)c2ccc(-c4c5nc(c(-c6cccc(S(=O)(=O)[O-])c6F)c6ccc([nH]6)c(-c6cccc(S(=O)(=O)[O-])c6F)c6nc(c(-c7cccc(S(=O)(=O)[O-])c7F)c7ccc4[nH]7)C=C6)C=C5)cc2)=C3)cc1C
REMARK SMILES IDX 26 1 25 2 24 3 23 4 21 5 22 6 20 8 7 9 8 10 13 11 9 12 12 13
REMARK SMILES IDX 14 14 10 15 11 16 94 17 15 18 6 19 3 20 4 21 96 22 5 23
REMARK SMILES IDX 95 24 97 25 2 26 1 27 16 28 17 29 18 30 19 31 27 32 28 33
REMARK SMILES IDX 29 34 30 36 31 37 32 38 93 39 33 40 92 41 34 42 35 43 36 44
REMARK SMILES IDX 86 45 37 46 91 47 85 48 87 49 38 50 90 51 84 52 83 53 39 55
REMARK SMILES IDX 71 56 51 57 70 58 52 59 55 60 69 61 88 62 53 63 54 64 68 66
REMARK SMILES IDX 89 67 56 68 40 69 41 70 49 71 42 72 44 73 50 74 43 75 45 76
REMARK SMILES IDX 46 77 47 78 48 79 72 80 73 81 81 82 74 83 76 84 82 85 75 86
REMARK SMILES IDX 77 87 78 88 79 89 80 90 57 91 58 92 66 93 59 94 61 95 67 96
REMARK SMILES IDX 60 97 62 98 63 99 64 100 65 101
REMARK H PARENT 23 7 28 35 87 54 55 65
REMARK Flexibility Score: inf
ROOT
ATOM      1  C   UNL A   1      33.471  30.218  26.513  1.00  0.00     0.023 C 
ENDROOT
BRANCH   1   2
ATOM      2  C   UNL A   1      34.180  28.871  26.447  1.00  0.00     0.023 C 
BRANCH   2   3
ATOM      3  C   UNL A   1      33.509  27.695  25.712  1.00  0.00     0.116 C 
BRANCH   3   4
ATOM      4  N   UNL A   1      34.083  27.144  24.481  1.00  0.00    -0.352 N 
ATOM      5  C   UNL A   1      34.306  25.859  24.008  1.00  0.00     0.251 C 
ATOM      6  O   UNL A   1      34.394  25.723  22.784  1.00  0.00    -0.270 OA
ATOM      7  H   UNL A   1      34.377  27.841  23.851  1.00  0.00     0.163 HD
BRANCH   5   8
ATOM      8  C   UNL A   1      34.605  24.628  24.901  1.00  0.00     0.067 C 
ATOM      9  C   UNL A   1      30.758  24.241  24.332  1.00  0.00     0.026 A 
ATOM     10  C   UNL A   1      29.903  23.703  25.329  1.00  0.00     0.033 A 
ATOM     11  C   UNL A   1      32.118  23.989  24.527  1.00  0.00     0.135 A 
ATOM     12  C   UNL A   1      30.417  23.213  26.534  1.00  0.00     0.042 A 
ATOM     13  C   UNL A   1      32.579  23.972  25.863  1.00  0.00     0.019 A 
ATOM     14  O   UNL A   1      33.056  23.581  23.505  1.00  0.00    -0.475 OA
ATOM     15  Cl  UNL A   1      29.351  22.557  27.715  1.00  0.00    -0.084 Cl
ATOM     16  C   UNL A   1      31.756  23.425  26.842  1.00  0.00     0.032 A 
ATOM     17  C   UNL A   1      33.972  24.496  26.096  1.00  0.00     0.025 C 
ATOM     18  C   UNL A   1      34.365  23.341  24.171  1.00  0.00     0.314 C 
BRANCH   9  19
ATOM     19  C   UNL A   1      30.249  25.545  23.773  1.00  0.00    -0.014 A 
ATOM     20  C   UNL A   1      29.564  28.237  23.116  1.00  0.00     0.121 A 
ATOM     21  C   UNL A   1      28.620  27.346  23.651  1.00  0.00     0.047 A 
ATOM     22  C   UNL A   1      30.870  27.804  22.886  1.00  0.00    -0.008 A 
ATOM     23  C   UNL A   1      28.954  26.015  23.975  1.00  0.00     0.013 A 
ATOM     24  C   UNL A   1      31.175  26.453  23.172  1.00  0.00     0.016 A 
ATOM     25  C   UNL A   1      31.957  28.731  22.410  1.00  0.00     0.048 C 
BRANCH  20  26
ATOM     26  O   UNL A   1      29.163  29.545  23.008  1.00  0.00    -0.496 OA
ATOM     27  C   UNL A   1      27.823  29.712  22.542  1.00  0.00     0.278 C 
ENDBRANCH  20  26
ENDBRANCH   9  19
BRANCH  18  28
ATOM     28  C   UNL A   1      35.756  22.820  23.726  1.00  0.00     0.429 C 
ATOM     29  F   UNL A   1      35.904  21.533  24.165  1.00  0.00    -0.167 F 
ATOM     30  F   UNL A   1      35.938  22.798  22.394  1.00  0.00    -0.167 F 
ATOM     31  F   UNL A   1      36.805  23.467  24.301  1.00  0.00    -0.167 F 
ENDBRANCH  18  28
ENDBRANCH   5   8
ENDBRANCH   3   4
ENDBRANCH   2   3
ENDBRANCH   1   2
BRANCH   1  32
ATOM     32  C   UNL A   1      33.704  30.989  27.788  1.00  0.00     0.116 C 
BRANCH  32  33
ATOM     33  N   UNL A   1      34.729  32.006  27.772  1.00  0.00    -0.352 N 
ATOM     34  C   UNL A   1      36.054  31.876  28.157  1.00  0.00     0.251 C 
ATOM     35  H   UNL A   1      34.455  32.895  27.450  1.00  0.00     0.163 HD
ATOM     36  O   UNL A   1      36.704  32.917  28.294  1.00  0.00    -0.269 OA
BRANCH  34  37
ATOM     37  C   UNL A   1      36.728  30.540  28.240  1.00  0.00     0.039 A 
ATOM     38  C   UNL A   1      36.756  29.902  29.489  1.00  0.00     0.014 A 
ATOM     39  C   UNL A   1      37.573  30.068  27.240  1.00  0.00     0.014 A 
ATOM     40  C   UNL A   1      37.823  29.074  29.819  1.00  0.00     0.010 A 
ATOM     41  C   UNL A   1      38.690  29.365  27.587  1.00  0.00     0.010 A 
ATOM     42  C   UNL A   1      38.856  28.968  28.908  1.00  0.00    -0.014 A 
BRANCH  42  43
ATOM     43  C   UNL A   1      40.182  28.459  29.159  1.00  0.00     0.031 A 
ATOM     44  C   UNL A   1      40.416  27.029  28.979  1.00  0.00     0.074 A 
ATOM     45  C   UNL A   1      41.157  29.390  29.084  1.00  0.00     0.049 A 
ATOM     46  N   UNL A   1      41.548  26.458  29.166  1.00  0.00    -0.248 NA
ATOM     47  C   UNL A   1      39.360  26.120  28.555  1.00  0.00     0.031 C 
ATOM     48  C   UNL A   1      42.534  29.253  28.636  1.00  0.00     0.029 A 
ATOM     49  N   UNL A   1      41.076  30.713  29.499  1.00  0.00    -0.354 N 
ATOM     50  C   UNL A   1      41.462  25.202  28.605  1.00  0.00     0.074 A 
ATOM     51  C   UNL A   1      40.056  24.999  28.362  1.00  0.00     0.031 C 
ATOM     52  C   UNL A   1      43.225  30.346  29.013  1.00  0.00     0.029 A 
ATOM     53  C   UNL A   1      42.359  31.109  29.897  1.00  0.00     0.049 A 
ATOM     54  H   UNL A   1      40.266  31.271  29.510  1.00  0.00     0.167 HD
ATOM     55  C   UNL A   1      42.627  24.579  28.271  1.00  0.00     0.034 A 
ATOM     56  C   UNL A   1      42.585  31.290  31.239  1.00  0.00     0.034 A 
ATOM     57  C   UNL A   1      43.775  25.387  28.740  1.00  0.00     0.049 A 
ATOM     58  C   UNL A   1      43.515  30.242  31.834  1.00  0.00     0.074 A 
ATOM     59  C   UNL A   1      44.628  26.280  28.109  1.00  0.00     0.029 A 
ATOM     60  N   UNL A   1      43.927  25.611  30.107  1.00  0.00    -0.354 N 
ATOM     61  N   UNL A   1      43.926  29.164  31.220  1.00  0.00    -0.248 NA
ATOM     62  C   UNL A   1      44.072  30.347  33.178  1.00  0.00     0.031 C 
ATOM     63  C   UNL A   1      45.227  27.101  29.111  1.00  0.00     0.029 A 
ATOM     64  C   UNL A   1      44.772  26.686  30.353  1.00  0.00     0.049 A 
ATOM     65  H   UNL A   1      43.492  25.076  30.809  1.00  0.00     0.167 HD
ATOM     66  C   UNL A   1      44.662  28.378  32.069  1.00  0.00     0.074 A 
ATOM     67  C   UNL A   1      44.797  29.217  33.253  1.00  0.00     0.031 C 
ATOM     68  C   UNL A   1      45.044  27.098  31.736  1.00  0.00     0.034 A 
BRANCH  55  69
ATOM     69  C   UNL A   1      42.774  23.404  27.312  1.00  0.00     0.023 A 
ATOM     70  C   UNL A   1      41.867  22.333  27.476  1.00  0.00     0.012 A 
ATOM     71  C   UNL A   1      43.749  23.221  26.298  1.00  0.00     0.148 A 
ATOM     72  C   UNL A   1      41.955  21.143  26.739  1.00  0.00     0.002 A 
ATOM     73  C   UNL A   1      43.856  22.027  25.576  1.00  0.00     0.091 A 
ATOM     74  F   UNL A   1      44.575  24.212  25.971  1.00  0.00    -0.205 F 
ATOM     75  C   UNL A   1      42.960  20.983  25.800  1.00  0.00     0.022 A 
BRANCH  73  76
ATOM     76  S   UNL A   1      45.152  21.736  24.351  1.00  0.00     0.127 S 
ATOM     77  O   UNL A   1      44.683  20.516  23.693  1.00  0.00    -0.237 OA
ATOM     78  O   UNL A   1      45.078  22.939  23.524  1.00  0.00    -0.237 OA
ATOM     79  O   UNL A   1      46.397  21.572  25.093  1.00  0.00    -0.744 OA
ENDBRANCH  73  76
ENDBRANCH  55  69
BRANCH  56  80
ATOM     80  C   UNL A   1      41.371  31.874  31.921  1.00  0.00     0.023 A 
ATOM     81  C   UNL A   1      40.877  33.097  31.395  1.00  0.00     0.012 A 
ATOM     82  C   UNL A   1      40.491  31.057  32.653  1.00  0.00     0.148 A 
ATOM     83  C   UNL A   1      39.507  33.371  31.390  1.00  0.00     0.002 A 
ATOM     84  C   UNL A   1      39.127  31.357  32.674  1.00  0.00     0.091 A 
ATOM     85  F   UNL A   1      40.977  29.970  33.266  1.00  0.00    -0.205 F 
ATOM     86  C   UNL A   1      38.627  32.474  31.985  1.00  0.00     0.022 A 
BRANCH  84  87
ATOM     87  S   UNL A   1      37.961  30.264  33.497  1.00  0.00     0.127 S 
ATOM     88  O   UNL A   1      38.147  30.632  34.898  1.00  0.00    -0.237 OA
ATOM     89  O   UNL A   1      36.671  30.663  32.933  1.00  0.00    -0.237 OA
ATOM     90  O   UNL A   1      38.381  28.921  33.122  1.00  0.00    -0.744 OA
ENDBRANCH  84  87
ENDBRANCH  56  80
BRANCH  68  91
ATOM     91  C   UNL A   1      45.692  26.073  32.672  1.00  0.00     0.023 A 
ATOM     92  C   UNL A   1      47.083  25.902  32.780  1.00  0.00     0.012 A 
ATOM     93  C   UNL A   1      44.906  25.301  33.575  1.00  0.00     0.148 A 
ATOM     94  C   UNL A   1      47.665  25.000  33.681  1.00  0.00     0.002 A 
ATOM     95  C   UNL A   1      45.491  24.504  34.556  1.00  0.00     0.091 A 
ATOM     96  F   UNL A   1      43.570  25.291  33.471  1.00  0.00    -0.205 F 
ATOM     97  C   UNL A   1      46.871  24.324  34.591  1.00  0.00     0.022 A 
BRANCH  95  98
ATOM     98  S   UNL A   1      44.523  23.790  35.895  1.00  0.00     0.127 S 
ATOM     99  O   UNL A   1      43.992  24.985  36.550  1.00  0.00    -0.237 OA
ATOM    100  O   UNL A   1      43.526  23.003  35.166  1.00  0.00    -0.237 OA
ATOM    101  O   UNL A   1      45.459  22.996  36.675  1.00  0.00    -0.744 OA
ENDBRANCH  95  98
ENDBRANCH  68  91
ENDBRANCH  42  43
ENDBRANCH  34  37
ENDBRANCH  32  33
ENDBRANCH   1  32
TORSDOF 17
ENDMDL
