MODEL 1
REMARK VINA RESULT:     -12.6      0.000      0.000
REMARK SMILES O=C(NCCCCNC(=O)[C@@H]1C=C[C@@H]([NH+]2CC3(CCOCC3)C2)C1)c1ccc(-c2c3nc(c(-c4cccc(S(=O)(=O)[O-])c4F)c4ccc([nH]4)c(-c4cccc(S(=O)(=O)[O-])c4F)c4nc(c(-c5cccc(S(=O)(=O)[O-])c5F)c5ccc2[nH]5)C=C4)C=C3)cc1
REMARK SMILES IDX 4 1 3 2 1 3 2 4 25 6 26 7 87 8 27 9 86 10 28 11 29 12 30 13
REMARK SMILES IDX 80 14 31 15 85 16 79 17 81 18 32 19 84 20 78 21 77 22 33 24
REMARK SMILES IDX 65 25 45 26 64 27 46 28 49 29 63 30 82 31 47 32 48 33 62 35
REMARK SMILES IDX 83 36 50 37 34 38 35 39 43 40 36 41 38 42 44 43 37 44 39 45
REMARK SMILES IDX 40 46 41 47 42 48 66 49 67 50 75 51 68 52 70 53 76 54 69 55
REMARK SMILES IDX 71 56 72 57 73 58 74 59 51 60 52 61 60 62 53 63 55 64 61 65
REMARK SMILES IDX 54 66 56 67 57 68 58 69 59 70 5 71 6 72 7 73 8 74 9 75 10 77
REMARK SMILES IDX 11 78 12 79 24 80 13 81 14 82 15 83 16 84 23 85 17 87 18 88
REMARK SMILES IDX 22 89 19 90 21 91 20 92
REMARK H PARENT 3 5 81 23 49 34 8 76 15 86
REMARK Flexibility Score: inf
ROOT
ATOM      1  C   UNL A   1      32.707  32.458  27.010  1.00  0.00     0.116 C 
ENDROOT
BRANCH   1   2
ATOM      2  N   UNL A   1      32.476  33.825  27.435  1.00  0.00    -0.352 N 
ATOM      3  O   UNL A   1      32.813  35.637  28.746  1.00  0.00    -0.269 OA
ATOM      4  C   UNL A   1      33.174  34.523  28.405  1.00  0.00     0.251 C 
ATOM      5  H   UNL A   1      31.745  34.308  26.987  1.00  0.00     0.163 HD
BRANCH   4   6
ATOM      6  C   UNL A   1      34.333  33.859  29.039  1.00  0.00     0.039 A 
ATOM      7  C   UNL A   1      35.630  34.273  28.731  1.00  0.00     0.014 A 
ATOM      8  C   UNL A   1      34.115  32.781  29.898  1.00  0.00     0.014 A 
ATOM      9  C   UNL A   1      36.715  33.532  29.185  1.00  0.00     0.010 A 
ATOM     10  C   UNL A   1      35.210  32.082  30.414  1.00  0.00     0.010 A 
ATOM     11  C   UNL A   1      36.515  32.439  30.043  1.00  0.00    -0.014 A 
BRANCH  11  12
ATOM     12  C   UNL A   1      37.693  31.767  30.644  1.00  0.00     0.031 A 
ATOM     13  C   UNL A   1      38.468  30.718  29.900  1.00  0.00     0.074 A 
ATOM     14  C   UNL A   1      38.034  32.107  31.903  1.00  0.00     0.049 A 
ATOM     15  N   UNL A   1      39.516  30.042  30.298  1.00  0.00    -0.248 NA
ATOM     16  C   UNL A   1      38.014  30.373  28.544  1.00  0.00     0.031 C 
ATOM     17  C   UNL A   1      37.311  33.075  32.733  1.00  0.00     0.029 A 
ATOM     18  N   UNL A   1      39.052  31.673  32.709  1.00  0.00    -0.354 N 
ATOM     19  C   UNL A   1      39.822  29.165  29.266  1.00  0.00     0.074 A 
ATOM     20  C   UNL A   1      38.854  29.398  28.214  1.00  0.00     0.031 C 
ATOM     21  C   UNL A   1      37.909  33.162  33.929  1.00  0.00     0.029 A 
ATOM     22  C   UNL A   1      39.024  32.224  33.969  1.00  0.00     0.049 A 
ATOM     23  H   UNL A   1      39.738  31.030  32.416  1.00  0.00     0.167 HD
ATOM     24  C   UNL A   1      40.827  28.259  29.203  1.00  0.00     0.034 A 
ATOM     25  C   UNL A   1      39.787  31.980  35.049  1.00  0.00     0.034 A 
ATOM     26  C   UNL A   1      41.811  28.073  30.236  1.00  0.00     0.049 A 
ATOM     27  C   UNL A   1      40.903  30.984  34.936  1.00  0.00     0.074 A 
ATOM     28  C   UNL A   1      42.937  27.269  30.214  1.00  0.00     0.029 A 
ATOM     29  N   UNL A   1      41.779  28.680  31.482  1.00  0.00    -0.354 N 
ATOM     30  N   UNL A   1      41.285  30.296  33.888  1.00  0.00    -0.248 NA
ATOM     31  C   UNL A   1      41.704  30.744  36.142  1.00  0.00     0.031 C 
ATOM     32  C   UNL A   1      43.573  27.369  31.456  1.00  0.00     0.029 A 
ATOM     33  C   UNL A   1      42.848  28.245  32.248  1.00  0.00     0.049 A 
ATOM     34  H   UNL A   1      41.097  29.324  31.778  1.00  0.00     0.167 HD
ATOM     35  C   UNL A   1      42.374  29.544  34.306  1.00  0.00     0.074 A 
ATOM     36  C   UNL A   1      42.616  29.894  35.691  1.00  0.00     0.031 C 
ATOM     37  C   UNL A   1      43.092  28.626  33.614  1.00  0.00     0.034 A 
BRANCH  24  38
ATOM     38  C   UNL A   1      40.958  27.417  27.962  1.00  0.00     0.023 A 
ATOM     39  C   UNL A   1      41.578  27.957  26.820  1.00  0.00     0.012 A 
ATOM     40  C   UNL A   1      40.585  26.057  27.972  1.00  0.00     0.148 A 
ATOM     41  C   UNL A   1      41.821  27.160  25.701  1.00  0.00     0.002 A 
ATOM     42  C   UNL A   1      40.857  25.262  26.864  1.00  0.00     0.091 A 
ATOM     43  F   UNL A   1      39.980  25.569  29.064  1.00  0.00    -0.205 F 
ATOM     44  C   UNL A   1      41.472  25.813  25.727  1.00  0.00     0.022 A 
BRANCH  42  45
ATOM     45  S   UNL A   1      40.509  23.499  26.821  1.00  0.00     0.127 S 
ATOM     46  O   UNL A   1      39.085  23.489  26.488  1.00  0.00    -0.237 OA
ATOM     47  O   UNL A   1      41.390  23.037  25.748  1.00  0.00    -0.237 OA
ATOM     48  O   UNL A   1      40.842  22.990  28.145  1.00  0.00    -0.744 OA
ENDBRANCH  42  45
ENDBRANCH  24  38
BRANCH  25  49
ATOM     49  C   UNL A   1      39.521  32.712  36.318  1.00  0.00     0.023 A 
ATOM     50  C   UNL A   1      40.153  33.947  36.555  1.00  0.00     0.012 A 
ATOM     51  C   UNL A   1      38.601  32.218  37.263  1.00  0.00     0.148 A 
ATOM     52  C   UNL A   1      39.886  34.667  37.719  1.00  0.00     0.002 A 
ATOM     53  C   UNL A   1      38.294  32.970  38.391  1.00  0.00     0.091 A 
ATOM     54  F   UNL A   1      38.025  31.028  37.036  1.00  0.00    -0.205 F 
ATOM     55  C   UNL A   1      38.948  34.187  38.630  1.00  0.00     0.022 A 
BRANCH  53  56
ATOM     56  S   UNL A   1      36.977  32.476  39.508  1.00  0.00     0.127 S 
ATOM     57  O   UNL A   1      37.386  31.125  39.879  1.00  0.00    -0.237 OA
ATOM     58  O   UNL A   1      37.084  33.468  40.579  1.00  0.00    -0.237 OA
ATOM     59  O   UNL A   1      35.758  32.590  38.719  1.00  0.00    -0.744 OA
ENDBRANCH  53  56
ENDBRANCH  25  49
BRANCH  37  60
ATOM     60  C   UNL A   1      44.197  27.923  34.352  1.00  0.00     0.023 A 
ATOM     61  C   UNL A   1      45.470  28.523  34.418  1.00  0.00     0.012 A 
ATOM     62  C   UNL A   1      43.966  26.709  35.025  1.00  0.00     0.148 A 
ATOM     63  C   UNL A   1      46.505  27.912  35.121  1.00  0.00     0.002 A 
ATOM     64  C   UNL A   1      44.992  26.126  35.760  1.00  0.00     0.091 A 
ATOM     65  F   UNL A   1      42.753  26.145  34.932  1.00  0.00    -0.205 F 
ATOM     66  C   UNL A   1      46.264  26.720  35.802  1.00  0.00     0.022 A 
BRANCH  64  67
ATOM     67  S   UNL A   1      44.748  24.636  36.733  1.00  0.00     0.127 S 
ATOM     68  O   UNL A   1      46.086  24.413  37.278  1.00  0.00    -0.237 OA
ATOM     69  O   UNL A   1      43.752  25.064  37.716  1.00  0.00    -0.237 OA
ATOM     70  O   UNL A   1      44.275  23.622  35.799  1.00  0.00    -0.744 OA
ENDBRANCH  64  67
ENDBRANCH  37  60
ENDBRANCH  11  12
ENDBRANCH   4   6
ENDBRANCH   1   2
BRANCH   1  71
ATOM     71  C   UNL A   1      31.432  31.676  26.720  1.00  0.00     0.023 C 
BRANCH  71  72
ATOM     72  C   UNL A   1      31.622  30.415  25.879  1.00  0.00     0.023 C 
BRANCH  72  73
ATOM     73  C   UNL A   1      32.668  29.431  26.406  1.00  0.00     0.116 C 
BRANCH  73  74
ATOM     74  N   UNL A   1      32.104  28.236  26.998  1.00  0.00    -0.356 N 
ATOM     75  C   UNL A   1      31.710  27.047  26.468  1.00  0.00     0.227 C 
ATOM     76  H   UNL A   1      31.982  28.296  27.973  1.00  0.00     0.163 HD
ATOM     77  O   UNL A   1      31.533  26.128  27.279  1.00  0.00    -0.274 OA
BRANCH  75  78
ATOM     78  C   UNL A   1      31.455  26.773  24.972  1.00  0.00     0.107 C 
ATOM     79  C   UNL A   1      32.481  27.276  24.003  1.00  0.00    -0.012 C 
ATOM     80  C   UNL A   1      30.153  27.234  24.330  1.00  0.00     0.087 C 
ATOM     81  C   UNL A   1      31.948  28.083  23.073  1.00  0.00     0.033 C 
ATOM     82  C   UNL A   1      30.511  28.394  23.376  1.00  0.00     0.208 C 
BRANCH  82  83
ATOM     83  N   UNL A   1      29.674  28.742  22.226  1.00  0.00    -0.328 N 
ATOM     84  C   UNL A   1      29.995  30.088  21.701  1.00  0.00     0.275 C 
ATOM     85  C   UNL A   1      28.293  29.139  22.499  1.00  0.00     0.275 C 
ATOM     86  H   UNL A   1      29.814  27.897  21.673  1.00  0.00     0.348 HD
ATOM     87  C   UNL A   1      28.635  30.632  22.212  1.00  0.00     0.073 C 
ATOM     88  C   UNL A   1      27.698  31.231  21.151  1.00  0.00     0.047 C 
ATOM     89  C   UNL A   1      28.700  31.556  23.437  1.00  0.00     0.047 C 
ATOM     90  C   UNL A   1      28.055  32.689  20.889  1.00  0.00     0.161 C 
ATOM     91  C   UNL A   1      28.968  32.997  23.028  1.00  0.00     0.161 C 
ATOM     92  O   UNL A   1      27.981  33.438  22.102  1.00  0.00    -0.381 OA
ENDBRANCH  82  83
ENDBRANCH  75  78
ENDBRANCH  73  74
ENDBRANCH  72  73
ENDBRANCH  71  72
ENDBRANCH   1  71
TORSDOF 15
ENDMDL
MODEL 2
REMARK VINA RESULT:     -12.5      6.800     12.221
REMARK SMILES O=C(NCCCCNC(=O)[C@@H]1C=C[C@@H]([NH+]2CC3(CCOCC3)C2)C1)c1ccc(-c2c3nc(c(-c4cccc(S(=O)(=O)[O-])c4F)c4ccc([nH]4)c(-c4cccc(S(=O)(=O)[O-])c4F)c4nc(c(-c5cccc(S(=O)(=O)[O-])c5F)c5ccc2[nH]5)C=C4)C=C3)cc1
REMARK SMILES IDX 4 1 3 2 1 3 2 4 25 6 26 7 87 8 27 9 86 10 28 11 29 12 30 13
REMARK SMILES IDX 80 14 31 15 85 16 79 17 81 18 32 19 84 20 78 21 77 22 33 24
REMARK SMILES IDX 65 25 45 26 64 27 46 28 49 29 63 30 82 31 47 32 48 33 62 35
REMARK SMILES IDX 83 36 50 37 34 38 35 39 43 40 36 41 38 42 44 43 37 44 39 45
REMARK SMILES IDX 40 46 41 47 42 48 66 49 67 50 75 51 68 52 70 53 76 54 69 55
REMARK SMILES IDX 71 56 72 57 73 58 74 59 51 60 52 61 60 62 53 63 55 64 61 65
REMARK SMILES IDX 54 66 56 67 57 68 58 69 59 70 5 71 6 72 7 73 8 74 9 75 10 77
REMARK SMILES IDX 11 78 12 79 24 80 13 81 14 82 15 83 16 84 23 85 17 87 18 88
REMARK SMILES IDX 22 89 19 90 21 91 20 92
REMARK H PARENT 3 5 81 23 49 34 8 76 15 86
REMARK Flexibility Score: inf
ROOT
ATOM      1  C   UNL A   1      38.952  20.194  25.805  1.00  0.00     0.116 C 
ENDROOT
BRANCH   1   2
ATOM      2  N   UNL A   1      40.005  19.200  25.874  1.00  0.00    -0.352 N 
ATOM      3  O   UNL A   1      42.152  18.512  26.053  1.00  0.00    -0.269 OA
ATOM      4  C   UNL A   1      41.347  19.425  26.125  1.00  0.00     0.251 C 
ATOM      5  H   UNL A   1      39.736  18.264  25.727  1.00  0.00     0.163 HD
BRANCH   4   6
ATOM      6  C   UNL A   1      41.772  20.807  26.435  1.00  0.00     0.039 A 
ATOM      7  C   UNL A   1      41.902  21.217  27.763  1.00  0.00     0.014 A 
ATOM      8  C   UNL A   1      41.982  21.706  25.389  1.00  0.00     0.014 A 
ATOM      9  C   UNL A   1      42.122  22.558  28.051  1.00  0.00     0.010 A 
ATOM     10  C   UNL A   1      42.278  23.041  25.680  1.00  0.00     0.010 A 
ATOM     11  C   UNL A   1      42.328  23.480  27.012  1.00  0.00    -0.014 A 
BRANCH  11  12
ATOM     12  C   UNL A   1      42.723  24.870  27.346  1.00  0.00     0.031 A 
ATOM     13  C   UNL A   1      41.768  25.828  27.996  1.00  0.00     0.074 A 
ATOM     14  C   UNL A   1      43.971  25.262  27.018  1.00  0.00     0.049 A 
ATOM     15  N   UNL A   1      41.971  27.073  28.344  1.00  0.00    -0.248 NA
ATOM     16  C   UNL A   1      40.412  25.338  28.292  1.00  0.00     0.031 C 
ATOM     17  C   UNL A   1      44.959  24.424  26.331  1.00  0.00     0.029 A 
ATOM     18  N   UNL A   1      44.615  26.457  27.196  1.00  0.00    -0.354 N 
ATOM     19  C   UNL A   1      40.765  27.530  28.856  1.00  0.00     0.074 A 
ATOM     20  C   UNL A   1      39.831  26.426  28.785  1.00  0.00     0.031 C 
ATOM     21  C   UNL A   1      46.083  25.129  26.149  1.00  0.00     0.029 A 
ATOM     22  C   UNL A   1      45.881  26.480  26.658  1.00  0.00     0.049 A 
ATOM     23  H   UNL A   1      44.213  27.225  27.665  1.00  0.00     0.167 HD
ATOM     24  C   UNL A   1      40.472  28.757  29.350  1.00  0.00     0.034 A 
ATOM     25  C   UNL A   1      46.771  27.484  26.554  1.00  0.00     0.034 A 
ATOM     26  C   UNL A   1      41.425  29.831  29.460  1.00  0.00     0.049 A 
ATOM     27  C   UNL A   1      46.419  28.823  27.130  1.00  0.00     0.074 A 
ATOM     28  C   UNL A   1      41.259  31.068  30.058  1.00  0.00     0.029 A 
ATOM     29  N   UNL A   1      42.712  29.806  28.945  1.00  0.00    -0.354 N 
ATOM     30  N   UNL A   1      45.334  29.181  27.773  1.00  0.00    -0.248 NA
ATOM     31  C   UNL A   1      47.417  29.891  26.986  1.00  0.00     0.031 C 
ATOM     32  C   UNL A   1      42.437  31.802  29.882  1.00  0.00     0.029 A 
ATOM     33  C   UNL A   1      43.340  31.017  29.184  1.00  0.00     0.049 A 
ATOM     34  H   UNL A   1      43.118  29.041  28.479  1.00  0.00     0.167 HD
ATOM     35  C   UNL A   1      45.520  30.514  28.114  1.00  0.00     0.074 A 
ATOM     36  C   UNL A   1      46.839  30.886  27.645  1.00  0.00     0.031 C 
ATOM     37  C   UNL A   1      44.664  31.361  28.738  1.00  0.00     0.034 A 
BRANCH  24  38
ATOM     38  C   UNL A   1      39.079  29.014  29.858  1.00  0.00     0.023 A 
ATOM     39  C   UNL A   1      38.738  28.636  31.170  1.00  0.00     0.012 A 
ATOM     40  C   UNL A   1      38.153  29.743  29.084  1.00  0.00     0.148 A 
ATOM     41  C   UNL A   1      37.495  28.971  31.705  1.00  0.00     0.002 A 
ATOM     42  C   UNL A   1      36.927  30.100  29.634  1.00  0.00     0.091 A 
ATOM     43  F   UNL A   1      38.492  30.078  27.830  1.00  0.00    -0.205 F 
ATOM     44  C   UNL A   1      36.595  29.712  30.943  1.00  0.00     0.022 A 
BRANCH  42  45
ATOM     45  S   UNL A   1      35.724  31.109  28.760  1.00  0.00     0.127 S 
ATOM     46  O   UNL A   1      35.025  30.106  27.959  1.00  0.00    -0.237 OA
ATOM     47  O   UNL A   1      34.936  31.669  29.858  1.00  0.00    -0.237 OA
ATOM     48  O   UNL A   1      36.493  32.086  28.001  1.00  0.00    -0.744 OA
ENDBRANCH  42  45
ENDBRANCH  24  38
BRANCH  25  49
ATOM     49  C   UNL A   1      48.081  27.240  25.892  1.00  0.00     0.023 A 
ATOM     50  C   UNL A   1      49.154  26.721  26.640  1.00  0.00     0.012 A 
ATOM     51  C   UNL A   1      48.251  27.464  24.511  1.00  0.00     0.148 A 
ATOM     52  C   UNL A   1      50.377  26.448  26.029  1.00  0.00     0.002 A 
ATOM     53  C   UNL A   1      49.452  27.131  23.897  1.00  0.00     0.091 A 
ATOM     54  F   UNL A   1      47.227  27.981  23.816  1.00  0.00    -0.205 F 
ATOM     55  C   UNL A   1      50.523  26.638  24.656  1.00  0.00     0.022 A 
BRANCH  53  56
ATOM     56  S   UNL A   1      49.636  27.204  22.112  1.00  0.00     0.127 S 
ATOM     57  O   UNL A   1      51.030  26.809  21.934  1.00  0.00    -0.237 OA
ATOM     58  O   UNL A   1      48.654  26.220  21.653  1.00  0.00    -0.237 OA
ATOM     59  O   UNL A   1      49.302  28.577  21.760  1.00  0.00    -0.744 OA
ENDBRANCH  53  56
ENDBRANCH  25  49
BRANCH  37  60
ATOM     60  C   UNL A   1      45.124  32.779  28.929  1.00  0.00     0.023 A 
ATOM     61  C   UNL A   1      45.857  33.114  30.085  1.00  0.00     0.012 A 
ATOM     62  C   UNL A   1      44.886  33.761  27.949  1.00  0.00     0.148 A 
ATOM     63  C   UNL A   1      46.323  34.412  30.276  1.00  0.00     0.002 A 
ATOM     64  C   UNL A   1      45.390  35.044  28.127  1.00  0.00     0.091 A 
ATOM     65  F   UNL A   1      44.168  33.426  26.866  1.00  0.00    -0.205 F 
ATOM     66  C   UNL A   1      46.101  35.374  29.292  1.00  0.00     0.022 A 
BRANCH  64  67
ATOM     67  S   UNL A   1      45.223  36.322  26.876  1.00  0.00     0.127 S 
ATOM     68  O   UNL A   1      46.045  37.395  27.433  1.00  0.00    -0.237 OA
ATOM     69  O   UNL A   1      45.786  35.675  25.690  1.00  0.00    -0.237 OA
ATOM     70  O   UNL A   1      43.797  36.608  26.786  1.00  0.00    -0.744 OA
ENDBRANCH  64  67
ENDBRANCH  37  60
ENDBRANCH  11  12
ENDBRANCH   4   6
ENDBRANCH   1   2
BRANCH   1  71
ATOM     71  C   UNL A   1      37.798  19.812  24.887  1.00  0.00     0.023 C 
BRANCH  71  72
ATOM     72  C   UNL A   1      36.781  20.922  24.625  1.00  0.00     0.023 C 
BRANCH  72  73
ATOM     73  C   UNL A   1      36.949  22.176  25.487  1.00  0.00     0.116 C 
BRANCH  73  74
ATOM     74  N   UNL A   1      36.299  23.351  24.945  1.00  0.00    -0.356 N 
ATOM     75  C   UNL A   1      35.054  23.872  25.115  1.00  0.00     0.227 C 
ATOM     76  H   UNL A   1      36.868  23.874  24.336  1.00  0.00     0.163 HD
ATOM     77  O   UNL A   1      34.902  25.040  24.733  1.00  0.00    -0.274 OA
BRANCH  75  78
ATOM     78  C   UNL A   1      33.844  23.127  25.713  1.00  0.00     0.107 C 
ATOM     79  C   UNL A   1      34.072  22.372  26.989  1.00  0.00    -0.012 C 
ATOM     80  C   UNL A   1      33.089  22.109  24.869  1.00  0.00     0.087 C 
ATOM     81  C   UNL A   1      33.736  21.078  26.879  1.00  0.00     0.033 C 
ATOM     82  C   UNL A   1      33.398  20.717  25.462  1.00  0.00     0.208 C 
BRANCH  82  83
ATOM     83  N   UNL A   1      32.494  19.578  25.289  1.00  0.00    -0.328 N 
ATOM     84  C   UNL A   1      32.903  18.422  26.115  1.00  0.00     0.275 C 
ATOM     85  C   UNL A   1      32.633  18.795  24.060  1.00  0.00     0.275 C 
ATOM     86  H   UNL A   1      31.608  20.062  25.433  1.00  0.00     0.348 HD
ATOM     87  C   UNL A   1      33.319  17.635  24.844  1.00  0.00     0.073 C 
ATOM     88  C   UNL A   1      32.605  16.295  24.607  1.00  0.00     0.047 C 
ATOM     89  C   UNL A   1      34.829  17.473  24.620  1.00  0.00     0.047 C 
ATOM     90  C   UNL A   1      33.295  15.181  25.384  1.00  0.00     0.161 C 
ATOM     91  C   UNL A   1      35.373  16.269  25.376  1.00  0.00     0.161 C 
ATOM     92  O   UNL A   1      34.667  15.092  25.001  1.00  0.00    -0.381 OA
ENDBRANCH  82  83
ENDBRANCH  75  78
ENDBRANCH  73  74
ENDBRANCH  72  73
ENDBRANCH  71  72
ENDBRANCH   1  71
TORSDOF 15
ENDMDL
MODEL 3
REMARK VINA RESULT:     -12.3      5.996     11.213
REMARK SMILES O=C(NCCCCNC(=O)[C@@H]1C=C[C@@H]([NH+]2CC3(CCOCC3)C2)C1)c1ccc(-c2c3nc(c(-c4cccc(S(=O)(=O)[O-])c4F)c4ccc([nH]4)c(-c4cccc(S(=O)(=O)[O-])c4F)c4nc(c(-c5cccc(S(=O)(=O)[O-])c5F)c5ccc2[nH]5)C=C4)C=C3)cc1
REMARK SMILES IDX 4 1 3 2 1 3 2 4 25 6 26 7 87 8 27 9 86 10 28 11 29 12 30 13
REMARK SMILES IDX 80 14 31 15 85 16 79 17 81 18 32 19 84 20 78 21 77 22 33 24
REMARK SMILES IDX 65 25 45 26 64 27 46 28 49 29 63 30 82 31 47 32 48 33 62 35
REMARK SMILES IDX 83 36 50 37 34 38 35 39 43 40 36 41 38 42 44 43 37 44 39 45
REMARK SMILES IDX 40 46 41 47 42 48 66 49 67 50 75 51 68 52 70 53 76 54 69 55
REMARK SMILES IDX 71 56 72 57 73 58 74 59 51 60 52 61 60 62 53 63 55 64 61 65
REMARK SMILES IDX 54 66 56 67 57 68 58 69 59 70 5 71 6 72 7 73 8 74 9 75 10 77
REMARK SMILES IDX 11 78 12 79 24 80 13 81 14 82 15 83 16 84 23 85 17 87 18 88
REMARK SMILES IDX 22 89 19 90 21 91 20 92
REMARK H PARENT 3 5 81 23 49 34 8 76 15 86
REMARK Flexibility Score: inf
ROOT
ATOM      1  C   UNL A   1      39.043  20.184  25.956  1.00  0.00     0.116 C 
ENDROOT
BRANCH   1   2
ATOM      2  N   UNL A   1      40.120  19.214  25.948  1.00  0.00    -0.352 N 
ATOM      3  O   UNL A   1      42.289  18.574  25.998  1.00  0.00    -0.269 OA
ATOM      4  C   UNL A   1      41.468  19.466  26.132  1.00  0.00     0.251 C 
ATOM      5  H   UNL A   1      39.865  18.275  25.795  1.00  0.00     0.163 HD
BRANCH   4   6
ATOM      6  C   UNL A   1      41.878  20.851  26.449  1.00  0.00     0.039 A 
ATOM      7  C   UNL A   1      42.096  21.229  27.775  1.00  0.00     0.014 A 
ATOM      8  C   UNL A   1      41.984  21.783  25.417  1.00  0.00     0.014 A 
ATOM      9  C   UNL A   1      42.301  22.568  28.084  1.00  0.00     0.010 A 
ATOM     10  C   UNL A   1      42.265  23.118  25.722  1.00  0.00     0.010 A 
ATOM     11  C   UNL A   1      42.403  23.522  27.059  1.00  0.00    -0.014 A 
BRANCH  11  12
ATOM     12  C   UNL A   1      42.785  24.914  27.402  1.00  0.00     0.031 A 
ATOM     13  C   UNL A   1      41.812  25.867  28.034  1.00  0.00     0.074 A 
ATOM     14  C   UNL A   1      44.037  25.313  27.100  1.00  0.00     0.049 A 
ATOM     15  N   UNL A   1      42.002  27.112  28.387  1.00  0.00    -0.248 NA
ATOM     16  C   UNL A   1      40.453  25.370  28.301  1.00  0.00     0.031 C 
ATOM     17  C   UNL A   1      45.042  24.481  26.433  1.00  0.00     0.029 A 
ATOM     18  N   UNL A   1      44.671  26.511  27.292  1.00  0.00    -0.354 N 
ATOM     19  C   UNL A   1      40.783  27.563  28.875  1.00  0.00     0.074 A 
ATOM     20  C   UNL A   1      39.856  26.454  28.784  1.00  0.00     0.031 C 
ATOM     21  C   UNL A   1      46.167  25.192  26.274  1.00  0.00     0.029 A 
ATOM     22  C   UNL A   1      45.948  26.541  26.781  1.00  0.00     0.049 A 
ATOM     23  H   UNL A   1      44.256  27.276  27.753  1.00  0.00     0.167 HD
ATOM     24  C   UNL A   1      40.474  28.788  29.364  1.00  0.00     0.034 A 
ATOM     25  C   UNL A   1      46.834  27.549  26.695  1.00  0.00     0.034 A 
ATOM     26  C   UNL A   1      41.419  29.866  29.494  1.00  0.00     0.049 A 
ATOM     27  C   UNL A   1      46.465  28.886  27.265  1.00  0.00     0.074 A 
ATOM     28  C   UNL A   1      41.235  31.102  30.089  1.00  0.00     0.029 A 
ATOM     29  N   UNL A   1      42.716  29.849  29.006  1.00  0.00    -0.354 N 
ATOM     30  N   UNL A   1      45.365  29.238  27.886  1.00  0.00    -0.248 NA
ATOM     31  C   UNL A   1      47.459  29.959  27.142  1.00  0.00     0.031 C 
ATOM     32  C   UNL A   1      42.413  31.842  29.938  1.00  0.00     0.029 A 
ATOM     33  C   UNL A   1      43.334  31.062  29.258  1.00  0.00     0.049 A 
ATOM     34  H   UNL A   1      43.136  29.086  28.547  1.00  0.00     0.167 HD
ATOM     35  C   UNL A   1      45.537  30.571  28.233  1.00  0.00     0.074 A 
ATOM     36  C   UNL A   1      46.863  30.950  27.790  1.00  0.00     0.031 C 
ATOM     37  C   UNL A   1      44.665  31.413  28.839  1.00  0.00     0.034 A 
BRANCH  24  38
ATOM     38  C   UNL A   1      39.070  29.038  29.844  1.00  0.00     0.023 A 
ATOM     39  C   UNL A   1      38.709  28.673  31.155  1.00  0.00     0.012 A 
ATOM     40  C   UNL A   1      38.150  29.747  29.044  1.00  0.00     0.148 A 
ATOM     41  C   UNL A   1      37.453  29.003  31.663  1.00  0.00     0.002 A 
ATOM     42  C   UNL A   1      36.911  30.099  29.567  1.00  0.00     0.091 A 
ATOM     43  F   UNL A   1      38.509  30.069  27.793  1.00  0.00    -0.205 F 
ATOM     44  C   UNL A   1      36.560  29.724  30.876  1.00  0.00     0.022 A 
BRANCH  42  45
ATOM     45  S   UNL A   1      35.714  31.085  28.660  1.00  0.00     0.127 S 
ATOM     46  O   UNL A   1      34.969  31.717  29.747  1.00  0.00    -0.237 OA
ATOM     47  O   UNL A   1      36.575  31.992  27.901  1.00  0.00    -0.237 OA
ATOM     48  O   UNL A   1      34.953  30.146  27.847  1.00  0.00    -0.744 OA
ENDBRANCH  42  45
ENDBRANCH  24  38
BRANCH  25  49
ATOM     49  C   UNL A   1      48.158  27.312  26.059  1.00  0.00     0.023 A 
ATOM     50  C   UNL A   1      49.230  26.834  26.837  1.00  0.00     0.012 A 
ATOM     51  C   UNL A   1      48.346  27.502  24.676  1.00  0.00     0.148 A 
ATOM     52  C   UNL A   1      50.467  26.568  26.252  1.00  0.00     0.002 A 
ATOM     53  C   UNL A   1      49.562  27.175  24.089  1.00  0.00     0.091 A 
ATOM     54  F   UNL A   1      47.323  27.980  23.951  1.00  0.00    -0.205 F 
ATOM     55  C   UNL A   1      50.631  26.724  24.877  1.00  0.00     0.022 A 
BRANCH  53  56
ATOM     56  S   UNL A   1      49.772  27.203  22.306  1.00  0.00     0.127 S 
ATOM     57  O   UNL A   1      48.755  26.252  21.866  1.00  0.00    -0.237 OA
ATOM     58  O   UNL A   1      49.489  28.601  21.976  1.00  0.00    -0.237 OA
ATOM     59  O   UNL A   1      51.159  26.815  22.088  1.00  0.00    -0.744 OA
ENDBRANCH  53  56
ENDBRANCH  25  49
BRANCH  37  60
ATOM     60  C   UNL A   1      45.113  32.833  29.041  1.00  0.00     0.023 A 
ATOM     61  C   UNL A   1      45.773  33.182  30.236  1.00  0.00     0.012 A 
ATOM     62  C   UNL A   1      44.938  33.804  28.036  1.00  0.00     0.148 A 
ATOM     63  C   UNL A   1      46.229  34.483  30.439  1.00  0.00     0.002 A 
ATOM     64  C   UNL A   1      45.432  35.088  28.229  1.00  0.00     0.091 A 
ATOM     65  F   UNL A   1      44.288  33.455  26.915  1.00  0.00    -0.205 F 
ATOM     66  C   UNL A   1      46.069  35.432  29.432  1.00  0.00     0.022 A 
BRANCH  64  67
ATOM     67  S   UNL A   1      45.343  36.351  26.955  1.00  0.00     0.127 S 
ATOM     68  O   UNL A   1      43.900  36.517  26.798  1.00  0.00    -0.237 OA
ATOM     69  O   UNL A   1      46.022  37.483  27.589  1.00  0.00    -0.237 OA
ATOM     70  O   UNL A   1      46.041  35.802  25.799  1.00  0.00    -0.744 OA
ENDBRANCH  64  67
ENDBRANCH  37  60
ENDBRANCH  11  12
ENDBRANCH   4   6
ENDBRANCH   1   2
BRANCH   1  71
ATOM     71  C   UNL A   1      37.911  19.861  24.990  1.00  0.00     0.023 C 
BRANCH  71  72
ATOM     72  C   UNL A   1      36.939  21.009  24.720  1.00  0.00     0.023 C 
BRANCH  72  73
ATOM     73  C   UNL A   1      35.467  20.697  25.002  1.00  0.00     0.116 C 
BRANCH  73  74
ATOM     74  N   UNL A   1      35.003  21.173  26.288  1.00  0.00    -0.356 N 
ATOM     75  C   UNL A   1      34.133  22.156  26.644  1.00  0.00     0.227 C 
ATOM     76  H   UNL A   1      35.392  20.692  27.053  1.00  0.00     0.163 HD
ATOM     77  O   UNL A   1      33.735  22.125  27.817  1.00  0.00    -0.274 OA
BRANCH  75  78
ATOM     78  C   UNL A   1      33.634  23.288  25.724  1.00  0.00     0.107 C 
ATOM     79  C   UNL A   1      34.612  24.375  25.392  1.00  0.00    -0.012 C 
ATOM     80  C   UNL A   1      32.390  24.079  26.105  1.00  0.00     0.087 C 
ATOM     81  C   UNL A   1      34.148  25.591  25.721  1.00  0.00     0.033 C 
ATOM     82  C   UNL A   1      32.862  25.499  26.489  1.00  0.00     0.208 C 
BRANCH  82  83
ATOM     83  N   UNL A   1      31.979  26.663  26.403  1.00  0.00    -0.328 N 
ATOM     84  C   UNL A   1      30.881  26.450  25.434  1.00  0.00     0.275 C 
ATOM     85  C   UNL A   1      32.467  27.819  25.651  1.00  0.00     0.275 C 
ATOM     86  H   UNL A   1      31.804  26.797  27.399  1.00  0.00     0.348 HD
ATOM     87  C   UNL A   1      31.508  27.489  24.468  1.00  0.00     0.073 C 
ATOM     88  C   UNL A   1      30.629  28.696  24.101  1.00  0.00     0.047 C 
ATOM     89  C   UNL A   1      32.169  26.918  23.205  1.00  0.00     0.047 C 
ATOM     90  C   UNL A   1      29.702  28.346  22.944  1.00  0.00     0.161 C 
ATOM     91  C   UNL A   1      31.148  26.705  22.096  1.00  0.00     0.161 C 
ATOM     92  O   UNL A   1      30.465  27.921  21.815  1.00  0.00    -0.381 OA
ENDBRANCH  82  83
ENDBRANCH  75  78
ENDBRANCH  73  74
ENDBRANCH  72  73
ENDBRANCH  71  72
ENDBRANCH   1  71
TORSDOF 15
ENDMDL
