MODEL 1
REMARK VINA RESULT:     -15.2      0.000      0.000
REMARK SMILES C[C@]12C(=O)N(c3ccc(C(=O)NCCCCNC(=O)c4ccc(-c5c6nc(c(-c7cccc(S(=O)(=O)[O-])c7F)c7ccc([nH]7)c(-c7cccc(S(=O)(=O)[O-])c7F)c7nc(c(-c8cccc(S(=O)(=O)[O-])c8F)c8ccc5[nH]8)C=C7)C=C6)cc4)cc3)C(=O)[C@H]1[C@H]1c3ccccc3[C@@H]2c2ccccc21
REMARK SMILES IDX 15 1 14 2 13 3 12 4 10 5 11 6 9 8 6 9 7 10 84 11 8 12 83 13
REMARK SMILES IDX 5 14 1 15 2 16 3 17 87 18 95 19 4 20 85 21 88 22 94 23 96 24
REMARK SMILES IDX 86 25 89 26 101 27 93 28 97 29 90 30 100 31 92 32 98 33
REMARK SMILES IDX 91 34 99 35 16 36 17 37 18 38 19 40 20 41 21 42 82 43 22 44
REMARK SMILES IDX 81 45 23 46 24 47 25 48 75 49 26 50 80 51 74 52 76 53 27 54
REMARK SMILES IDX 79 55 73 56 72 57 28 59 60 60 40 61 59 62 41 63 44 64 58 65
REMARK SMILES IDX 77 66 42 67 43 68 57 70 78 71 45 72 29 73 30 74 38 75 31 76
REMARK SMILES IDX 33 77 39 78 32 79 34 80 35 81 36 82 37 83 61 84 62 85 70 86
REMARK SMILES IDX 63 87 65 88 71 89 64 90 66 91 67 92 68 93 69 94 46 95 47 96
REMARK SMILES IDX 55 97 48 98 50 99 56 100 49 101 51 102 52 103 53 104 54 105
REMARK H PARENT 12 7 17 39 76 58 44 69
REMARK Flexibility Score: inf
ROOT
ATOM      1  C   UNL A   1      35.841  20.066  24.973  1.00  0.00     0.023 C 
ENDROOT
BRANCH   1   2
ATOM      2  C   UNL A   1      35.899  18.600  24.563  1.00  0.00     0.023 C 
BRANCH   2   3
ATOM      3  C   UNL A   1      34.626  17.802  24.800  1.00  0.00     0.116 C 
BRANCH   3   4
ATOM      4  N   UNL A   1      33.890  17.515  23.581  1.00  0.00    -0.352 N 
ATOM      5  C   UNL A   1      32.912  18.241  22.948  1.00  0.00     0.251 C 
ATOM      6  O   UNL A   1      32.345  17.779  21.962  1.00  0.00    -0.269 OA
ATOM      7  H   UNL A   1      34.129  16.669  23.140  1.00  0.00     0.163 HD
BRANCH   5   8
ATOM      8  C   UNL A   1      32.518  19.576  23.447  1.00  0.00     0.039 A 
ATOM      9  C   UNL A   1      31.701  22.096  24.454  1.00  0.00     0.052 A 
ATOM     10  C   UNL A   1      31.906  20.996  25.309  1.00  0.00     0.027 A 
ATOM     11  C   UNL A   1      31.925  21.894  23.085  1.00  0.00     0.027 A 
ATOM     12  C   UNL A   1      32.312  19.749  24.814  1.00  0.00     0.016 A 
ATOM     13  C   UNL A   1      32.280  20.642  22.583  1.00  0.00     0.016 A 
BRANCH   9  14
ATOM     14  N   UNL A   1      31.092  23.304  24.904  1.00  0.00    -0.250 N 
ATOM     15  C   UNL A   1      29.308  26.309  24.702  1.00  0.00     0.024 C 
ATOM     16  C   UNL A   1      30.659  25.589  24.775  1.00  0.00     0.071 C 
ATOM     17  C   UNL A   1      30.571  24.263  24.066  1.00  0.00     0.241 C 
ATOM     18  C   UNL A   1      30.990  25.239  26.252  1.00  0.00     0.107 C 
ATOM     19  C   UNL A   1      31.866  26.350  24.124  1.00  0.00     0.066 C 
ATOM     20  O   UNL A   1      30.144  24.162  22.930  1.00  0.00    -0.273 OA
ATOM     21  C   UNL A   1      31.054  23.730  26.218  1.00  0.00     0.238 C 
ATOM     22  C   UNL A   1      32.333  25.919  26.685  1.00  0.00     0.063 C 
ATOM     23  C   UNL A   1      33.153  25.546  24.396  1.00  0.00    -0.036 A 
ATOM     24  C   UNL A   1      31.984  27.632  24.931  1.00  0.00    -0.036 A 
ATOM     25  O   UNL A   1      31.024  23.058  27.243  1.00  0.00    -0.274 OA
ATOM     26  C   UNL A   1      33.416  25.341  25.776  1.00  0.00    -0.036 A 
ATOM     27  C   UNL A   1      32.206  27.408  26.317  1.00  0.00    -0.036 A 
ATOM     28  C   UNL A   1      33.977  24.972  23.437  1.00  0.00     0.005 A 
ATOM     29  C   UNL A   1      31.876  28.910  24.403  1.00  0.00     0.005 A 
ATOM     30  C   UNL A   1      34.515  24.602  26.196  1.00  0.00     0.004 A 
ATOM     31  C   UNL A   1      32.321  28.492  27.175  1.00  0.00     0.004 A 
ATOM     32  C   UNL A   1      35.068  24.207  23.862  1.00  0.00     0.000 A 
ATOM     33  C   UNL A   1      31.987  29.991  25.271  1.00  0.00     0.000 A 
ATOM     34  C   UNL A   1      35.342  24.034  25.228  1.00  0.00     0.000 A 
ATOM     35  C   UNL A   1      32.207  29.783  26.643  1.00  0.00     0.000 A 
ENDBRANCH   9  14
ENDBRANCH   5   8
ENDBRANCH   3   4
ENDBRANCH   2   3
ENDBRANCH   1   2
BRANCH   1  36
ATOM     36  C   UNL A   1      37.186  20.766  25.121  1.00  0.00     0.116 C 
BRANCH  36  37
ATOM     37  N   UNL A   1      38.324  19.862  25.236  1.00  0.00    -0.352 N 
ATOM     38  C   UNL A   1      39.549  20.069  25.828  1.00  0.00     0.251 C 
ATOM     39  H   UNL A   1      38.197  18.974  24.831  1.00  0.00     0.163 HD
ATOM     40  O   UNL A   1      40.406  19.192  25.792  1.00  0.00    -0.269 OA
BRANCH  38  41
ATOM     41  C   UNL A   1      39.837  21.378  26.450  1.00  0.00     0.039 A 
ATOM     42  C   UNL A   1      39.293  22.547  25.920  1.00  0.00     0.014 A 
ATOM     43  C   UNL A   1      40.747  21.438  27.509  1.00  0.00     0.014 A 
ATOM     44  C   UNL A   1      39.826  23.774  26.292  1.00  0.00     0.010 A 
ATOM     45  C   UNL A   1      41.208  22.681  27.950  1.00  0.00     0.010 A 
ATOM     46  C   UNL A   1      40.806  23.856  27.295  1.00  0.00    -0.014 A 
BRANCH  46  47
ATOM     47  C   UNL A   1      41.413  25.175  27.618  1.00  0.00     0.031 A 
ATOM     48  C   UNL A   1      42.806  25.524  27.158  1.00  0.00     0.074 A 
ATOM     49  C   UNL A   1      40.682  26.085  28.292  1.00  0.00     0.049 A 
ATOM     50  N   UNL A   1      43.475  26.634  27.344  1.00  0.00    -0.248 NA
ATOM     51  C   UNL A   1      43.551  24.504  26.398  1.00  0.00     0.031 C 
ATOM     52  C   UNL A   1      39.333  25.859  28.816  1.00  0.00     0.029 A 
ATOM     53  N   UNL A   1      40.963  27.380  28.645  1.00  0.00    -0.354 N 
ATOM     54  C   UNL A   1      44.726  26.430  26.775  1.00  0.00     0.074 A 
ATOM     55  C   UNL A   1      44.730  25.092  26.228  1.00  0.00     0.031 C 
ATOM     56  C   UNL A   1      38.891  26.986  29.393  1.00  0.00     0.029 A 
ATOM     57  C   UNL A   1      39.941  27.997  29.327  1.00  0.00     0.049 A 
ATOM     58  H   UNL A   1      41.814  27.825  28.429  1.00  0.00     0.167 HD
ATOM     59  C   UNL A   1      45.770  27.287  26.697  1.00  0.00     0.034 A 
ATOM     60  C   UNL A   1      39.857  29.233  29.856  1.00  0.00     0.034 A 
ATOM     61  C   UNL A   1      45.743  28.645  27.169  1.00  0.00     0.049 A 
ATOM     62  C   UNL A   1      41.012  30.178  29.709  1.00  0.00     0.074 A 
ATOM     63  C   UNL A   1      46.738  29.603  27.071  1.00  0.00     0.029 A 
ATOM     64  N   UNL A   1      44.673  29.241  27.812  1.00  0.00    -0.354 N 
ATOM     65  N   UNL A   1      42.151  29.989  29.088  1.00  0.00    -0.248 NA
ATOM     66  C   UNL A   1      40.869  31.508  30.317  1.00  0.00     0.031 C 
ATOM     67  C   UNL A   1      46.267  30.782  27.655  1.00  0.00     0.029 A 
ATOM     68  C   UNL A   1      44.981  30.555  28.116  1.00  0.00     0.049 A 
ATOM     69  H   UNL A   1      43.819  28.797  28.022  1.00  0.00     0.167 HD
ATOM     70  C   UNL A   1      42.858  31.176  29.228  1.00  0.00     0.074 A 
ATOM     71  C   UNL A   1      42.010  32.089  29.965  1.00  0.00     0.031 C 
ATOM     72  C   UNL A   1      44.110  31.469  28.804  1.00  0.00     0.034 A 
BRANCH  59  73
ATOM     73  C   UNL A   1      47.033  26.828  26.023  1.00  0.00     0.023 A 
ATOM     74  C   UNL A   1      47.221  27.111  24.656  1.00  0.00     0.012 A 
ATOM     75  C   UNL A   1      48.087  26.267  26.771  1.00  0.00     0.148 A 
ATOM     76  C   UNL A   1      48.444  26.847  24.042  1.00  0.00     0.002 A 
ATOM     77  C   UNL A   1      49.312  26.030  26.158  1.00  0.00     0.091 A 
ATOM     78  F   UNL A   1      47.879  26.008  28.069  1.00  0.00    -0.205 F 
ATOM     79  C   UNL A   1      49.490  26.318  24.794  1.00  0.00     0.022 A 
BRANCH  77  80
ATOM     80  S   UNL A   1      50.744  25.406  27.044  1.00  0.00     0.127 S 
ATOM     81  O   UNL A   1      50.185  24.236  27.721  1.00  0.00    -0.237 OA
ATOM     82  O   UNL A   1      51.666  25.096  25.952  1.00  0.00    -0.237 OA
ATOM     83  O   UNL A   1      51.172  26.479  27.930  1.00  0.00    -0.744 OA
ENDBRANCH  77  80
ENDBRANCH  59  73
BRANCH  60  84
ATOM     84  C   UNL A   1      38.606  29.640  30.549  1.00  0.00     0.023 A 
ATOM     85  C   UNL A   1      38.408  29.277  31.893  1.00  0.00     0.012 A 
ATOM     86  C   UNL A   1      37.656  30.454  29.904  1.00  0.00     0.148 A 
ATOM     87  C   UNL A   1      37.276  29.711  32.583  1.00  0.00     0.002 A 
ATOM     88  C   UNL A   1      36.557  30.925  30.610  1.00  0.00     0.091 A 
ATOM     89  F   UNL A   1      37.861  30.773  28.618  1.00  0.00    -0.205 F 
ATOM     90  C   UNL A   1      36.359  30.546  31.947  1.00  0.00     0.022 A 
BRANCH  88  91
ATOM     91  S   UNL A   1      35.402  32.108  29.908  1.00  0.00     0.127 S 
ATOM     92  O   UNL A   1      34.491  32.336  31.027  1.00  0.00    -0.237 OA
ATOM     93  O   UNL A   1      36.279  33.235  29.587  1.00  0.00    -0.237 OA
ATOM     94  O   UNL A   1      34.826  31.448  28.745  1.00  0.00    -0.744 OA
ENDBRANCH  88  91
ENDBRANCH  60  84
BRANCH  72  95
ATOM     95  C   UNL A   1      44.660  32.830  29.118  1.00  0.00     0.023 A 
ATOM     96  C   UNL A   1      45.388  33.013  30.309  1.00  0.00     0.012 A 
ATOM     97  C   UNL A   1      44.569  33.881  28.185  1.00  0.00     0.148 A 
ATOM     98  C   UNL A   1      46.017  34.229  30.570  1.00  0.00     0.002 A 
ATOM     99  C   UNL A   1      45.224  35.079  28.438  1.00  0.00     0.091 A 
ATOM    100  F   UNL A   1      43.861  33.678  27.064  1.00  0.00    -0.205 F 
ATOM    101  C   UNL A   1      45.945  35.257  29.631  1.00  0.00     0.022 A 
BRANCH  99 102
ATOM    102  S   UNL A   1      45.251  36.434  27.259  1.00  0.00     0.127 S 
ATOM    103  O   UNL A   1      46.024  37.443  27.983  1.00  0.00    -0.237 OA
ATOM    104  O   UNL A   1      45.945  35.837  26.118  1.00  0.00    -0.237 OA
ATOM    105  O   UNL A   1      43.859  36.780  27.010  1.00  0.00    -0.744 OA
ENDBRANCH  99 102
ENDBRANCH  72  95
ENDBRANCH  46  47
ENDBRANCH  38  41
ENDBRANCH  36  37
ENDBRANCH   1  36
TORSDOF 15
ENDMDL
MODEL 2
REMARK VINA RESULT:     -15.1      4.741      8.476
REMARK SMILES C[C@]12C(=O)N(c3ccc(C(=O)NCCCCNC(=O)c4ccc(-c5c6nc(c(-c7cccc(S(=O)(=O)[O-])c7F)c7ccc([nH]7)c(-c7cccc(S(=O)(=O)[O-])c7F)c7nc(c(-c8cccc(S(=O)(=O)[O-])c8F)c8ccc5[nH]8)C=C7)C=C6)cc4)cc3)C(=O)[C@H]1[C@H]1c3ccccc3[C@@H]2c2ccccc21
REMARK SMILES IDX 15 1 14 2 13 3 12 4 10 5 11 6 9 8 6 9 7 10 84 11 8 12 83 13
REMARK SMILES IDX 5 14 1 15 2 16 3 17 87 18 95 19 4 20 85 21 88 22 94 23 96 24
REMARK SMILES IDX 86 25 89 26 101 27 93 28 97 29 90 30 100 31 92 32 98 33
REMARK SMILES IDX 91 34 99 35 16 36 17 37 18 38 19 40 20 41 21 42 82 43 22 44
REMARK SMILES IDX 81 45 23 46 24 47 25 48 75 49 26 50 80 51 74 52 76 53 27 54
REMARK SMILES IDX 79 55 73 56 72 57 28 59 60 60 40 61 59 62 41 63 44 64 58 65
REMARK SMILES IDX 77 66 42 67 43 68 57 70 78 71 45 72 29 73 30 74 38 75 31 76
REMARK SMILES IDX 33 77 39 78 32 79 34 80 35 81 36 82 37 83 61 84 62 85 70 86
REMARK SMILES IDX 63 87 65 88 71 89 64 90 66 91 67 92 68 93 69 94 46 95 47 96
REMARK SMILES IDX 55 97 48 98 50 99 56 100 49 101 51 102 52 103 53 104 54 105
REMARK H PARENT 12 7 17 39 76 58 44 69
REMARK Flexibility Score: inf
ROOT
ATOM      1  C   UNL A   1      30.979  30.594  25.135  1.00  0.00     0.023 C 
ENDROOT
BRANCH   1   2
ATOM      2  C   UNL A   1      29.862  31.599  24.892  1.00  0.00     0.023 C 
BRANCH   2   3
ATOM      3  C   UNL A   1      29.294  31.620  23.481  1.00  0.00     0.116 C 
BRANCH   3   4
ATOM      4  N   UNL A   1      28.004  30.963  23.368  1.00  0.00    -0.352 N 
ATOM      5  C   UNL A   1      27.702  29.639  23.168  1.00  0.00     0.251 C 
ATOM      6  O   UNL A   1      26.534  29.292  23.012  1.00  0.00    -0.269 OA
ATOM      7  H   UNL A   1      27.225  31.558  23.447  1.00  0.00     0.163 HD
BRANCH   5   8
ATOM      8  C   UNL A   1      28.770  28.618  23.123  1.00  0.00     0.039 A 
ATOM      9  C   UNL A   1      30.815  26.664  22.950  1.00  0.00     0.052 A 
ATOM     10  C   UNL A   1      30.852  27.835  22.169  1.00  0.00     0.027 A 
ATOM     11  C   UNL A   1      29.728  26.508  23.820  1.00  0.00     0.027 A 
ATOM     12  C   UNL A   1      29.843  28.804  22.254  1.00  0.00     0.016 A 
ATOM     13  C   UNL A   1      28.697  27.446  23.872  1.00  0.00     0.016 A 
BRANCH   9  14
ATOM     14  N   UNL A   1      31.711  25.576  22.729  1.00  0.00    -0.250 N 
ATOM     15  C   UNL A   1      32.788  22.253  22.514  1.00  0.00     0.024 C 
ATOM     16  C   UNL A   1      32.716  23.558  23.314  1.00  0.00     0.071 C 
ATOM     17  C   UNL A   1      31.418  24.264  23.024  1.00  0.00     0.241 C 
ATOM     18  C   UNL A   1      33.826  24.532  22.832  1.00  0.00     0.107 C 
ATOM     19  C   UNL A   1      32.785  23.399  24.873  1.00  0.00     0.066 C 
ATOM     20  O   UNL A   1      30.340  23.703  23.109  1.00  0.00    -0.273 OA
ATOM     21  C   UNL A   1      33.023  25.703  22.315  1.00  0.00     0.238 C 
ATOM     22  C   UNL A   1      34.781  24.898  24.019  1.00  0.00     0.063 C 
ATOM     23  C   UNL A   1      32.823  24.805  25.504  1.00  0.00    -0.036 A 
ATOM     24  C   UNL A   1      34.147  22.778  25.130  1.00  0.00    -0.036 A 
ATOM     25  O   UNL A   1      33.523  26.564  21.600  1.00  0.00    -0.274 OA
ATOM     26  C   UNL A   1      33.916  25.598  25.064  1.00  0.00    -0.036 A 
ATOM     27  C   UNL A   1      35.228  23.565  24.645  1.00  0.00    -0.036 A 
ATOM     28  C   UNL A   1      31.872  25.344  26.359  1.00  0.00     0.005 A 
ATOM     29  C   UNL A   1      34.353  21.558  25.758  1.00  0.00     0.005 A 
ATOM     30  C   UNL A   1      34.078  26.906  25.504  1.00  0.00     0.004 A 
ATOM     31  C   UNL A   1      36.528  23.110  24.802  1.00  0.00     0.004 A 
ATOM     32  C   UNL A   1      32.023  26.669  26.781  1.00  0.00     0.000 A 
ATOM     33  C   UNL A   1      35.661  21.107  25.905  1.00  0.00     0.000 A 
ATOM     34  C   UNL A   1      33.122  27.439  26.368  1.00  0.00     0.000 A 
ATOM     35  C   UNL A   1      36.737  21.876  25.431  1.00  0.00     0.000 A 
ENDBRANCH   9  14
ENDBRANCH   5   8
ENDBRANCH   3   4
ENDBRANCH   2   3
ENDBRANCH   1   2
BRANCH   1  36
ATOM     36  C   UNL A   1      31.901  30.898  26.310  1.00  0.00     0.116 C 
BRANCH  36  37
ATOM     37  N   UNL A   1      31.819  32.270  26.796  1.00  0.00    -0.352 N 
ATOM     38  C   UNL A   1      32.753  33.010  27.487  1.00  0.00     0.251 C 
ATOM     39  H   UNL A   1      30.975  32.736  26.600  1.00  0.00     0.163 HD
ATOM     40  O   UNL A   1      32.487  34.151  27.850  1.00  0.00    -0.269 OA
BRANCH  38  41
ATOM     41  C   UNL A   1      34.047  32.389  27.838  1.00  0.00     0.039 A 
ATOM     42  C   UNL A   1      34.130  31.020  28.084  1.00  0.00     0.014 A 
ATOM     43  C   UNL A   1      35.162  33.211  28.025  1.00  0.00     0.014 A 
ATOM     44  C   UNL A   1      35.251  30.513  28.730  1.00  0.00     0.010 A 
ATOM     45  C   UNL A   1      36.325  32.676  28.583  1.00  0.00     0.010 A 
ATOM     46  C   UNL A   1      36.353  31.338  29.008  1.00  0.00    -0.014 A 
BRANCH  46  47
ATOM     47  C   UNL A   1      37.507  30.785  29.766  1.00  0.00     0.031 A 
ATOM     48  C   UNL A   1      38.466  29.813  29.125  1.00  0.00     0.074 A 
ATOM     49  C   UNL A   1      37.721  31.201  31.030  1.00  0.00     0.049 A 
ATOM     50  N   UNL A   1      39.528  29.250  29.641  1.00  0.00    -0.248 NA
ATOM     51  C   UNL A   1      38.204  29.415  27.730  1.00  0.00     0.031 C 
ATOM     52  C   UNL A   1      36.851  32.116  31.773  1.00  0.00     0.029 A 
ATOM     53  N   UNL A   1      38.734  30.917  31.910  1.00  0.00    -0.354 N 
ATOM     54  C   UNL A   1      40.028  28.399  28.664  1.00  0.00     0.074 A 
ATOM     55  C   UNL A   1      39.160  28.519  27.514  1.00  0.00     0.031 C 
ATOM     56  C   UNL A   1      37.384  32.345  32.982  1.00  0.00     0.029 A 
ATOM     57  C   UNL A   1      38.604  31.555  33.121  1.00  0.00     0.049 A 
ATOM     58  H   UNL A   1      39.482  30.316  31.695  1.00  0.00     0.167 HD
ATOM     59  C   UNL A   1      41.122  27.604  28.712  1.00  0.00     0.034 A 
ATOM     60  C   UNL A   1      39.367  31.503  34.230  1.00  0.00     0.034 A 
ATOM     61  C   UNL A   1      42.032  27.542  29.824  1.00  0.00     0.049 A 
ATOM     62  C   UNL A   1      40.602  30.653  34.235  1.00  0.00     0.074 A 
ATOM     63  C   UNL A   1      43.202  26.810  29.929  1.00  0.00     0.029 A 
ATOM     64  N   UNL A   1      41.885  28.238  31.010  1.00  0.00    -0.354 N 
ATOM     65  N   UNL A   1      41.100  29.926  33.265  1.00  0.00    -0.248 NA
ATOM     66  C   UNL A   1      41.389  30.625  35.476  1.00  0.00     0.031 C 
ATOM     67  C   UNL A   1      43.765  27.066  31.181  1.00  0.00     0.029 A 
ATOM     68  C   UNL A   1      42.945  27.955  31.854  1.00  0.00     0.049 A 
ATOM     69  H   UNL A   1      41.139  28.844  31.222  1.00  0.00     0.167 HD
ATOM     70  C   UNL A   1      42.259  29.358  33.775  1.00  0.00     0.074 A 
ATOM     71  C   UNL A   1      42.408  29.847  35.130  1.00  0.00     0.031 C 
ATOM     72  C   UNL A   1      43.108  28.488  33.180  1.00  0.00     0.034 A 
BRANCH  59  73
ATOM     73  C   UNL A   1      41.460  26.767  27.509  1.00  0.00     0.023 A 
ATOM     74  C   UNL A   1      42.146  27.362  26.433  1.00  0.00     0.012 A 
ATOM     75  C   UNL A   1      41.245  25.375  27.517  1.00  0.00     0.148 A 
ATOM     76  C   UNL A   1      42.619  26.581  25.379  1.00  0.00     0.002 A 
ATOM     77  C   UNL A   1      41.742  24.600  26.476  1.00  0.00     0.091 A 
ATOM     78  F   UNL A   1      40.590  24.837  28.555  1.00  0.00    -0.205 F 
ATOM     79  C   UNL A   1      42.427  25.202  25.407  1.00  0.00     0.022 A 
BRANCH  77  80
ATOM     80  S   UNL A   1      41.603  22.809  26.437  1.00  0.00     0.127 S 
ATOM     81  O   UNL A   1      42.387  22.478  25.248  1.00  0.00    -0.237 OA
ATOM     82  O   UNL A   1      42.226  22.428  27.704  1.00  0.00    -0.237 OA
ATOM     83  O   UNL A   1      40.181  22.515  26.335  1.00  0.00    -0.744 OA
ENDBRANCH  77  80
ENDBRANCH  59  73
BRANCH  60  84
ATOM     84  C   UNL A   1      38.981  32.316  35.413  1.00  0.00     0.023 A 
ATOM     85  C   UNL A   1      38.154  31.753  36.402  1.00  0.00     0.012 A 
ATOM     86  C   UNL A   1      39.498  33.612  35.599  1.00  0.00     0.148 A 
ATOM     87  C   UNL A   1      37.840  32.473  37.556  1.00  0.00     0.002 A 
ATOM     88  C   UNL A   1      39.224  34.304  36.772  1.00  0.00     0.091 A 
ATOM     89  F   UNL A   1      40.272  34.131  34.634  1.00  0.00    -0.205 F 
ATOM     90  C   UNL A   1      38.387  33.741  37.747  1.00  0.00     0.022 A 
BRANCH  88  91
ATOM     91  S   UNL A   1      39.992  35.882  37.155  1.00  0.00     0.127 S 
ATOM     92  O   UNL A   1      39.309  36.254  38.391  1.00  0.00    -0.237 OA
ATOM     93  O   UNL A   1      41.397  35.504  37.317  1.00  0.00    -0.237 OA
ATOM     94  O   UNL A   1      39.731  36.733  36.003  1.00  0.00    -0.744 OA
ENDBRANCH  88  91
ENDBRANCH  60  84
BRANCH  72  95
ATOM     95  C   UNL A   1      44.283  27.993  33.973  1.00  0.00     0.023 A 
ATOM     96  C   UNL A   1      45.457  28.770  34.009  1.00  0.00     0.012 A 
ATOM     97  C   UNL A   1      44.181  26.842  34.776  1.00  0.00     0.148 A 
ATOM     98  C   UNL A   1      46.519  28.403  34.833  1.00  0.00     0.002 A 
ATOM     99  C   UNL A   1      45.232  26.500  35.618  1.00  0.00     0.091 A 
ATOM    100  F   UNL A   1      43.054  26.118  34.713  1.00  0.00    -0.205 F 
ATOM    101  C   UNL A   1      46.402  27.277  35.645  1.00  0.00     0.022 A 
BRANCH  99 102
ATOM    102  S   UNL A   1      45.148  25.111  36.754  1.00  0.00     0.127 S 
ATOM    103  O   UNL A   1      46.387  25.273  37.514  1.00  0.00    -0.237 OA
ATOM    104  O   UNL A   1      43.928  25.399  37.506  1.00  0.00    -0.237 OA
ATOM    105  O   UNL A   1      45.083  23.915  35.925  1.00  0.00    -0.744 OA
ENDBRANCH  99 102
ENDBRANCH  72  95
ENDBRANCH  46  47
ENDBRANCH  38  41
ENDBRANCH  36  37
ENDBRANCH   1  36
TORSDOF 15
ENDMDL
MODEL 3
REMARK VINA RESULT:     -15.1      1.365      7.124
REMARK SMILES C[C@]12C(=O)N(c3ccc(C(=O)NCCCCNC(=O)c4ccc(-c5c6nc(c(-c7cccc(S(=O)(=O)[O-])c7F)c7ccc([nH]7)c(-c7cccc(S(=O)(=O)[O-])c7F)c7nc(c(-c8cccc(S(=O)(=O)[O-])c8F)c8ccc5[nH]8)C=C7)C=C6)cc4)cc3)C(=O)[C@H]1[C@H]1c3ccccc3[C@@H]2c2ccccc21
REMARK SMILES IDX 15 1 14 2 13 3 12 4 10 5 11 6 9 8 6 9 7 10 84 11 8 12 83 13
REMARK SMILES IDX 5 14 1 15 2 16 3 17 87 18 95 19 4 20 85 21 88 22 94 23 96 24
REMARK SMILES IDX 86 25 89 26 101 27 93 28 97 29 90 30 100 31 92 32 98 33
REMARK SMILES IDX 91 34 99 35 16 36 17 37 18 38 19 40 20 41 21 42 82 43 22 44
REMARK SMILES IDX 81 45 23 46 24 47 25 48 75 49 26 50 80 51 74 52 76 53 27 54
REMARK SMILES IDX 79 55 73 56 72 57 28 59 60 60 40 61 59 62 41 63 44 64 58 65
REMARK SMILES IDX 77 66 42 67 43 68 57 70 78 71 45 72 29 73 30 74 38 75 31 76
REMARK SMILES IDX 33 77 39 78 32 79 34 80 35 81 36 82 37 83 61 84 62 85 70 86
REMARK SMILES IDX 63 87 65 88 71 89 64 90 66 91 67 92 68 93 69 94 46 95 47 96
REMARK SMILES IDX 55 97 48 98 50 99 56 100 49 101 51 102 52 103 53 104 54 105
REMARK H PARENT 12 7 17 39 76 58 44 69
REMARK Flexibility Score: inf
ROOT
ATOM      1  C   UNL A   1      35.980  20.097  25.001  1.00  0.00     0.023 C 
ENDROOT
BRANCH   1   2
ATOM      2  C   UNL A   1      36.002  18.621  24.626  1.00  0.00     0.023 C 
BRANCH   2   3
ATOM      3  C   UNL A   1      34.727  17.849  24.926  1.00  0.00     0.116 C 
BRANCH   3   4
ATOM      4  N   UNL A   1      33.963  17.512  23.736  1.00  0.00    -0.352 N 
ATOM      5  C   UNL A   1      32.965  18.208  23.102  1.00  0.00     0.251 C 
ATOM      6  O   UNL A   1      32.376  17.706  22.148  1.00  0.00    -0.269 OA
ATOM      7  H   UNL A   1      34.197  16.652  23.321  1.00  0.00     0.163 HD
BRANCH   5   8
ATOM      8  C   UNL A   1      32.573  19.558  23.561  1.00  0.00     0.039 A 
ATOM      9  C   UNL A   1      31.762  22.109  24.492  1.00  0.00     0.052 A 
ATOM     10  C   UNL A   1      31.960  21.033  25.379  1.00  0.00     0.027 A 
ATOM     11  C   UNL A   1      31.989  21.867  23.130  1.00  0.00     0.027 A 
ATOM     12  C   UNL A   1      32.363  19.771  24.922  1.00  0.00     0.016 A 
ATOM     13  C   UNL A   1      32.342  20.599  22.666  1.00  0.00     0.016 A 
BRANCH   9  14
ATOM     14  N   UNL A   1      31.155  23.331  24.905  1.00  0.00    -0.250 N 
ATOM     15  C   UNL A   1      29.368  26.327  24.613  1.00  0.00     0.024 C 
ATOM     16  C   UNL A   1      30.720  25.611  24.701  1.00  0.00     0.071 C 
ATOM     17  C   UNL A   1      30.628  24.261  24.039  1.00  0.00     0.241 C 
ATOM     18  C   UNL A   1      31.062  25.311  26.187  1.00  0.00     0.107 C 
ATOM     19  C   UNL A   1      31.922  26.350  24.015  1.00  0.00     0.066 C 
ATOM     20  O   UNL A   1      30.192  24.121  22.910  1.00  0.00    -0.273 OA
ATOM     21  C   UNL A   1      31.127  23.802  26.203  1.00  0.00     0.238 C 
ATOM     22  C   UNL A   1      32.409  26.006  26.586  1.00  0.00     0.063 C 
ATOM     23  C   UNL A   1      33.211  25.555  24.305  1.00  0.00    -0.036 A 
ATOM     24  C   UNL A   1      32.045  27.658  24.776  1.00  0.00    -0.036 A 
ATOM     25  O   UNL A   1      31.104  23.166  27.251  1.00  0.00    -0.274 OA
ATOM     26  C   UNL A   1      33.485  25.398  25.690  1.00  0.00    -0.036 A 
ATOM     27  C   UNL A   1      32.278  27.482  26.169  1.00  0.00    -0.036 A 
ATOM     28  C   UNL A   1      34.028  24.949  23.360  1.00  0.00     0.005 A 
ATOM     29  C   UNL A   1      31.933  28.917  24.206  1.00  0.00     0.005 A 
ATOM     30  C   UNL A   1      34.587  24.674  26.126  1.00  0.00     0.004 A 
ATOM     31  C   UNL A   1      32.398  28.594  26.987  1.00  0.00     0.004 A 
ATOM     32  C   UNL A   1      35.123  24.199  23.803  1.00  0.00     0.000 A 
ATOM     33  C   UNL A   1      32.050  30.027  25.036  1.00  0.00     0.000 A 
ATOM     34  C   UNL A   1      35.408  24.073  25.172  1.00  0.00     0.000 A 
ATOM     35  C   UNL A   1      32.280  29.867  26.412  1.00  0.00     0.000 A 
ENDBRANCH   9  14
ENDBRANCH   5   8
ENDBRANCH   3   4
ENDBRANCH   2   3
ENDBRANCH   1   2
BRANCH   1  36
ATOM     36  C   UNL A   1      37.337  20.787  25.056  1.00  0.00     0.116 C 
BRANCH  36  37
ATOM     37  N   UNL A   1      38.462  19.882  25.267  1.00  0.00    -0.352 N 
ATOM     38  C   UNL A   1      39.658  20.110  25.909  1.00  0.00     0.251 C 
ATOM     39  H   UNL A   1      38.348  18.977  24.897  1.00  0.00     0.163 HD
ATOM     40  O   UNL A   1      40.510  19.228  25.953  1.00  0.00    -0.269 OA
BRANCH  38  41
ATOM     41  C   UNL A   1      39.925  21.444  26.484  1.00  0.00     0.039 A 
ATOM     42  C   UNL A   1      39.275  22.572  25.985  1.00  0.00     0.014 A 
ATOM     43  C   UNL A   1      40.917  21.574  27.460  1.00  0.00     0.014 A 
ATOM     44  C   UNL A   1      39.770  23.833  26.292  1.00  0.00     0.010 A 
ATOM     45  C   UNL A   1      41.344  22.847  27.842  1.00  0.00     0.010 A 
ATOM     46  C   UNL A   1      40.825  23.986  27.206  1.00  0.00    -0.014 A 
BRANCH  46  47
ATOM     47  C   UNL A   1      41.383  25.342  27.457  1.00  0.00     0.031 A 
ATOM     48  C   UNL A   1      40.611  26.365  28.253  1.00  0.00     0.074 A 
ATOM     49  C   UNL A   1      42.617  25.637  27.005  1.00  0.00     0.049 A 
ATOM     50  N   UNL A   1      40.960  27.585  28.574  1.00  0.00    -0.248 NA
ATOM     51  C   UNL A   1      39.278  25.981  28.751  1.00  0.00     0.031 C 
ATOM     52  C   UNL A   1      43.454  24.745  26.200  1.00  0.00     0.029 A 
ATOM     53  N   UNL A   1      43.387  26.762  27.163  1.00  0.00    -0.354 N 
ATOM     54  C   UNL A   1      39.880  28.128  29.259  1.00  0.00     0.074 A 
ATOM     55  C   UNL A   1      38.860  27.106  29.319  1.00  0.00     0.031 C 
ATOM     56  C   UNL A   1      44.632  25.341  25.962  1.00  0.00     0.029 A 
ATOM     57  C   UNL A   1      44.616  26.675  26.552  1.00  0.00     0.049 A 
ATOM     58  H   UNL A   1      43.088  27.553  27.665  1.00  0.00     0.167 HD
ATOM     59  C   UNL A   1      39.758  29.359  29.808  1.00  0.00     0.034 A 
ATOM     60  C   UNL A   1      45.617  27.572  26.460  1.00  0.00     0.034 A 
ATOM     61  C   UNL A   1      40.800  30.349  29.820  1.00  0.00     0.049 A 
ATOM     62  C   UNL A   1      45.472  28.909  27.122  1.00  0.00     0.074 A 
ATOM     63  C   UNL A   1      40.781  31.601  30.411  1.00  0.00     0.029 A 
ATOM     64  N   UNL A   1      42.043  30.203  29.229  1.00  0.00    -0.354 N 
ATOM     65  N   UNL A   1      44.475  29.364  27.840  1.00  0.00    -0.248 NA
ATOM     66  C   UNL A   1      46.591  29.852  26.977  1.00  0.00     0.031 C 
ATOM     67  C   UNL A   1      42.016  32.212  30.179  1.00  0.00     0.029 A 
ATOM     68  C   UNL A   1      42.801  31.340  29.443  1.00  0.00     0.049 A 
ATOM     69  H   UNL A   1      42.343  29.407  28.732  1.00  0.00     0.167 HD
ATOM     70  C   UNL A   1      44.846  30.642  28.236  1.00  0.00     0.074 A 
ATOM     71  C   UNL A   1      46.171  30.880  27.705  1.00  0.00     0.031 C 
ATOM     72  C   UNL A   1      44.137  31.544  28.953  1.00  0.00     0.034 A 
BRANCH  59  73
ATOM     73  C   UNL A   1      38.475  29.713  30.508  1.00  0.00     0.023 A 
ATOM     74  C   UNL A   1      38.276  29.278  31.832  1.00  0.00     0.012 A 
ATOM     75  C   UNL A   1      37.554  30.601  29.918  1.00  0.00     0.148 A 
ATOM     76  C   UNL A   1      37.178  29.724  32.565  1.00  0.00     0.002 A 
ATOM     77  C   UNL A   1      36.475  31.062  30.663  1.00  0.00     0.091 A 
ATOM     78  F   UNL A   1      37.770  30.997  28.657  1.00  0.00    -0.205 F 
ATOM     79  C   UNL A   1      36.285  30.624  31.985  1.00  0.00     0.022 A 
BRANCH  77  80
ATOM     80  S   UNL A   1      35.297  32.265  30.036  1.00  0.00     0.127 S 
ATOM     81  O   UNL A   1      34.403  32.427  31.183  1.00  0.00    -0.237 OA
ATOM     82  O   UNL A   1      36.155  33.417  29.764  1.00  0.00    -0.237 OA
ATOM     83  O   UNL A   1      34.684  31.659  28.863  1.00  0.00    -0.744 OA
ENDBRANCH  77  80
ENDBRANCH  59  73
BRANCH  60  84
ATOM     84  C   UNL A   1      46.856  27.200  25.727  1.00  0.00     0.023 A 
ATOM     85  C   UNL A   1      47.785  26.332  26.329  1.00  0.00     0.012 A 
ATOM     86  C   UNL A   1      47.073  27.638  24.407  1.00  0.00     0.148 A 
ATOM     87  C   UNL A   1      48.917  25.912  25.630  1.00  0.00     0.002 A 
ATOM     88  C   UNL A   1      48.175  27.177  23.698  1.00  0.00     0.091 A 
ATOM     89  F   UNL A   1      46.180  28.477  23.862  1.00  0.00    -0.205 F 
ATOM     90  C   UNL A   1      49.104  26.323  24.311  1.00  0.00     0.022 A 
BRANCH  88  91
ATOM     91  S   UNL A   1      48.419  27.550  21.958  1.00  0.00     0.127 S 
ATOM     92  O   UNL A   1      47.160  28.203  21.613  1.00  0.00    -0.237 OA
ATOM     93  O   UNL A   1      49.583  28.436  21.999  1.00  0.00    -0.237 OA
ATOM     94  O   UNL A   1      48.667  26.267  21.316  1.00  0.00    -0.744 OA
ENDBRANCH  88  91
ENDBRANCH  60  84
BRANCH  72  95
ATOM     95  C   UNL A   1      44.763  32.884  29.218  1.00  0.00     0.023 A 
ATOM     96  C   UNL A   1      45.567  33.046  30.362  1.00  0.00     0.012 A 
ATOM     97  C   UNL A   1      44.662  33.928  28.280  1.00  0.00     0.148 A 
ATOM     98  C   UNL A   1      46.261  34.236  30.572  1.00  0.00     0.002 A 
ATOM     99  C   UNL A   1      45.382  35.099  28.480  1.00  0.00     0.091 A 
ATOM    100  F   UNL A   1      43.881  33.746  27.205  1.00  0.00    -0.205 F 
ATOM    101  C   UNL A   1      46.178  35.256  29.627  1.00  0.00     0.022 A 
BRANCH  99 102
ATOM    102  S   UNL A   1      45.397  36.441  27.286  1.00  0.00     0.127 S 
ATOM    103  O   UNL A   1      46.252  37.422  27.952  1.00  0.00    -0.237 OA
ATOM    104  O   UNL A   1      45.997  35.804  26.113  1.00  0.00    -0.237 OA
ATOM    105  O   UNL A   1      44.008  36.844  27.114  1.00  0.00    -0.744 OA
ENDBRANCH  99 102
ENDBRANCH  72  95
ENDBRANCH  46  47
ENDBRANCH  38  41
ENDBRANCH  36  37
ENDBRANCH   1  36
TORSDOF 15
ENDMDL
