MODEL 1
REMARK VINA RESULT:     -10.9      0.000      0.000
REMARK SMILES Cc1cc(Br)cnc1SCC1(CC(=O)NCCCCNC(=O)c2ccc(-c3c4nc(c(-c5cccc(S(=O)(=O)[O-])c5F)c5ccc([nH]5)c(-c5cccc(S(=O)(=O)[O-])c5F)c5nc(c(-c6cccc(S(=O)(=O)[O-])c6F)c6ccc3[nH]6)C=C5)C=C4)cc2)CC1
REMARK SMILES IDX 17 1 16 2 15 3 13 4 14 5 12 7 11 8 86 9 87 10 10 11 9 12
REMARK SMILES IDX 8 13 1 14 2 15 3 16 4 17 7 18 5 19 6 20 18 21 19 22 20 23
REMARK SMILES IDX 21 24 22 26 23 27 24 28 85 29 25 30 84 31 26 32 27 33 28 34
REMARK SMILES IDX 78 35 29 36 83 37 77 38 79 39 30 40 82 41 76 42 75 43 31 45
REMARK SMILES IDX 63 46 43 47 62 48 44 49 47 50 61 51 80 52 45 53 46 54 60 56
REMARK SMILES IDX 81 57 48 58 32 59 33 60 41 61 34 62 36 63 42 64 35 65 37 66
REMARK SMILES IDX 38 67 39 68 40 69 64 70 65 71 73 72 66 73 68 74 74 75 67 76
REMARK SMILES IDX 69 77 70 78 71 79 72 80 49 81 50 82 58 83 51 84 53 85 59 86
REMARK SMILES IDX 52 87 54 88 55 89 56 90 57 91
REMARK H PARENT 15 6 20 25 79 44 47 55
REMARK Flexibility Score: inf
ROOT
ATOM      1  C   UNL A   1      37.070  21.233  24.780  1.00  0.00     0.023 C 
ENDROOT
BRANCH   1   2
ATOM      2  C   UNL A   1      35.599  20.851  24.954  1.00  0.00     0.116 C 
BRANCH   2   3
ATOM      3  N   UNL A   1      35.146  21.089  26.308  1.00  0.00    -0.356 N 
ATOM      4  C   UNL A   1      34.489  22.170  26.818  1.00  0.00     0.220 C 
ATOM      5  O   UNL A   1      34.234  22.182  28.022  1.00  0.00    -0.275 OA
ATOM      6  H   UNL A   1      35.337  20.368  26.950  1.00  0.00     0.163 HD
BRANCH   4   7
ATOM      7  C   UNL A   1      34.072  23.319  25.911  1.00  0.00     0.107 C 
BRANCH   7   8
ATOM      8  C   UNL A   1      32.599  23.367  25.513  1.00  0.00    -0.011 C 
ATOM      9  C   UNL A   1      32.159  24.597  24.727  1.00  0.00     0.009 C 
ATOM     10  C   UNL A   1      31.717  24.446  26.140  1.00  0.00     0.009 C 
BRANCH   8  11
ATOM     11  C   UNL A   1      31.934  22.029  25.264  1.00  0.00     0.084 C 
BRANCH  11  12
ATOM     12  S   UNL A   1      32.149  21.229  23.662  1.00  0.00    -0.106 SA
BRANCH  12  13
ATOM     13  C   UNL A   1      32.465  19.510  23.976  1.00  0.00     0.099 A 
ATOM     14  C   UNL A   1      32.314  18.609  21.557  1.00  0.00     0.047 C 
ATOM     15  C   UNL A   1      32.501  18.468  23.039  1.00  0.00    -0.018 A 
ATOM     16  C   UNL A   1      32.659  17.151  23.521  1.00  0.00     0.023 A 
ATOM     17  C   UNL A   1      32.727  16.904  24.883  1.00  0.00     0.036 A 
ATOM     18  N   UNL A   1      32.541  19.259  25.311  1.00  0.00    -0.248 NA
ATOM     19  Br  UNL A   1      32.881  15.145  25.540  1.00  0.00    -0.049 Br
ATOM     20  C   UNL A   1      32.654  17.981  25.737  1.00  0.00     0.128 A 
ENDBRANCH  12  13
ENDBRANCH  11  12
ENDBRANCH   8  11
ENDBRANCH   7   8
ENDBRANCH   4   7
ENDBRANCH   2   3
ENDBRANCH   1   2
BRANCH   1  21
ATOM     21  C   UNL A   1      38.048  20.060  24.801  1.00  0.00     0.023 C 
BRANCH  21  22
ATOM     22  C   UNL A   1      38.828  19.888  26.098  1.00  0.00     0.116 C 
BRANCH  22  23
ATOM     23  N   UNL A   1      40.059  19.124  25.950  1.00  0.00    -0.352 N 
ATOM     24  C   UNL A   1      41.353  19.571  26.096  1.00  0.00     0.251 C 
ATOM     25  H   UNL A   1      39.954  18.173  25.717  1.00  0.00     0.163 HD
ATOM     26  O   UNL A   1      42.301  18.827  25.860  1.00  0.00    -0.269 OA
BRANCH  24  27
ATOM     27  C   UNL A   1      41.578  20.975  26.494  1.00  0.00     0.039 A 
ATOM     28  C   UNL A   1      42.054  21.248  27.778  1.00  0.00     0.014 A 
ATOM     29  C   UNL A   1      41.396  22.006  25.569  1.00  0.00     0.014 A 
ATOM     30  C   UNL A   1      42.424  22.553  28.110  1.00  0.00     0.010 A 
ATOM     31  C   UNL A   1      41.841  23.286  25.875  1.00  0.00     0.010 A 
ATOM     32  C   UNL A   1      42.360  23.573  27.147  1.00  0.00    -0.014 A 
BRANCH  32  33
ATOM     33  C   UNL A   1      42.840  24.946  27.437  1.00  0.00     0.031 A 
ATOM     34  C   UNL A   1      41.916  25.946  28.076  1.00  0.00     0.074 A 
ATOM     35  C   UNL A   1      44.065  25.324  27.022  1.00  0.00     0.049 A 
ATOM     36  N   UNL A   1      42.122  27.211  28.334  1.00  0.00    -0.248 NA
ATOM     37  C   UNL A   1      40.571  25.470  28.441  1.00  0.00     0.031 C 
ATOM     38  C   UNL A   1      45.017  24.474  26.303  1.00  0.00     0.029 A 
ATOM     39  N   UNL A   1      44.709  26.532  27.118  1.00  0.00    -0.354 N 
ATOM     40  C   UNL A   1      40.924  27.692  28.846  1.00  0.00     0.074 A 
ATOM     41  C   UNL A   1      39.984  26.593  28.831  1.00  0.00     0.031 C 
ATOM     42  C   UNL A   1      46.122  25.185  26.027  1.00  0.00     0.029 A 
ATOM     43  C   UNL A   1      45.952  26.545  26.528  1.00  0.00     0.049 A 
ATOM     44  H   UNL A   1      44.319  27.317  27.567  1.00  0.00     0.167 HD
ATOM     45  C   UNL A   1      40.641  28.927  29.323  1.00  0.00     0.034 A 
ATOM     46  C   UNL A   1      46.851  27.541  26.405  1.00  0.00     0.034 A 
ATOM     47  C   UNL A   1      41.597  29.997  29.397  1.00  0.00     0.049 A 
ATOM     48  C   UNL A   1      46.540  28.883  27.011  1.00  0.00     0.074 A 
ATOM     49  C   UNL A   1      41.444  31.250  29.961  1.00  0.00     0.029 A 
ATOM     50  N   UNL A   1      42.887  29.938  28.894  1.00  0.00    -0.354 N 
ATOM     51  N   UNL A   1      45.463  29.269  27.652  1.00  0.00    -0.248 NA
ATOM     52  C   UNL A   1      47.583  29.916  26.914  1.00  0.00     0.031 C 
ATOM     53  C   UNL A   1      42.641  31.954  29.790  1.00  0.00     0.029 A 
ATOM     54  C   UNL A   1      43.543  31.133  29.130  1.00  0.00     0.049 A 
ATOM     55  H   UNL A   1      43.279  29.160  28.435  1.00  0.00     0.167 HD
ATOM     56  C   UNL A   1      45.709  30.573  28.062  1.00  0.00     0.074 A 
ATOM     57  C   UNL A   1      47.047  30.906  27.616  1.00  0.00     0.031 C 
ATOM     58  C   UNL A   1      44.895  31.426  28.732  1.00  0.00     0.034 A 
BRANCH  45  59
ATOM     59  C   UNL A   1      39.256  29.161  29.869  1.00  0.00     0.023 A 
ATOM     60  C   UNL A   1      38.944  28.721  31.172  1.00  0.00     0.012 A 
ATOM     61  C   UNL A   1      38.281  29.844  29.118  1.00  0.00     0.148 A 
ATOM     62  C   UNL A   1      37.673  28.923  31.705  1.00  0.00     0.002 A 
ATOM     63  C   UNL A   1      37.028  30.080  29.674  1.00  0.00     0.091 A 
ATOM     64  F   UNL A   1      38.586  30.232  27.871  1.00  0.00    -0.205 F 
ATOM     65  C   UNL A   1      36.719  29.611  30.961  1.00  0.00     0.022 A 
BRANCH  63  66
ATOM     66  S   UNL A   1      35.758  31.023  28.822  1.00  0.00     0.127 S 
ATOM     67  O   UNL A   1      35.102  29.985  28.029  1.00  0.00    -0.237 OA
ATOM     68  O   UNL A   1      34.957  31.539  29.932  1.00  0.00    -0.237 OA
ATOM     69  O   UNL A   1      36.465  32.045  28.061  1.00  0.00    -0.744 OA
ENDBRANCH  63  66
ENDBRANCH  45  59
BRANCH  46  70
ATOM     70  C   UNL A   1      48.168  27.275  25.758  1.00  0.00     0.023 A 
ATOM     71  C   UNL A   1      49.219  26.750  26.536  1.00  0.00     0.012 A 
ATOM     72  C   UNL A   1      48.373  27.491  24.383  1.00  0.00     0.148 A 
ATOM     73  C   UNL A   1      50.459  26.472  25.961  1.00  0.00     0.002 A 
ATOM     74  C   UNL A   1      49.595  27.163  23.806  1.00  0.00     0.091 A 
ATOM     75  F   UNL A   1      47.365  28.002  23.663  1.00  0.00    -0.205 F 
ATOM     76  C   UNL A   1      50.645  26.667  24.596  1.00  0.00     0.022 A 
BRANCH  74  77
ATOM     77  S   UNL A   1      49.879  27.257  22.034  1.00  0.00     0.127 S 
ATOM     78  O   UNL A   1      51.258  26.790  21.926  1.00  0.00    -0.237 OA
ATOM     79  O   UNL A   1      48.871  26.331  21.516  1.00  0.00    -0.237 OA
ATOM     80  O   UNL A   1      49.649  28.651  21.676  1.00  0.00    -0.744 OA
ENDBRANCH  74  77
ENDBRANCH  46  70
BRANCH  58  81
ATOM     81  C   UNL A   1      45.431  32.795  29.054  1.00  0.00     0.023 A 
ATOM     82  C   UNL A   1      46.085  33.014  30.283  1.00  0.00     0.012 A 
ATOM     83  C   UNL A   1      45.365  33.836  28.108  1.00  0.00     0.148 A 
ATOM     84  C   UNL A   1      46.643  34.258  30.575  1.00  0.00     0.002 A 
ATOM     85  C   UNL A   1      45.963  35.060  28.389  1.00  0.00     0.091 A 
ATOM     86  F   UNL A   1      44.720  33.614  26.954  1.00  0.00    -0.205 F 
ATOM     87  C   UNL A   1      46.594  35.275  29.625  1.00  0.00     0.022 A 
BRANCH  85  88
ATOM     88  S   UNL A   1      46.028  36.391  27.185  1.00  0.00     0.127 S 
ATOM     89  O   UNL A   1      44.682  36.950  27.286  1.00  0.00    -0.237 OA
ATOM     90  O   UNL A   1      47.086  37.248  27.722  1.00  0.00    -0.237 OA
ATOM     91  O   UNL A   1      46.354  35.761  25.912  1.00  0.00    -0.744 OA
ENDBRANCH  85  88
ENDBRANCH  58  81
ENDBRANCH  32  33
ENDBRANCH  24  27
ENDBRANCH  22  23
ENDBRANCH  21  22
ENDBRANCH   1  21
TORSDOF 18
ENDMDL
MODEL 2
REMARK VINA RESULT:     -10.5      6.865     11.919
REMARK SMILES Cc1cc(Br)cnc1SCC1(CC(=O)NCCCCNC(=O)c2ccc(-c3c4nc(c(-c5cccc(S(=O)(=O)[O-])c5F)c5ccc([nH]5)c(-c5cccc(S(=O)(=O)[O-])c5F)c5nc(c(-c6cccc(S(=O)(=O)[O-])c6F)c6ccc3[nH]6)C=C5)C=C4)cc2)CC1
REMARK SMILES IDX 17 1 16 2 15 3 13 4 14 5 12 7 11 8 86 9 87 10 10 11 9 12
REMARK SMILES IDX 8 13 1 14 2 15 3 16 4 17 7 18 5 19 6 20 18 21 19 22 20 23
REMARK SMILES IDX 21 24 22 26 23 27 24 28 85 29 25 30 84 31 26 32 27 33 28 34
REMARK SMILES IDX 78 35 29 36 83 37 77 38 79 39 30 40 82 41 76 42 75 43 31 45
REMARK SMILES IDX 63 46 43 47 62 48 44 49 47 50 61 51 80 52 45 53 46 54 60 56
REMARK SMILES IDX 81 57 48 58 32 59 33 60 41 61 34 62 36 63 42 64 35 65 37 66
REMARK SMILES IDX 38 67 39 68 40 69 64 70 65 71 73 72 66 73 68 74 74 75 67 76
REMARK SMILES IDX 69 77 70 78 71 79 72 80 49 81 50 82 58 83 51 84 53 85 59 86
REMARK SMILES IDX 52 87 54 88 55 89 56 90 57 91
REMARK H PARENT 15 6 20 25 79 44 47 55
REMARK Flexibility Score: inf
ROOT
ATOM      1  C   UNL A   1      33.628  30.040  27.302  1.00  0.00     0.023 C 
ENDROOT
BRANCH   1   2
ATOM      2  C   UNL A   1      33.097  29.258  26.100  1.00  0.00     0.116 C 
BRANCH   2   3
ATOM      3  N   UNL A   1      32.238  28.169  26.512  1.00  0.00    -0.356 N 
ATOM      4  C   UNL A   1      32.422  26.825  26.365  1.00  0.00     0.220 C 
ATOM      5  O   UNL A   1      31.532  26.069  26.756  1.00  0.00    -0.275 OA
ATOM      6  H   UNL A   1      31.405  28.435  26.963  1.00  0.00     0.163 HD
BRANCH   4   7
ATOM      7  C   UNL A   1      33.704  26.284  25.748  1.00  0.00     0.107 C 
BRANCH   7   8
ATOM      8  C   UNL A   1      33.690  24.813  25.338  1.00  0.00    -0.011 C 
ATOM      9  C   UNL A   1      33.941  23.806  26.455  1.00  0.00     0.009 C 
ATOM     10  C   UNL A   1      34.997  24.027  25.428  1.00  0.00     0.009 C 
BRANCH   8  11
ATOM     11  C   UNL A   1      32.779  24.455  24.183  1.00  0.00     0.084 C 
BRANCH  11  12
ATOM     12  S   UNL A   1      33.011  25.281  22.596  1.00  0.00    -0.106 SA
BRANCH  12  13
ATOM     13  C   UNL A   1      32.071  26.786  22.648  1.00  0.00     0.099 A 
ATOM     14  C   UNL A   1      34.009  28.493  22.520  1.00  0.00     0.047 C 
ATOM     15  C   UNL A   1      32.565  28.098  22.629  1.00  0.00    -0.018 A 
ATOM     16  C   UNL A   1      31.644  29.154  22.794  1.00  0.00     0.023 A 
ATOM     17  C   UNL A   1      30.301  28.888  23.015  1.00  0.00     0.036 A 
ATOM     18  N   UNL A   1      30.750  26.535  22.858  1.00  0.00    -0.248 NA
ATOM     19  Br  UNL A   1      29.072  30.288  23.293  1.00  0.00    -0.049 Br
ATOM     20  C   UNL A   1      29.904  27.570  23.050  1.00  0.00     0.128 A 
ENDBRANCH  12  13
ENDBRANCH  11  12
ENDBRANCH   8  11
ENDBRANCH   7   8
ENDBRANCH   4   7
ENDBRANCH   2   3
ENDBRANCH   1   2
BRANCH   1  21
ATOM     21  C   UNL A   1      32.879  31.334  27.614  1.00  0.00     0.023 C 
BRANCH  21  22
ATOM     22  C   UNL A   1      33.577  32.612  27.169  1.00  0.00     0.116 C 
BRANCH  22  23
ATOM     23  N   UNL A   1      32.921  33.832  27.621  1.00  0.00    -0.352 N 
ATOM     24  C   UNL A   1      33.215  34.585  28.734  1.00  0.00     0.251 C 
ATOM     25  H   UNL A   1      32.178  34.156  27.063  1.00  0.00     0.163 HD
ATOM     26  O   UNL A   1      32.520  35.552  29.035  1.00  0.00    -0.269 OA
BRANCH  24  27
ATOM     27  C   UNL A   1      34.352  34.180  29.586  1.00  0.00     0.039 A 
ATOM     28  C   UNL A   1      34.109  33.382  30.706  1.00  0.00     0.014 A 
ATOM     29  C   UNL A   1      35.658  34.522  29.225  1.00  0.00     0.014 A 
ATOM     30  C   UNL A   1      35.188  32.859  31.422  1.00  0.00     0.010 A 
ATOM     31  C   UNL A   1      36.726  33.935  29.889  1.00  0.00     0.010 A 
ATOM     32  C   UNL A   1      36.503  33.098  30.993  1.00  0.00    -0.014 A 
BRANCH  32  33
ATOM     33  C   UNL A   1      37.666  32.475  31.672  1.00  0.00     0.031 A 
ATOM     34  C   UNL A   1      38.409  31.348  31.007  1.00  0.00     0.074 A 
ATOM     35  C   UNL A   1      37.979  32.844  32.930  1.00  0.00     0.049 A 
ATOM     36  N   UNL A   1      39.394  30.624  31.471  1.00  0.00    -0.248 NA
ATOM     37  C   UNL A   1      37.963  30.961  29.658  1.00  0.00     0.031 C 
ATOM     38  C   UNL A   1      37.272  33.855  33.718  1.00  0.00     0.029 A 
ATOM     39  N   UNL A   1      38.957  32.389  33.779  1.00  0.00    -0.354 N 
ATOM     40  C   UNL A   1      39.654  29.672  30.495  1.00  0.00     0.074 A 
ATOM     41  C   UNL A   1      38.701  29.885  29.428  1.00  0.00     0.031 C 
ATOM     42  C   UNL A   1      37.840  33.947  34.931  1.00  0.00     0.029 A 
ATOM     43  C   UNL A   1      38.936  32.987  35.018  1.00  0.00     0.049 A 
ATOM     44  H   UNL A   1      39.612  31.699  33.526  1.00  0.00     0.167 HD
ATOM     45  C   UNL A   1      40.624  28.727  30.469  1.00  0.00     0.034 A 
ATOM     46  C   UNL A   1      39.713  32.784  36.100  1.00  0.00     0.034 A 
ATOM     47  C   UNL A   1      41.610  28.561  31.501  1.00  0.00     0.049 A 
ATOM     48  C   UNL A   1      40.830  31.780  36.017  1.00  0.00     0.074 A 
ATOM     49  C   UNL A   1      42.697  27.708  31.522  1.00  0.00     0.029 A 
ATOM     50  N   UNL A   1      41.628  29.265  32.695  1.00  0.00    -0.354 N 
ATOM     51  N   UNL A   1      41.173  31.008  35.014  1.00  0.00    -0.248 NA
ATOM     52  C   UNL A   1      41.696  31.647  37.199  1.00  0.00     0.031 C 
ATOM     53  C   UNL A   1      43.371  27.890  32.735  1.00  0.00     0.029 A 
ATOM     54  C   UNL A   1      42.707  28.866  33.463  1.00  0.00     0.049 A 
ATOM     55  H   UNL A   1      40.970  29.948  32.957  1.00  0.00     0.167 HD
ATOM     56  C   UNL A   1      42.308  30.323  35.429  1.00  0.00     0.074 A 
ATOM     57  C   UNL A   1      42.610  30.787  36.768  1.00  0.00     0.031 C 
ATOM     58  C   UNL A   1      43.026  29.382  34.769  1.00  0.00     0.034 A 
BRANCH  45  59
ATOM     59  C   UNL A   1      40.705  27.847  29.248  1.00  0.00     0.023 A 
ATOM     60  C   UNL A   1      39.873  26.712  29.158  1.00  0.00     0.012 A 
ATOM     61  C   UNL A   1      41.567  28.158  28.180  1.00  0.00     0.148 A 
ATOM     62  C   UNL A   1      39.923  25.880  28.042  1.00  0.00     0.002 A 
ATOM     63  C   UNL A   1      41.581  27.346  27.051  1.00  0.00     0.091 A 
ATOM     64  F   UNL A   1      42.371  29.226  28.293  1.00  0.00    -0.205 F 
ATOM     65  C   UNL A   1      40.769  26.202  26.985  1.00  0.00     0.022 A 
BRANCH  63  66
ATOM     66  S   UNL A   1      42.582  27.721  25.607  1.00  0.00     0.127 S 
ATOM     67  O   UNL A   1      42.352  26.541  24.775  1.00  0.00    -0.237 OA
ATOM     68  O   UNL A   1      41.960  28.948  25.107  1.00  0.00    -0.237 OA
ATOM     69  O   UNL A   1      43.942  27.890  26.098  1.00  0.00    -0.744 OA
ENDBRANCH  63  66
ENDBRANCH  45  59
BRANCH  46  70
ATOM     70  C   UNL A   1      39.514  33.617  37.321  1.00  0.00     0.023 A 
ATOM     71  C   UNL A   1      40.059  34.916  37.360  1.00  0.00     0.012 A 
ATOM     72  C   UNL A   1      38.760  33.155  38.416  1.00  0.00     0.148 A 
ATOM     73  C   UNL A   1      39.878  35.730  38.478  1.00  0.00     0.002 A 
ATOM     74  C   UNL A   1      38.540  33.991  39.505  1.00  0.00     0.091 A 
ATOM     75  F   UNL A   1      38.260  31.913  38.364  1.00  0.00    -0.205 F 
ATOM     76  C   UNL A   1      39.111  35.273  39.546  1.00  0.00     0.022 A 
BRANCH  74  77
ATOM     77  S   UNL A   1      37.455  33.535  40.864  1.00  0.00     0.127 S 
ATOM     78  O   UNL A   1      36.272  33.056  40.154  1.00  0.00    -0.237 OA
ATOM     79  O   UNL A   1      38.234  32.496  41.538  1.00  0.00    -0.237 OA
ATOM     80  O   UNL A   1      37.278  34.752  41.646  1.00  0.00    -0.744 OA
ENDBRANCH  74  77
ENDBRANCH  46  70
BRANCH  58  81
ATOM     81  C   UNL A   1      44.229  28.805  35.466  1.00  0.00     0.023 A 
ATOM     82  C   UNL A   1      45.500  29.372  35.243  1.00  0.00     0.012 A 
ATOM     83  C   UNL A   1      44.089  27.764  36.404  1.00  0.00     0.148 A 
ATOM     84  C   UNL A   1      46.617  28.894  35.926  1.00  0.00     0.002 A 
ATOM     85  C   UNL A   1      45.201  27.322  37.113  1.00  0.00     0.091 A 
ATOM     86  F   UNL A   1      42.875  27.224  36.585  1.00  0.00    -0.205 F 
ATOM     87  C   UNL A   1      46.466  27.879  36.869  1.00  0.00     0.022 A 
BRANCH  85  88
ATOM     88  S   UNL A   1      45.078  26.087  38.412  1.00  0.00     0.127 S 
ATOM     89  O   UNL A   1      46.476  25.934  38.810  1.00  0.00    -0.237 OA
ATOM     90  O   UNL A   1      44.232  26.756  39.401  1.00  0.00    -0.237 OA
ATOM     91  O   UNL A   1      44.469  24.917  37.793  1.00  0.00    -0.744 OA
ENDBRANCH  85  88
ENDBRANCH  58  81
ENDBRANCH  32  33
ENDBRANCH  24  27
ENDBRANCH  22  23
ENDBRANCH  21  22
ENDBRANCH   1  21
TORSDOF 18
ENDMDL
MODEL 3
REMARK VINA RESULT:     -10.5      2.956      8.659
REMARK SMILES Cc1cc(Br)cnc1SCC1(CC(=O)NCCCCNC(=O)c2ccc(-c3c4nc(c(-c5cccc(S(=O)(=O)[O-])c5F)c5ccc([nH]5)c(-c5cccc(S(=O)(=O)[O-])c5F)c5nc(c(-c6cccc(S(=O)(=O)[O-])c6F)c6ccc3[nH]6)C=C5)C=C4)cc2)CC1
REMARK SMILES IDX 17 1 16 2 15 3 13 4 14 5 12 7 11 8 86 9 87 10 10 11 9 12
REMARK SMILES IDX 8 13 1 14 2 15 3 16 4 17 7 18 5 19 6 20 18 21 19 22 20 23
REMARK SMILES IDX 21 24 22 26 23 27 24 28 85 29 25 30 84 31 26 32 27 33 28 34
REMARK SMILES IDX 78 35 29 36 83 37 77 38 79 39 30 40 82 41 76 42 75 43 31 45
REMARK SMILES IDX 63 46 43 47 62 48 44 49 47 50 61 51 80 52 45 53 46 54 60 56
REMARK SMILES IDX 81 57 48 58 32 59 33 60 41 61 34 62 36 63 42 64 35 65 37 66
REMARK SMILES IDX 38 67 39 68 40 69 64 70 65 71 73 72 66 73 68 74 74 75 67 76
REMARK SMILES IDX 69 77 70 78 71 79 72 80 49 81 50 82 58 83 51 84 53 85 59 86
REMARK SMILES IDX 52 87 54 88 55 89 56 90 57 91
REMARK H PARENT 15 6 20 25 79 44 47 55
REMARK Flexibility Score: inf
ROOT
ATOM      1  C   UNL A   1      34.716  21.370  25.677  1.00  0.00     0.023 C 
ENDROOT
BRANCH   1   2
ATOM      2  C   UNL A   1      34.743  22.373  26.830  1.00  0.00     0.116 C 
BRANCH   2   3
ATOM      3  N   UNL A   1      33.408  22.719  27.266  1.00  0.00    -0.356 N 
ATOM      4  C   UNL A   1      32.531  23.614  26.725  1.00  0.00     0.220 C 
ATOM      5  O   UNL A   1      31.450  23.784  27.290  1.00  0.00    -0.275 OA
ATOM      6  H   UNL A   1      33.086  22.240  28.063  1.00  0.00     0.163 HD
BRANCH   4   7
ATOM      7  C   UNL A   1      32.882  24.365  25.449  1.00  0.00     0.107 C 
BRANCH   7   8
ATOM      8  C   UNL A   1      32.060  24.018  24.211  1.00  0.00    -0.011 C 
ATOM      9  C   UNL A   1      31.722  22.543  24.025  1.00  0.00     0.009 C 
ATOM     10  C   UNL A   1      32.719  23.176  23.119  1.00  0.00     0.009 C 
BRANCH   8  11
ATOM     11  C   UNL A   1      31.095  25.084  23.734  1.00  0.00     0.084 C 
BRANCH  11  12
ATOM     12  S   UNL A   1      31.632  26.243  22.460  1.00  0.00    -0.106 SA
BRANCH  12  13
ATOM     13  C   UNL A   1      30.973  27.835  22.892  1.00  0.00     0.099 A 
ATOM     14  C   UNL A   1      32.194  28.195  25.143  1.00  0.00     0.047 C 
ATOM     15  C   UNL A   1      31.246  28.582  24.046  1.00  0.00    -0.018 A 
ATOM     16  C   UNL A   1      30.524  29.778  24.244  1.00  0.00     0.023 A 
ATOM     17  C   UNL A   1      29.544  30.166  23.344  1.00  0.00     0.036 A 
ATOM     18  N   UNL A   1      30.016  28.227  22.009  1.00  0.00    -0.248 NA
ATOM     19  Br  UNL A   1      28.534  31.731  23.628  1.00  0.00    -0.049 Br
ATOM     20  C   UNL A   1      29.318  29.358  22.252  1.00  0.00     0.128 A 
ENDBRANCH  12  13
ENDBRANCH  11  12
ENDBRANCH   8  11
ENDBRANCH   7   8
ENDBRANCH   4   7
ENDBRANCH   2   3
ENDBRANCH   1   2
BRANCH   1  21
ATOM     21  C   UNL A   1      35.907  21.447  24.724  1.00  0.00     0.023 C 
BRANCH  21  22
ATOM     22  C   UNL A   1      37.192  21.991  25.333  1.00  0.00     0.116 C 
BRANCH  22  23
ATOM     23  N   UNL A   1      38.219  20.979  25.546  1.00  0.00    -0.352 N 
ATOM     24  C   UNL A   1      39.454  21.141  26.131  1.00  0.00     0.251 C 
ATOM     25  H   UNL A   1      38.004  20.071  25.233  1.00  0.00     0.163 HD
ATOM     26  O   UNL A   1      40.253  20.209  26.169  1.00  0.00    -0.269 OA
BRANCH  24  27
ATOM     27  C   UNL A   1      39.818  22.468  26.666  1.00  0.00     0.039 A 
ATOM     28  C   UNL A   1      40.725  22.547  27.724  1.00  0.00     0.014 A 
ATOM     29  C   UNL A   1      39.325  23.629  26.063  1.00  0.00     0.014 A 
ATOM     30  C   UNL A   1      41.201  23.796  28.128  1.00  0.00     0.010 A 
ATOM     31  C   UNL A   1      39.861  24.861  26.413  1.00  0.00     0.010 A 
ATOM     32  C   UNL A   1      40.803  24.958  27.448  1.00  0.00    -0.014 A 
BRANCH  32  33
ATOM     33  C   UNL A   1      41.367  26.288  27.787  1.00  0.00     0.031 A 
ATOM     34  C   UNL A   1      42.780  26.627  27.398  1.00  0.00     0.074 A 
ATOM     35  C   UNL A   1      40.649  27.142  28.542  1.00  0.00     0.049 A 
ATOM     36  N   UNL A   1      43.476  27.698  27.674  1.00  0.00    -0.248 NA
ATOM     37  C   UNL A   1      43.521  25.611  26.629  1.00  0.00     0.031 C 
ATOM     38  C   UNL A   1      39.304  26.889  29.065  1.00  0.00     0.029 A 
ATOM     39  N   UNL A   1      40.962  28.387  29.028  1.00  0.00    -0.354 N 
ATOM     40  C   UNL A   1      44.744  27.469  27.155  1.00  0.00     0.074 A 
ATOM     41  C   UNL A   1      44.734  26.142  26.579  1.00  0.00     0.031 C 
ATOM     42  C   UNL A   1      38.907  27.945  29.793  1.00  0.00     0.029 A 
ATOM     43  C   UNL A   1      39.974  28.941  29.809  1.00  0.00     0.049 A 
ATOM     44  H   UNL A   1      41.813  28.843  28.835  1.00  0.00     0.167 HD
ATOM     45  C   UNL A   1      45.811  28.301  27.125  1.00  0.00     0.034 A 
ATOM     46  C   UNL A   1      39.933  30.117  30.465  1.00  0.00     0.034 A 
ATOM     47  C   UNL A   1      45.797  29.643  27.640  1.00  0.00     0.049 A 
ATOM     48  C   UNL A   1      41.105  31.055  30.353  1.00  0.00     0.074 A 
ATOM     49  C   UNL A   1      46.788  30.604  27.564  1.00  0.00     0.029 A 
ATOM     50  N   UNL A   1      44.736  30.213  28.326  1.00  0.00    -0.354 N 
ATOM     51  N   UNL A   1      42.233  30.891  29.705  1.00  0.00    -0.248 NA
ATOM     52  C   UNL A   1      40.984  32.356  31.026  1.00  0.00     0.031 C 
ATOM     53  C   UNL A   1      46.328  31.756  28.213  1.00  0.00     0.029 A 
ATOM     54  C   UNL A   1      45.046  31.513  28.682  1.00  0.00     0.049 A 
ATOM     55  H   UNL A   1      43.887  29.759  28.530  1.00  0.00     0.167 HD
ATOM     56  C   UNL A   1      42.941  32.075  29.864  1.00  0.00     0.074 A 
ATOM     57  C   UNL A   1      42.105  32.959  30.653  1.00  0.00     0.031 C 
ATOM     58  C   UNL A   1      44.179  32.398  29.415  1.00  0.00     0.034 A 
BRANCH  45  59
ATOM     59  C   UNL A   1      47.062  27.804  26.448  1.00  0.00     0.023 A 
ATOM     60  C   UNL A   1      48.032  27.118  27.207  1.00  0.00     0.012 A 
ATOM     61  C   UNL A   1      47.262  27.977  25.066  1.00  0.00     0.148 A 
ATOM     62  C   UNL A   1      49.199  26.645  26.611  1.00  0.00     0.002 A 
ATOM     63  C   UNL A   1      48.409  27.465  24.469  1.00  0.00     0.091 A 
ATOM     64  F   UNL A   1      46.343  28.655  24.363  1.00  0.00    -0.205 F 
ATOM     65  C   UNL A   1      49.383  26.809  25.241  1.00  0.00     0.022 A 
BRANCH  63  66
ATOM     66  S   UNL A   1      48.700  27.560  22.699  1.00  0.00     0.127 S 
ATOM     67  O   UNL A   1      50.072  28.061  22.652  1.00  0.00    -0.237 OA
ATOM     68  O   UNL A   1      48.546  26.165  22.282  1.00  0.00    -0.237 OA
ATOM     69  O   UNL A   1      47.682  28.461  22.176  1.00  0.00    -0.744 OA
ENDBRANCH  63  66
ENDBRANCH  45  59
BRANCH  46  70
ATOM     70  C   UNL A   1      38.702  30.509  31.209  1.00  0.00     0.023 A 
ATOM     71  C   UNL A   1      38.634  30.268  32.596  1.00  0.00     0.012 A 
ATOM     72  C   UNL A   1      37.626  31.153  30.570  1.00  0.00     0.148 A 
ATOM     73  C   UNL A   1      37.505  30.638  33.327  1.00  0.00     0.002 A 
ATOM     74  C   UNL A   1      36.526  31.565  31.315  1.00  0.00     0.091 A 
ATOM     75  F   UNL A   1      37.705  31.362  29.249  1.00  0.00    -0.205 F 
ATOM     76  C   UNL A   1      36.457  31.295  32.691  1.00  0.00     0.022 A 
BRANCH  74  77
ATOM     77  S   UNL A   1      35.191  32.535  30.603  1.00  0.00     0.127 S 
ATOM     78  O   UNL A   1      34.195  32.501  31.670  1.00  0.00    -0.237 OA
ATOM     79  O   UNL A   1      35.835  33.834  30.401  1.00  0.00    -0.237 OA
ATOM     80  O   UNL A   1      34.827  31.850  29.370  1.00  0.00    -0.744 OA
ENDBRANCH  74  77
ENDBRANCH  46  70
BRANCH  58  81
ATOM     81  C   UNL A   1      44.702  33.773  29.733  1.00  0.00     0.023 A 
ATOM     82  C   UNL A   1      45.529  33.959  30.859  1.00  0.00     0.012 A 
ATOM     83  C   UNL A   1      44.447  34.859  28.873  1.00  0.00     0.148 A 
ATOM     84  C   UNL A   1      46.074  35.211  31.137  1.00  0.00     0.002 A 
ATOM     85  C   UNL A   1      45.031  36.094  29.132  1.00  0.00     0.091 A 
ATOM     86  F   UNL A   1      43.640  34.666  27.819  1.00  0.00    -0.205 F 
ATOM     87  C   UNL A   1      45.837  36.274  30.268  1.00  0.00     0.022 A 
BRANCH  85  88
ATOM     88  S   UNL A   1      44.854  37.489  28.015  1.00  0.00     0.127 S 
ATOM     89  O   UNL A   1      44.711  36.820  26.724  1.00  0.00    -0.237 OA
ATOM     90  O   UNL A   1      43.635  38.133  28.507  1.00  0.00    -0.237 OA
ATOM     91  O   UNL A   1      46.063  38.287  28.179  1.00  0.00    -0.744 OA
ENDBRANCH  85  88
ENDBRANCH  58  81
ENDBRANCH  32  33
ENDBRANCH  24  27
ENDBRANCH  22  23
ENDBRANCH  21  22
ENDBRANCH   1  21
TORSDOF 18
ENDMDL
