MODEL 1
REMARK VINA RESULT:     -12.0      0.000      0.000
REMARK SMILES C#CCOc1ccc(/C=C(\Sc2nc(C)n[nH]2)C(=O)NCCCCNC(=O)c2ccc(-c3c4nc(c(-c5cccc(S(=O)(=O)[O-])c5F)c5ccc([nH]5)c(-c5cccc(S(=O)(=O)[O-])c5F)c5nc(c(-c6cccc(S(=O)(=O)[O-])c6F)c6ccc3[nH]6)C=C5)C=C4)cc2)cc1
REMARK SMILES IDX 22 1 21 2 20 3 18 4 19 5 10 7 9 8 8 9 5 10 6 11 92 12 7 13
REMARK SMILES IDX 91 14 4 15 3 16 2 17 1 18 11 19 12 20 13 21 17 22 14 23
REMARK SMILES IDX 16 24 15 26 23 27 24 28 25 29 26 30 27 32 28 33 29 34 90 35
REMARK SMILES IDX 30 36 89 37 31 38 32 39 33 40 83 41 34 42 88 43 82 44 84 45
REMARK SMILES IDX 35 46 87 47 81 48 80 49 36 51 68 52 48 53 67 54 49 55 52 56
REMARK SMILES IDX 66 57 85 58 50 59 51 60 65 62 86 63 53 64 37 65 38 66 46 67
REMARK SMILES IDX 39 68 41 69 47 70 40 71 42 72 43 73 44 74 45 75 69 76 70 77
REMARK SMILES IDX 78 78 71 79 73 80 79 81 72 82 74 83 75 84 76 85 77 86 54 87
REMARK SMILES IDX 55 88 63 89 56 90 58 91 64 92 57 93 59 94 60 95 61 96 62 97
REMARK H PARENT 20 6 17 25 25 31 84 50 52 61
REMARK Flexibility Score: inf
ROOT
ATOM      1  C   UNL A   1      36.649  20.759  24.598  1.00  0.00     0.023 C 
ENDROOT
BRANCH   1   2
ATOM      2  C   UNL A   1      36.500  21.916  25.596  1.00  0.00     0.116 C 
BRANCH   2   3
ATOM      3  N   UNL A   1      35.579  21.601  26.669  1.00  0.00    -0.352 N 
ATOM      4  C   UNL A   1      34.289  21.933  26.944  1.00  0.00     0.258 C 
ATOM      5  O   UNL A   1      33.857  21.478  28.011  1.00  0.00    -0.269 OA
ATOM      6  H   UNL A   1      35.976  21.014  27.352  1.00  0.00     0.163 HD
BRANCH   4   7
ATOM      7  C   UNL A   1      33.411  22.847  26.097  1.00  0.00     0.081 C 
ATOM      8  C   UNL A   1      33.794  24.145  26.157  1.00  0.00     0.029 C 
BRANCH   8   9
ATOM      9  C   UNL A   1      33.235  25.278  25.416  1.00  0.00    -0.024 A 
ATOM     10  C   UNL A   1      32.674  27.827  24.558  1.00  0.00     0.120 A 
ATOM     11  C   UNL A   1      31.781  27.197  25.413  1.00  0.00     0.047 A 
ATOM     12  C   UNL A   1      33.748  27.139  23.991  1.00  0.00     0.047 A 
ATOM     13  C   UNL A   1      32.037  25.890  25.803  1.00  0.00     0.012 A 
ATOM     14  C   UNL A   1      34.024  25.847  24.411  1.00  0.00     0.012 A 
BRANCH  10  15
ATOM     15  O   UNL A   1      32.568  29.177  24.348  1.00  0.00    -0.481 OA
BRANCH  15  16
ATOM     16  C   UNL A   1      31.813  29.774  25.394  1.00  0.00     0.318 C 
BRANCH  16  17
ATOM     17  C   UNL A   1      32.764  30.242  26.484  1.00  0.00    -0.065 C 
ATOM     18  C   UNL A   1      33.580  30.643  27.418  1.00  0.00     0.007 C 
ENDBRANCH  16  17
ENDBRANCH  15  16
ENDBRANCH  10  15
ENDBRANCH   8   9
BRANCH   7  19
ATOM     19  S   UNL A   1      32.268  22.155  24.991  1.00  0.00    -0.045 SA
BRANCH  19  20
ATOM     20  C   UNL A   1      32.663  20.493  24.825  1.00  0.00     0.188 A 
ATOM     21  N   UNL A   1      33.420  19.837  23.984  1.00  0.00    -0.206 NA
ATOM     22  N   UNL A   1      32.179  19.632  25.761  1.00  0.00    -0.254 N 
ATOM     23  C   UNL A   1      33.442  18.567  24.520  1.00  0.00     0.148 A 
ATOM     24  N   UNL A   1      32.669  18.394  25.604  1.00  0.00    -0.158 NA
ATOM     25  H   UNL A   1      31.545  19.888  26.470  1.00  0.00     0.192 HD
ATOM     26  C   UNL A   1      34.320  17.494  24.007  1.00  0.00     0.092 C 
ENDBRANCH  19  20
ENDBRANCH   7  19
ENDBRANCH   4   7
ENDBRANCH   2   3
ENDBRANCH   1   2
BRANCH   1  27
ATOM     27  C   UNL A   1      37.687  19.694  24.968  1.00  0.00     0.023 C 
BRANCH  27  28
ATOM     28  C   UNL A   1      38.995  20.245  25.522  1.00  0.00     0.116 C 
BRANCH  28  29
ATOM     29  N   UNL A   1      40.004  19.203  25.737  1.00  0.00    -0.352 N 
ATOM     30  C   UNL A   1      41.355  19.356  26.009  1.00  0.00     0.251 C 
ATOM     31  H   UNL A   1      39.680  18.275  25.680  1.00  0.00     0.163 HD
ATOM     32  O   UNL A   1      42.145  18.451  25.822  1.00  0.00    -0.269 OA
BRANCH  30  33
ATOM     33  C   UNL A   1      41.800  20.647  26.561  1.00  0.00     0.039 A 
ATOM     34  C   UNL A   1      42.547  21.558  25.808  1.00  0.00     0.014 A 
ATOM     35  C   UNL A   1      41.390  20.944  27.855  1.00  0.00     0.014 A 
ATOM     36  C   UNL A   1      42.806  22.818  26.343  1.00  0.00     0.010 A 
ATOM     37  C   UNL A   1      41.500  22.228  28.310  1.00  0.00     0.010 A 
ATOM     38  C   UNL A   1      42.266  23.146  27.591  1.00  0.00    -0.014 A 
BRANCH  38  39
ATOM     39  C   UNL A   1      42.417  24.469  28.185  1.00  0.00     0.031 A 
ATOM     40  C   UNL A   1      41.272  25.401  27.993  1.00  0.00     0.074 A 
ATOM     41  C   UNL A   1      43.361  24.663  29.134  1.00  0.00     0.049 A 
ATOM     42  N   UNL A   1      41.266  26.557  27.412  1.00  0.00    -0.248 NA
ATOM     43  C   UNL A   1      39.933  24.935  28.390  1.00  0.00     0.031 C 
ATOM     44  C   UNL A   1      44.307  23.664  29.662  1.00  0.00     0.029 A 
ATOM     45  N   UNL A   1      43.535  25.714  29.976  1.00  0.00    -0.354 N 
ATOM     46  C   UNL A   1      39.974  27.062  27.587  1.00  0.00     0.074 A 
ATOM     47  C   UNL A   1      39.163  25.939  27.966  1.00  0.00     0.031 C 
ATOM     48  C   UNL A   1      44.728  24.050  30.883  1.00  0.00     0.029 A 
ATOM     49  C   UNL A   1      44.237  25.389  31.135  1.00  0.00     0.049 A 
ATOM     50  H   UNL A   1      43.197  26.618  29.787  1.00  0.00     0.167 HD
ATOM     51  C   UNL A   1      39.740  28.404  27.681  1.00  0.00     0.034 A 
ATOM     52  C   UNL A   1      44.359  26.144  32.251  1.00  0.00     0.034 A 
ATOM     53  C   UNL A   1      40.905  29.154  27.277  1.00  0.00     0.049 A 
ATOM     54  C   UNL A   1      44.016  27.533  31.879  1.00  0.00     0.074 A 
ATOM     55  C   UNL A   1      41.664  29.267  26.131  1.00  0.00     0.029 A 
ATOM     56  N   UNL A   1      41.668  29.680  28.293  1.00  0.00    -0.354 N 
ATOM     57  N   UNL A   1      44.721  28.248  31.047  1.00  0.00    -0.248 NA
ATOM     58  C   UNL A   1      42.653  27.987  32.094  1.00  0.00     0.031 C 
ATOM     59  C   UNL A   1      43.004  29.433  26.592  1.00  0.00     0.029 A 
ATOM     60  C   UNL A   1      42.984  29.472  27.989  1.00  0.00     0.049 A 
ATOM     61  H   UNL A   1      41.326  30.127  29.100  1.00  0.00     0.167 HD
ATOM     62  C   UNL A   1      43.776  28.934  30.296  1.00  0.00     0.074 A 
ATOM     63  C   UNL A   1      42.543  28.848  31.078  1.00  0.00     0.031 C 
ATOM     64  C   UNL A   1      44.009  29.236  28.984  1.00  0.00     0.034 A 
BRANCH  51  65
ATOM     65  C   UNL A   1      38.651  29.076  28.513  1.00  0.00     0.023 A 
ATOM     66  C   UNL A   1      37.875  30.066  27.855  1.00  0.00     0.012 A 
ATOM     67  C   UNL A   1      38.533  29.025  29.919  1.00  0.00     0.148 A 
ATOM     68  C   UNL A   1      37.129  31.018  28.561  1.00  0.00     0.002 A 
ATOM     69  C   UNL A   1      37.737  29.932  30.615  1.00  0.00     0.091 A 
ATOM     70  F   UNL A   1      39.275  28.176  30.631  1.00  0.00    -0.205 F 
ATOM     71  C   UNL A   1      37.065  30.955  29.944  1.00  0.00     0.022 A 
BRANCH  69  72
ATOM     72  S   UNL A   1      37.587  29.871  32.407  1.00  0.00     0.127 S 
ATOM     73  O   UNL A   1      37.255  28.465  32.620  1.00  0.00    -0.237 OA
ATOM     74  O   UNL A   1      38.929  30.264  32.834  1.00  0.00    -0.237 OA
ATOM     75  O   UNL A   1      36.549  30.836  32.745  1.00  0.00    -0.744 OA
ENDBRANCH  69  72
ENDBRANCH  51  65
BRANCH  52  76
ATOM     76  C   UNL A   1      44.546  25.718  33.653  1.00  0.00     0.023 A 
ATOM     77  C   UNL A   1      45.820  25.332  34.108  1.00  0.00     0.012 A 
ATOM     78  C   UNL A   1      43.525  25.924  34.607  1.00  0.00     0.148 A 
ATOM     79  C   UNL A   1      46.077  25.178  35.476  1.00  0.00     0.002 A 
ATOM     80  C   UNL A   1      43.783  25.764  35.965  1.00  0.00     0.091 A 
ATOM     81  F   UNL A   1      42.330  26.359  34.186  1.00  0.00    -0.205 F 
ATOM     82  C   UNL A   1      45.062  25.401  36.404  1.00  0.00     0.022 A 
BRANCH  80  83
ATOM     83  S   UNL A   1      42.532  26.055  37.223  1.00  0.00     0.127 S 
ATOM     84  O   UNL A   1      42.020  27.370  36.839  1.00  0.00    -0.237 OA
ATOM     85  O   UNL A   1      41.609  24.947  36.990  1.00  0.00    -0.237 OA
ATOM     86  O   UNL A   1      43.240  26.032  38.496  1.00  0.00    -0.744 OA
ENDBRANCH  80  83
ENDBRANCH  52  76
BRANCH  64  87
ATOM     87  C   UNL A   1      45.410  29.044  28.455  1.00  0.00     0.023 A 
ATOM     88  C   UNL A   1      46.442  29.975  28.701  1.00  0.00     0.012 A 
ATOM     89  C   UNL A   1      45.737  27.817  27.858  1.00  0.00     0.148 A 
ATOM     90  C   UNL A   1      47.762  29.699  28.343  1.00  0.00     0.002 A 
ATOM     91  C   UNL A   1      47.060  27.524  27.545  1.00  0.00     0.091 A 
ATOM     92  F   UNL A   1      44.750  26.937  27.635  1.00  0.00    -0.205 F 
ATOM     93  C   UNL A   1      48.075  28.467  27.778  1.00  0.00     0.022 A 
BRANCH  91  94
ATOM     94  S   UNL A   1      47.541  25.906  26.942  1.00  0.00     0.127 S 
ATOM     95  O   UNL A   1      46.881  25.856  25.640  1.00  0.00    -0.237 OA
ATOM     96  O   UNL A   1      49.000  26.009  26.885  1.00  0.00    -0.237 OA
ATOM     97  O   UNL A   1      47.055  24.952  27.933  1.00  0.00    -0.744 OA
ENDBRANCH  91  94
ENDBRANCH  64  87
ENDBRANCH  38  39
ENDBRANCH  30  33
ENDBRANCH  28  29
ENDBRANCH  27  28
ENDBRANCH   1  27
TORSDOF 20
ENDMDL
MODEL 2
REMARK VINA RESULT:     -11.7      2.003      2.429
REMARK SMILES C#CCOc1ccc(/C=C(\Sc2nc(C)n[nH]2)C(=O)NCCCCNC(=O)c2ccc(-c3c4nc(c(-c5cccc(S(=O)(=O)[O-])c5F)c5ccc([nH]5)c(-c5cccc(S(=O)(=O)[O-])c5F)c5nc(c(-c6cccc(S(=O)(=O)[O-])c6F)c6ccc3[nH]6)C=C5)C=C4)cc2)cc1
REMARK SMILES IDX 22 1 21 2 20 3 18 4 19 5 10 7 9 8 8 9 5 10 6 11 92 12 7 13
REMARK SMILES IDX 91 14 4 15 3 16 2 17 1 18 11 19 12 20 13 21 17 22 14 23
REMARK SMILES IDX 16 24 15 26 23 27 24 28 25 29 26 30 27 32 28 33 29 34 90 35
REMARK SMILES IDX 30 36 89 37 31 38 32 39 33 40 83 41 34 42 88 43 82 44 84 45
REMARK SMILES IDX 35 46 87 47 81 48 80 49 36 51 68 52 48 53 67 54 49 55 52 56
REMARK SMILES IDX 66 57 85 58 50 59 51 60 65 62 86 63 53 64 37 65 38 66 46 67
REMARK SMILES IDX 39 68 41 69 47 70 40 71 42 72 43 73 44 74 45 75 69 76 70 77
REMARK SMILES IDX 78 78 71 79 73 80 79 81 72 82 74 83 75 84 76 85 77 86 54 87
REMARK SMILES IDX 55 88 63 89 56 90 58 91 64 92 57 93 59 94 60 95 61 96 62 97
REMARK H PARENT 20 6 17 25 25 31 84 50 52 61
REMARK Flexibility Score: inf
ROOT
ATOM      1  C   UNL A   1      37.520  21.133  24.656  1.00  0.00     0.023 C 
ENDROOT
BRANCH   1   2
ATOM      2  C   UNL A   1      35.995  20.962  24.697  1.00  0.00     0.116 C 
BRANCH   2   3
ATOM      3  N   UNL A   1      35.464  21.082  26.038  1.00  0.00    -0.352 N 
ATOM      4  C   UNL A   1      34.531  21.881  26.624  1.00  0.00     0.258 C 
ATOM      5  O   UNL A   1      34.384  21.694  27.839  1.00  0.00    -0.269 OA
ATOM      6  H   UNL A   1      35.869  20.443  26.668  1.00  0.00     0.163 HD
BRANCH   4   7
ATOM      7  C   UNL A   1      33.750  22.988  25.926  1.00  0.00     0.081 C 
ATOM      8  C   UNL A   1      34.495  24.098  25.708  1.00  0.00     0.029 C 
BRANCH   8   9
ATOM      9  C   UNL A   1      34.099  25.316  24.996  1.00  0.00    -0.024 A 
ATOM     10  C   UNL A   1      32.594  27.315  23.861  1.00  0.00     0.120 A 
ATOM     11  C   UNL A   1      33.081  26.301  23.049  1.00  0.00     0.047 A 
ATOM     12  C   UNL A   1      32.994  27.436  25.194  1.00  0.00     0.047 A 
ATOM     13  C   UNL A   1      33.885  25.320  23.612  1.00  0.00     0.012 A 
ATOM     14  C   UNL A   1      33.767  26.436  25.764  1.00  0.00     0.012 A 
BRANCH  10  15
ATOM     15  O   UNL A   1      31.620  28.151  23.385  1.00  0.00    -0.481 OA
BRANCH  15  16
ATOM     16  C   UNL A   1      30.431  27.416  23.125  1.00  0.00     0.318 C 
BRANCH  16  17
ATOM     17  C   UNL A   1      29.285  28.392  22.910  1.00  0.00    -0.065 C 
ATOM     18  C   UNL A   1      28.303  29.229  22.726  1.00  0.00     0.007 C 
ENDBRANCH  16  17
ENDBRANCH  15  16
ENDBRANCH  10  15
ENDBRANCH   8   9
BRANCH   7  19
ATOM     19  S   UNL A   1      32.183  22.646  25.265  1.00  0.00    -0.045 SA
BRANCH  19  20
ATOM     20  C   UNL A   1      32.195  21.009  24.749  1.00  0.00     0.188 A 
ATOM     21  N   UNL A   1      32.343  20.444  23.579  1.00  0.00    -0.206 NA
ATOM     22  N   UNL A   1      32.102  20.045  25.706  1.00  0.00    -0.254 N 
ATOM     23  C   UNL A   1      32.432  19.105  23.894  1.00  0.00     0.148 A 
ATOM     24  N   UNL A   1      32.263  18.815  25.195  1.00  0.00    -0.158 NA
ATOM     25  H   UNL A   1      31.937  20.228  26.659  1.00  0.00     0.192 HD
ATOM     26  C   UNL A   1      32.779  18.068  22.901  1.00  0.00     0.092 C 
ENDBRANCH  19  20
ENDBRANCH   7  19
ENDBRANCH   4   7
ENDBRANCH   2   3
ENDBRANCH   1   2
BRANCH   1  27
ATOM     27  C   UNL A   1      38.337  19.852  24.860  1.00  0.00     0.023 C 
BRANCH  27  28
ATOM     28  C   UNL A   1      39.243  19.862  26.084  1.00  0.00     0.116 C 
BRANCH  28  29
ATOM     29  N   UNL A   1      40.411  18.987  25.933  1.00  0.00    -0.352 N 
ATOM     30  C   UNL A   1      41.751  19.340  25.888  1.00  0.00     0.251 C 
ATOM     31  H   UNL A   1      40.217  18.026  25.853  1.00  0.00     0.163 HD
ATOM     32  O   UNL A   1      42.587  18.595  25.418  1.00  0.00    -0.269 OA
BRANCH  30  33
ATOM     33  C   UNL A   1      42.135  20.644  26.457  1.00  0.00     0.039 A 
ATOM     34  C   UNL A   1      42.691  21.660  25.674  1.00  0.00     0.014 A 
ATOM     35  C   UNL A   1      41.862  20.838  27.806  1.00  0.00     0.014 A 
ATOM     36  C   UNL A   1      42.893  22.915  26.247  1.00  0.00     0.010 A 
ATOM     37  C   UNL A   1      41.904  22.105  28.317  1.00  0.00     0.010 A 
ATOM     38  C   UNL A   1      42.482  23.128  27.567  1.00  0.00    -0.014 A 
BRANCH  38  39
ATOM     39  C   UNL A   1      42.578  24.431  28.214  1.00  0.00     0.031 A 
ATOM     40  C   UNL A   1      41.409  25.335  28.028  1.00  0.00     0.074 A 
ATOM     41  C   UNL A   1      43.492  24.616  29.194  1.00  0.00     0.049 A 
ATOM     42  N   UNL A   1      41.383  26.512  27.491  1.00  0.00    -0.248 NA
ATOM     43  C   UNL A   1      40.076  24.815  28.373  1.00  0.00     0.031 C 
ATOM     44  C   UNL A   1      44.455  23.627  29.708  1.00  0.00     0.029 A 
ATOM     45  N   UNL A   1      43.612  25.639  30.079  1.00  0.00    -0.354 N 
ATOM     46  C   UNL A   1      40.072  26.971  27.652  1.00  0.00     0.074 A 
ATOM     47  C   UNL A   1      39.287  25.810  27.967  1.00  0.00     0.031 C 
ATOM     48  C   UNL A   1      44.834  23.977  30.954  1.00  0.00     0.029 A 
ATOM     49  C   UNL A   1      44.295  25.291  31.242  1.00  0.00     0.049 A 
ATOM     50  H   UNL A   1      43.252  26.539  29.916  1.00  0.00     0.167 HD
ATOM     51  C   UNL A   1      39.794  28.301  27.790  1.00  0.00     0.034 A 
ATOM     52  C   UNL A   1      44.367  26.006  32.389  1.00  0.00     0.034 A 
ATOM     53  C   UNL A   1      40.945  29.101  27.445  1.00  0.00     0.049 A 
ATOM     54  C   UNL A   1      43.990  27.397  32.061  1.00  0.00     0.074 A 
ATOM     55  C   UNL A   1      41.728  29.280  26.324  1.00  0.00     0.029 A 
ATOM     56  N   UNL A   1      41.666  29.609  28.500  1.00  0.00    -0.354 N 
ATOM     57  N   UNL A   1      44.693  28.164  31.276  1.00  0.00    -0.248 NA
ATOM     58  C   UNL A   1      42.609  27.801  32.258  1.00  0.00     0.031 C 
ATOM     59  C   UNL A   1      43.051  29.469  26.826  1.00  0.00     0.029 A 
ATOM     60  C   UNL A   1      42.995  29.453  28.222  1.00  0.00     0.049 A 
ATOM     61  H   UNL A   1      41.291  30.015  29.314  1.00  0.00     0.167 HD
ATOM     62  C   UNL A   1      43.746  28.850  30.527  1.00  0.00     0.074 A 
ATOM     63  C   UNL A   1      42.498  28.697  31.273  1.00  0.00     0.031 C 
ATOM     64  C   UNL A   1      44.003  29.209  29.233  1.00  0.00     0.034 A 
BRANCH  51  65
ATOM     65  C   UNL A   1      38.665  28.908  28.618  1.00  0.00     0.023 A 
ATOM     66  C   UNL A   1      37.785  29.788  27.937  1.00  0.00     0.012 A 
ATOM     67  C   UNL A   1      38.583  28.914  30.029  1.00  0.00     0.148 A 
ATOM     68  C   UNL A   1      36.968  30.699  28.618  1.00  0.00     0.002 A 
ATOM     69  C   UNL A   1      37.721  29.775  30.702  1.00  0.00     0.091 A 
ATOM     70  F   UNL A   1      39.417  28.173  30.759  1.00  0.00    -0.205 F 
ATOM     71  C   UNL A   1      36.941  30.697  30.003  1.00  0.00     0.022 A 
BRANCH  69  72
ATOM     72  S   UNL A   1      37.616  29.787  32.499  1.00  0.00     0.127 S 
ATOM     73  O   UNL A   1      36.493  30.694  32.716  1.00  0.00    -0.237 OA
ATOM     74  O   UNL A   1      37.345  28.381  32.793  1.00  0.00    -0.237 OA
ATOM     75  O   UNL A   1      38.917  30.252  32.962  1.00  0.00    -0.744 OA
ENDBRANCH  69  72
ENDBRANCH  51  65
BRANCH  52  76
ATOM     76  C   UNL A   1      44.532  25.531  33.779  1.00  0.00     0.023 A 
ATOM     77  C   UNL A   1      43.553  24.707  34.362  1.00  0.00     0.012 A 
ATOM     78  C   UNL A   1      45.767  25.685  34.447  1.00  0.00     0.148 A 
ATOM     79  C   UNL A   1      43.804  24.037  35.565  1.00  0.00     0.002 A 
ATOM     80  C   UNL A   1      46.010  25.022  35.646  1.00  0.00     0.091 A 
ATOM     81  F   UNL A   1      46.729  26.412  33.862  1.00  0.00    -0.205 F 
ATOM     82  C   UNL A   1      45.034  24.188  36.203  1.00  0.00     0.022 A 
BRANCH  80  83
ATOM     83  S   UNL A   1      47.579  25.150  36.515  1.00  0.00     0.127 S 
ATOM     84  O   UNL A   1      47.594  26.560  36.903  1.00  0.00    -0.237 OA
ATOM     85  O   UNL A   1      47.386  24.213  37.619  1.00  0.00    -0.237 OA
ATOM     86  O   UNL A   1      48.599  24.780  35.543  1.00  0.00    -0.744 OA
ENDBRANCH  80  83
ENDBRANCH  52  76
BRANCH  64  87
ATOM     87  C   UNL A   1      45.421  29.079  28.733  1.00  0.00     0.023 A 
ATOM     88  C   UNL A   1      45.991  27.832  28.401  1.00  0.00     0.012 A 
ATOM     89  C   UNL A   1      46.128  30.250  28.417  1.00  0.00     0.148 A 
ATOM     90  C   UNL A   1      47.243  27.751  27.788  1.00  0.00     0.002 A 
ATOM     91  C   UNL A   1      47.353  30.169  27.763  1.00  0.00     0.091 A 
ATOM     92  F   UNL A   1      45.573  31.430  28.730  1.00  0.00    -0.205 F 
ATOM     93  C   UNL A   1      47.918  28.921  27.456  1.00  0.00     0.022 A 
BRANCH  91  94
ATOM     94  S   UNL A   1      48.203  31.640  27.190  1.00  0.00     0.127 S 
ATOM     95  O   UNL A   1      48.412  32.377  28.434  1.00  0.00    -0.237 OA
ATOM     96  O   UNL A   1      49.422  31.089  26.594  1.00  0.00    -0.237 OA
ATOM     97  O   UNL A   1      47.307  32.267  26.227  1.00  0.00    -0.744 OA
ENDBRANCH  91  94
ENDBRANCH  64  87
ENDBRANCH  38  39
ENDBRANCH  30  33
ENDBRANCH  28  29
ENDBRANCH  27  28
ENDBRANCH   1  27
TORSDOF 20
ENDMDL
MODEL 3
REMARK VINA RESULT:     -11.6      1.908      2.415
REMARK SMILES C#CCOc1ccc(/C=C(\Sc2nc(C)n[nH]2)C(=O)NCCCCNC(=O)c2ccc(-c3c4nc(c(-c5cccc(S(=O)(=O)[O-])c5F)c5ccc([nH]5)c(-c5cccc(S(=O)(=O)[O-])c5F)c5nc(c(-c6cccc(S(=O)(=O)[O-])c6F)c6ccc3[nH]6)C=C5)C=C4)cc2)cc1
REMARK SMILES IDX 22 1 21 2 20 3 18 4 19 5 10 7 9 8 8 9 5 10 6 11 92 12 7 13
REMARK SMILES IDX 91 14 4 15 3 16 2 17 1 18 11 19 12 20 13 21 17 22 14 23
REMARK SMILES IDX 16 24 15 26 23 27 24 28 25 29 26 30 27 32 28 33 29 34 90 35
REMARK SMILES IDX 30 36 89 37 31 38 32 39 33 40 83 41 34 42 88 43 82 44 84 45
REMARK SMILES IDX 35 46 87 47 81 48 80 49 36 51 68 52 48 53 67 54 49 55 52 56
REMARK SMILES IDX 66 57 85 58 50 59 51 60 65 62 86 63 53 64 37 65 38 66 46 67
REMARK SMILES IDX 39 68 41 69 47 70 40 71 42 72 43 73 44 74 45 75 69 76 70 77
REMARK SMILES IDX 78 78 71 79 73 80 79 81 72 82 74 83 75 84 76 85 77 86 54 87
REMARK SMILES IDX 55 88 63 89 56 90 58 91 64 92 57 93 59 94 60 95 61 96 62 97
REMARK H PARENT 20 6 17 25 25 31 84 50 52 61
REMARK Flexibility Score: inf
ROOT
ATOM      1  C   UNL A   1      37.995  21.341  25.333  1.00  0.00     0.023 C 
ENDROOT
BRANCH   1   2
ATOM      2  C   UNL A   1      36.505  21.563  25.039  1.00  0.00     0.116 C 
BRANCH   2   3
ATOM      3  N   UNL A   1      35.677  21.354  26.209  1.00  0.00    -0.352 N 
ATOM      4  C   UNL A   1      34.500  21.876  26.647  1.00  0.00     0.258 C 
ATOM      5  O   UNL A   1      34.127  21.452  27.749  1.00  0.00    -0.269 OA
ATOM      6  H   UNL A   1      36.051  20.684  26.826  1.00  0.00     0.163 HD
BRANCH   4   7
ATOM      7  C   UNL A   1      33.689  22.952  25.934  1.00  0.00     0.081 C 
ATOM      8  C   UNL A   1      34.318  24.152  25.910  1.00  0.00     0.029 C 
BRANCH   8   9
ATOM      9  C   UNL A   1      33.876  25.381  25.247  1.00  0.00    -0.024 A 
ATOM     10  C   UNL A   1      32.332  27.251  23.956  1.00  0.00     0.120 A 
ATOM     11  C   UNL A   1      33.200  26.469  23.207  1.00  0.00     0.047 A 
ATOM     12  C   UNL A   1      32.353  27.232  25.352  1.00  0.00     0.047 A 
ATOM     13  C   UNL A   1      34.019  25.562  23.865  1.00  0.00     0.012 A 
ATOM     14  C   UNL A   1      33.144  26.299  26.005  1.00  0.00     0.012 A 
BRANCH  10  15
ATOM     15  O   UNL A   1      31.360  27.976  23.319  1.00  0.00    -0.481 OA
BRANCH  15  16
ATOM     16  C   UNL A   1      30.091  27.367  23.515  1.00  0.00     0.318 C 
BRANCH  16  17
ATOM     17  C   UNL A   1      29.004  28.348  23.106  1.00  0.00    -0.065 C 
ATOM     18  C   UNL A   1      28.072  29.190  22.755  1.00  0.00     0.007 C 
ENDBRANCH  16  17
ENDBRANCH  15  16
ENDBRANCH  10  15
ENDBRANCH   8   9
BRANCH   7  19
ATOM     19  S   UNL A   1      32.275  22.507  25.034  1.00  0.00    -0.045 SA
BRANCH  19  20
ATOM     20  C   UNL A   1      32.375  20.820  24.733  1.00  0.00     0.188 A 
ATOM     21  N   UNL A   1      32.623  20.121  23.655  1.00  0.00    -0.206 NA
ATOM     22  N   UNL A   1      32.245  19.979  25.795  1.00  0.00    -0.254 N 
ATOM     23  C   UNL A   1      32.731  18.836  24.143  1.00  0.00     0.148 A 
ATOM     24  N   UNL A   1      32.480  18.703  25.455  1.00  0.00    -0.158 NA
ATOM     25  H   UNL A   1      32.007  20.272  26.704  1.00  0.00     0.192 HD
ATOM     26  C   UNL A   1      33.180  17.699  23.314  1.00  0.00     0.092 C 
ENDBRANCH  19  20
ENDBRANCH   7  19
ENDBRANCH   4   7
ENDBRANCH   2   3
ENDBRANCH   1   2
BRANCH   1  27
ATOM     27  C   UNL A   1      38.561  19.983  24.901  1.00  0.00     0.023 C 
BRANCH  27  28
ATOM     28  C   UNL A   1      39.147  19.149  26.033  1.00  0.00     0.116 C 
BRANCH  28  29
ATOM     29  N   UNL A   1      40.516  18.701  25.757  1.00  0.00    -0.352 N 
ATOM     30  C   UNL A   1      41.676  19.460  25.703  1.00  0.00     0.251 C 
ATOM     31  H   UNL A   1      40.626  17.738  25.588  1.00  0.00     0.163 HD
ATOM     32  O   UNL A   1      42.671  19.057  25.134  1.00  0.00    -0.269 OA
BRANCH  30  33
ATOM     33  C   UNL A   1      41.672  20.765  26.386  1.00  0.00     0.039 A 
ATOM     34  C   UNL A   1      41.206  20.916  27.696  1.00  0.00     0.014 A 
ATOM     35  C   UNL A   1      42.211  21.836  25.684  1.00  0.00     0.014 A 
ATOM     36  C   UNL A   1      41.368  22.147  28.329  1.00  0.00     0.010 A 
ATOM     37  C   UNL A   1      42.519  22.985  26.356  1.00  0.00     0.010 A 
ATOM     38  C   UNL A   1      42.038  23.171  27.652  1.00  0.00    -0.014 A 
BRANCH  38  39
ATOM     39  C   UNL A   1      42.326  24.459  28.271  1.00  0.00     0.031 A 
ATOM     40  C   UNL A   1      41.296  25.517  28.073  1.00  0.00     0.074 A 
ATOM     41  C   UNL A   1      43.266  24.532  29.239  1.00  0.00     0.049 A 
ATOM     42  N   UNL A   1      41.432  26.675  27.512  1.00  0.00    -0.248 NA
ATOM     43  C   UNL A   1      39.905  25.200  28.439  1.00  0.00     0.031 C 
ATOM     44  C   UNL A   1      44.084  23.426  29.768  1.00  0.00     0.029 A 
ATOM     45  N   UNL A   1      43.540  25.545  30.102  1.00  0.00    -0.354 N 
ATOM     46  C   UNL A   1      40.201  27.319  27.673  1.00  0.00     0.074 A 
ATOM     47  C   UNL A   1      39.262  26.289  28.017  1.00  0.00     0.031 C 
ATOM     48  C   UNL A   1      44.521  23.744  31.003  1.00  0.00     0.029 A 
ATOM     49  C   UNL A   1      44.179  25.126  31.267  1.00  0.00     0.049 A 
ATOM     50  H   UNL A   1      43.310  26.484  29.922  1.00  0.00     0.167 HD
ATOM     51  C   UNL A   1      40.117  28.678  27.784  1.00  0.00     0.034 A 
ATOM     52  C   UNL A   1      44.363  25.846  32.398  1.00  0.00     0.034 A 
ATOM     53  C   UNL A   1      41.367  29.298  27.414  1.00  0.00     0.049 A 
ATOM     54  C   UNL A   1      44.185  27.270  32.043  1.00  0.00     0.074 A 
ATOM     55  C   UNL A   1      42.156  29.341  26.283  1.00  0.00     0.029 A 
ATOM     56  N   UNL A   1      42.164  29.719  28.452  1.00  0.00    -0.354 N 
ATOM     57  N   UNL A   1      44.982  27.913  31.236  1.00  0.00    -0.248 NA
ATOM     58  C   UNL A   1      42.878  27.872  32.241  1.00  0.00     0.031 C 
ATOM     59  C   UNL A   1      43.497  29.349  26.772  1.00  0.00     0.029 A 
ATOM     60  C   UNL A   1      43.454  29.369  28.168  1.00  0.00     0.049 A 
ATOM     61  H   UNL A   1      41.859  30.191  29.260  1.00  0.00     0.167 HD
ATOM     62  C   UNL A   1      44.135  28.713  30.480  1.00  0.00     0.074 A 
ATOM     63  C   UNL A   1      42.885  28.754  31.238  1.00  0.00     0.031 C 
ATOM     64  C   UNL A   1      44.427  29.005  29.177  1.00  0.00     0.034 A 
BRANCH  51  65
ATOM     65  C   UNL A   1      39.095  29.457  28.607  1.00  0.00     0.023 A 
ATOM     66  C   UNL A   1      39.185  29.323  30.017  1.00  0.00     0.012 A 
ATOM     67  C   UNL A   1      37.912  30.049  28.112  1.00  0.00     0.148 A 
ATOM     68  C   UNL A   1      38.119  29.645  30.865  1.00  0.00     0.002 A 
ATOM     69  C   UNL A   1      36.879  30.430  28.966  1.00  0.00     0.091 A 
ATOM     70  F   UNL A   1      37.704  30.154  26.799  1.00  0.00    -0.205 F 
ATOM     71  C   UNL A   1      36.961  30.193  30.338  1.00  0.00     0.022 A 
BRANCH  69  72
ATOM     72  S   UNL A   1      35.369  31.182  28.338  1.00  0.00     0.127 S 
ATOM     73  O   UNL A   1      34.718  31.598  29.577  1.00  0.00    -0.237 OA
ATOM     74  O   UNL A   1      35.895  32.271  27.517  1.00  0.00    -0.237 OA
ATOM     75  O   UNL A   1      34.697  30.135  27.579  1.00  0.00    -0.744 OA
ENDBRANCH  69  72
ENDBRANCH  51  65
BRANCH  52  76
ATOM     76  C   UNL A   1      44.473  25.382  33.796  1.00  0.00     0.023 A 
ATOM     77  C   UNL A   1      43.321  25.282  34.597  1.00  0.00     0.012 A 
ATOM     78  C   UNL A   1      45.673  24.803  34.267  1.00  0.00     0.148 A 
ATOM     79  C   UNL A   1      43.357  24.605  35.822  1.00  0.00     0.002 A 
ATOM     80  C   UNL A   1      45.704  24.137  35.488  1.00  0.00     0.091 A 
ATOM     81  F   UNL A   1      46.755  24.834  33.478  1.00  0.00    -0.205 F 
ATOM     82  C   UNL A   1      44.544  24.026  36.264  1.00  0.00     0.022 A 
BRANCH  80  83
ATOM     83  S   UNL A   1      47.193  23.346  36.114  1.00  0.00     0.127 S 
ATOM     84  O   UNL A   1      48.110  24.479  36.230  1.00  0.00    -0.237 OA
ATOM     85  O   UNL A   1      46.729  22.800  37.388  1.00  0.00    -0.237 OA
ATOM     86  O   UNL A   1      47.571  22.365  35.106  1.00  0.00    -0.744 OA
ENDBRANCH  80  83
ENDBRANCH  52  76
BRANCH  64  87
ATOM     87  C   UNL A   1      45.807  28.664  28.670  1.00  0.00     0.023 A 
ATOM     88  C   UNL A   1      46.936  29.454  28.974  1.00  0.00     0.012 A 
ATOM     89  C   UNL A   1      46.000  27.429  28.033  1.00  0.00     0.148 A 
ATOM     90  C   UNL A   1      48.223  29.033  28.633  1.00  0.00     0.002 A 
ATOM     91  C   UNL A   1      47.285  26.990  27.737  1.00  0.00     0.091 A 
ATOM     92  F   UNL A   1      44.919  26.683  27.756  1.00  0.00    -0.205 F 
ATOM     93  C   UNL A   1      48.399  27.794  28.026  1.00  0.00     0.022 A 
BRANCH  91  94
ATOM     94  S   UNL A   1      47.583  25.348  27.081  1.00  0.00     0.127 S 
ATOM     95  O   UNL A   1      46.986  25.437  25.750  1.00  0.00    -0.237 OA
ATOM     96  O   UNL A   1      49.045  25.263  27.091  1.00  0.00    -0.237 OA
ATOM     97  O   UNL A   1      46.931  24.427  28.005  1.00  0.00    -0.744 OA
ENDBRANCH  91  94
ENDBRANCH  64  87
ENDBRANCH  38  39
ENDBRANCH  30  33
ENDBRANCH  28  29
ENDBRANCH  27  28
ENDBRANCH   1  27
TORSDOF 20
ENDMDL
