MODEL 1
REMARK VINA RESULT:     -11.4      0.000      0.000
REMARK SMILES CCC1C[NH+]([C@H]2COC[C@@]2(C)C(=O)NCCCCNC(=O)c2ccc(-c3c4nc(c(-c5cccc(S(=O)(=O)[O-])c5F)c5ccc([nH]5)c(-c5cccc(S(=O)(=O)[O-])c5F)c5nc(c(-c6cccc(S(=O)(=O)[O-])c6F)c6ccc3[nH]6)C=C5)C=C4)cc2)C1
REMARK SMILES IDX 17 1 16 2 15 3 14 4 12 5 13 6 10 8 6 9 7 10 8 11 9 12 11 13
REMARK SMILES IDX 5 14 3 15 4 16 85 17 2 19 1 20 18 21 19 22 20 23 21 25 22 26
REMARK SMILES IDX 23 27 84 28 24 29 83 30 25 31 26 32 27 33 77 34 28 35 82 36
REMARK SMILES IDX 76 37 78 38 29 39 81 40 75 41 74 42 30 44 62 45 42 46 61 47
REMARK SMILES IDX 43 48 46 49 60 50 79 51 44 52 45 53 59 55 80 56 47 57 31 58
REMARK SMILES IDX 32 59 40 60 33 61 35 62 41 63 34 64 36 65 37 66 38 67 39 68
REMARK SMILES IDX 63 69 64 70 72 71 65 72 67 73 73 74 66 75 68 76 69 77 70 78
REMARK SMILES IDX 71 79 48 80 49 81 57 82 50 83 52 84 58 85 51 86 53 87 54 88
REMARK SMILES IDX 55 89 56 90
REMARK H PARENT 14 7 5 18 19 24 78 43 46 54
REMARK Flexibility Score: inf
ROOT
ATOM      1  C   UNL A   1      32.498  30.955  26.726  1.00  0.00     0.023 C 
ENDROOT
BRANCH   1   2
ATOM      2  C   UNL A   1      32.569  29.508  27.194  1.00  0.00     0.023 C 
BRANCH   2   3
ATOM      3  C   UNL A   1      33.739  28.688  26.652  1.00  0.00     0.116 C 
BRANCH   3   4
ATOM      4  N   UNL A   1      34.068  28.988  25.272  1.00  0.00    -0.355 N 
ATOM      5  C   UNL A   1      33.879  28.265  24.128  1.00  0.00     0.234 C 
ATOM      6  O   UNL A   1      34.512  28.649  23.138  1.00  0.00    -0.274 OA
ATOM      7  H   UNL A   1      34.501  29.862  25.137  1.00  0.00     0.163 HD
BRANCH   5   8
ATOM      8  C   UNL A   1      32.929  27.054  24.041  1.00  0.00     0.123 C 
ATOM      9  C   UNL A   1      31.424  27.425  23.957  1.00  0.00     0.228 C 
ATOM     10  C   UNL A   1      30.861  26.131  23.334  1.00  0.00     0.226 C 
ATOM     11  O   UNL A   1      31.885  25.580  22.480  1.00  0.00    -0.374 OA
ATOM     12  C   UNL A   1      33.101  26.332  22.698  1.00  0.00     0.183 C 
ATOM     13  C   UNL A   1      33.187  25.980  25.122  1.00  0.00     0.031 C 
BRANCH   9  14
ATOM     14  N   UNL A   1      31.115  28.687  23.236  1.00  0.00    -0.329 N 
ATOM     15  C   UNL A   1      29.486  30.024  22.963  1.00  0.00     0.099 C 
ATOM     16  C   UNL A   1      30.493  29.711  24.102  1.00  0.00     0.271 C 
ATOM     17  C   UNL A   1      29.909  28.659  22.385  1.00  0.00     0.271 C 
ATOM     18  H   UNL A   1      32.023  28.842  22.800  1.00  0.00     0.348 HD
BRANCH  15  19
ATOM     19  C   UNL A   1      28.007  30.112  23.332  1.00  0.00     0.012 C 
ATOM     20  C   UNL A   1      27.529  31.553  23.341  1.00  0.00     0.004 C 
ENDBRANCH  15  19
ENDBRANCH   9  14
ENDBRANCH   5   8
ENDBRANCH   3   4
ENDBRANCH   2   3
ENDBRANCH   1   2
BRANCH   1  21
ATOM     21  C   UNL A   1      33.401  31.935  27.469  1.00  0.00     0.116 C 
BRANCH  21  22
ATOM     22  N   UNL A   1      32.818  33.261  27.657  1.00  0.00    -0.352 N 
ATOM     23  C   UNL A   1      33.193  34.251  28.537  1.00  0.00     0.251 C 
ATOM     24  H   UNL A   1      32.053  33.477  27.076  1.00  0.00     0.163 HD
ATOM     25  O   UNL A   1      32.564  35.302  28.604  1.00  0.00    -0.269 OA
BRANCH  23  26
ATOM     26  C   UNL A   1      34.340  34.007  29.433  1.00  0.00     0.039 A 
ATOM     27  C   UNL A   1      34.134  33.301  30.622  1.00  0.00     0.014 A 
ATOM     28  C   UNL A   1      35.625  34.378  29.036  1.00  0.00     0.014 A 
ATOM     29  C   UNL A   1      35.237  32.874  31.363  1.00  0.00     0.010 A 
ATOM     30  C   UNL A   1      36.721  33.887  29.735  1.00  0.00     0.010 A 
ATOM     31  C   UNL A   1      36.539  33.116  30.894  1.00  0.00    -0.014 A 
BRANCH  31  32
ATOM     32  C   UNL A   1      37.734  32.544  31.565  1.00  0.00     0.031 A 
ATOM     33  C   UNL A   1      38.480  31.411  30.919  1.00  0.00     0.074 A 
ATOM     34  C   UNL A   1      38.056  32.947  32.811  1.00  0.00     0.049 A 
ATOM     35  N   UNL A   1      39.449  30.681  31.402  1.00  0.00    -0.248 NA
ATOM     36  C   UNL A   1      38.052  31.022  29.564  1.00  0.00     0.031 C 
ATOM     37  C   UNL A   1      37.354  33.979  33.578  1.00  0.00     0.029 A 
ATOM     38  N   UNL A   1      39.034  32.509  33.669  1.00  0.00    -0.354 N 
ATOM     39  C   UNL A   1      39.708  29.713  30.441  1.00  0.00     0.074 A 
ATOM     40  C   UNL A   1      38.781  29.935  29.353  1.00  0.00     0.031 C 
ATOM     41  C   UNL A   1      37.923  34.094  34.790  1.00  0.00     0.029 A 
ATOM     42  C   UNL A   1      39.009  33.126  34.899  1.00  0.00     0.049 A 
ATOM     43  H   UNL A   1      39.691  31.817  33.427  1.00  0.00     0.167 HD
ATOM     44  C   UNL A   1      40.653  28.744  30.450  1.00  0.00     0.034 A 
ATOM     45  C   UNL A   1      39.771  32.928  35.993  1.00  0.00     0.034 A 
ATOM     46  C   UNL A   1      41.624  28.580  31.495  1.00  0.00     0.049 A 
ATOM     47  C   UNL A   1      40.863  31.893  35.944  1.00  0.00     0.074 A 
ATOM     48  C   UNL A   1      42.698  27.709  31.541  1.00  0.00     0.029 A 
ATOM     49  N   UNL A   1      41.643  29.305  32.676  1.00  0.00    -0.354 N 
ATOM     50  N   UNL A   1      41.204  31.101  34.956  1.00  0.00    -0.248 NA
ATOM     51  C   UNL A   1      41.697  31.745  37.146  1.00  0.00     0.031 C 
ATOM     52  C   UNL A   1      43.365  27.906  32.755  1.00  0.00     0.029 A 
ATOM     53  C   UNL A   1      42.709  28.902  33.460  1.00  0.00     0.049 A 
ATOM     54  H   UNL A   1      40.994  30.003  32.921  1.00  0.00     0.167 HD
ATOM     55  C   UNL A   1      42.312  30.391  35.402  1.00  0.00     0.074 A 
ATOM     56  C   UNL A   1      42.595  30.855  36.744  1.00  0.00     0.031 C 
ATOM     57  C   UNL A   1      43.020  29.427  34.764  1.00  0.00     0.034 A 
BRANCH  44  58
ATOM     58  C   UNL A   1      40.727  27.829  29.258  1.00  0.00     0.023 A 
ATOM     59  C   UNL A   1      39.903  26.686  29.211  1.00  0.00     0.012 A 
ATOM     60  C   UNL A   1      41.564  28.125  28.165  1.00  0.00     0.148 A 
ATOM     61  C   UNL A   1      39.933  25.835  28.108  1.00  0.00     0.002 A 
ATOM     62  C   UNL A   1      41.559  27.292  27.051  1.00  0.00     0.091 A 
ATOM     63  F   UNL A   1      42.359  29.202  28.239  1.00  0.00    -0.205 F 
ATOM     64  C   UNL A   1      40.752  26.143  27.026  1.00  0.00     0.022 A 
BRANCH  62  65
ATOM     65  S   UNL A   1      42.527  27.645  25.580  1.00  0.00     0.127 S 
ATOM     66  O   UNL A   1      43.884  27.678  26.120  1.00  0.00    -0.237 OA
ATOM     67  O   UNL A   1      42.236  26.488  24.733  1.00  0.00    -0.237 OA
ATOM     68  O   UNL A   1      42.023  28.911  25.066  1.00  0.00    -0.744 OA
ENDBRANCH  62  65
ENDBRANCH  44  58
BRANCH  45  69
ATOM     69  C   UNL A   1      39.587  33.787  37.197  1.00  0.00     0.023 A 
ATOM     70  C   UNL A   1      40.097  35.101  37.181  1.00  0.00     0.012 A 
ATOM     71  C   UNL A   1      38.896  33.335  38.337  1.00  0.00     0.148 A 
ATOM     72  C   UNL A   1      39.947  35.937  38.286  1.00  0.00     0.002 A 
ATOM     73  C   UNL A   1      38.706  34.192  39.417  1.00  0.00     0.091 A 
ATOM     74  F   UNL A   1      38.431  32.078  38.343  1.00  0.00    -0.205 F 
ATOM     75  C   UNL A   1      39.244  35.488  39.399  1.00  0.00     0.022 A 
BRANCH  73  76
ATOM     76  S   UNL A   1      37.702  33.734  40.835  1.00  0.00     0.127 S 
ATOM     77  O   UNL A   1      38.567  32.777  41.518  1.00  0.00    -0.237 OA
ATOM     78  O   UNL A   1      37.537  35.016  41.523  1.00  0.00    -0.237 OA
ATOM     79  O   UNL A   1      36.468  33.197  40.276  1.00  0.00    -0.744 OA
ENDBRANCH  73  76
ENDBRANCH  45  69
BRANCH  57  80
ATOM     80  C   UNL A   1      44.199  28.829  35.481  1.00  0.00     0.023 A 
ATOM     81  C   UNL A   1      45.478  29.390  35.301  1.00  0.00     0.012 A 
ATOM     82  C   UNL A   1      44.022  27.787  36.411  1.00  0.00     0.148 A 
ATOM     83  C   UNL A   1      46.568  28.910  36.026  1.00  0.00     0.002 A 
ATOM     84  C   UNL A   1      45.104  27.343  37.161  1.00  0.00     0.091 A 
ATOM     85  F   UNL A   1      42.799  27.255  36.551  1.00  0.00    -0.205 F 
ATOM     86  C   UNL A   1      46.379  27.898  36.964  1.00  0.00     0.022 A 
BRANCH  84  87
ATOM     87  S   UNL A   1      44.933  26.110  38.458  1.00  0.00     0.127 S 
ATOM     88  O   UNL A   1      44.014  26.775  39.380  1.00  0.00    -0.237 OA
ATOM     89  O   UNL A   1      44.359  24.975  37.735  1.00  0.00    -0.237 OA
ATOM     90  O   UNL A   1      46.277  25.880  38.969  1.00  0.00    -0.744 OA
ENDBRANCH  84  87
ENDBRANCH  57  80
ENDBRANCH  31  32
ENDBRANCH  23  26
ENDBRANCH  21  22
ENDBRANCH   1  21
TORSDOF 16
ENDMDL
MODEL 2
REMARK VINA RESULT:     -11.0      5.623      8.752
REMARK SMILES CCC1C[NH+]([C@H]2COC[C@@]2(C)C(=O)NCCCCNC(=O)c2ccc(-c3c4nc(c(-c5cccc(S(=O)(=O)[O-])c5F)c5ccc([nH]5)c(-c5cccc(S(=O)(=O)[O-])c5F)c5nc(c(-c6cccc(S(=O)(=O)[O-])c6F)c6ccc3[nH]6)C=C5)C=C4)cc2)C1
REMARK SMILES IDX 17 1 16 2 15 3 14 4 12 5 13 6 10 8 6 9 7 10 8 11 9 12 11 13
REMARK SMILES IDX 5 14 3 15 4 16 85 17 2 19 1 20 18 21 19 22 20 23 21 25 22 26
REMARK SMILES IDX 23 27 84 28 24 29 83 30 25 31 26 32 27 33 77 34 28 35 82 36
REMARK SMILES IDX 76 37 78 38 29 39 81 40 75 41 74 42 30 44 62 45 42 46 61 47
REMARK SMILES IDX 43 48 46 49 60 50 79 51 44 52 45 53 59 55 80 56 47 57 31 58
REMARK SMILES IDX 32 59 40 60 33 61 35 62 41 63 34 64 36 65 37 66 38 67 39 68
REMARK SMILES IDX 63 69 64 70 72 71 65 72 67 73 73 74 66 75 68 76 69 77 70 78
REMARK SMILES IDX 71 79 48 80 49 81 57 82 50 83 52 84 58 85 51 86 53 87 54 88
REMARK SMILES IDX 55 89 56 90
REMARK H PARENT 14 7 5 18 19 24 78 43 46 54
REMARK Flexibility Score: inf
ROOT
ATOM      1  C   UNL A   1      35.683  22.121  24.162  1.00  0.00     0.023 C 
ENDROOT
BRANCH   1   2
ATOM      2  C   UNL A   1      34.199  21.826  24.335  1.00  0.00     0.023 C 
BRANCH   2   3
ATOM      3  C   UNL A   1      33.256  23.014  24.145  1.00  0.00     0.116 C 
BRANCH   3   4
ATOM      4  N   UNL A   1      33.711  23.961  23.146  1.00  0.00    -0.355 N 
ATOM      5  C   UNL A   1      33.065  24.997  22.532  1.00  0.00     0.234 C 
ATOM      6  O   UNL A   1      33.614  25.452  21.522  1.00  0.00    -0.274 OA
ATOM      7  H   UNL A   1      34.646  23.837  22.861  1.00  0.00     0.163 HD
BRANCH   5   8
ATOM      8  C   UNL A   1      31.744  25.596  23.054  1.00  0.00     0.123 C 
ATOM      9  C   UNL A   1      31.893  26.458  24.337  1.00  0.00     0.228 C 
ATOM     10  C   UNL A   1      30.609  27.308  24.243  1.00  0.00     0.226 C 
ATOM     11  O   UNL A   1      30.318  27.499  22.843  1.00  0.00    -0.374 OA
ATOM     12  C   UNL A   1      31.213  26.657  22.080  1.00  0.00     0.183 C 
ATOM     13  C   UNL A   1      30.604  24.562  23.198  1.00  0.00     0.031 C 
BRANCH   9  14
ATOM     14  N   UNL A   1      33.168  27.211  24.457  1.00  0.00    -0.329 N 
ATOM     15  C   UNL A   1      34.234  28.345  25.904  1.00  0.00     0.099 C 
ATOM     16  C   UNL A   1      33.949  26.841  25.657  1.00  0.00     0.271 C 
ATOM     17  C   UNL A   1      33.049  28.598  24.950  1.00  0.00     0.271 C 
ATOM     18  H   UNL A   1      33.532  27.051  23.518  1.00  0.00     0.348 HD
BRANCH  15  19
ATOM     19  C   UNL A   1      34.020  28.884  27.316  1.00  0.00     0.012 C 
ATOM     20  C   UNL A   1      35.301  29.478  27.876  1.00  0.00     0.004 C 
ENDBRANCH  15  19
ENDBRANCH   9  14
ENDBRANCH   5   8
ENDBRANCH   3   4
ENDBRANCH   2   3
ENDBRANCH   1   2
BRANCH   1  21
ATOM     21  C   UNL A   1      36.508  22.137  25.445  1.00  0.00     0.116 C 
BRANCH  21  22
ATOM     22  N   UNL A   1      37.576  21.142  25.482  1.00  0.00    -0.352 N 
ATOM     23  C   UNL A   1      38.857  21.271  25.970  1.00  0.00     0.251 C 
ATOM     24  H   UNL A   1      37.350  20.260  25.109  1.00  0.00     0.163 HD
ATOM     25  O   UNL A   1      39.657  20.345  25.883  1.00  0.00    -0.269 OA
BRANCH  23  26
ATOM     26  C   UNL A   1      39.267  22.561  26.557  1.00  0.00     0.039 A 
ATOM     27  C   UNL A   1      40.360  22.594  27.427  1.00  0.00     0.014 A 
ATOM     28  C   UNL A   1      38.637  23.740  26.156  1.00  0.00     0.014 A 
ATOM     29  C   UNL A   1      40.892  23.826  27.812  1.00  0.00     0.010 A 
ATOM     30  C   UNL A   1      39.214  24.962  26.480  1.00  0.00     0.010 A 
ATOM     31  C   UNL A   1      40.356  25.017  27.296  1.00  0.00    -0.014 A 
BRANCH  31  32
ATOM     32  C   UNL A   1      40.986  26.337  27.550  1.00  0.00     0.031 A 
ATOM     33  C   UNL A   1      42.400  26.586  27.108  1.00  0.00     0.074 A 
ATOM     34  C   UNL A   1      40.338  27.251  28.302  1.00  0.00     0.049 A 
ATOM     35  N   UNL A   1      43.175  27.606  27.361  1.00  0.00    -0.248 NA
ATOM     36  C   UNL A   1      43.040  25.529  26.307  1.00  0.00     0.031 C 
ATOM     37  C   UNL A   1      38.994  27.091  28.862  1.00  0.00     0.029 A 
ATOM     38  N   UNL A   1      40.738  28.483  28.756  1.00  0.00    -0.354 N 
ATOM     39  C   UNL A   1      44.408  27.291  26.804  1.00  0.00     0.074 A 
ATOM     40  C   UNL A   1      44.284  25.975  26.216  1.00  0.00     0.031 C 
ATOM     41  C   UNL A   1      38.683  28.182  29.584  1.00  0.00     0.029 A 
ATOM     42  C   UNL A   1      39.813  29.104  29.563  1.00  0.00     0.049 A 
ATOM     43  H   UNL A   1      41.608  28.884  28.526  1.00  0.00     0.167 HD
ATOM     44  C   UNL A   1      45.533  28.042  26.761  1.00  0.00     0.034 A 
ATOM     45  C   UNL A   1      39.873  30.281  30.218  1.00  0.00     0.034 A 
ATOM     46  C   UNL A   1      45.625  29.380  27.275  1.00  0.00     0.049 A 
ATOM     47  C   UNL A   1      41.111  31.127  30.088  1.00  0.00     0.074 A 
ATOM     48  C   UNL A   1      46.680  30.269  27.171  1.00  0.00     0.029 A 
ATOM     49  N   UNL A   1      44.623  30.024  27.983  1.00  0.00    -0.354 N 
ATOM     50  N   UNL A   1      42.206  30.884  29.411  1.00  0.00    -0.248 NA
ATOM     51  C   UNL A   1      41.110  32.422  30.785  1.00  0.00     0.031 C 
ATOM     52  C   UNL A   1      46.316  31.452  27.823  1.00  0.00     0.029 A 
ATOM     53  C   UNL A   1      45.034  31.299  28.326  1.00  0.00     0.049 A 
ATOM     54  H   UNL A   1      43.750  29.632  28.209  1.00  0.00     0.167 HD
ATOM     55  C   UNL A   1      43.008  32.009  29.567  1.00  0.00     0.074 A 
ATOM     56  C   UNL A   1      42.266  32.940  30.391  1.00  0.00     0.031 C 
ATOM     57  C   UNL A   1      44.253  32.242  29.085  1.00  0.00     0.034 A 
BRANCH  44  58
ATOM     58  C   UNL A   1      46.736  27.458  26.072  1.00  0.00     0.023 A 
ATOM     59  C   UNL A   1      46.876  27.611  24.677  1.00  0.00     0.012 A 
ATOM     60  C   UNL A   1      47.752  26.811  26.803  1.00  0.00     0.148 A 
ATOM     61  C   UNL A   1      47.992  27.102  24.016  1.00  0.00     0.002 A 
ATOM     62  C   UNL A   1      48.880  26.341  26.141  1.00  0.00     0.091 A 
ATOM     63  F   UNL A   1      47.588  26.653  28.124  1.00  0.00    -0.205 F 
ATOM     64  C   UNL A   1      48.997  26.478  24.748  1.00  0.00     0.022 A 
BRANCH  62  65
ATOM     65  S   UNL A   1      50.261  25.587  27.008  1.00  0.00     0.127 S 
ATOM     66  O   UNL A   1      49.644  24.378  27.550  1.00  0.00    -0.237 OA
ATOM     67  O   UNL A   1      51.215  25.350  25.925  1.00  0.00    -0.237 OA
ATOM     68  O   UNL A   1      50.696  26.566  27.994  1.00  0.00    -0.744 OA
ENDBRANCH  62  65
ENDBRANCH  44  58
BRANCH  45  69
ATOM     69  C   UNL A   1      38.690  30.769  30.985  1.00  0.00     0.023 A 
ATOM     70  C   UNL A   1      38.599  30.470  32.358  1.00  0.00     0.012 A 
ATOM     71  C   UNL A   1      37.680  31.542  30.383  1.00  0.00     0.148 A 
ATOM     72  C   UNL A   1      37.510  30.906  33.112  1.00  0.00     0.002 A 
ATOM     73  C   UNL A   1      36.622  32.018  31.153  1.00  0.00     0.091 A 
ATOM     74  F   UNL A   1      37.774  31.805  29.073  1.00  0.00    -0.205 F 
ATOM     75  C   UNL A   1      36.527  31.688  32.513  1.00  0.00     0.022 A 
BRANCH  73  76
ATOM     76  S   UNL A   1      35.384  33.137  30.486  1.00  0.00     0.127 S 
ATOM     77  O   UNL A   1      36.209  34.116  29.787  1.00  0.00    -0.237 OA
ATOM     78  O   UNL A   1      34.607  32.251  29.616  1.00  0.00    -0.237 OA
ATOM     79  O   UNL A   1      34.647  33.628  31.644  1.00  0.00    -0.744 OA
ENDBRANCH  73  76
ENDBRANCH  45  69
BRANCH  57  80
ATOM     80  C   UNL A   1      44.891  33.569  29.395  1.00  0.00     0.023 A 
ATOM     81  C   UNL A   1      45.609  33.730  30.595  1.00  0.00     0.012 A 
ATOM     82  C   UNL A   1      44.868  34.615  28.453  1.00  0.00     0.148 A 
ATOM     83  C   UNL A   1      46.284  34.920  30.861  1.00  0.00     0.002 A 
ATOM     84  C   UNL A   1      45.578  35.782  28.704  1.00  0.00     0.091 A 
ATOM     85  F   UNL A   1      44.161  34.445  27.326  1.00  0.00    -0.205 F 
ATOM     86  C   UNL A   1      46.280  35.940  29.911  1.00  0.00     0.022 A 
BRANCH  84  87
ATOM     87  S   UNL A   1      45.706  37.107  27.497  1.00  0.00     0.127 S 
ATOM     88  O   UNL A   1      46.723  37.965  28.103  1.00  0.00    -0.237 OA
ATOM     89  O   UNL A   1      46.145  36.394  26.297  1.00  0.00    -0.237 OA
ATOM     90  O   UNL A   1      44.374  37.687  27.399  1.00  0.00    -0.744 OA
ENDBRANCH  84  87
ENDBRANCH  57  80
ENDBRANCH  31  32
ENDBRANCH  23  26
ENDBRANCH  21  22
ENDBRANCH   1  21
TORSDOF 16
ENDMDL
MODEL 3
REMARK VINA RESULT:     -11.0      5.839      8.938
REMARK SMILES CCC1C[NH+]([C@H]2COC[C@@]2(C)C(=O)NCCCCNC(=O)c2ccc(-c3c4nc(c(-c5cccc(S(=O)(=O)[O-])c5F)c5ccc([nH]5)c(-c5cccc(S(=O)(=O)[O-])c5F)c5nc(c(-c6cccc(S(=O)(=O)[O-])c6F)c6ccc3[nH]6)C=C5)C=C4)cc2)C1
REMARK SMILES IDX 17 1 16 2 15 3 14 4 12 5 13 6 10 8 6 9 7 10 8 11 9 12 11 13
REMARK SMILES IDX 5 14 3 15 4 16 85 17 2 19 1 20 18 21 19 22 20 23 21 25 22 26
REMARK SMILES IDX 23 27 84 28 24 29 83 30 25 31 26 32 27 33 77 34 28 35 82 36
REMARK SMILES IDX 76 37 78 38 29 39 81 40 75 41 74 42 30 44 62 45 42 46 61 47
REMARK SMILES IDX 43 48 46 49 60 50 79 51 44 52 45 53 59 55 80 56 47 57 31 58
REMARK SMILES IDX 32 59 40 60 33 61 35 62 41 63 34 64 36 65 37 66 38 67 39 68
REMARK SMILES IDX 63 69 64 70 72 71 65 72 67 73 73 74 66 75 68 76 69 77 70 78
REMARK SMILES IDX 71 79 48 80 49 81 57 82 50 83 52 84 58 85 51 86 53 87 54 88
REMARK SMILES IDX 55 89 56 90
REMARK H PARENT 14 7 5 18 19 24 78 43 46 54
REMARK Flexibility Score: inf
ROOT
ATOM      1  C   UNL A   1      36.225  21.611  24.251  1.00  0.00     0.023 C 
ENDROOT
BRANCH   1   2
ATOM      2  C   UNL A   1      36.295  22.959  23.546  1.00  0.00     0.023 C 
BRANCH   2   3
ATOM      3  C   UNL A   1      34.962  23.682  23.356  1.00  0.00     0.116 C 
BRANCH   3   4
ATOM      4  N   UNL A   1      33.814  22.797  23.378  1.00  0.00    -0.355 N 
ATOM      5  C   UNL A   1      32.913  22.522  24.368  1.00  0.00     0.234 C 
ATOM      6  O   UNL A   1      32.211  21.519  24.194  1.00  0.00    -0.274 OA
ATOM      7  H   UNL A   1      33.657  22.311  22.536  1.00  0.00     0.163 HD
BRANCH   5   8
ATOM      8  C   UNL A   1      32.744  23.399  25.624  1.00  0.00     0.123 C 
ATOM      9  C   UNL A   1      32.349  24.871  25.331  1.00  0.00     0.228 C 
ATOM     10  C   UNL A   1      31.736  25.264  26.691  1.00  0.00     0.226 C 
ATOM     11  O   UNL A   1      31.137  24.078  27.255  1.00  0.00    -0.374 OA
ATOM     12  C   UNL A   1      31.520  22.950  26.433  1.00  0.00     0.183 C 
ATOM     13  C   UNL A   1      33.937  23.319  26.605  1.00  0.00     0.031 C 
BRANCH   9  14
ATOM     14  N   UNL A   1      31.485  25.076  24.140  1.00  0.00    -0.329 N 
ATOM     15  C   UNL A   1      30.537  26.666  23.097  1.00  0.00     0.099 C 
ATOM     16  C   UNL A   1      31.987  26.131  23.234  1.00  0.00     0.271 C 
ATOM     17  C   UNL A   1      30.248  25.849  24.372  1.00  0.00     0.271 C 
ATOM     18  H   UNL A   1      31.410  24.106  23.834  1.00  0.00     0.348 HD
BRANCH  15  19
ATOM     19  C   UNL A   1      30.319  28.169  23.260  1.00  0.00     0.012 C 
ATOM     20  C   UNL A   1      28.923  28.571  22.818  1.00  0.00     0.004 C 
ENDBRANCH  15  19
ENDBRANCH   9  14
ENDBRANCH   5   8
ENDBRANCH   3   4
ENDBRANCH   2   3
ENDBRANCH   1   2
BRANCH   1  21
ATOM     21  C   UNL A   1      36.909  21.540  25.613  1.00  0.00     0.116 C 
BRANCH  21  22
ATOM     22  N   UNL A   1      38.041  20.618  25.666  1.00  0.00    -0.352 N 
ATOM     23  C   UNL A   1      39.319  20.847  26.125  1.00  0.00     0.251 C 
ATOM     24  H   UNL A   1      37.867  19.709  25.328  1.00  0.00     0.163 HD
ATOM     25  O   UNL A   1      40.175  19.971  26.057  1.00  0.00    -0.269 OA
BRANCH  23  26
ATOM     26  C   UNL A   1      39.653  22.181  26.658  1.00  0.00     0.039 A 
ATOM     27  C   UNL A   1      40.655  22.294  27.625  1.00  0.00     0.014 A 
ATOM     28  C   UNL A   1      39.051  23.318  26.116  1.00  0.00     0.014 A 
ATOM     29  C   UNL A   1      41.131  23.560  27.973  1.00  0.00     0.010 A 
ATOM     30  C   UNL A   1      39.579  24.570  26.408  1.00  0.00     0.010 A 
ATOM     31  C   UNL A   1      40.634  24.702  27.325  1.00  0.00    -0.014 A 
BRANCH  31  32
ATOM     32  C   UNL A   1      41.220  26.048  27.547  1.00  0.00     0.031 A 
ATOM     33  C   UNL A   1      42.618  26.339  27.081  1.00  0.00     0.074 A 
ATOM     34  C   UNL A   1      40.550  26.953  28.290  1.00  0.00     0.049 A 
ATOM     35  N   UNL A   1      43.360  27.390  27.305  1.00  0.00    -0.248 NA
ATOM     36  C   UNL A   1      43.286  25.290  26.291  1.00  0.00     0.031 C 
ATOM     37  C   UNL A   1      39.220  26.756  28.872  1.00  0.00     0.029 A 
ATOM     38  N   UNL A   1      40.912  28.206  28.717  1.00  0.00    -0.354 N 
ATOM     39  C   UNL A   1      44.596  27.109  26.737  1.00  0.00     0.074 A 
ATOM     40  C   UNL A   1      44.512  25.779  26.175  1.00  0.00     0.031 C 
ATOM     41  C   UNL A   1      38.880  27.848  29.578  1.00  0.00     0.029 A 
ATOM     42  C   UNL A   1      39.976  28.809  29.525  1.00  0.00     0.049 A 
ATOM     43  H   UNL A   1      41.764  28.634  28.467  1.00  0.00     0.167 HD
ATOM     44  C   UNL A   1      45.693  27.897  26.665  1.00  0.00     0.034 A 
ATOM     45  C   UNL A   1      40.002  29.999  30.157  1.00  0.00     0.034 A 
ATOM     46  C   UNL A   1      45.744  29.247  27.153  1.00  0.00     0.049 A 
ATOM     47  C   UNL A   1      41.207  30.886  29.995  1.00  0.00     0.074 A 
ATOM     48  C   UNL A   1      46.765  30.172  27.019  1.00  0.00     0.029 A 
ATOM     49  N   UNL A   1      44.729  29.869  27.863  1.00  0.00    -0.354 N 
ATOM     50  N   UNL A   1      42.302  30.670  29.308  1.00  0.00    -0.248 NA
ATOM     51  C   UNL A   1      41.170  32.193  30.668  1.00  0.00     0.031 C 
ATOM     52  C   UNL A   1      46.367  31.353  27.654  1.00  0.00     0.029 A 
ATOM     53  C   UNL A   1      45.098  31.164  28.177  1.00  0.00     0.049 A 
ATOM     54  H   UNL A   1      43.873  29.450  28.108  1.00  0.00     0.167 HD
ATOM     55  C   UNL A   1      43.065  31.825  29.432  1.00  0.00     0.074 A 
ATOM     56  C   UNL A   1      42.301  32.744  30.249  1.00  0.00     0.031 C 
ATOM     57  C   UNL A   1      44.295  32.092  28.930  1.00  0.00     0.034 A 
BRANCH  44  58
ATOM     58  C   UNL A   1      46.907  27.344  25.970  1.00  0.00     0.023 A 
ATOM     59  C   UNL A   1      47.029  27.487  24.573  1.00  0.00     0.012 A 
ATOM     60  C   UNL A   1      47.948  26.736  26.698  1.00  0.00     0.148 A 
ATOM     61  C   UNL A   1      48.154  27.006  23.906  1.00  0.00     0.002 A 
ATOM     62  C   UNL A   1      49.085  26.294  26.030  1.00  0.00     0.091 A 
ATOM     63  F   UNL A   1      47.802  26.586  28.022  1.00  0.00    -0.205 F 
ATOM     64  C   UNL A   1      49.185  26.420  24.635  1.00  0.00     0.022 A 
BRANCH  62  65
ATOM     65  S   UNL A   1      50.496  25.591  26.891  1.00  0.00     0.127 S 
ATOM     66  O   UNL A   1      50.893  26.697  27.760  1.00  0.00    -0.237 OA
ATOM     67  O   UNL A   1      49.898  24.452  27.588  1.00  0.00    -0.237 OA
ATOM     68  O   UNL A   1      51.455  25.230  25.856  1.00  0.00    -0.744 OA
ENDBRANCH  62  65
ENDBRANCH  44  58
BRANCH  45  69
ATOM     69  C   UNL A   1      38.813  30.460  30.931  1.00  0.00     0.023 A 
ATOM     70  C   UNL A   1      38.765  30.211  32.317  1.00  0.00     0.012 A 
ATOM     71  C   UNL A   1      37.753  31.158  30.323  1.00  0.00     0.148 A 
ATOM     72  C   UNL A   1      37.672  30.624  33.078  1.00  0.00     0.002 A 
ATOM     73  C   UNL A   1      36.689  31.612  31.097  1.00  0.00     0.091 A 
ATOM     74  F   UNL A   1      37.807  31.373  29.001  1.00  0.00    -0.205 F 
ATOM     75  C   UNL A   1      36.639  31.332  32.471  1.00  0.00     0.022 A 
BRANCH  73  76
ATOM     76  S   UNL A   1      35.383  32.642  30.416  1.00  0.00     0.127 S 
ATOM     77  O   UNL A   1      36.091  33.890  30.152  1.00  0.00    -0.237 OA
ATOM     78  O   UNL A   1      34.992  31.891  29.221  1.00  0.00    -0.237 OA
ATOM     79  O   UNL A   1      34.356  32.693  31.449  1.00  0.00    -0.744 OA
ENDBRANCH  73  76
ENDBRANCH  45  69
BRANCH  57  80
ATOM     80  C   UNL A   1      44.888  33.447  29.207  1.00  0.00     0.023 A 
ATOM     81  C   UNL A   1      45.651  33.644  30.374  1.00  0.00     0.012 A 
ATOM     82  C   UNL A   1      44.781  34.486  28.263  1.00  0.00     0.148 A 
ATOM     83  C   UNL A   1      46.286  34.864  30.605  1.00  0.00     0.002 A 
ATOM     84  C   UNL A   1      45.451  35.683  28.478  1.00  0.00     0.091 A 
ATOM     85  F   UNL A   1      44.033  34.281  27.168  1.00  0.00    -0.205 F 
ATOM     86  C   UNL A   1      46.197  35.877  29.653  1.00  0.00     0.022 A 
BRANCH  84  87
ATOM     87  S   UNL A   1      45.470  37.006  27.262  1.00  0.00     0.127 S 
ATOM     88  O   UNL A   1      46.102  36.349  26.119  1.00  0.00    -0.237 OA
ATOM     89  O   UNL A   1      44.046  37.293  27.092  1.00  0.00    -0.237 OA
ATOM     90  O   UNL A   1      46.236  38.090  27.863  1.00  0.00    -0.744 OA
ENDBRANCH  84  87
ENDBRANCH  57  80
ENDBRANCH  31  32
ENDBRANCH  23  26
ENDBRANCH  21  22
ENDBRANCH   1  21
TORSDOF 16
ENDMDL
