MODEL 1
REMARK VINA RESULT:     -11.7      0.000      0.000
REMARK SMILES [NH3+][C@]1(C(=O)NCCCCNC(=O)c2ccc(-c3c4nc(c(-c5cccc(S(=O)(=O)[O-])c5F)c5ccc([nH]5)c(-c5cccc(S(=O)(=O)[O-])c5F)c5nc(c(-c6cccc(S(=O)(=O)[O-])c6F)c6ccc3[nH]6)C=C5)C=C4)cc2)CC[N@H+](Cc2ccccc2O)C1
REMARK SMILES IDX 7 1 6 2 5 3 3 4 4 5 2 7 76 8 87 9 77 10 78 11 1 13 79 17
REMARK SMILES IDX 80 18 81 19 85 20 82 21 84 22 83 23 86 24 8 26 9 27 10 28
REMARK SMILES IDX 11 29 12 31 13 32 14 33 75 34 15 35 74 36 16 37 17 38 18 39
REMARK SMILES IDX 68 40 19 41 73 42 67 43 69 44 20 45 72 46 66 47 65 48 21 50
REMARK SMILES IDX 53 51 33 52 52 53 34 54 37 55 51 56 70 57 35 58 36 59 50 61
REMARK SMILES IDX 71 62 38 63 22 64 23 65 31 66 24 67 26 68 32 69 25 70 27 71
REMARK SMILES IDX 28 72 29 73 30 74 54 75 55 76 63 77 56 78 58 79 64 80 57 81
REMARK SMILES IDX 59 82 60 83 61 84 62 85 39 86 40 87 48 88 41 89 43 90 49 91
REMARK SMILES IDX 42 92 44 93 45 94 46 95 47 96
REMARK H PARENT 5 6 78 12 1 14 1 15 1 16 86 25 10 30 69 49 37 60
REMARK Flexibility Score: inf
ROOT
ATOM      1  C   UNL A   1      33.646  28.318  24.728  1.00  0.00     0.023 C 
ENDROOT
BRANCH   1   2
ATOM      2  C   UNL A   1      32.964  27.172  23.988  1.00  0.00     0.116 C 
BRANCH   2   3
ATOM      3  N   UNL A   1      32.062  26.417  24.839  1.00  0.00    -0.350 N 
ATOM      4  C   UNL A   1      31.649  25.124  24.773  1.00  0.00     0.287 C 
ATOM      5  O   UNL A   1      30.927  24.720  25.694  1.00  0.00    -0.268 OA
ATOM      6  H   UNL A   1      31.686  26.930  25.591  1.00  0.00     0.163 HD
BRANCH   4   7
ATOM      7  C   UNL A   1      32.042  24.177  23.612  1.00  0.00     0.228 C 
ATOM      8  C   UNL A   1      33.544  23.964  23.473  1.00  0.00     0.146 C 
ATOM      9  C   UNL A   1      31.457  22.757  23.771  1.00  0.00     0.342 C 
ATOM     10  C   UNL A   1      33.646  22.571  22.878  1.00  0.00     0.270 C 
ATOM     11  N   UNL A   1      32.553  21.811  23.488  1.00  0.00    -0.325 N 
ATOM     12  H   UNL A   1      32.879  21.404  24.365  1.00  0.00     0.348 HD
BRANCH   7  13
ATOM     13  N   UNL A   1      31.544  24.774  22.330  1.00  0.00    -0.340 N 
ATOM     14  H   UNL A   1      32.191  24.549  21.575  1.00  0.00     0.345 HD
ATOM     15  H   UNL A   1      31.476  25.787  22.429  1.00  0.00     0.345 HD
ATOM     16  H   UNL A   1      30.623  24.392  22.112  1.00  0.00     0.345 HD
ENDBRANCH   7  13
BRANCH  11  17
ATOM     17  C   UNL A   1      32.156  20.590  22.770  1.00  0.00     0.303 C 
BRANCH  17  18
ATOM     18  C   UNL A   1      32.474  19.271  23.454  1.00  0.00     0.048 A 
ATOM     19  C   UNL A   1      32.812  18.167  22.645  1.00  0.00     0.013 A 
ATOM     20  C   UNL A   1      32.546  19.101  24.843  1.00  0.00     0.124 A 
ATOM     21  C   UNL A   1      33.312  16.987  23.197  1.00  0.00     0.001 A 
ATOM     22  C   UNL A   1      33.062  17.930  25.397  1.00  0.00     0.046 A 
ATOM     23  C   UNL A   1      33.465  16.880  24.575  1.00  0.00     0.004 A 
BRANCH  20  24
ATOM     24  O   UNL A   1      32.134  20.041  25.747  1.00  0.00    -0.507 OA
ATOM     25  H   UNL A   1      32.608  20.845  25.836  1.00  0.00     0.293 HD
ENDBRANCH  20  24
ENDBRANCH  17  18
ENDBRANCH  11  17
ENDBRANCH   4   7
ENDBRANCH   2   3
ENDBRANCH   1   2
BRANCH   1  26
ATOM     26  C   UNL A   1      32.795  29.574  24.899  1.00  0.00     0.023 C 
BRANCH  26  27
ATOM     27  C   UNL A   1      32.374  29.889  26.330  1.00  0.00     0.116 C 
BRANCH  27  28
ATOM     28  N   UNL A   1      32.263  31.316  26.594  1.00  0.00    -0.352 N 
ATOM     29  C   UNL A   1      33.120  32.137  27.293  1.00  0.00     0.251 C 
ATOM     30  H   UNL A   1      31.464  31.756  26.222  1.00  0.00     0.163 HD
ATOM     31  O   UNL A   1      32.825  33.298  27.509  1.00  0.00    -0.269 OA
BRANCH  29  32
ATOM     32  C   UNL A   1      34.387  31.573  27.809  1.00  0.00     0.039 A 
ATOM     33  C   UNL A   1      35.469  32.430  28.018  1.00  0.00     0.014 A 
ATOM     34  C   UNL A   1      34.484  30.217  28.134  1.00  0.00     0.014 A 
ATOM     35  C   UNL A   1      36.626  31.941  28.629  1.00  0.00     0.010 A 
ATOM     36  C   UNL A   1      35.605  29.751  28.812  1.00  0.00     0.010 A 
ATOM     37  C   UNL A   1      36.688  30.608  29.068  1.00  0.00    -0.014 A 
BRANCH  37  38
ATOM     38  C   UNL A   1      37.863  30.092  29.815  1.00  0.00     0.031 A 
ATOM     39  C   UNL A   1      38.132  30.562  31.218  1.00  0.00     0.074 A 
ATOM     40  C   UNL A   1      38.740  29.276  29.196  1.00  0.00     0.049 A 
ATOM     41  N   UNL A   1      39.140  30.282  32.001  1.00  0.00    -0.248 NA
ATOM     42  C   UNL A   1      37.156  31.493  31.808  1.00  0.00     0.031 C 
ATOM     43  C   UNL A   1      38.633  28.811  27.811  1.00  0.00     0.029 A 
ATOM     44  N   UNL A   1      39.906  28.709  29.645  1.00  0.00    -0.354 N 
ATOM     45  C   UNL A   1      38.942  31.028  33.156  1.00  0.00     0.074 A 
ATOM     46  C   UNL A   1      37.735  31.800  32.960  1.00  0.00     0.031 C 
ATOM     47  C   UNL A   1      39.682  28.021  27.528  1.00  0.00     0.029 A 
ATOM     48  C   UNL A   1      40.550  27.944  28.699  1.00  0.00     0.049 A 
ATOM     49  H   UNL A   1      40.251  28.838  30.558  1.00  0.00     0.167 HD
ATOM     50  C   UNL A   1      39.680  31.045  34.291  1.00  0.00     0.034 A 
ATOM     51  C   UNL A   1      41.707  27.257  28.768  1.00  0.00     0.034 A 
ATOM     52  C   UNL A   1      40.846  30.231  34.507  1.00  0.00     0.049 A 
ATOM     53  C   UNL A   1      42.478  27.252  30.061  1.00  0.00     0.074 A 
ATOM     54  C   UNL A   1      41.608  30.109  35.655  1.00  0.00     0.029 A 
ATOM     55  N   UNL A   1      41.415  29.399  33.557  1.00  0.00    -0.354 N 
ATOM     56  N   UNL A   1      42.191  27.844  31.195  1.00  0.00    -0.248 NA
ATOM     57  C   UNL A   1      43.713  26.455  30.096  1.00  0.00     0.031 C 
ATOM     58  C   UNL A   1      42.646  29.209  35.395  1.00  0.00     0.029 A 
ATOM     59  C   UNL A   1      42.521  28.760  34.091  1.00  0.00     0.049 A 
ATOM     60  H   UNL A   1      41.083  29.280  32.638  1.00  0.00     0.167 HD
ATOM     61  C   UNL A   1      43.187  27.462  32.087  1.00  0.00     0.074 A 
ATOM     62  C   UNL A   1      44.074  26.573  31.367  1.00  0.00     0.031 C 
ATOM     63  C   UNL A   1      43.359  27.829  33.381  1.00  0.00     0.034 A 
BRANCH  50  64
ATOM     64  C   UNL A   1      39.209  31.924  35.419  1.00  0.00     0.023 A 
ATOM     65  C   UNL A   1      38.288  31.410  36.356  1.00  0.00     0.012 A 
ATOM     66  C   UNL A   1      39.717  33.225  35.592  1.00  0.00     0.148 A 
ATOM     67  C   UNL A   1      37.859  32.187  37.430  1.00  0.00     0.002 A 
ATOM     68  C   UNL A   1      39.317  33.979  36.690  1.00  0.00     0.091 A 
ATOM     69  F   UNL A   1      40.575  33.703  34.678  1.00  0.00    -0.205 F 
ATOM     70  C   UNL A   1      38.380  33.466  37.603  1.00  0.00     0.022 A 
BRANCH  68  71
ATOM     71  S   UNL A   1      39.986  35.608  37.043  1.00  0.00     0.127 S 
ATOM     72  O   UNL A   1      39.292  35.948  38.285  1.00  0.00    -0.237 OA
ATOM     73  O   UNL A   1      41.414  35.327  37.200  1.00  0.00    -0.237 OA
ATOM     74  O   UNL A   1      39.653  36.437  35.893  1.00  0.00    -0.744 OA
ENDBRANCH  68  71
ENDBRANCH  50  64
BRANCH  51  75
ATOM     75  C   UNL A   1      42.159  26.440  27.607  1.00  0.00     0.023 A 
ATOM     76  C   UNL A   1      42.989  27.034  26.636  1.00  0.00     0.012 A 
ATOM     77  C   UNL A   1      41.807  25.085  27.472  1.00  0.00     0.148 A 
ATOM     78  C   UNL A   1      43.436  26.302  25.536  1.00  0.00     0.002 A 
ATOM     79  C   UNL A   1      42.299  24.346  26.400  1.00  0.00     0.091 A 
ATOM     80  F   UNL A   1      41.006  24.540  28.399  1.00  0.00    -0.205 F 
ATOM     81  C   UNL A   1      43.100  24.956  25.424  1.00  0.00     0.022 A 
BRANCH  79  82
ATOM     82  S   UNL A   1      42.022  22.577  26.242  1.00  0.00     0.127 S 
ATOM     83  O   UNL A   1      42.732  22.273  25.002  1.00  0.00    -0.237 OA
ATOM     84  O   UNL A   1      42.655  22.062  27.457  1.00  0.00    -0.237 OA
ATOM     85  O   UNL A   1      40.575  22.410  26.203  1.00  0.00    -0.744 OA
ENDBRANCH  79  82
ENDBRANCH  51  75
BRANCH  63  86
ATOM     86  C   UNL A   1      44.532  27.246  34.123  1.00  0.00     0.023 A 
ATOM     87  C   UNL A   1      45.773  27.911  34.100  1.00  0.00     0.012 A 
ATOM     88  C   UNL A   1      44.380  26.088  34.911  1.00  0.00     0.148 A 
ATOM     89  C   UNL A   1      46.854  27.418  34.830  1.00  0.00     0.002 A 
ATOM     90  C   UNL A   1      45.450  25.628  35.671  1.00  0.00     0.091 A 
ATOM     91  F   UNL A   1      43.197  25.457  34.903  1.00  0.00    -0.205 F 
ATOM     92  C   UNL A   1      46.689  26.285  35.623  1.00  0.00     0.022 A 
BRANCH  90  93
ATOM     93  S   UNL A   1      45.298  24.233  36.794  1.00  0.00     0.127 S 
ATOM     94  O   UNL A   1      46.658  24.123  37.317  1.00  0.00    -0.237 OA
ATOM     95  O   UNL A   1      44.310  24.714  37.759  1.00  0.00    -0.237 OA
ATOM     96  O   UNL A   1      44.846  23.112  35.978  1.00  0.00    -0.744 OA
ENDBRANCH  90  93
ENDBRANCH  63  86
ENDBRANCH  37  38
ENDBRANCH  29  32
ENDBRANCH  27  28
ENDBRANCH  26  27
ENDBRANCH   1  26
TORSDOF 18
ENDMDL
MODEL 2
REMARK VINA RESULT:     -11.7      4.784      9.757
REMARK SMILES [NH3+][C@]1(C(=O)NCCCCNC(=O)c2ccc(-c3c4nc(c(-c5cccc(S(=O)(=O)[O-])c5F)c5ccc([nH]5)c(-c5cccc(S(=O)(=O)[O-])c5F)c5nc(c(-c6cccc(S(=O)(=O)[O-])c6F)c6ccc3[nH]6)C=C5)C=C4)cc2)CC[N@H+](Cc2ccccc2O)C1
REMARK SMILES IDX 7 1 6 2 5 3 3 4 4 5 2 7 76 8 87 9 77 10 78 11 1 13 79 17
REMARK SMILES IDX 80 18 81 19 85 20 82 21 84 22 83 23 86 24 8 26 9 27 10 28
REMARK SMILES IDX 11 29 12 31 13 32 14 33 75 34 15 35 74 36 16 37 17 38 18 39
REMARK SMILES IDX 68 40 19 41 73 42 67 43 69 44 20 45 72 46 66 47 65 48 21 50
REMARK SMILES IDX 53 51 33 52 52 53 34 54 37 55 51 56 70 57 35 58 36 59 50 61
REMARK SMILES IDX 71 62 38 63 22 64 23 65 31 66 24 67 26 68 32 69 25 70 27 71
REMARK SMILES IDX 28 72 29 73 30 74 54 75 55 76 63 77 56 78 58 79 64 80 57 81
REMARK SMILES IDX 59 82 60 83 61 84 62 85 39 86 40 87 48 88 41 89 43 90 49 91
REMARK SMILES IDX 42 92 44 93 45 94 46 95 47 96
REMARK H PARENT 5 6 78 12 1 14 1 15 1 16 86 25 10 30 69 49 37 60
REMARK Flexibility Score: inf
ROOT
ATOM      1  C   UNL A   1      34.218  22.900  26.860  1.00  0.00     0.023 C 
ENDROOT
BRANCH   1   2
ATOM      2  C   UNL A   1      34.428  24.167  26.037  1.00  0.00     0.116 C 
BRANCH   2   3
ATOM      3  N   UNL A   1      33.229  24.981  25.951  1.00  0.00    -0.350 N 
ATOM      4  C   UNL A   1      32.217  24.983  25.044  1.00  0.00     0.287 C 
ATOM      5  O   UNL A   1      31.267  25.745  25.268  1.00  0.00    -0.268 OA
ATOM      6  H   UNL A   1      33.133  25.643  26.673  1.00  0.00     0.163 HD
BRANCH   4   7
ATOM      7  C   UNL A   1      32.224  24.091  23.778  1.00  0.00     0.228 C 
ATOM      8  C   UNL A   1      33.599  23.944  23.136  1.00  0.00     0.146 C 
ATOM      9  C   UNL A   1      31.767  22.644  24.062  1.00  0.00     0.342 C 
ATOM     10  C   UNL A   1      33.534  22.575  22.482  1.00  0.00     0.270 C 
ATOM     11  N   UNL A   1      32.730  21.753  23.387  1.00  0.00    -0.325 N 
ATOM     12  H   UNL A   1      33.344  21.332  24.086  1.00  0.00     0.348 HD
BRANCH   7  13
ATOM     13  N   UNL A   1      31.308  24.706  22.764  1.00  0.00    -0.340 N 
ATOM     14  H   UNL A   1      31.502  25.704  22.691  1.00  0.00     0.345 HD
ATOM     15  H   UNL A   1      30.339  24.569  23.052  1.00  0.00     0.345 HD
ATOM     16  H   UNL A   1      31.459  24.264  21.857  1.00  0.00     0.345 HD
ENDBRANCH   7  13
BRANCH  11  17
ATOM     17  C   UNL A   1      32.150  20.539  22.791  1.00  0.00     0.303 C 
BRANCH  17  18
ATOM     18  C   UNL A   1      32.531  19.220  23.441  1.00  0.00     0.048 A 
ATOM     19  C   UNL A   1      32.924  18.156  22.603  1.00  0.00     0.013 A 
ATOM     20  C   UNL A   1      32.608  19.016  24.825  1.00  0.00     0.124 A 
ATOM     21  C   UNL A   1      33.480  16.987  23.125  1.00  0.00     0.001 A 
ATOM     22  C   UNL A   1      33.180  17.856  25.349  1.00  0.00     0.046 A 
ATOM     23  C   UNL A   1      33.635  16.850  24.500  1.00  0.00     0.004 A 
BRANCH  20  24
ATOM     24  O   UNL A   1      32.149  19.910  25.752  1.00  0.00    -0.507 OA
ATOM     25  H   UNL A   1      32.079  20.819  25.532  1.00  0.00     0.293 HD
ENDBRANCH  20  24
ENDBRANCH  17  18
ENDBRANCH  11  17
ENDBRANCH   4   7
ENDBRANCH   2   3
ENDBRANCH   1   2
BRANCH   1  26
ATOM     26  C   UNL A   1      35.087  21.714  26.452  1.00  0.00     0.023 C 
BRANCH  26  27
ATOM     27  C   UNL A   1      36.267  22.048  25.547  1.00  0.00     0.116 C 
BRANCH  27  28
ATOM     28  N   UNL A   1      37.300  21.022  25.548  1.00  0.00    -0.352 N 
ATOM     29  C   UNL A   1      38.629  21.131  25.892  1.00  0.00     0.251 C 
ATOM     30  H   UNL A   1      37.009  20.125  25.263  1.00  0.00     0.163 HD
ATOM     31  O   UNL A   1      39.387  20.191  25.739  1.00  0.00    -0.269 OA
BRANCH  29  32
ATOM     32  C   UNL A   1      39.127  22.423  26.415  1.00  0.00     0.039 A 
ATOM     33  C   UNL A   1      40.241  22.424  27.257  1.00  0.00     0.014 A 
ATOM     34  C   UNL A   1      38.530  23.627  26.030  1.00  0.00     0.014 A 
ATOM     35  C   UNL A   1      40.806  23.639  27.651  1.00  0.00     0.010 A 
ATOM     36  C   UNL A   1      39.139  24.833  26.359  1.00  0.00     0.010 A 
ATOM     37  C   UNL A   1      40.284  24.852  27.172  1.00  0.00    -0.014 A 
BRANCH  37  38
ATOM     38  C   UNL A   1      40.929  26.151  27.489  1.00  0.00     0.031 A 
ATOM     39  C   UNL A   1      42.348  26.413  27.065  1.00  0.00     0.074 A 
ATOM     40  C   UNL A   1      40.270  27.056  28.242  1.00  0.00     0.049 A 
ATOM     41  N   UNL A   1      43.101  27.453  27.309  1.00  0.00    -0.248 NA
ATOM     42  C   UNL A   1      43.018  25.357  26.290  1.00  0.00     0.031 C 
ATOM     43  C   UNL A   1      38.919  26.887  28.782  1.00  0.00     0.029 A 
ATOM     44  N   UNL A   1      40.657  28.290  28.702  1.00  0.00    -0.354 N 
ATOM     45  C   UNL A   1      44.342  27.161  26.756  1.00  0.00     0.074 A 
ATOM     46  C   UNL A   1      44.251  25.833  26.190  1.00  0.00     0.031 C 
ATOM     47  C   UNL A   1      38.586  27.980  29.487  1.00  0.00     0.029 A 
ATOM     48  C   UNL A   1      39.706  28.916  29.475  1.00  0.00     0.049 A 
ATOM     49  H   UNL A   1      41.534  28.690  28.498  1.00  0.00     0.167 HD
ATOM     50  C   UNL A   1      45.447  27.941  26.694  1.00  0.00     0.034 A 
ATOM     51  C   UNL A   1      39.732  30.109  30.099  1.00  0.00     0.034 A 
ATOM     52  C   UNL A   1      45.516  29.283  27.203  1.00  0.00     0.049 A 
ATOM     53  C   UNL A   1      40.956  30.977  29.968  1.00  0.00     0.074 A 
ATOM     54  C   UNL A   1      46.559  30.186  27.108  1.00  0.00     0.029 A 
ATOM     55  N   UNL A   1      44.499  29.918  27.900  1.00  0.00    -0.354 N 
ATOM     56  N   UNL A   1      42.064  30.744  29.308  1.00  0.00    -0.248 NA
ATOM     57  C   UNL A   1      40.918  32.285  30.637  1.00  0.00     0.031 C 
ATOM     58  C   UNL A   1      46.177  31.365  27.756  1.00  0.00     0.029 A 
ATOM     59  C   UNL A   1      44.891  31.200  28.242  1.00  0.00     0.049 A 
ATOM     60  H   UNL A   1      43.629  29.515  28.119  1.00  0.00     0.167 HD
ATOM     61  C   UNL A   1      42.839  31.890  29.450  1.00  0.00     0.074 A 
ATOM     62  C   UNL A   1      42.066  32.822  30.243  1.00  0.00     0.031 C 
ATOM     63  C   UNL A   1      44.086  32.140  28.979  1.00  0.00     0.034 A 
BRANCH  50  64
ATOM     64  C   UNL A   1      46.655  27.386  25.988  1.00  0.00     0.023 A 
ATOM     65  C   UNL A   1      46.774  27.546  24.592  1.00  0.00     0.012 A 
ATOM     66  C   UNL A   1      47.698  26.766  26.704  1.00  0.00     0.148 A 
ATOM     67  C   UNL A   1      47.896  27.074  23.915  1.00  0.00     0.002 A 
ATOM     68  C   UNL A   1      48.834  26.335  26.027  1.00  0.00     0.091 A 
ATOM     69  F   UNL A   1      47.556  26.603  28.027  1.00  0.00    -0.205 F 
ATOM     70  C   UNL A   1      48.930  26.479  24.633  1.00  0.00     0.022 A 
BRANCH  68  71
ATOM     71  S   UNL A   1      50.252  25.624  26.869  1.00  0.00     0.127 S 
ATOM     72  O   UNL A   1      50.627  26.706  27.780  1.00  0.00    -0.237 OA
ATOM     73  O   UNL A   1      49.666  24.453  27.523  1.00  0.00    -0.237 OA
ATOM     74  O   UNL A   1      51.224  25.317  25.829  1.00  0.00    -0.744 OA
ENDBRANCH  68  71
ENDBRANCH  50  64
BRANCH  51  75
ATOM     75  C   UNL A   1      38.528  30.595  30.829  1.00  0.00     0.023 A 
ATOM     76  C   UNL A   1      38.445  30.395  32.222  1.00  0.00     0.012 A 
ATOM     77  C   UNL A   1      37.487  31.277  30.172  1.00  0.00     0.148 A 
ATOM     78  C   UNL A   1      37.335  30.837  32.940  1.00  0.00     0.002 A 
ATOM     79  C   UNL A   1      36.407  31.763  30.903  1.00  0.00     0.091 A 
ATOM     80  F   UNL A   1      37.577  31.448  28.844  1.00  0.00    -0.205 F 
ATOM     81  C   UNL A   1      36.322  31.530  32.283  1.00  0.00     0.022 A 
BRANCH  79  82
ATOM     82  S   UNL A   1      35.120  32.774  30.162  1.00  0.00     0.127 S 
ATOM     83  O   UNL A   1      34.258  33.049  31.310  1.00  0.00    -0.237 OA
ATOM     84  O   UNL A   1      35.882  33.924  29.674  1.00  0.00    -0.237 OA
ATOM     85  O   UNL A   1      34.534  31.954  29.111  1.00  0.00    -0.744 OA
ENDBRANCH  79  82
ENDBRANCH  51  75
BRANCH  63  86
ATOM     86  C   UNL A   1      44.688  33.487  29.275  1.00  0.00     0.023 A 
ATOM     87  C   UNL A   1      45.483  33.659  30.425  1.00  0.00     0.012 A 
ATOM     88  C   UNL A   1      44.538  34.556  28.370  1.00  0.00     0.148 A 
ATOM     89  C   UNL A   1      46.098  34.883  30.684  1.00  0.00     0.002 A 
ATOM     90  C   UNL A   1      45.191  35.760  28.613  1.00  0.00     0.091 A 
ATOM     91  F   UNL A   1      43.761  34.379  27.291  1.00  0.00    -0.205 F 
ATOM     92  C   UNL A   1      45.962  35.928  29.773  1.00  0.00     0.022 A 
BRANCH  90  93
ATOM     93  S   UNL A   1      45.148  37.126  27.445  1.00  0.00     0.127 S 
ATOM     94  O   UNL A   1      46.044  36.649  26.396  1.00  0.00    -0.237 OA
ATOM     95  O   UNL A   1      43.735  37.170  27.067  1.00  0.00    -0.237 OA
ATOM     96  O   UNL A   1      45.609  38.295  28.184  1.00  0.00    -0.744 OA
ENDBRANCH  90  93
ENDBRANCH  63  86
ENDBRANCH  37  38
ENDBRANCH  29  32
ENDBRANCH  27  28
ENDBRANCH  26  27
ENDBRANCH   1  26
TORSDOF 18
ENDMDL
MODEL 3
REMARK VINA RESULT:     -11.4      1.774      2.274
REMARK SMILES [NH3+][C@]1(C(=O)NCCCCNC(=O)c2ccc(-c3c4nc(c(-c5cccc(S(=O)(=O)[O-])c5F)c5ccc([nH]5)c(-c5cccc(S(=O)(=O)[O-])c5F)c5nc(c(-c6cccc(S(=O)(=O)[O-])c6F)c6ccc3[nH]6)C=C5)C=C4)cc2)CC[N@H+](Cc2ccccc2O)C1
REMARK SMILES IDX 7 1 6 2 5 3 3 4 4 5 2 7 76 8 87 9 77 10 78 11 1 13 79 17
REMARK SMILES IDX 80 18 81 19 85 20 82 21 84 22 83 23 86 24 8 26 9 27 10 28
REMARK SMILES IDX 11 29 12 31 13 32 14 33 75 34 15 35 74 36 16 37 17 38 18 39
REMARK SMILES IDX 68 40 19 41 73 42 67 43 69 44 20 45 72 46 66 47 65 48 21 50
REMARK SMILES IDX 53 51 33 52 52 53 34 54 37 55 51 56 70 57 35 58 36 59 50 61
REMARK SMILES IDX 71 62 38 63 22 64 23 65 31 66 24 67 26 68 32 69 25 70 27 71
REMARK SMILES IDX 28 72 29 73 30 74 54 75 55 76 63 77 56 78 58 79 64 80 57 81
REMARK SMILES IDX 59 82 60 83 61 84 62 85 39 86 40 87 48 88 41 89 43 90 49 91
REMARK SMILES IDX 42 92 44 93 45 94 46 95 47 96
REMARK H PARENT 5 6 78 12 1 14 1 15 1 16 86 25 10 30 69 49 37 60
REMARK Flexibility Score: inf
ROOT
ATOM      1  C   UNL A   1      32.065  28.494  27.599  1.00  0.00     0.023 C 
ENDROOT
BRANCH   1   2
ATOM      2  C   UNL A   1      32.040  27.251  26.715  1.00  0.00     0.116 C 
BRANCH   2   3
ATOM      3  N   UNL A   1      31.645  27.547  25.350  1.00  0.00    -0.350 N 
ATOM      4  C   UNL A   1      31.176  26.738  24.364  1.00  0.00     0.287 C 
ATOM      5  O   UNL A   1      30.838  27.284  23.306  1.00  0.00    -0.268 OA
ATOM      6  H   UNL A   1      31.732  28.494  25.096  1.00  0.00     0.163 HD
BRANCH   4   7
ATOM      7  C   UNL A   1      31.060  25.202  24.525  1.00  0.00     0.228 C 
ATOM      8  C   UNL A   1      30.797  24.463  23.217  1.00  0.00     0.146 C 
ATOM      9  C   UNL A   1      32.345  24.558  25.087  1.00  0.00     0.342 C 
ATOM     10  C   UNL A   1      31.435  23.105  23.449  1.00  0.00     0.270 C 
ATOM     11  N   UNL A   1      32.627  23.372  24.256  1.00  0.00    -0.325 N 
ATOM     12  H   UNL A   1      33.410  23.576  23.634  1.00  0.00     0.348 HD
BRANCH   7  13
ATOM     13  N   UNL A   1      29.918  24.911  25.452  1.00  0.00    -0.340 N 
ATOM     14  H   UNL A   1      30.281  24.683  26.377  1.00  0.00     0.345 HD
ATOM     15  H   UNL A   1      29.381  24.121  25.094  1.00  0.00     0.345 HD
ATOM     16  H   UNL A   1      29.315  25.731  25.516  1.00  0.00     0.345 HD
ENDBRANCH   7  13
BRANCH  11  17
ATOM     17  C   UNL A   1      33.170  22.213  24.981  1.00  0.00     0.303 C 
BRANCH  17  18
ATOM     18  C   UNL A   1      34.624  21.867  24.709  1.00  0.00     0.048 A 
ATOM     19  C   UNL A   1      35.477  22.893  24.254  1.00  0.00     0.013 A 
ATOM     20  C   UNL A   1      35.198  20.616  24.969  1.00  0.00     0.124 A 
ATOM     21  C   UNL A   1      36.858  22.709  24.177  1.00  0.00     0.001 A 
ATOM     22  C   UNL A   1      36.580  20.434  24.911  1.00  0.00     0.046 A 
ATOM     23  C   UNL A   1      37.413  21.485  24.535  1.00  0.00     0.004 A 
BRANCH  20  24
ATOM     24  O   UNL A   1      34.476  19.501  25.297  1.00  0.00    -0.507 OA
ATOM     25  H   UNL A   1      34.570  18.716  24.793  1.00  0.00     0.293 HD
ENDBRANCH  20  24
ENDBRANCH  17  18
ENDBRANCH  11  17
ENDBRANCH   4   7
ENDBRANCH   2   3
ENDBRANCH   1   2
BRANCH   1  26
ATOM     26  C   UNL A   1      31.685  29.794  26.896  1.00  0.00     0.023 C 
BRANCH  26  27
ATOM     27  C   UNL A   1      32.855  30.653  26.431  1.00  0.00     0.116 C 
BRANCH  27  28
ATOM     28  N   UNL A   1      32.784  32.027  26.906  1.00  0.00    -0.352 N 
ATOM     29  C   UNL A   1      33.654  32.704  27.731  1.00  0.00     0.251 C 
ATOM     30  H   UNL A   1      32.006  32.544  26.594  1.00  0.00     0.163 HD
ATOM     31  O   UNL A   1      33.391  33.828  28.116  1.00  0.00    -0.269 OA
BRANCH  29  32
ATOM     32  C   UNL A   1      34.894  32.027  28.172  1.00  0.00     0.039 A 
ATOM     33  C   UNL A   1      36.091  32.745  28.168  1.00  0.00     0.014 A 
ATOM     34  C   UNL A   1      34.859  30.709  28.637  1.00  0.00     0.014 A 
ATOM     35  C   UNL A   1      37.243  32.167  28.705  1.00  0.00     0.010 A 
ATOM     36  C   UNL A   1      35.987  30.165  29.242  1.00  0.00     0.010 A 
ATOM     37  C   UNL A   1      37.190  30.888  29.284  1.00  0.00    -0.014 A 
BRANCH  37  38
ATOM     38  C   UNL A   1      38.373  30.293  29.956  1.00  0.00     0.031 A 
ATOM     39  C   UNL A   1      38.769  30.752  31.333  1.00  0.00     0.074 A 
ATOM     40  C   UNL A   1      39.146  29.411  29.290  1.00  0.00     0.049 A 
ATOM     41  N   UNL A   1      39.804  30.404  32.051  1.00  0.00    -0.248 NA
ATOM     42  C   UNL A   1      37.904  31.755  31.976  1.00  0.00     0.031 C 
ATOM     43  C   UNL A   1      38.913  28.947  27.920  1.00  0.00     0.029 A 
ATOM     44  N   UNL A   1      40.296  28.765  29.667  1.00  0.00    -0.354 N 
ATOM     45  C   UNL A   1      39.739  31.170  33.208  1.00  0.00     0.074 A 
ATOM     46  C   UNL A   1      38.579  32.026  33.084  1.00  0.00     0.031 C 
ATOM     47  C   UNL A   1      39.882  28.081  27.578  1.00  0.00     0.029 A 
ATOM     48  C   UNL A   1      40.819  27.949  28.689  1.00  0.00     0.049 A 
ATOM     49  H   UNL A   1      40.710  28.874  30.554  1.00  0.00     0.167 HD
ATOM     50  C   UNL A   1      40.551  31.142  34.291  1.00  0.00     0.034 A 
ATOM     51  C   UNL A   1      41.925  27.181  28.689  1.00  0.00     0.034 A 
ATOM     52  C   UNL A   1      41.666  30.247  34.438  1.00  0.00     0.049 A 
ATOM     53  C   UNL A   1      42.779  27.128  29.928  1.00  0.00     0.074 A 
ATOM     54  C   UNL A   1      42.494  30.078  35.534  1.00  0.00     0.029 A 
ATOM     55  N   UNL A   1      42.110  29.369  33.461  1.00  0.00    -0.354 N 
ATOM     56  N   UNL A   1      42.612  27.748  31.071  1.00  0.00    -0.248 NA
ATOM     57  C   UNL A   1      43.953  26.244  29.889  1.00  0.00     0.031 C 
ATOM     58  C   UNL A   1      43.445  29.103  35.216  1.00  0.00     0.029 A 
ATOM     59  C   UNL A   1      43.200  28.656  33.928  1.00  0.00     0.049 A 
ATOM     60  H   UNL A   1      41.709  29.269  32.568  1.00  0.00     0.167 HD
ATOM     61  C   UNL A   1      43.635  27.301  31.899  1.00  0.00     0.074 A 
ATOM     62  C   UNL A   1      44.407  26.344  31.132  1.00  0.00     0.031 C 
ATOM     63  C   UNL A   1      43.920  27.662  33.175  1.00  0.00     0.034 A 
BRANCH  50  64
ATOM     64  C   UNL A   1      40.220  32.059  35.437  1.00  0.00     0.023 A 
ATOM     65  C   UNL A   1      40.945  33.259  35.593  1.00  0.00     0.012 A 
ATOM     66  C   UNL A   1      39.159  31.774  36.318  1.00  0.00     0.148 A 
ATOM     67  C   UNL A   1      40.640  34.145  36.624  1.00  0.00     0.002 A 
ATOM     68  C   UNL A   1      38.833  32.683  37.319  1.00  0.00     0.091 A 
ATOM     69  F   UNL A   1      38.496  30.618  36.167  1.00  0.00    -0.205 F 
ATOM     70  C   UNL A   1      39.578  33.863  37.479  1.00  0.00     0.022 A 
BRANCH  68  71
ATOM     71  S   UNL A   1      37.437  32.448  38.424  1.00  0.00     0.127 S 
ATOM     72  O   UNL A   1      37.452  30.997  38.613  1.00  0.00    -0.237 OA
ATOM     73  O   UNL A   1      37.842  33.220  39.600  1.00  0.00    -0.237 OA
ATOM     74  O   UNL A   1      36.275  32.975  37.722  1.00  0.00    -0.744 OA
ENDBRANCH  68  71
ENDBRANCH  50  64
BRANCH  51  75
ATOM     75  C   UNL A   1      42.238  26.326  27.510  1.00  0.00     0.023 A 
ATOM     76  C   UNL A   1      42.938  26.889  26.424  1.00  0.00     0.012 A 
ATOM     77  C   UNL A   1      41.885  24.964  27.465  1.00  0.00     0.148 A 
ATOM     78  C   UNL A   1      43.253  26.121  25.303  1.00  0.00     0.002 A 
ATOM     79  C   UNL A   1      42.248  24.190  26.367  1.00  0.00     0.091 A 
ATOM     80  F   UNL A   1      41.209  24.449  28.502  1.00  0.00    -0.205 F 
ATOM     81  C   UNL A   1      42.917  24.770  25.279  1.00  0.00     0.022 A 
BRANCH  79  82
ATOM     82  S   UNL A   1      41.969  22.417  26.305  1.00  0.00     0.127 S 
ATOM     83  O   UNL A   1      42.569  21.975  27.562  1.00  0.00    -0.237 OA
ATOM     84  O   UNL A   1      40.508  22.341  26.260  1.00  0.00    -0.237 OA
ATOM     85  O   UNL A   1      42.630  21.959  25.091  1.00  0.00    -0.744 OA
ENDBRANCH  79  82
ENDBRANCH  51  75
BRANCH  63  86
ATOM     86  C   UNL A   1      45.095  27.001  33.843  1.00  0.00     0.023 A 
ATOM     87  C   UNL A   1      46.371  27.590  33.756  1.00  0.00     0.012 A 
ATOM     88  C   UNL A   1      44.918  25.845  34.629  1.00  0.00     0.148 A 
ATOM     89  C   UNL A   1      47.460  27.024  34.419  1.00  0.00     0.002 A 
ATOM     90  C   UNL A   1      45.999  25.312  35.323  1.00  0.00     0.091 A 
ATOM     91  F   UNL A   1      43.700  25.286  34.683  1.00  0.00    -0.205 F 
ATOM     92  C   UNL A   1      47.271  25.894  35.210  1.00  0.00     0.022 A 
BRANCH  90  93
ATOM     93  S   UNL A   1      45.827  23.915  36.440  1.00  0.00     0.127 S 
ATOM     94  O   UNL A   1      45.588  22.816  35.509  1.00  0.00    -0.237 OA
ATOM     95  O   UNL A   1      47.131  23.881  37.102  1.00  0.00    -0.237 OA
ATOM     96  O   UNL A   1      44.714  24.246  37.322  1.00  0.00    -0.744 OA
ENDBRANCH  90  93
ENDBRANCH  63  86
ENDBRANCH  37  38
ENDBRANCH  29  32
ENDBRANCH  27  28
ENDBRANCH  26  27
ENDBRANCH   1  26
TORSDOF 18
ENDMDL
