MODEL 1
REMARK VINA RESULT:     -11.8      0.000      0.000
REMARK SMILES CNc1nc(C(=O)N2C[C@@H](C(=O)NCCCCNC(=O)c3ccc(-c4c5nc(c(-c6cccc(S(=O)(=O)[O-])c6F)c6ccc([nH]6)c(-c6cccc(S(=O)(=O)[O-])c6F)c6nc(c(-c7cccc(S(=O)(=O)[O-])c7F)c7ccc4[nH]7)C=C6)C=C5)cc3)[C@H](c3ccccc3C)C2)cs1
REMARK SMILES IDX 15 1 14 2 13 3 11 4 12 5 10 7 8 8 9 9 92 10 84 11 6 12 7 13
REMARK SMILES IDX 5 14 3 15 4 16 94 17 93 18 2 19 1 20 85 22 86 23 90 24 87 25
REMARK SMILES IDX 89 26 91 27 88 28 16 29 17 30 18 31 19 32 20 34 21 35 22 36
REMARK SMILES IDX 83 37 23 38 82 39 24 40 25 41 26 42 76 43 27 44 81 45 75 46
REMARK SMILES IDX 77 47 28 48 80 49 74 50 73 51 29 53 61 54 41 55 60 56 42 57
REMARK SMILES IDX 45 58 59 59 78 60 43 61 44 62 58 64 79 65 46 66 30 67 31 68
REMARK SMILES IDX 39 69 32 70 34 71 40 72 33 73 35 74 36 75 37 76 38 77 62 78
REMARK SMILES IDX 63 79 71 80 64 81 66 82 72 83 65 84 67 85 68 86 69 87 70 88
REMARK SMILES IDX 47 89 48 90 56 91 49 92 51 93 57 94 50 95 52 96 53 97 54 98
REMARK SMILES IDX 55 99
REMARK H PARENT 13 6 2 21 18 33 77 52 45 63
REMARK Flexibility Score: inf
ROOT
ATOM      1  C   UNL A   1      34.759  30.764  27.442  1.00  0.00     0.023 C 
ENDROOT
BRANCH   1   2
ATOM      2  C   UNL A   1      34.285  29.383  27.002  1.00  0.00     0.116 C 
BRANCH   2   3
ATOM      3  N   UNL A   1      33.144  28.930  27.774  1.00  0.00    -0.356 N 
ATOM      4  C   UNL A   1      32.170  28.041  27.435  1.00  0.00     0.225 C 
ATOM      5  O   UNL A   1      31.323  27.746  28.278  1.00  0.00    -0.275 OA
ATOM      6  H   UNL A   1      33.062  29.320  28.674  1.00  0.00     0.163 HD
BRANCH   4   7
ATOM      7  C   UNL A   1      32.117  27.486  26.034  1.00  0.00     0.107 C 
ATOM      8  N   UNL A   1      30.705  27.375  24.215  1.00  0.00    -0.336 N 
ATOM      9  C   UNL A   1      31.047  28.266  25.297  1.00  0.00     0.134 C 
ATOM     10  C   UNL A   1      30.679  26.011  24.711  1.00  0.00     0.129 C 
ATOM     11  C   UNL A   1      31.649  26.006  25.939  1.00  0.00     0.053 C 
BRANCH   8  12
ATOM     12  C   UNL A   1      30.510  27.710  22.892  1.00  0.00     0.273 C 
ATOM     13  O   UNL A   1      31.104  27.138  21.974  1.00  0.00    -0.267 OA
BRANCH  12  14
ATOM     14  C   UNL A   1      29.612  28.843  22.626  1.00  0.00     0.141 A 
ATOM     15  C   UNL A   1      28.968  30.690  21.545  1.00  0.00     0.183 A 
ATOM     16  N   UNL A   1      29.952  29.840  21.705  1.00  0.00    -0.215 NA
ATOM     17  S   UNL A   1      27.598  30.396  22.546  1.00  0.00    -0.105 S 
ATOM     18  C   UNL A   1      28.344  28.980  23.157  1.00  0.00     0.102 A 
BRANCH  15  19
ATOM     19  N   UNL A   1      28.965  31.707  20.663  1.00  0.00    -0.365 N 
ATOM     20  C   UNL A   1      27.737  32.338  20.254  1.00  0.00     0.142 C 
ATOM     21  H   UNL A   1      29.818  32.025  20.291  1.00  0.00     0.162 HD
ENDBRANCH  15  19
ENDBRANCH  12  14
ENDBRANCH   8  12
BRANCH  11  22
ATOM     22  C   UNL A   1      32.863  25.064  25.909  1.00  0.00    -0.039 A 
ATOM     23  C   UNL A   1      34.110  25.502  25.418  1.00  0.00     0.004 A 
ATOM     24  C   UNL A   1      32.794  23.736  26.408  1.00  0.00    -0.048 A 
ATOM     25  C   UNL A   1      35.235  24.670  25.406  1.00  0.00     0.000 A 
ATOM     26  C   UNL A   1      33.951  22.931  26.434  1.00  0.00     0.004 A 
ATOM     27  C   UNL A   1      31.551  23.103  26.982  1.00  0.00     0.044 C 
ATOM     28  C   UNL A   1      35.160  23.388  25.925  1.00  0.00     0.000 A 
ENDBRANCH  11  22
ENDBRANCH   4   7
ENDBRANCH   2   3
ENDBRANCH   1   2
BRANCH   1  29
ATOM     29  C   UNL A   1      33.648  31.736  27.838  1.00  0.00     0.023 C 
BRANCH  29  30
ATOM     30  C   UNL A   1      33.828  33.165  27.338  1.00  0.00     0.116 C 
BRANCH  30  31
ATOM     31  N   UNL A   1      33.129  34.140  28.164  1.00  0.00    -0.352 N 
ATOM     32  C   UNL A   1      33.358  34.496  29.472  1.00  0.00     0.251 C 
ATOM     33  H   UNL A   1      32.386  34.612  27.723  1.00  0.00     0.163 HD
ATOM     34  O   UNL A   1      32.559  35.220  30.058  1.00  0.00    -0.269 OA
BRANCH  32  35
ATOM     35  C   UNL A   1      34.555  33.985  30.173  1.00  0.00     0.039 A 
ATOM     36  C   UNL A   1      34.393  33.068  31.214  1.00  0.00     0.014 A 
ATOM     37  C   UNL A   1      35.835  34.405  29.798  1.00  0.00     0.014 A 
ATOM     38  C   UNL A   1      35.519  32.516  31.832  1.00  0.00     0.010 A 
ATOM     39  C   UNL A   1      36.953  33.802  30.365  1.00  0.00     0.010 A 
ATOM     40  C   UNL A   1      36.808  32.854  31.389  1.00  0.00    -0.014 A 
BRANCH  40  41
ATOM     41  C   UNL A   1      38.018  32.214  31.966  1.00  0.00     0.031 A 
ATOM     42  C   UNL A   1      38.713  31.102  31.228  1.00  0.00     0.074 A 
ATOM     43  C   UNL A   1      38.431  32.565  33.200  1.00  0.00     0.049 A 
ATOM     44  N   UNL A   1      39.734  30.377  31.603  1.00  0.00    -0.248 NA
ATOM     45  C   UNL A   1      38.170  30.736  29.909  1.00  0.00     0.031 C 
ATOM     46  C   UNL A   1      37.792  33.569  34.054  1.00  0.00     0.029 A 
ATOM     47  N   UNL A   1      39.470  32.093  33.964  1.00  0.00    -0.354 N 
ATOM     48  C   UNL A   1      39.934  29.448  30.589  1.00  0.00     0.074 A 
ATOM     49  C   UNL A   1      38.906  29.680  29.597  1.00  0.00     0.031 C 
ATOM     50  C   UNL A   1      38.450  33.638  35.221  1.00  0.00     0.029 A 
ATOM     51  C   UNL A   1      39.542  32.668  35.212  1.00  0.00     0.049 A 
ATOM     52  H   UNL A   1      40.103  31.408  33.649  1.00  0.00     0.167 HD
ATOM     53  C   UNL A   1      40.901  28.507  30.477  1.00  0.00     0.034 A 
ATOM     54  C   UNL A   1      40.389  32.438  36.235  1.00  0.00     0.034 A 
ATOM     55  C   UNL A   1      41.953  28.315  31.438  1.00  0.00     0.049 A 
ATOM     56  C   UNL A   1      41.488  31.427  36.062  1.00  0.00     0.074 A 
ATOM     57  C   UNL A   1      43.036  27.456  31.368  1.00  0.00     0.029 A 
ATOM     58  N   UNL A   1      42.054  28.988  32.645  1.00  0.00    -0.354 N 
ATOM     59  N   UNL A   1      41.761  30.675  35.023  1.00  0.00    -0.248 NA
ATOM     60  C   UNL A   1      42.420  31.257  37.187  1.00  0.00     0.031 C 
ATOM     61  C   UNL A   1      43.786  27.601  32.540  1.00  0.00     0.029 A 
ATOM     62  C   UNL A   1      43.177  28.561  33.333  1.00  0.00     0.049 A 
ATOM     63  H   UNL A   1      41.420  29.668  32.967  1.00  0.00     0.167 HD
ATOM     64  C   UNL A   1      42.914  29.970  35.354  1.00  0.00     0.074 A 
ATOM     65  C   UNL A   1      43.298  30.401  36.682  1.00  0.00     0.031 C 
ATOM     66  C   UNL A   1      43.582  29.040  34.630  1.00  0.00     0.034 A 
BRANCH  53  67
ATOM     67  C   UNL A   1      40.905  27.654  29.235  1.00  0.00     0.023 A 
ATOM     68  C   UNL A   1      40.024  26.556  29.149  1.00  0.00     0.012 A 
ATOM     69  C   UNL A   1      41.731  27.966  28.138  1.00  0.00     0.148 A 
ATOM     70  C   UNL A   1      39.991  25.760  28.005  1.00  0.00     0.002 A 
ATOM     71  C   UNL A   1      41.661  27.192  26.984  1.00  0.00     0.091 A 
ATOM     72  F   UNL A   1      42.578  28.999  28.247  1.00  0.00    -0.205 F 
ATOM     73  C   UNL A   1      40.801  26.084  26.921  1.00  0.00     0.022 A 
BRANCH  71  74
ATOM     74  S   UNL A   1      42.610  27.573  25.507  1.00  0.00     0.127 S 
ATOM     75  O   UNL A   1      43.973  27.615  26.035  1.00  0.00    -0.237 OA
ATOM     76  O   UNL A   1      42.323  26.423  24.649  1.00  0.00    -0.237 OA
ATOM     77  O   UNL A   1      42.087  28.840  25.014  1.00  0.00    -0.744 OA
ENDBRANCH  71  74
ENDBRANCH  53  67
BRANCH  54  78
ATOM     78  C   UNL A   1      40.277  33.242  37.485  1.00  0.00     0.023 A 
ATOM     79  C   UNL A   1      39.313  32.885  38.448  1.00  0.00     0.012 A 
ATOM     80  C   UNL A   1      41.136  34.327  37.743  1.00  0.00     0.148 A 
ATOM     81  C   UNL A   1      39.187  33.610  39.633  1.00  0.00     0.002 A 
ATOM     82  C   UNL A   1      41.041  35.013  38.949  1.00  0.00     0.091 A 
ATOM     83  F   UNL A   1      42.038  34.659  36.810  1.00  0.00    -0.205 F 
ATOM     84  C   UNL A   1      40.057  34.666  39.888  1.00  0.00     0.022 A 
BRANCH  82  85
ATOM     85  S   UNL A   1      42.206  36.298  39.418  1.00  0.00     0.127 S 
ATOM     86  O   UNL A   1      43.472  35.571  39.409  1.00  0.00    -0.237 OA
ATOM     87  O   UNL A   1      42.043  37.267  38.333  1.00  0.00    -0.237 OA
ATOM     88  O   UNL A   1      41.756  36.777  40.718  1.00  0.00    -0.744 OA
ENDBRANCH  82  85
ENDBRANCH  54  78
BRANCH  66  89
ATOM     89  C   UNL A   1      44.821  28.438  35.238  1.00  0.00     0.023 A 
ATOM     90  C   UNL A   1      46.079  29.017  34.977  1.00  0.00     0.012 A 
ATOM     91  C   UNL A   1      44.731  27.352  36.131  1.00  0.00     0.148 A 
ATOM     92  C   UNL A   1      47.231  28.507  35.572  1.00  0.00     0.002 A 
ATOM     93  C   UNL A   1      45.879  26.878  36.756  1.00  0.00     0.091 A 
ATOM     94  F   UNL A   1      43.529  26.802  36.352  1.00  0.00    -0.205 F 
ATOM     95  C   UNL A   1      47.130  27.446  36.469  1.00  0.00     0.022 A 
BRANCH  93  96
ATOM     96  S   UNL A   1      45.828  25.579  37.996  1.00  0.00     0.127 S 
ATOM     97  O   UNL A   1      47.230  25.501  38.404  1.00  0.00    -0.237 OA
ATOM     98  O   UNL A   1      44.931  26.145  39.005  1.00  0.00    -0.237 OA
ATOM     99  O   UNL A   1      45.304  24.401  37.319  1.00  0.00    -0.744 OA
ENDBRANCH  93  96
ENDBRANCH  66  89
ENDBRANCH  40  41
ENDBRANCH  32  35
ENDBRANCH  30  31
ENDBRANCH  29  30
ENDBRANCH   1  29
TORSDOF 18
ENDMDL
MODEL 2
REMARK VINA RESULT:     -11.5      2.265      4.263
REMARK SMILES CNc1nc(C(=O)N2C[C@@H](C(=O)NCCCCNC(=O)c3ccc(-c4c5nc(c(-c6cccc(S(=O)(=O)[O-])c6F)c6ccc([nH]6)c(-c6cccc(S(=O)(=O)[O-])c6F)c6nc(c(-c7cccc(S(=O)(=O)[O-])c7F)c7ccc4[nH]7)C=C6)C=C5)cc3)[C@H](c3ccccc3C)C2)cs1
REMARK SMILES IDX 15 1 14 2 13 3 11 4 12 5 10 7 8 8 9 9 92 10 84 11 6 12 7 13
REMARK SMILES IDX 5 14 3 15 4 16 94 17 93 18 2 19 1 20 85 22 86 23 90 24 87 25
REMARK SMILES IDX 89 26 91 27 88 28 16 29 17 30 18 31 19 32 20 34 21 35 22 36
REMARK SMILES IDX 83 37 23 38 82 39 24 40 25 41 26 42 76 43 27 44 81 45 75 46
REMARK SMILES IDX 77 47 28 48 80 49 74 50 73 51 29 53 61 54 41 55 60 56 42 57
REMARK SMILES IDX 45 58 59 59 78 60 43 61 44 62 58 64 79 65 46 66 30 67 31 68
REMARK SMILES IDX 39 69 32 70 34 71 40 72 33 73 35 74 36 75 37 76 38 77 62 78
REMARK SMILES IDX 63 79 71 80 64 81 66 82 72 83 65 84 67 85 68 86 69 87 70 88
REMARK SMILES IDX 47 89 48 90 56 91 49 92 51 93 57 94 50 95 52 96 53 97 54 98
REMARK SMILES IDX 55 99
REMARK H PARENT 13 6 2 21 18 33 77 52 45 63
REMARK Flexibility Score: inf
ROOT
ATOM      1  C   UNL A   1      33.098  30.461  27.292  1.00  0.00     0.023 C 
ENDROOT
BRANCH   1   2
ATOM      2  C   UNL A   1      32.132  30.296  26.124  1.00  0.00     0.116 C 
BRANCH   2   3
ATOM      3  N   UNL A   1      32.823  29.984  24.887  1.00  0.00    -0.356 N 
ATOM      4  C   UNL A   1      32.724  28.880  24.097  1.00  0.00     0.225 C 
ATOM      5  O   UNL A   1      33.359  28.853  23.043  1.00  0.00    -0.275 OA
ATOM      6  H   UNL A   1      33.455  30.671  24.573  1.00  0.00     0.163 HD
BRANCH   4   7
ATOM      7  C   UNL A   1      31.893  27.707  24.550  1.00  0.00     0.107 C 
ATOM      8  N   UNL A   1      32.084  25.450  24.980  1.00  0.00    -0.336 N 
ATOM      9  C   UNL A   1      32.860  26.662  25.068  1.00  0.00     0.134 C 
ATOM     10  C   UNL A   1      31.313  25.467  23.750  1.00  0.00     0.129 C 
ATOM     11  C   UNL A   1      31.117  26.982  23.413  1.00  0.00     0.053 C 
BRANCH   8  12
ATOM     12  C   UNL A   1      31.992  24.450  25.925  1.00  0.00     0.273 C 
ATOM     13  O   UNL A   1      31.378  24.601  26.984  1.00  0.00    -0.267 OA
BRANCH  12  14
ATOM     14  C   UNL A   1      32.731  23.211  25.644  1.00  0.00     0.141 A 
ATOM     15  C   UNL A   1      33.104  21.013  25.796  1.00  0.00     0.183 A 
ATOM     16  N   UNL A   1      32.392  22.005  26.269  1.00  0.00    -0.215 NA
ATOM     17  S   UNL A   1      34.281  21.469  24.626  1.00  0.00    -0.105 S 
ATOM     18  C   UNL A   1      33.725  23.088  24.693  1.00  0.00     0.102 A 
BRANCH  15  19
ATOM     19  N   UNL A   1      32.947  19.720  26.140  1.00  0.00    -0.365 N 
ATOM     20  C   UNL A   1      33.143  18.663  25.183  1.00  0.00     0.142 C 
ATOM     21  H   UNL A   1      32.694  19.494  27.064  1.00  0.00     0.162 HD
ENDBRANCH  15  19
ENDBRANCH  12  14
ENDBRANCH   8  12
BRANCH  11  22
ATOM     22  C   UNL A   1      29.685  27.531  23.312  1.00  0.00    -0.039 A 
ATOM     23  C   UNL A   1      28.606  26.862  23.926  1.00  0.00     0.004 A 
ATOM     24  C   UNL A   1      29.394  28.747  22.638  1.00  0.00    -0.048 A 
ATOM     25  C   UNL A   1      27.298  27.357  23.870  1.00  0.00     0.000 A 
ATOM     26  C   UNL A   1      28.079  29.255  22.636  1.00  0.00     0.004 A 
ATOM     27  C   UNL A   1      30.420  29.602  21.937  1.00  0.00     0.044 C 
ATOM     28  C   UNL A   1      27.036  28.561  23.235  1.00  0.00     0.000 A 
ENDBRANCH  11  22
ENDBRANCH   4   7
ENDBRANCH   2   3
ENDBRANCH   1   2
BRANCH   1  29
ATOM     29  C   UNL A   1      33.044  31.818  27.992  1.00  0.00     0.023 C 
BRANCH  29  30
ATOM     30  C   UNL A   1      33.294  33.023  27.091  1.00  0.00     0.116 C 
BRANCH  30  31
ATOM     31  N   UNL A   1      32.781  34.262  27.658  1.00  0.00    -0.352 N 
ATOM     32  C   UNL A   1      33.140  34.902  28.820  1.00  0.00     0.251 C 
ATOM     33  H   UNL A   1      32.075  34.706  27.133  1.00  0.00     0.163 HD
ATOM     34  O   UNL A   1      32.479  35.855  29.223  1.00  0.00    -0.269 OA
BRANCH  32  35
ATOM     35  C   UNL A   1      34.308  34.425  29.590  1.00  0.00     0.039 A 
ATOM     36  C   UNL A   1      34.100  33.812  30.829  1.00  0.00     0.014 A 
ATOM     37  C   UNL A   1      35.604  34.574  29.088  1.00  0.00     0.014 A 
ATOM     38  C   UNL A   1      35.187  33.285  31.531  1.00  0.00     0.010 A 
ATOM     39  C   UNL A   1      36.674  33.985  29.753  1.00  0.00     0.010 A 
ATOM     40  C   UNL A   1      36.479  33.337  30.982  1.00  0.00    -0.014 A 
BRANCH  40  41
ATOM     41  C   UNL A   1      37.636  32.704  31.664  1.00  0.00     0.031 A 
ATOM     42  C   UNL A   1      38.339  31.533  31.034  1.00  0.00     0.074 A 
ATOM     43  C   UNL A   1      37.991  33.119  32.896  1.00  0.00     0.049 A 
ATOM     44  N   UNL A   1      39.318  30.806  31.508  1.00  0.00    -0.248 NA
ATOM     45  C   UNL A   1      37.860  31.100  29.710  1.00  0.00     0.031 C 
ATOM     46  C   UNL A   1      37.334  34.188  33.651  1.00  0.00     0.029 A 
ATOM     47  N   UNL A   1      38.972  32.669  33.745  1.00  0.00    -0.354 N 
ATOM     48  C   UNL A   1      39.547  29.812  30.564  1.00  0.00     0.074 A 
ATOM     49  C   UNL A   1      38.582  30.009  29.503  1.00  0.00     0.031 C 
ATOM     50  C   UNL A   1      37.929  34.312  34.848  1.00  0.00     0.029 A 
ATOM     51  C   UNL A   1      38.991  33.316  34.958  1.00  0.00     0.049 A 
ATOM     52  H   UNL A   1      39.602  31.951  33.507  1.00  0.00     0.167 HD
ATOM     53  C   UNL A   1      40.492  28.843  30.563  1.00  0.00     0.034 A 
ATOM     54  C   UNL A   1      39.773  33.128  36.040  1.00  0.00     0.034 A 
ATOM     55  C   UNL A   1      41.484  28.684  31.592  1.00  0.00     0.049 A 
ATOM     56  C   UNL A   1      40.852  32.081  35.990  1.00  0.00     0.074 A 
ATOM     57  C   UNL A   1      42.545  27.796  31.634  1.00  0.00     0.029 A 
ATOM     58  N   UNL A   1      41.536  29.426  32.761  1.00  0.00    -0.354 N 
ATOM     59  N   UNL A   1      41.161  31.262  35.014  1.00  0.00    -0.248 NA
ATOM     60  C   UNL A   1      41.715  31.957  37.174  1.00  0.00     0.031 C 
ATOM     61  C   UNL A   1      43.232  27.993  32.836  1.00  0.00     0.029 A 
ATOM     62  C   UNL A   1      42.608  29.014  33.535  1.00  0.00     0.049 A 
ATOM     63  H   UNL A   1      40.905  30.140  33.005  1.00  0.00     0.167 HD
ATOM     64  C   UNL A   1      42.273  30.550  35.451  1.00  0.00     0.074 A 
ATOM     65  C   UNL A   1      42.596  31.050  36.771  1.00  0.00     0.031 C 
ATOM     66  C   UNL A   1      42.954  29.561  34.823  1.00  0.00     0.034 A 
BRANCH  53  67
ATOM     67  C   UNL A   1      40.541  27.917  29.376  1.00  0.00     0.023 A 
ATOM     68  C   UNL A   1      39.679  26.800  29.336  1.00  0.00     0.012 A 
ATOM     69  C   UNL A   1      41.389  28.175  28.283  1.00  0.00     0.148 A 
ATOM     70  C   UNL A   1      39.687  25.936  28.242  1.00  0.00     0.002 A 
ATOM     71  C   UNL A   1      41.361  27.331  27.177  1.00  0.00     0.091 A 
ATOM     72  F   UNL A   1      42.217  29.226  28.349  1.00  0.00    -0.205 F 
ATOM     73  C   UNL A   1      40.519  26.207  27.160  1.00  0.00     0.022 A 
BRANCH  71  74
ATOM     74  S   UNL A   1      42.341  27.638  25.703  1.00  0.00     0.127 S 
ATOM     75  O   UNL A   1      43.699  27.631  26.245  1.00  0.00    -0.237 OA
ATOM     76  O   UNL A   1      42.012  26.483  24.867  1.00  0.00    -0.237 OA
ATOM     77  O   UNL A   1      41.880  28.915  25.177  1.00  0.00    -0.744 OA
ENDBRANCH  71  74
ENDBRANCH  53  67
BRANCH  54  78
ATOM     78  C   UNL A   1      39.615  34.009  37.232  1.00  0.00     0.023 A 
ATOM     79  C   UNL A   1      40.070  35.340  37.168  1.00  0.00     0.012 A 
ATOM     80  C   UNL A   1      38.989  33.552  38.407  1.00  0.00     0.148 A 
ATOM     81  C   UNL A   1      39.930  36.193  38.263  1.00  0.00     0.002 A 
ATOM     82  C   UNL A   1      38.804  34.423  39.476  1.00  0.00     0.091 A 
ATOM     83  F   UNL A   1      38.574  32.279  38.453  1.00  0.00    -0.205 F 
ATOM     84  C   UNL A   1      39.288  35.738  39.411  1.00  0.00     0.022 A 
BRANCH  82  85
ATOM     85  S   UNL A   1      37.871  33.962  40.941  1.00  0.00     0.127 S 
ATOM     86  O   UNL A   1      38.845  33.159  41.675  1.00  0.00    -0.237 OA
ATOM     87  O   UNL A   1      37.574  35.267  41.534  1.00  0.00    -0.237 OA
ATOM     88  O   UNL A   1      36.700  33.250  40.448  1.00  0.00    -0.744 OA
ENDBRANCH  82  85
ENDBRANCH  54  78
BRANCH  66  89
ATOM     89  C   UNL A   1      44.140  28.966  35.535  1.00  0.00     0.023 A 
ATOM     90  C   UNL A   1      45.418  29.531  35.353  1.00  0.00     0.012 A 
ATOM     91  C   UNL A   1      43.976  27.903  36.445  1.00  0.00     0.148 A 
ATOM     92  C   UNL A   1      46.520  29.029  36.043  1.00  0.00     0.002 A 
ATOM     93  C   UNL A   1      45.071  27.437  37.163  1.00  0.00     0.091 A 
ATOM     94  F   UNL A   1      42.757  27.366  36.589  1.00  0.00    -0.205 F 
ATOM     95  C   UNL A   1      46.344  27.992  36.956  1.00  0.00     0.022 A 
BRANCH  93  96
ATOM     96  S   UNL A   1      44.919  26.170  38.427  1.00  0.00     0.127 S 
ATOM     97  O   UNL A   1      44.332  25.064  37.672  1.00  0.00    -0.237 OA
ATOM     98  O   UNL A   1      46.311  25.961  38.829  1.00  0.00    -0.237 OA
ATOM     99  O   UNL A   1      44.073  26.741  39.465  1.00  0.00    -0.744 OA
ENDBRANCH  93  96
ENDBRANCH  66  89
ENDBRANCH  40  41
ENDBRANCH  32  35
ENDBRANCH  30  31
ENDBRANCH  29  30
ENDBRANCH   1  29
TORSDOF 18
ENDMDL
MODEL 3
REMARK VINA RESULT:     -11.5      5.409      8.915
REMARK SMILES CNc1nc(C(=O)N2C[C@@H](C(=O)NCCCCNC(=O)c3ccc(-c4c5nc(c(-c6cccc(S(=O)(=O)[O-])c6F)c6ccc([nH]6)c(-c6cccc(S(=O)(=O)[O-])c6F)c6nc(c(-c7cccc(S(=O)(=O)[O-])c7F)c7ccc4[nH]7)C=C6)C=C5)cc3)[C@H](c3ccccc3C)C2)cs1
REMARK SMILES IDX 15 1 14 2 13 3 11 4 12 5 10 7 8 8 9 9 92 10 84 11 6 12 7 13
REMARK SMILES IDX 5 14 3 15 4 16 94 17 93 18 2 19 1 20 85 22 86 23 90 24 87 25
REMARK SMILES IDX 89 26 91 27 88 28 16 29 17 30 18 31 19 32 20 34 21 35 22 36
REMARK SMILES IDX 83 37 23 38 82 39 24 40 25 41 26 42 76 43 27 44 81 45 75 46
REMARK SMILES IDX 77 47 28 48 80 49 74 50 73 51 29 53 61 54 41 55 60 56 42 57
REMARK SMILES IDX 45 58 59 59 78 60 43 61 44 62 58 64 79 65 46 66 30 67 31 68
REMARK SMILES IDX 39 69 32 70 34 71 40 72 33 73 35 74 36 75 37 76 38 77 62 78
REMARK SMILES IDX 63 79 71 80 64 81 66 82 72 83 65 84 67 85 68 86 69 87 70 88
REMARK SMILES IDX 47 89 48 90 56 91 49 92 51 93 57 94 50 95 52 96 53 97 54 98
REMARK SMILES IDX 55 99
REMARK H PARENT 13 6 2 21 18 33 77 52 45 63
REMARK Flexibility Score: inf
ROOT
ATOM      1  C   UNL A   1      34.772  24.572  23.516  1.00  0.00     0.023 C 
ENDROOT
BRANCH   1   2
ATOM      2  C   UNL A   1      33.780  24.114  22.452  1.00  0.00     0.116 C 
BRANCH   2   3
ATOM      3  N   UNL A   1      32.906  25.190  22.025  1.00  0.00    -0.356 N 
ATOM      4  C   UNL A   1      32.077  25.975  22.766  1.00  0.00     0.225 C 
ATOM      5  O   UNL A   1      31.470  26.886  22.202  1.00  0.00    -0.275 OA
ATOM      6  H   UNL A   1      32.914  25.381  21.059  1.00  0.00     0.163 HD
BRANCH   4   7
ATOM      7  C   UNL A   1      31.879  25.683  24.231  1.00  0.00     0.107 C 
ATOM      8  N   UNL A   1      30.544  24.430  25.633  1.00  0.00    -0.336 N 
ATOM      9  C   UNL A   1      31.130  24.369  24.316  1.00  0.00     0.134 C 
ATOM     10  C   UNL A   1      30.075  25.781  25.882  1.00  0.00     0.129 C 
ATOM     11  C   UNL A   1      30.966  26.696  24.979  1.00  0.00     0.053 C 
BRANCH   8  12
ATOM     12  C   UNL A   1      30.495  23.419  26.569  1.00  0.00     0.273 C 
ATOM     13  O   UNL A   1      29.627  23.376  27.444  1.00  0.00    -0.267 OA
BRANCH  12  14
ATOM     14  C   UNL A   1      31.579  22.428  26.524  1.00  0.00     0.141 A 
ATOM     15  C   UNL A   1      32.632  20.635  25.705  1.00  0.00     0.183 A 
ATOM     16  N   UNL A   1      31.521  21.327  25.662  1.00  0.00    -0.215 NA
ATOM     17  S   UNL A   1      33.792  21.214  26.839  1.00  0.00    -0.105 S 
ATOM     18  C   UNL A   1      32.768  22.533  27.219  1.00  0.00     0.102 A 
BRANCH  15  19
ATOM     19  N   UNL A   1      32.908  19.570  24.928  1.00  0.00    -0.365 N 
ATOM     20  C   UNL A   1      34.265  19.173  24.658  1.00  0.00     0.142 C 
ATOM     21  H   UNL A   1      32.167  19.054  24.537  1.00  0.00     0.162 HD
ENDBRANCH  15  19
ENDBRANCH  12  14
ENDBRANCH   8  12
BRANCH  11  22
ATOM     22  C   UNL A   1      31.816  27.784  25.652  1.00  0.00    -0.039 A 
ATOM     23  C   UNL A   1      32.803  27.450  26.602  1.00  0.00     0.004 A 
ATOM     24  C   UNL A   1      31.676  29.159  25.319  1.00  0.00    -0.048 A 
ATOM     25  C   UNL A   1      33.608  28.423  27.208  1.00  0.00     0.000 A 
ATOM     26  C   UNL A   1      32.530  30.116  25.903  1.00  0.00     0.004 A 
ATOM     27  C   UNL A   1      30.685  29.698  24.318  1.00  0.00     0.044 C 
ATOM     28  C   UNL A   1      33.480  29.755  26.850  1.00  0.00     0.000 A 
ENDBRANCH  11  22
ENDBRANCH   4   7
ENDBRANCH   2   3
ENDBRANCH   1   2
BRANCH   1  29
ATOM     29  C   UNL A   1      35.920  23.603  23.792  1.00  0.00     0.023 C 
BRANCH  29  30
ATOM     30  C   UNL A   1      36.694  23.865  25.079  1.00  0.00     0.116 C 
BRANCH  30  31
ATOM     31  N   UNL A   1      37.447  22.702  25.527  1.00  0.00    -0.352 N 
ATOM     32  C   UNL A   1      38.639  22.647  26.211  1.00  0.00     0.251 C 
ATOM     33  H   UNL A   1      37.046  21.829  25.310  1.00  0.00     0.163 HD
ATOM     34  O   UNL A   1      39.210  21.571  26.358  1.00  0.00    -0.269 OA
BRANCH  32  35
ATOM     35  C   UNL A   1      39.237  23.889  26.745  1.00  0.00     0.039 A 
ATOM     36  C   UNL A   1      39.872  24.770  25.865  1.00  0.00     0.014 A 
ATOM     37  C   UNL A   1      39.164  24.187  28.109  1.00  0.00     0.014 A 
ATOM     38  C   UNL A   1      40.371  25.984  26.343  1.00  0.00     0.010 A 
ATOM     39  C   UNL A   1      39.597  25.426  28.569  1.00  0.00     0.010 A 
ATOM     40  C   UNL A   1      40.207  26.337  27.693  1.00  0.00    -0.014 A 
BRANCH  40  41
ATOM     41  C   UNL A   1      40.646  27.659  28.207  1.00  0.00     0.031 A 
ATOM     42  C   UNL A   1      42.112  27.959  28.371  1.00  0.00     0.074 A 
ATOM     43  C   UNL A   1      39.726  28.552  28.621  1.00  0.00     0.049 A 
ATOM     44  N   UNL A   1      42.684  29.024  28.870  1.00  0.00    -0.248 NA
ATOM     45  C   UNL A   1      43.058  26.913  27.949  1.00  0.00     0.031 C 
ATOM     46  C   UNL A   1      38.276  28.347  28.594  1.00  0.00     0.029 A 
ATOM     47  N   UNL A   1      39.874  29.799  29.175  1.00  0.00    -0.354 N 
ATOM     48  C   UNL A   1      44.049  28.765  28.857  1.00  0.00     0.074 A 
ATOM     49  C   UNL A   1      44.218  27.427  28.331  1.00  0.00     0.031 C 
ATOM     50  C   UNL A   1      37.668  29.428  29.107  1.00  0.00     0.029 A 
ATOM     51  C   UNL A   1      38.682  30.393  29.523  1.00  0.00     0.049 A 
ATOM     52  H   UNL A   1      40.749  30.228  29.311  1.00  0.00     0.167 HD
ATOM     53  C   UNL A   1      45.071  29.575  29.219  1.00  0.00     0.034 A 
ATOM     54  C   UNL A   1      38.434  31.578  30.115  1.00  0.00     0.034 A 
ATOM     55  C   UNL A   1      44.903  30.923  29.690  1.00  0.00     0.049 A 
ATOM     56  C   UNL A   1      39.587  32.482  30.456  1.00  0.00     0.074 A 
ATOM     57  C   UNL A   1      45.879  31.858  29.988  1.00  0.00     0.029 A 
ATOM     58  N   UNL A   1      43.680  31.529  29.933  1.00  0.00    -0.354 N 
ATOM     59  N   UNL A   1      40.870  32.284  30.278  1.00  0.00    -0.248 NA
ATOM     60  C   UNL A   1      39.257  33.788  31.045  1.00  0.00     0.031 C 
ATOM     61  C   UNL A   1      45.246  33.026  30.426  1.00  0.00     0.029 A 
ATOM     62  C   UNL A   1      43.875  32.823  30.384  1.00  0.00     0.049 A 
ATOM     63  H   UNL A   1      42.804  31.102  29.806  1.00  0.00     0.167 HD
ATOM     64  C   UNL A   1      41.498  33.451  30.699  1.00  0.00     0.074 A 
ATOM     65  C   UNL A   1      40.452  34.358  31.122  1.00  0.00     0.031 C 
ATOM     66  C   UNL A   1      42.822  33.738  30.747  1.00  0.00     0.034 A 
BRANCH  53  67
ATOM     67  C   UNL A   1      46.473  29.046  29.058  1.00  0.00     0.023 A 
ATOM     68  C   UNL A   1      47.073  28.343  30.124  1.00  0.00     0.012 A 
ATOM     69  C   UNL A   1      47.173  29.191  27.845  1.00  0.00     0.148 A 
ATOM     70  C   UNL A   1      48.360  27.824  29.997  1.00  0.00     0.002 A 
ATOM     71  C   UNL A   1      48.441  28.634  27.712  1.00  0.00     0.091 A 
ATOM     72  F   UNL A   1      46.596  29.882  26.851  1.00  0.00    -0.205 F 
ATOM     73  C   UNL A   1      49.039  27.961  28.790  1.00  0.00     0.022 A 
BRANCH  71  74
ATOM     74  S   UNL A   1      49.365  28.691  26.173  1.00  0.00     0.127 S 
ATOM     75  O   UNL A   1      49.789  30.090  26.136  1.00  0.00    -0.237 OA
ATOM     76  O   UNL A   1      50.442  27.734  26.422  1.00  0.00    -0.237 OA
ATOM     77  O   UNL A   1      48.429  28.290  25.131  1.00  0.00    -0.744 OA
ENDBRANCH  71  74
ENDBRANCH  53  67
BRANCH  54  78
ATOM     78  C   UNL A   1      37.027  32.011  30.346  1.00  0.00     0.023 A 
ATOM     79  C   UNL A   1      36.432  31.775  31.600  1.00  0.00     0.012 A 
ATOM     80  C   UNL A   1      36.290  32.683  29.351  1.00  0.00     0.148 A 
ATOM     81  C   UNL A   1      35.120  32.175  31.853  1.00  0.00     0.002 A 
ATOM     82  C   UNL A   1      35.000  33.126  29.627  1.00  0.00     0.091 A 
ATOM     83  F   UNL A   1      36.868  32.887  28.160  1.00  0.00    -0.205 F 
ATOM     84  C   UNL A   1      34.408  32.859  30.871  1.00  0.00     0.022 A 
BRANCH  82  85
ATOM     85  S   UNL A   1      34.062  34.131  28.470  1.00  0.00     0.127 S 
ATOM     86  O   UNL A   1      32.876  34.461  29.255  1.00  0.00    -0.237 OA
ATOM     87  O   UNL A   1      34.975  35.250  28.230  1.00  0.00    -0.237 OA
ATOM     88  O   UNL A   1      33.840  33.281  27.307  1.00  0.00    -0.744 OA
ENDBRANCH  82  85
ENDBRANCH  54  78
BRANCH  66  89
ATOM     89  C   UNL A   1      43.225  35.101  31.245  1.00  0.00     0.023 A 
ATOM     90  C   UNL A   1      43.476  35.295  32.617  1.00  0.00     0.012 A 
ATOM     91  C   UNL A   1      43.434  36.164  30.345  1.00  0.00     0.148 A 
ATOM     92  C   UNL A   1      43.901  36.536  33.091  1.00  0.00     0.002 A 
ATOM     93  C   UNL A   1      43.902  37.384  30.818  1.00  0.00     0.091 A 
ATOM     94  F   UNL A   1      43.171  35.965  29.046  1.00  0.00    -0.205 F 
ATOM     95  C   UNL A   1      44.125  37.575  32.191  1.00  0.00     0.022 A 
BRANCH  93  96
ATOM     96  S   UNL A   1      44.307  38.747  29.720  1.00  0.00     0.127 S 
ATOM     97  O   UNL A   1      45.246  38.115  28.794  1.00  0.00    -0.237 OA
ATOM     98  O   UNL A   1      43.006  39.077  29.137  1.00  0.00    -0.237 OA
ATOM     99  O   UNL A   1      44.867  39.790  30.569  1.00  0.00    -0.744 OA
ENDBRANCH  93  96
ENDBRANCH  66  89
ENDBRANCH  40  41
ENDBRANCH  32  35
ENDBRANCH  30  31
ENDBRANCH  29  30
ENDBRANCH   1  29
TORSDOF 18
ENDMDL
