MODEL 1
REMARK VINA RESULT:     -12.6      0.000      0.000
REMARK SMILES C[N@H+]1C[C@@H](Oc2cccc3cccnc23)C[C@H]1C(=O)NCCCCNC(=O)c1ccc(-c2c3nc(c(-c4cccc(S(=O)(=O)[O-])c4F)c4ccc([nH]4)c(-c4cccc(S(=O)(=O)[O-])c4F)c4nc(c(-c5cccc(S(=O)(=O)[O-])c5F)c5ccc2[nH]5)C=C4)C=C3)cc1
REMARK SMILES IDX 23 1 22 2 21 3 20 4 18 5 19 6 17 8 1 9 2 10 3 11 4 13 16 14
REMARK SMILES IDX 5 15 6 16 7 17 15 18 8 19 10 20 14 21 9 22 11 23 13 24 12 25
REMARK SMILES IDX 24 26 25 27 26 28 27 30 28 31 29 32 90 33 30 34 89 35 31 36
REMARK SMILES IDX 32 37 33 38 83 39 34 40 88 41 82 42 84 43 35 44 87 45 81 46
REMARK SMILES IDX 80 47 36 49 68 50 48 51 67 52 49 53 52 54 66 55 85 56 50 57
REMARK SMILES IDX 51 58 65 60 86 61 53 62 37 63 38 64 46 65 39 66 41 67 47 68
REMARK SMILES IDX 40 69 42 70 43 71 44 72 45 73 69 74 70 75 78 76 71 77 73 78
REMARK SMILES IDX 79 79 72 80 74 81 75 82 76 83 77 84 54 85 55 86 63 87 56 88
REMARK SMILES IDX 58 89 64 90 57 91 59 92 60 93 61 94 62 95
REMARK H PARENT 20 7 2 12 25 29 84 48 52 59
REMARK Flexibility Score: inf
ROOT
ATOM      1  C   UNL A   1      32.862  29.703  25.299  1.00  0.00     0.023 C 
ENDROOT
BRANCH   1   2
ATOM      2  C   UNL A   1      33.768  28.469  25.320  1.00  0.00     0.023 C 
BRANCH   2   3
ATOM      3  C   UNL A   1      33.057  27.129  25.133  1.00  0.00     0.116 C 
BRANCH   3   4
ATOM      4  N   UNL A   1      31.705  27.048  25.645  1.00  0.00    -0.351 N 
ATOM      5  C   UNL A   1      30.721  26.141  25.387  1.00  0.00     0.278 C 
ATOM      6  O   UNL A   1      29.988  25.870  26.352  1.00  0.00    -0.268 OA
ATOM      7  H   UNL A   1      31.458  27.759  26.278  1.00  0.00     0.163 HD
BRANCH   5   8
ATOM      8  C   UNL A   1      30.403  25.460  24.033  1.00  0.00     0.278 C 
ATOM      9  C   UNL A   1      30.642  27.408  22.509  1.00  0.00     0.333 C 
ATOM     10  N   UNL A   1      30.915  26.030  22.797  1.00  0.00    -0.324 N 
ATOM     11  C   UNL A   1      32.150  25.378  22.393  1.00  0.00     0.308 C 
ATOM     12  H   UNL A   1      30.283  25.783  22.035  1.00  0.00     0.348 HD
ATOM     13  C   UNL A   1      32.108  23.997  23.100  1.00  0.00     0.234 C 
ATOM     14  C   UNL A   1      30.797  23.998  23.887  1.00  0.00     0.126 C 
BRANCH  13  15
ATOM     15  O   UNL A   1      33.343  23.560  23.680  1.00  0.00    -0.482 OA
BRANCH  15  16
ATOM     16  C   UNL A   1      33.667  22.291  24.080  1.00  0.00     0.146 A 
ATOM     17  C   UNL A   1      32.782  21.211  24.007  1.00  0.00     0.049 A 
ATOM     18  C   UNL A   1      35.014  22.065  24.444  1.00  0.00     0.112 A 
ATOM     19  C   UNL A   1      33.165  19.931  24.398  1.00  0.00     0.005 A 
ATOM     20  C   UNL A   1      35.403  20.739  24.771  1.00  0.00     0.004 A 
ATOM     21  N   UNL A   1      35.917  23.074  24.496  1.00  0.00    -0.252 NA
ATOM     22  C   UNL A   1      34.474  19.694  24.780  1.00  0.00     0.010 A 
ATOM     23  C   UNL A   1      36.741  20.479  25.081  1.00  0.00     0.012 A 
ATOM     24  C   UNL A   1      37.201  22.784  24.819  1.00  0.00     0.112 A 
ATOM     25  C   UNL A   1      37.660  21.514  25.099  1.00  0.00     0.021 A 
ENDBRANCH  15  16
ENDBRANCH  13  15
ENDBRANCH   5   8
ENDBRANCH   3   4
ENDBRANCH   2   3
ENDBRANCH   1   2
BRANCH   1  26
ATOM     26  C   UNL A   1      32.238  30.095  26.637  1.00  0.00     0.116 C 
BRANCH  26  27
ATOM     27  N   UNL A   1      32.211  31.527  26.898  1.00  0.00    -0.352 N 
ATOM     28  C   UNL A   1      33.183  32.312  27.480  1.00  0.00     0.251 C 
ATOM     29  H   UNL A   1      31.391  31.996  26.622  1.00  0.00     0.163 HD
ATOM     30  O   UNL A   1      32.973  33.508  27.669  1.00  0.00    -0.269 OA
BRANCH  28  31
ATOM     31  C   UNL A   1      34.480  31.722  27.903  1.00  0.00     0.039 A 
ATOM     32  C   UNL A   1      35.610  32.544  27.949  1.00  0.00     0.014 A 
ATOM     33  C   UNL A   1      34.592  30.376  28.261  1.00  0.00     0.014 A 
ATOM     34  C   UNL A   1      36.815  32.042  28.453  1.00  0.00     0.010 A 
ATOM     35  C   UNL A   1      35.772  29.889  28.811  1.00  0.00     0.010 A 
ATOM     36  C   UNL A   1      36.886  30.726  28.939  1.00  0.00    -0.014 A 
BRANCH  36  37
ATOM     37  C   UNL A   1      38.051  30.261  29.729  1.00  0.00     0.031 A 
ATOM     38  C   UNL A   1      38.310  30.759  31.119  1.00  0.00     0.074 A 
ATOM     39  C   UNL A   1      38.958  29.480  29.106  1.00  0.00     0.049 A 
ATOM     40  N   UNL A   1      39.277  30.435  31.940  1.00  0.00    -0.248 NA
ATOM     41  C   UNL A   1      37.389  31.776  31.651  1.00  0.00     0.031 C 
ATOM     42  C   UNL A   1      38.883  29.060  27.704  1.00  0.00     0.029 A 
ATOM     43  N   UNL A   1      40.132  28.931  29.553  1.00  0.00    -0.354 N 
ATOM     44  C   UNL A   1      39.095  31.215  33.074  1.00  0.00     0.074 A 
ATOM     45  C   UNL A   1      37.944  32.057  32.824  1.00  0.00     0.031 C 
ATOM     46  C   UNL A   1      39.957  28.313  27.409  1.00  0.00     0.029 A 
ATOM     47  C   UNL A   1      40.799  28.206  28.593  1.00  0.00     0.049 A 
ATOM     48  H   UNL A   1      40.465  29.045  30.472  1.00  0.00     0.167 HD
ATOM     49  C   UNL A   1      39.806  31.206  34.228  1.00  0.00     0.034 A 
ATOM     50  C   UNL A   1      41.954  27.515  28.665  1.00  0.00     0.034 A 
ATOM     51  C   UNL A   1      40.933  30.342  34.466  1.00  0.00     0.049 A 
ATOM     52  C   UNL A   1      42.661  27.436  29.987  1.00  0.00     0.074 A 
ATOM     53  C   UNL A   1      41.657  30.169  35.633  1.00  0.00     0.029 A 
ATOM     54  N   UNL A   1      41.508  29.512  33.515  1.00  0.00    -0.354 N 
ATOM     55  N   UNL A   1      42.349  28.012  31.123  1.00  0.00    -0.248 NA
ATOM     56  C   UNL A   1      43.847  26.571  30.056  1.00  0.00     0.031 C 
ATOM     57  C   UNL A   1      42.678  29.245  35.382  1.00  0.00     0.029 A 
ATOM     58  C   UNL A   1      42.580  28.829  34.064  1.00  0.00     0.049 A 
ATOM     59  H   UNL A   1      41.199  29.423  32.584  1.00  0.00     0.167 HD
ATOM     60  C   UNL A   1      43.278  27.557  32.049  1.00  0.00     0.074 A 
ATOM     61  C   UNL A   1      44.149  26.637  31.345  1.00  0.00     0.031 C 
ATOM     62  C   UNL A   1      43.409  27.883  33.359  1.00  0.00     0.034 A 
BRANCH  49  63
ATOM     63  C   UNL A   1      39.343  32.103  35.349  1.00  0.00     0.023 A 
ATOM     64  C   UNL A   1      38.449  31.593  36.314  1.00  0.00     0.012 A 
ATOM     65  C   UNL A   1      39.840  33.413  35.498  1.00  0.00     0.148 A 
ATOM     66  C   UNL A   1      38.030  32.379  37.386  1.00  0.00     0.002 A 
ATOM     67  C   UNL A   1      39.449  34.178  36.594  1.00  0.00     0.091 A 
ATOM     68  F   UNL A   1      40.675  33.891  34.565  1.00  0.00    -0.205 F 
ATOM     69  C   UNL A   1      38.538  33.666  37.531  1.00  0.00     0.022 A 
BRANCH  67  70
ATOM     70  S   UNL A   1      40.104  35.821  36.913  1.00  0.00     0.127 S 
ATOM     71  O   UNL A   1      39.440  36.162  38.172  1.00  0.00    -0.237 OA
ATOM     72  O   UNL A   1      41.541  35.563  37.034  1.00  0.00    -0.237 OA
ATOM     73  O   UNL A   1      39.727  36.632  35.766  1.00  0.00    -0.744 OA
ENDBRANCH  67  70
ENDBRANCH  49  63
BRANCH  50  74
ATOM     74  C   UNL A   1      42.426  26.752  27.478  1.00  0.00     0.023 A 
ATOM     75  C   UNL A   1      43.250  27.393  26.533  1.00  0.00     0.012 A 
ATOM     76  C   UNL A   1      42.131  25.385  27.315  1.00  0.00     0.148 A 
ATOM     77  C   UNL A   1      43.750  26.696  25.434  1.00  0.00     0.002 A 
ATOM     78  C   UNL A   1      42.677  24.681  26.247  1.00  0.00     0.091 A 
ATOM     79  F   UNL A   1      41.339  24.793  28.221  1.00  0.00    -0.205 F 
ATOM     80  C   UNL A   1      43.475  25.337  25.297  1.00  0.00     0.022 A 
BRANCH  78  81
ATOM     81  S   UNL A   1      42.492  22.901  26.080  1.00  0.00     0.127 S 
ATOM     82  O   UNL A   1      43.273  22.412  27.213  1.00  0.00    -0.237 OA
ATOM     83  O   UNL A   1      41.045  22.730  26.208  1.00  0.00    -0.237 OA
ATOM     84  O   UNL A   1      43.015  22.581  24.758  1.00  0.00    -0.744 OA
ENDBRANCH  78  81
ENDBRANCH  50  74
BRANCH  62  85
ATOM     85  C   UNL A   1      44.526  27.227  34.125  1.00  0.00     0.023 A 
ATOM     86  C   UNL A   1      45.813  27.799  34.104  1.00  0.00     0.012 A 
ATOM     87  C   UNL A   1      44.288  26.083  34.910  1.00  0.00     0.148 A 
ATOM     88  C   UNL A   1      46.856  27.222  34.827  1.00  0.00     0.002 A 
ATOM     89  C   UNL A   1      45.321  25.539  35.664  1.00  0.00     0.091 A 
ATOM     90  F   UNL A   1      43.061  25.541  34.898  1.00  0.00    -0.205 F 
ATOM     91  C   UNL A   1      46.607  26.100  35.615  1.00  0.00     0.022 A 
BRANCH  89  92
ATOM     92  S   UNL A   1      45.065  24.152  36.775  1.00  0.00     0.127 S 
ATOM     93  O   UNL A   1      44.102  24.704  37.727  1.00  0.00    -0.237 OA
ATOM     94  O   UNL A   1      44.520  23.130  35.879  1.00  0.00    -0.237 OA
ATOM     95  O   UNL A   1      46.378  23.832  37.321  1.00  0.00    -0.744 OA
ENDBRANCH  89  92
ENDBRANCH  62  85
ENDBRANCH  36  37
ENDBRANCH  28  31
ENDBRANCH  26  27
ENDBRANCH   1  26
TORSDOF 16
ENDMDL
MODEL 2
REMARK VINA RESULT:     -12.6      1.709      2.193
REMARK SMILES C[N@H+]1C[C@@H](Oc2cccc3cccnc23)C[C@H]1C(=O)NCCCCNC(=O)c1ccc(-c2c3nc(c(-c4cccc(S(=O)(=O)[O-])c4F)c4ccc([nH]4)c(-c4cccc(S(=O)(=O)[O-])c4F)c4nc(c(-c5cccc(S(=O)(=O)[O-])c5F)c5ccc2[nH]5)C=C4)C=C3)cc1
REMARK SMILES IDX 23 1 22 2 21 3 20 4 18 5 19 6 17 8 1 9 2 10 3 11 4 13 16 14
REMARK SMILES IDX 5 15 6 16 7 17 15 18 8 19 10 20 14 21 9 22 11 23 13 24 12 25
REMARK SMILES IDX 24 26 25 27 26 28 27 30 28 31 29 32 90 33 30 34 89 35 31 36
REMARK SMILES IDX 32 37 33 38 83 39 34 40 88 41 82 42 84 43 35 44 87 45 81 46
REMARK SMILES IDX 80 47 36 49 68 50 48 51 67 52 49 53 52 54 66 55 85 56 50 57
REMARK SMILES IDX 51 58 65 60 86 61 53 62 37 63 38 64 46 65 39 66 41 67 47 68
REMARK SMILES IDX 40 69 42 70 43 71 44 72 45 73 69 74 70 75 78 76 71 77 73 78
REMARK SMILES IDX 79 79 72 80 74 81 75 82 76 83 77 84 54 85 55 86 63 87 56 88
REMARK SMILES IDX 58 89 64 90 57 91 59 92 60 93 61 94 62 95
REMARK H PARENT 20 7 2 12 25 29 84 48 52 59
REMARK Flexibility Score: inf
ROOT
ATOM      1  C   UNL A   1      32.110  28.928  26.742  1.00  0.00     0.023 C 
ENDROOT
BRANCH   1   2
ATOM      2  C   UNL A   1      32.549  27.489  26.460  1.00  0.00     0.023 C 
BRANCH   2   3
ATOM      3  C   UNL A   1      31.678  26.719  25.468  1.00  0.00     0.116 C 
BRANCH   3   4
ATOM      4  N   UNL A   1      30.723  27.505  24.714  1.00  0.00    -0.351 N 
ATOM      5  C   UNL A   1      30.422  27.482  23.386  1.00  0.00     0.278 C 
ATOM      6  O   UNL A   1      29.227  27.688  23.114  1.00  0.00    -0.268 OA
ATOM      7  H   UNL A   1      30.213  28.158  25.245  1.00  0.00     0.163 HD
BRANCH   5   8
ATOM      8  C   UNL A   1      31.399  27.271  22.204  1.00  0.00     0.278 C 
ATOM      9  C   UNL A   1      33.125  28.966  22.770  1.00  0.00     0.333 C 
ATOM     10  N   UNL A   1      32.800  27.636  22.348  1.00  0.00    -0.324 N 
ATOM     11  C   UNL A   1      33.606  26.482  22.714  1.00  0.00     0.308 C 
ATOM     12  H   UNL A   1      33.173  27.875  21.429  1.00  0.00     0.348 HD
ATOM     13  C   UNL A   1      32.770  25.261  22.242  1.00  0.00     0.234 C 
ATOM     14  C   UNL A   1      31.503  25.864  21.636  1.00  0.00     0.126 C 
BRANCH  13  15
ATOM     15  O   UNL A   1      32.727  24.153  23.149  1.00  0.00    -0.482 OA
BRANCH  15  16
ATOM     16  C   UNL A   1      33.769  23.631  23.869  1.00  0.00     0.146 A 
ATOM     17  C   UNL A   1      35.089  23.615  23.411  1.00  0.00     0.049 A 
ATOM     18  C   UNL A   1      33.484  23.226  25.193  1.00  0.00     0.112 A 
ATOM     19  C   UNL A   1      36.121  23.098  24.190  1.00  0.00     0.005 A 
ATOM     20  C   UNL A   1      34.562  22.769  25.997  1.00  0.00     0.004 A 
ATOM     21  N   UNL A   1      32.226  23.256  25.693  1.00  0.00    -0.252 NA
ATOM     22  C   UNL A   1      35.860  22.676  25.482  1.00  0.00     0.010 A 
ATOM     23  C   UNL A   1      34.319  22.416  27.327  1.00  0.00     0.012 A 
ATOM     24  C   UNL A   1      32.026  22.888  26.982  1.00  0.00     0.112 A 
ATOM     25  C   UNL A   1      33.033  22.482  27.834  1.00  0.00     0.021 A 
ENDBRANCH  15  16
ENDBRANCH  13  15
ENDBRANCH   5   8
ENDBRANCH   3   4
ENDBRANCH   2   3
ENDBRANCH   1   2
BRANCH   1  26
ATOM     26  C   UNL A   1      33.031  30.023  26.206  1.00  0.00     0.116 C 
BRANCH  26  27
ATOM     27  N   UNL A   1      32.871  31.319  26.849  1.00  0.00    -0.352 N 
ATOM     28  C   UNL A   1      33.729  31.957  27.717  1.00  0.00     0.251 C 
ATOM     29  H   UNL A   1      32.041  31.803  26.635  1.00  0.00     0.163 HD
ATOM     30  O   UNL A   1      33.413  33.039  28.209  1.00  0.00    -0.269 OA
BRANCH  28  31
ATOM     31  C   UNL A   1      35.031  31.342  28.086  1.00  0.00     0.039 A 
ATOM     32  C   UNL A   1      36.176  32.144  28.099  1.00  0.00     0.014 A 
ATOM     33  C   UNL A   1      35.133  29.990  28.424  1.00  0.00     0.014 A 
ATOM     34  C   UNL A   1      37.390  31.617  28.552  1.00  0.00     0.010 A 
ATOM     35  C   UNL A   1      36.325  29.477  28.925  1.00  0.00     0.010 A 
ATOM     36  C   UNL A   1      37.456  30.294  29.021  1.00  0.00    -0.014 A 
BRANCH  36  37
ATOM     37  C   UNL A   1      38.642  29.801  29.761  1.00  0.00     0.031 A 
ATOM     38  C   UNL A   1      39.007  30.338  31.113  1.00  0.00     0.074 A 
ATOM     39  C   UNL A   1      39.472  28.952  29.121  1.00  0.00     0.049 A 
ATOM     40  N   UNL A   1      40.003  29.997  31.890  1.00  0.00    -0.248 NA
ATOM     41  C   UNL A   1      38.168  31.420  31.654  1.00  0.00     0.031 C 
ATOM     42  C   UNL A   1      39.294  28.483  27.743  1.00  0.00     0.029 A 
ATOM     43  N   UNL A   1      40.642  28.361  29.522  1.00  0.00    -0.354 N 
ATOM     44  C   UNL A   1      39.926  30.828  33.000  1.00  0.00     0.074 A 
ATOM     45  C   UNL A   1      38.804  31.717  32.781  1.00  0.00     0.031 C 
ATOM     46  C   UNL A   1      40.312  27.671  27.419  1.00  0.00     0.029 A 
ATOM     47  C   UNL A   1      41.215  27.566  28.557  1.00  0.00     0.049 A 
ATOM     48  H   UNL A   1      41.033  28.492  30.416  1.00  0.00     0.167 HD
ATOM     49  C   UNL A   1      40.702  30.827  34.111  1.00  0.00     0.034 A 
ATOM     50  C   UNL A   1      42.337  26.821  28.592  1.00  0.00     0.034 A 
ATOM     51  C   UNL A   1      41.798  29.916  34.320  1.00  0.00     0.049 A 
ATOM     52  C   UNL A   1      43.116  26.757  29.874  1.00  0.00     0.074 A 
ATOM     53  C   UNL A   1      42.580  29.751  35.450  1.00  0.00     0.029 A 
ATOM     54  N   UNL A   1      42.275  29.022  33.373  1.00  0.00    -0.354 N 
ATOM     55  N   UNL A   1      42.900  27.391  31.001  1.00  0.00    -0.248 NA
ATOM     56  C   UNL A   1      44.261  25.836  29.910  1.00  0.00     0.031 C 
ATOM     57  C   UNL A   1      43.539  28.767  35.179  1.00  0.00     0.029 A 
ATOM     58  C   UNL A   1      43.343  28.307  33.887  1.00  0.00     0.049 A 
ATOM     59  H   UNL A   1      41.908  28.914  32.466  1.00  0.00     0.167 HD
ATOM     60  C   UNL A   1      43.859  26.925  31.891  1.00  0.00     0.074 A 
ATOM     61  C   UNL A   1      44.641  25.936  31.176  1.00  0.00     0.031 C 
ATOM     62  C   UNL A   1      44.082  27.294  33.176  1.00  0.00     0.034 A 
BRANCH  49  63
ATOM     63  C   UNL A   1      40.351  31.788  35.219  1.00  0.00     0.023 A 
ATOM     64  C   UNL A   1      41.047  33.012  35.315  1.00  0.00     0.012 A 
ATOM     65  C   UNL A   1      39.295  31.527  36.114  1.00  0.00     0.148 A 
ATOM     66  C   UNL A   1      40.724  33.942  36.300  1.00  0.00     0.002 A 
ATOM     67  C   UNL A   1      38.951  32.479  37.070  1.00  0.00     0.091 A 
ATOM     68  F   UNL A   1      38.654  30.354  36.024  1.00  0.00    -0.205 F 
ATOM     69  C   UNL A   1      39.670  33.681  37.170  1.00  0.00     0.022 A 
BRANCH  67  70
ATOM     70  S   UNL A   1      37.560  32.271  38.190  1.00  0.00     0.127 S 
ATOM     71  O   UNL A   1      36.528  33.068  37.527  1.00  0.00    -0.237 OA
ATOM     72  O   UNL A   1      37.337  30.825  38.140  1.00  0.00    -0.237 OA
ATOM     73  O   UNL A   1      38.007  32.772  39.481  1.00  0.00    -0.744 OA
ENDBRANCH  67  70
ENDBRANCH  49  63
BRANCH  50  74
ATOM     74  C   UNL A   1      42.701  25.990  27.412  1.00  0.00     0.023 A 
ATOM     75  C   UNL A   1      43.590  26.512  26.452  1.00  0.00     0.012 A 
ATOM     76  C   UNL A   1      42.238  24.668  27.270  1.00  0.00     0.148 A 
ATOM     77  C   UNL A   1      43.991  25.743  25.360  1.00  0.00     0.002 A 
ATOM     78  C   UNL A   1      42.684  23.888  26.208  1.00  0.00     0.091 A 
ATOM     79  F   UNL A   1      41.387  24.190  28.190  1.00  0.00    -0.205 F 
ATOM     80  C   UNL A   1      43.548  24.428  25.244  1.00  0.00     0.022 A 
BRANCH  78  81
ATOM     81  S   UNL A   1      42.279  22.143  26.067  1.00  0.00     0.127 S 
ATOM     82  O   UNL A   1      43.060  21.748  24.899  1.00  0.00    -0.237 OA
ATOM     83  O   UNL A   1      42.763  21.612  27.341  1.00  0.00    -0.237 OA
ATOM     84  O   UNL A   1      40.831  22.093  25.914  1.00  0.00    -0.744 OA
ENDBRANCH  78  81
ENDBRANCH  50  74
BRANCH  62  85
ATOM     85  C   UNL A   1      45.209  26.611  33.904  1.00  0.00     0.023 A 
ATOM     86  C   UNL A   1      46.523  27.098  33.763  1.00  0.00     0.012 A 
ATOM     87  C   UNL A   1      44.959  25.530  34.770  1.00  0.00     0.148 A 
ATOM     88  C   UNL A   1      47.578  26.496  34.449  1.00  0.00     0.002 A 
ATOM     89  C   UNL A   1      46.007  24.964  35.485  1.00  0.00     0.091 A 
ATOM     90  F   UNL A   1      43.704  25.067  34.872  1.00  0.00    -0.205 F 
ATOM     91  C   UNL A   1      47.319  25.438  35.317  1.00  0.00     0.022 A 
BRANCH  89  92
ATOM     92  S   UNL A   1      45.748  23.660  36.691  1.00  0.00     0.127 S 
ATOM     93  O   UNL A   1      44.763  24.269  37.583  1.00  0.00    -0.237 OA
ATOM     94  O   UNL A   1      45.230  22.568  35.865  1.00  0.00    -0.237 OA
ATOM     95  O   UNL A   1      47.054  23.398  37.281  1.00  0.00    -0.744 OA
ENDBRANCH  89  92
ENDBRANCH  62  85
ENDBRANCH  36  37
ENDBRANCH  28  31
ENDBRANCH  26  27
ENDBRANCH   1  26
TORSDOF 16
ENDMDL
MODEL 3
REMARK VINA RESULT:     -12.6      4.515     10.153
REMARK SMILES C[N@H+]1C[C@@H](Oc2cccc3cccnc23)C[C@H]1C(=O)NCCCCNC(=O)c1ccc(-c2c3nc(c(-c4cccc(S(=O)(=O)[O-])c4F)c4ccc([nH]4)c(-c4cccc(S(=O)(=O)[O-])c4F)c4nc(c(-c5cccc(S(=O)(=O)[O-])c5F)c5ccc2[nH]5)C=C4)C=C3)cc1
REMARK SMILES IDX 23 1 22 2 21 3 20 4 18 5 19 6 17 8 1 9 2 10 3 11 4 13 16 14
REMARK SMILES IDX 5 15 6 16 7 17 15 18 8 19 10 20 14 21 9 22 11 23 13 24 12 25
REMARK SMILES IDX 24 26 25 27 26 28 27 30 28 31 29 32 90 33 30 34 89 35 31 36
REMARK SMILES IDX 32 37 33 38 83 39 34 40 88 41 82 42 84 43 35 44 87 45 81 46
REMARK SMILES IDX 80 47 36 49 68 50 48 51 67 52 49 53 52 54 66 55 85 56 50 57
REMARK SMILES IDX 51 58 65 60 86 61 53 62 37 63 38 64 46 65 39 66 41 67 47 68
REMARK SMILES IDX 40 69 42 70 43 71 44 72 45 73 69 74 70 75 78 76 71 77 73 78
REMARK SMILES IDX 79 79 72 80 74 81 75 82 76 83 77 84 54 85 55 86 63 87 56 88
REMARK SMILES IDX 58 89 64 90 57 91 59 92 60 93 61 94 62 95
REMARK H PARENT 20 7 2 12 25 29 84 48 52 59
REMARK Flexibility Score: inf
ROOT
ATOM      1  C   UNL A   1      35.829  21.565  25.289  1.00  0.00     0.023 C 
ENDROOT
BRANCH   1   2
ATOM      2  C   UNL A   1      35.198  22.838  25.859  1.00  0.00     0.023 C 
BRANCH   2   3
ATOM      3  C   UNL A   1      34.567  23.776  24.831  1.00  0.00     0.116 C 
BRANCH   3   4
ATOM      4  N   UNL A   1      34.413  23.245  23.493  1.00  0.00    -0.351 N 
ATOM      5  C   UNL A   1      33.300  23.129  22.717  1.00  0.00     0.278 C 
ATOM      6  O   UNL A   1      33.485  23.301  21.500  1.00  0.00    -0.268 OA
ATOM      7  H   UNL A   1      35.243  22.915  23.080  1.00  0.00     0.163 HD
BRANCH   5   8
ATOM      8  C   UNL A   1      31.866  22.771  23.179  1.00  0.00     0.278 C 
ATOM      9  C   UNL A   1      32.351  20.766  24.564  1.00  0.00     0.333 C 
ATOM     10  N   UNL A   1      31.667  22.016  24.406  1.00  0.00    -0.324 N 
ATOM     11  C   UNL A   1      31.389  22.901  25.525  1.00  0.00     0.308 C 
ATOM     12  H   UNL A   1      30.797  21.488  24.330  1.00  0.00     0.348 HD
ATOM     13  C   UNL A   1      30.855  24.202  24.867  1.00  0.00     0.234 C 
ATOM     14  C   UNL A   1      30.892  23.925  23.364  1.00  0.00     0.126 C 
BRANCH  13  15
ATOM     15  O   UNL A   1      31.345  25.426  25.428  1.00  0.00    -0.482 OA
BRANCH  15  16
ATOM     16  C   UNL A   1      31.131  26.695  24.959  1.00  0.00     0.146 A 
ATOM     17  C   UNL A   1      30.191  27.003  23.972  1.00  0.00     0.049 A 
ATOM     18  C   UNL A   1      31.809  27.740  25.627  1.00  0.00     0.112 A 
ATOM     19  C   UNL A   1      29.988  28.313  23.545  1.00  0.00     0.005 A 
ATOM     20  C   UNL A   1      31.536  29.075  25.227  1.00  0.00     0.004 A 
ATOM     21  N   UNL A   1      32.704  27.493  26.614  1.00  0.00    -0.252 NA
ATOM     22  C   UNL A   1      30.660  29.349  24.172  1.00  0.00     0.010 A 
ATOM     23  C   UNL A   1      32.150  30.130  25.908  1.00  0.00     0.012 A 
ATOM     24  C   UNL A   1      33.293  28.542  27.238  1.00  0.00     0.112 A 
ATOM     25  C   UNL A   1      33.038  29.863  26.936  1.00  0.00     0.021 A 
ENDBRANCH  15  16
ENDBRANCH  13  15
ENDBRANCH   5   8
ENDBRANCH   3   4
ENDBRANCH   2   3
ENDBRANCH   1   2
BRANCH   1  26
ATOM     26  C   UNL A   1      37.245  21.713  24.736  1.00  0.00     0.116 C 
BRANCH  26  27
ATOM     27  N   UNL A   1      38.172  20.671  25.155  1.00  0.00    -0.352 N 
ATOM     28  C   UNL A   1      39.292  20.787  25.949  1.00  0.00     0.251 C 
ATOM     29  H   UNL A   1      37.971  19.765  24.827  1.00  0.00     0.163 HD
ATOM     30  O   UNL A   1      39.994  19.802  26.165  1.00  0.00    -0.269 OA
BRANCH  28  31
ATOM     31  C   UNL A   1      39.674  22.099  26.533  1.00  0.00     0.039 A 
ATOM     32  C   UNL A   1      40.631  22.130  27.552  1.00  0.00     0.014 A 
ATOM     33  C   UNL A   1      39.107  23.295  26.084  1.00  0.00     0.014 A 
ATOM     34  C   UNL A   1      41.091  23.358  28.038  1.00  0.00     0.010 A 
ATOM     35  C   UNL A   1      39.600  24.518  26.526  1.00  0.00     0.010 A 
ATOM     36  C   UNL A   1      40.617  24.560  27.486  1.00  0.00    -0.014 A 
BRANCH  36  37
ATOM     37  C   UNL A   1      41.282  25.853  27.776  1.00  0.00     0.031 A 
ATOM     38  C   UNL A   1      42.705  26.114  27.379  1.00  0.00     0.074 A 
ATOM     39  C   UNL A   1      40.615  26.744  28.538  1.00  0.00     0.049 A 
ATOM     40  N   UNL A   1      43.418  27.197  27.550  1.00  0.00    -0.248 NA
ATOM     41  C   UNL A   1      43.436  25.009  26.737  1.00  0.00     0.031 C 
ATOM     42  C   UNL A   1      39.281  26.528  29.108  1.00  0.00     0.029 A 
ATOM     43  N   UNL A   1      40.973  27.986  28.994  1.00  0.00    -0.354 N 
ATOM     44  C   UNL A   1      44.683  26.905  27.056  1.00  0.00     0.074 A 
ATOM     45  C   UNL A   1      44.652  25.528  26.610  1.00  0.00     0.031 C 
ATOM     46  C   UNL A   1      38.931  27.604  29.829  1.00  0.00     0.029 A 
ATOM     47  C   UNL A   1      40.012  28.580  29.779  1.00  0.00     0.049 A 
ATOM     48  H   UNL A   1      41.834  28.411  28.780  1.00  0.00     0.167 HD
ATOM     49  C   UNL A   1      45.761  27.722  26.957  1.00  0.00     0.034 A 
ATOM     50  C   UNL A   1      39.997  29.787  30.378  1.00  0.00     0.034 A 
ATOM     51  C   UNL A   1      45.763  29.097  27.385  1.00  0.00     0.049 A 
ATOM     52  C   UNL A   1      41.161  30.710  30.160  1.00  0.00     0.074 A 
ATOM     53  C   UNL A   1      46.758  30.047  27.231  1.00  0.00     0.029 A 
ATOM     54  N   UNL A   1      44.721  29.718  28.058  1.00  0.00    -0.354 N 
ATOM     55  N   UNL A   1      42.270  30.494  29.496  1.00  0.00    -0.248 NA
ATOM     56  C   UNL A   1      41.050  32.063  30.725  1.00  0.00     0.031 C 
ATOM     57  C   UNL A   1      46.323  31.237  27.827  1.00  0.00     0.029 A 
ATOM     58  C   UNL A   1      45.049  31.034  28.334  1.00  0.00     0.049 A 
ATOM     59  H   UNL A   1      43.873  29.284  28.306  1.00  0.00     0.167 HD
ATOM     60  C   UNL A   1      42.977  31.688  29.535  1.00  0.00     0.074 A 
ATOM     61  C   UNL A   1      42.157  32.632  30.267  1.00  0.00     0.031 C 
ATOM     62  C   UNL A   1      44.201  31.973  29.025  1.00  0.00     0.034 A 
BRANCH  49  63
ATOM     63  C   UNL A   1      47.002  27.176  26.299  1.00  0.00     0.023 A 
ATOM     64  C   UNL A   1      47.203  27.397  24.920  1.00  0.00     0.012 A 
ATOM     65  C   UNL A   1      48.001  26.515  27.041  1.00  0.00     0.148 A 
ATOM     66  C   UNL A   1      48.357  26.942  24.284  1.00  0.00     0.002 A 
ATOM     67  C   UNL A   1      49.169  26.100  26.407  1.00  0.00     0.091 A 
ATOM     68  F   UNL A   1      47.789  26.295  28.346  1.00  0.00    -0.205 F 
ATOM     69  C   UNL A   1      49.343  26.304  25.029  1.00  0.00     0.022 A 
BRANCH  67  70
ATOM     70  S   UNL A   1      50.533  25.334  27.293  1.00  0.00     0.127 S 
ATOM     71  O   UNL A   1      50.907  26.394  28.230  1.00  0.00    -0.237 OA
ATOM     72  O   UNL A   1      49.888  24.175  27.913  1.00  0.00    -0.237 OA
ATOM     73  O   UNL A   1      51.531  25.007  26.286  1.00  0.00    -0.744 OA
ENDBRANCH  67  70
ENDBRANCH  49  63
BRANCH  50  74
ATOM     74  C   UNL A   1      38.785  30.218  31.127  1.00  0.00     0.023 A 
ATOM     75  C   UNL A   1      38.717  29.987  32.515  1.00  0.00     0.012 A 
ATOM     76  C   UNL A   1      37.738  30.917  30.497  1.00  0.00     0.148 A 
ATOM     77  C   UNL A   1      37.619  30.420  33.257  1.00  0.00     0.002 A 
ATOM     78  C   UNL A   1      36.671  31.394  31.250  1.00  0.00     0.091 A 
ATOM     79  F   UNL A   1      37.816  31.121  29.174  1.00  0.00    -0.205 F 
ATOM     80  C   UNL A   1      36.602  31.134  32.628  1.00  0.00     0.022 A 
BRANCH  78  81
ATOM     81  S   UNL A   1      35.397  32.447  30.545  1.00  0.00     0.127 S 
ATOM     82  O   UNL A   1      36.148  33.661  30.238  1.00  0.00    -0.237 OA
ATOM     83  O   UNL A   1      34.971  31.674  29.379  1.00  0.00    -0.237 OA
ATOM     84  O   UNL A   1      34.380  32.571  31.582  1.00  0.00    -0.744 OA
ENDBRANCH  78  81
ENDBRANCH  50  74
BRANCH  62  85
ATOM     85  C   UNL A   1      44.723  33.370  29.226  1.00  0.00     0.023 A 
ATOM     86  C   UNL A   1      45.552  33.651  30.330  1.00  0.00     0.012 A 
ATOM     87  C   UNL A   1      44.443  34.386  28.292  1.00  0.00     0.148 A 
ATOM     88  C   UNL A   1      46.068  34.933  30.520  1.00  0.00     0.002 A 
ATOM     89  C   UNL A   1      44.998  35.649  28.463  1.00  0.00     0.091 A 
ATOM     90  F   UNL A   1      43.634  34.103  27.261  1.00  0.00    -0.205 F 
ATOM     91  C   UNL A   1      45.800  35.927  29.581  1.00  0.00     0.022 A 
BRANCH  89  92
ATOM     92  S   UNL A   1      44.779  36.960  27.255  1.00  0.00     0.127 S 
ATOM     93  O   UNL A   1      44.934  38.156  28.082  1.00  0.00    -0.237 OA
ATOM     94  O   UNL A   1      45.882  36.715  26.324  1.00  0.00    -0.237 OA
ATOM     95  O   UNL A   1      43.454  36.757  26.683  1.00  0.00    -0.744 OA
ENDBRANCH  89  92
ENDBRANCH  62  85
ENDBRANCH  36  37
ENDBRANCH  28  31
ENDBRANCH  26  27
ENDBRANCH   1  26
TORSDOF 16
ENDMDL
