MODEL 1
REMARK VINA RESULT:     -12.8      0.000      0.000
REMARK SMILES C[C@@H](Sc1nc(C[NH+]2CCCC2)nc2ccccc12)C(=O)NCCCCNC(=O)c1ccc(-c2c3nc(c(-c4cccc(S(=O)(=O)[O-])c4F)c4ccc([nH]4)c(-c4cccc(S(=O)(=O)[O-])c4F)c4nc(c(-c5cccc(S(=O)(=O)[O-])c5F)c5ccc2[nH]5)C=C4)C=C3)cc1
REMARK SMILES IDX 24 1 23 2 22 3 20 4 21 5 2 7 1 8 3 9 4 10 5 11 19 12 6 13
REMARK SMILES IDX 14 14 18 15 13 16 15 17 17 18 16 19 7 20 8 21 9 22 12 23
REMARK SMILES IDX 10 25 11 26 25 27 26 28 27 29 28 30 29 32 30 33 31 34 92 35
REMARK SMILES IDX 32 36 91 37 33 38 34 39 35 40 85 41 36 42 90 43 84 44 86 45
REMARK SMILES IDX 37 46 89 47 83 48 82 49 38 51 70 52 50 53 69 54 51 55 54 56
REMARK SMILES IDX 68 57 87 58 52 59 53 60 67 62 88 63 55 64 39 65 40 66 48 67
REMARK SMILES IDX 41 68 43 69 49 70 42 71 44 72 45 73 46 74 47 75 71 76 72 77
REMARK SMILES IDX 80 78 73 79 75 80 81 81 74 82 76 83 77 84 78 85 79 86 56 87
REMARK SMILES IDX 57 88 65 89 58 90 60 91 66 92 59 93 61 94 62 95 63 96 64 97
REMARK H PARENT 22 6 8 24 27 31 86 50 54 61
REMARK Flexibility Score: inf
ROOT
ATOM      1  C   UNL A   1      32.042  27.261  26.361  1.00  0.00     0.023 C 
ENDROOT
BRANCH   1   2
ATOM      2  C   UNL A   1      31.467  26.888  24.998  1.00  0.00     0.116 C 
BRANCH   2   3
ATOM      3  N   UNL A   1      32.493  26.683  23.988  1.00  0.00    -0.355 N 
ATOM      4  C   UNL A   1      32.755  25.569  23.233  1.00  0.00     0.233 C 
ATOM      5  O   UNL A   1      33.638  25.638  22.373  1.00  0.00    -0.274 OA
ATOM      6  H   UNL A   1      33.083  27.455  23.822  1.00  0.00     0.163 HD
BRANCH   4   7
ATOM      7  C   UNL A   1      31.997  24.257  23.473  1.00  0.00     0.139 C 
ATOM      8  C   UNL A   1      30.497  24.513  23.343  1.00  0.00     0.030 C 
BRANCH   7   9
ATOM      9  S   UNL A   1      32.768  22.962  22.399  1.00  0.00    -0.093 SA
BRANCH   9  10
ATOM     10  C   UNL A   1      33.475  21.818  23.576  1.00  0.00     0.109 A 
ATOM     11  N   UNL A   1      32.671  20.805  23.941  1.00  0.00    -0.220 NA
ATOM     12  C   UNL A   1      34.818  21.909  23.969  1.00  0.00     0.033 A 
ATOM     13  C   UNL A   1      33.184  19.867  24.748  1.00  0.00     0.185 A 
ATOM     14  C   UNL A   1      35.256  20.856  24.779  1.00  0.00     0.075 A 
ATOM     15  C   UNL A   1      35.733  22.937  23.610  1.00  0.00     0.013 A 
ATOM     16  N   UNL A   1      34.459  19.860  25.177  1.00  0.00    -0.227 NA
ATOM     17  C   UNL A   1      36.585  20.834  25.184  1.00  0.00     0.029 A 
ATOM     18  C   UNL A   1      37.058  22.899  24.039  1.00  0.00     0.001 A 
ATOM     19  C   UNL A   1      37.488  21.838  24.822  1.00  0.00     0.002 A 
BRANCH  13  20
ATOM     20  C   UNL A   1      32.273  18.733  25.200  1.00  0.00     0.340 C 
BRANCH  20  21
ATOM     21  N   UNL A   1      32.352  17.425  24.511  1.00  0.00    -0.329 N 
ATOM     22  C   UNL A   1      33.146  16.420  25.215  1.00  0.00     0.262 C 
ATOM     23  C   UNL A   1      32.880  17.502  23.147  1.00  0.00     0.262 C 
ATOM     24  H   UNL A   1      31.373  17.140  24.491  1.00  0.00     0.348 HD
ATOM     25  C   UNL A   1      34.524  16.449  24.584  1.00  0.00     0.067 C 
ATOM     26  C   UNL A   1      34.279  16.897  23.157  1.00  0.00     0.067 C 
ENDBRANCH  20  21
ENDBRANCH  13  20
ENDBRANCH   9  10
ENDBRANCH   7   9
ENDBRANCH   4   7
ENDBRANCH   2   3
ENDBRANCH   1   2
BRANCH   1  27
ATOM     27  C   UNL A   1      31.830  28.713  26.768  1.00  0.00     0.023 C 
BRANCH  27  28
ATOM     28  C   UNL A   1      32.749  29.710  26.080  1.00  0.00     0.116 C 
BRANCH  28  29
ATOM     29  N   UNL A   1      32.508  31.093  26.476  1.00  0.00    -0.352 N 
ATOM     30  C   UNL A   1      33.294  31.897  27.265  1.00  0.00     0.251 C 
ATOM     31  H   UNL A   1      31.680  31.501  26.134  1.00  0.00     0.163 HD
ATOM     32  O   UNL A   1      32.917  33.018  27.592  1.00  0.00    -0.269 OA
BRANCH  30  33
ATOM     33  C   UNL A   1      34.584  31.368  27.746  1.00  0.00     0.039 A 
ATOM     34  C   UNL A   1      35.645  32.251  27.950  1.00  0.00     0.014 A 
ATOM     35  C   UNL A   1      34.702  30.016  28.081  1.00  0.00     0.014 A 
ATOM     36  C   UNL A   1      36.809  31.789  28.564  1.00  0.00     0.010 A 
ATOM     37  C   UNL A   1      35.828  29.580  28.767  1.00  0.00     0.010 A 
ATOM     38  C   UNL A   1      36.894  30.461  29.012  1.00  0.00    -0.014 A 
BRANCH  38  39
ATOM     39  C   UNL A   1      38.083  29.967  29.747  1.00  0.00     0.031 A 
ATOM     40  C   UNL A   1      38.364  30.468  31.137  1.00  0.00     0.074 A 
ATOM     41  C   UNL A   1      38.959  29.151  29.129  1.00  0.00     0.049 A 
ATOM     42  N   UNL A   1      39.385  30.215  31.913  1.00  0.00    -0.248 NA
ATOM     43  C   UNL A   1      37.387  31.405  31.717  1.00  0.00     0.031 C 
ATOM     44  C   UNL A   1      38.844  28.673  27.749  1.00  0.00     0.029 A 
ATOM     45  N   UNL A   1      40.137  28.603  29.571  1.00  0.00    -0.354 N 
ATOM     46  C   UNL A   1      39.193  30.987  33.052  1.00  0.00     0.074 A 
ATOM     47  C   UNL A   1      37.981  31.749  32.851  1.00  0.00     0.031 C 
ATOM     48  C   UNL A   1      39.906  27.903  27.460  1.00  0.00     0.029 A 
ATOM     49  C   UNL A   1      40.788  27.851  28.622  1.00  0.00     0.049 A 
ATOM     50  H   UNL A   1      40.483  28.736  30.483  1.00  0.00     0.167 HD
ATOM     51  C   UNL A   1      39.938  31.029  34.182  1.00  0.00     0.034 A 
ATOM     52  C   UNL A   1      41.963  27.195  28.681  1.00  0.00     0.034 A 
ATOM     53  C   UNL A   1      41.110  30.228  34.400  1.00  0.00     0.049 A 
ATOM     54  C   UNL A   1      42.738  27.206  29.971  1.00  0.00     0.074 A 
ATOM     55  C   UNL A   1      41.883  30.125  35.542  1.00  0.00     0.029 A 
ATOM     56  N   UNL A   1      41.679  29.388  33.454  1.00  0.00    -0.354 N 
ATOM     57  N   UNL A   1      42.452  27.809  31.099  1.00  0.00    -0.248 NA
ATOM     58  C   UNL A   1      43.976  26.414  30.011  1.00  0.00     0.031 C 
ATOM     59  C   UNL A   1      42.926  29.230  35.284  1.00  0.00     0.029 A 
ATOM     60  C   UNL A   1      42.794  28.763  33.985  1.00  0.00     0.049 A 
ATOM     61  H   UNL A   1      41.339  29.255  32.540  1.00  0.00     0.167 HD
ATOM     62  C   UNL A   1      43.453  27.443  31.992  1.00  0.00     0.074 A 
ATOM     63  C   UNL A   1      44.341  26.548  31.279  1.00  0.00     0.031 C 
ATOM     64  C   UNL A   1      43.632  27.828  33.280  1.00  0.00     0.034 A 
BRANCH  51  65
ATOM     65  C   UNL A   1      39.462  31.923  35.296  1.00  0.00     0.023 A 
ATOM     66  C   UNL A   1      39.723  33.307  35.229  1.00  0.00     0.012 A 
ATOM     67  C   UNL A   1      38.720  31.411  36.377  1.00  0.00     0.148 A 
ATOM     68  C   UNL A   1      39.286  34.163  36.239  1.00  0.00     0.002 A 
ATOM     69  C   UNL A   1      38.249  32.278  37.358  1.00  0.00     0.091 A 
ATOM     70  F   UNL A   1      38.503  30.090  36.437  1.00  0.00    -0.205 F 
ATOM     71  C   UNL A   1      38.540  33.650  37.296  1.00  0.00     0.022 A 
BRANCH  69  72
ATOM     72  S   UNL A   1      37.216  31.726  38.721  1.00  0.00     0.127 S 
ATOM     73  O   UNL A   1      38.123  31.880  39.858  1.00  0.00    -0.237 OA
ATOM     74  O   UNL A   1      36.117  32.691  38.684  1.00  0.00    -0.237 OA
ATOM     75  O   UNL A   1      36.833  30.358  38.404  1.00  0.00    -0.744 OA
ENDBRANCH  69  72
ENDBRANCH  51  65
BRANCH  52  76
ATOM     76  C   UNL A   1      42.435  26.408  27.508  1.00  0.00     0.023 A 
ATOM     77  C   UNL A   1      43.277  27.021  26.559  1.00  0.00     0.012 A 
ATOM     78  C   UNL A   1      42.091  25.052  27.343  1.00  0.00     0.148 A 
ATOM     79  C   UNL A   1      43.740  26.311  25.452  1.00  0.00     0.002 A 
ATOM     80  C   UNL A   1      42.600  24.334  26.267  1.00  0.00     0.091 A 
ATOM     81  F   UNL A   1      41.280  24.487  28.249  1.00  0.00    -0.205 F 
ATOM     82  C   UNL A   1      43.411  24.965  25.311  1.00  0.00     0.022 A 
BRANCH  80  83
ATOM     83  S   UNL A   1      42.336  22.566  26.081  1.00  0.00     0.127 S 
ATOM     84  O   UNL A   1      43.030  22.290  24.826  1.00  0.00    -0.237 OA
ATOM     85  O   UNL A   1      42.990  22.034  27.277  1.00  0.00    -0.237 OA
ATOM     86  O   UNL A   1      40.891  22.389  26.062  1.00  0.00    -0.744 OA
ENDBRANCH  80  83
ENDBRANCH  52  76
BRANCH  64  87
ATOM     87  C   UNL A   1      44.815  27.265  34.020  1.00  0.00     0.023 A 
ATOM     88  C   UNL A   1      46.052  27.938  33.972  1.00  0.00     0.012 A 
ATOM     89  C   UNL A   1      44.680  26.117  34.826  1.00  0.00     0.148 A 
ATOM     90  C   UNL A   1      47.145  27.461  34.696  1.00  0.00     0.002 A 
ATOM     91  C   UNL A   1      45.761  25.675  35.580  1.00  0.00     0.091 A 
ATOM     92  F   UNL A   1      43.500  25.480  34.841  1.00  0.00    -0.205 F 
ATOM     93  C   UNL A   1      46.996  26.340  35.508  1.00  0.00     0.022 A 
BRANCH  91  94
ATOM     94  S   UNL A   1      45.632  24.296  36.724  1.00  0.00     0.127 S 
ATOM     95  O   UNL A   1      46.997  24.205  37.236  1.00  0.00    -0.237 OA
ATOM     96  O   UNL A   1      44.648  24.785  37.692  1.00  0.00    -0.237 OA
ATOM     97  O   UNL A   1      45.182  23.160  35.931  1.00  0.00    -0.744 OA
ENDBRANCH  91  94
ENDBRANCH  64  87
ENDBRANCH  38  39
ENDBRANCH  30  33
ENDBRANCH  28  29
ENDBRANCH  27  28
ENDBRANCH   1  27
TORSDOF 18
ENDMDL
MODEL 2
REMARK VINA RESULT:     -12.7      2.422      2.892
REMARK SMILES C[C@@H](Sc1nc(C[NH+]2CCCC2)nc2ccccc12)C(=O)NCCCCNC(=O)c1ccc(-c2c3nc(c(-c4cccc(S(=O)(=O)[O-])c4F)c4ccc([nH]4)c(-c4cccc(S(=O)(=O)[O-])c4F)c4nc(c(-c5cccc(S(=O)(=O)[O-])c5F)c5ccc2[nH]5)C=C4)C=C3)cc1
REMARK SMILES IDX 24 1 23 2 22 3 20 4 21 5 2 7 1 8 3 9 4 10 5 11 19 12 6 13
REMARK SMILES IDX 14 14 18 15 13 16 15 17 17 18 16 19 7 20 8 21 9 22 12 23
REMARK SMILES IDX 10 25 11 26 25 27 26 28 27 29 28 30 29 32 30 33 31 34 92 35
REMARK SMILES IDX 32 36 91 37 33 38 34 39 35 40 85 41 36 42 90 43 84 44 86 45
REMARK SMILES IDX 37 46 89 47 83 48 82 49 38 51 70 52 50 53 69 54 51 55 54 56
REMARK SMILES IDX 68 57 87 58 52 59 53 60 67 62 88 63 55 64 39 65 40 66 48 67
REMARK SMILES IDX 41 68 43 69 49 70 42 71 44 72 45 73 46 74 47 75 71 76 72 77
REMARK SMILES IDX 80 78 73 79 75 80 81 81 74 82 76 83 77 84 78 85 79 86 56 87
REMARK SMILES IDX 57 88 65 89 58 90 60 91 66 92 59 93 61 94 62 95 63 96 64 97
REMARK H PARENT 22 6 8 24 27 31 86 50 54 61
REMARK Flexibility Score: inf
ROOT
ATOM      1  C   UNL A   1      33.495  27.006  25.454  1.00  0.00     0.023 C 
ENDROOT
BRANCH   1   2
ATOM      2  C   UNL A   1      34.015  26.435  24.138  1.00  0.00     0.116 C 
BRANCH   2   3
ATOM      3  N   UNL A   1      33.075  26.599  23.039  1.00  0.00    -0.355 N 
ATOM      4  C   UNL A   1      32.079  25.756  22.619  1.00  0.00     0.233 C 
ATOM      5  O   UNL A   1      31.343  26.129  21.701  1.00  0.00    -0.274 OA
ATOM      6  H   UNL A   1      33.167  27.434  22.526  1.00  0.00     0.163 HD
BRANCH   4   7
ATOM      7  C   UNL A   1      31.903  24.367  23.247  1.00  0.00     0.139 C 
ATOM      8  C   UNL A   1      30.413  24.093  23.448  1.00  0.00     0.030 C 
BRANCH   7   9
ATOM      9  S   UNL A   1      32.892  23.169  22.241  1.00  0.00    -0.093 SA
BRANCH   9  10
ATOM     10  C   UNL A   1      33.509  22.018  23.461  1.00  0.00     0.109 A 
ATOM     11  N   UNL A   1      32.670  21.016  23.775  1.00  0.00    -0.220 NA
ATOM     12  C   UNL A   1      34.826  22.091  23.936  1.00  0.00     0.033 A 
ATOM     13  C   UNL A   1      33.119  20.074  24.614  1.00  0.00     0.185 A 
ATOM     14  C   UNL A   1      35.198  21.035  24.773  1.00  0.00     0.075 A 
ATOM     15  C   UNL A   1      35.775  23.106  23.635  1.00  0.00     0.013 A 
ATOM     16  N   UNL A   1      34.364  20.050  25.121  1.00  0.00    -0.227 NA
ATOM     17  C   UNL A   1      36.499  20.996  25.261  1.00  0.00     0.029 A 
ATOM     18  C   UNL A   1      37.070  23.052  24.146  1.00  0.00     0.001 A 
ATOM     19  C   UNL A   1      37.436  21.986  24.954  1.00  0.00     0.002 A 
BRANCH  13  20
ATOM     20  C   UNL A   1      32.166  18.953  25.010  1.00  0.00     0.340 C 
BRANCH  20  21
ATOM     21  N   UNL A   1      32.252  17.651  24.308  1.00  0.00    -0.329 N 
ATOM     22  C   UNL A   1      32.951  16.609  25.057  1.00  0.00     0.262 C 
ATOM     23  C   UNL A   1      32.889  17.726  22.991  1.00  0.00     0.262 C 
ATOM     24  H   UNL A   1      31.268  17.403  24.207  1.00  0.00     0.348 HD
ATOM     25  C   UNL A   1      34.374  16.594  24.537  1.00  0.00     0.067 C 
ATOM     26  C   UNL A   1      34.260  17.068  23.102  1.00  0.00     0.067 C 
ENDBRANCH  20  21
ENDBRANCH  13  20
ENDBRANCH   9  10
ENDBRANCH   7   9
ENDBRANCH   4   7
ENDBRANCH   2   3
ENDBRANCH   1   2
BRANCH   1  27
ATOM     27  C   UNL A   1      33.690  28.506  25.620  1.00  0.00     0.023 C 
BRANCH  27  28
ATOM     28  C   UNL A   1      33.303  29.053  26.986  1.00  0.00     0.116 C 
BRANCH  28  29
ATOM     29  N   UNL A   1      33.512  30.490  27.119  1.00  0.00    -0.352 N 
ATOM     30  C   UNL A   1      34.603  31.142  27.642  1.00  0.00     0.251 C 
ATOM     31  H   UNL A   1      32.782  31.064  26.794  1.00  0.00     0.163 HD
ATOM     32  O   UNL A   1      34.600  32.362  27.775  1.00  0.00    -0.269 OA
BRANCH  30  33
ATOM     33  C   UNL A   1      35.761  30.340  28.077  1.00  0.00     0.039 A 
ATOM     34  C   UNL A   1      36.892  30.287  27.261  1.00  0.00     0.014 A 
ATOM     35  C   UNL A   1      35.753  29.725  29.331  1.00  0.00     0.014 A 
ATOM     36  C   UNL A   1      38.051  29.675  27.740  1.00  0.00     0.010 A 
ATOM     37  C   UNL A   1      36.931  29.192  29.837  1.00  0.00     0.010 A 
ATOM     38  C   UNL A   1      38.090  29.158  29.045  1.00  0.00    -0.014 A 
BRANCH  38  39
ATOM     39  C   UNL A   1      39.334  28.583  29.612  1.00  0.00     0.031 A 
ATOM     40  C   UNL A   1      39.964  29.212  30.825  1.00  0.00     0.074 A 
ATOM     41  C   UNL A   1      39.948  27.564  28.980  1.00  0.00     0.049 A 
ATOM     42  N   UNL A   1      41.084  28.905  31.423  1.00  0.00    -0.248 NA
ATOM     43  C   UNL A   1      39.260  30.361  31.421  1.00  0.00     0.031 C 
ATOM     44  C   UNL A   1      39.483  26.933  27.741  1.00  0.00     0.029 A 
ATOM     45  N   UNL A   1      41.112  26.899  29.273  1.00  0.00    -0.354 N 
ATOM     46  C   UNL A   1      41.238  29.841  32.439  1.00  0.00     0.074 A 
ATOM     47  C   UNL A   1      40.119  30.752  32.351  1.00  0.00     0.031 C 
ATOM     48  C   UNL A   1      40.353  25.973  27.385  1.00  0.00     0.029 A 
ATOM     49  C   UNL A   1      41.445  25.935  28.352  1.00  0.00     0.049 A 
ATOM     50  H   UNL A   1      41.657  27.095  30.069  1.00  0.00     0.167 HD
ATOM     51  C   UNL A   1      42.204  29.913  33.385  1.00  0.00     0.034 A 
ATOM     52  C   UNL A   1      42.512  25.114  28.292  1.00  0.00     0.034 A 
ATOM     53  C   UNL A   1      43.282  28.972  33.504  1.00  0.00     0.049 A 
ATOM     54  C   UNL A   1      43.536  25.172  29.393  1.00  0.00     0.074 A 
ATOM     55  C   UNL A   1      44.258  28.900  34.480  1.00  0.00     0.029 A 
ATOM     56  N   UNL A   1      43.525  27.935  32.615  1.00  0.00    -0.354 N 
ATOM     57  N   UNL A   1      43.575  25.957  30.443  1.00  0.00    -0.248 NA
ATOM     58  C   UNL A   1      44.643  24.206  29.325  1.00  0.00     0.031 C 
ATOM     59  C   UNL A   1      45.099  27.824  34.177  1.00  0.00     0.029 A 
ATOM     60  C   UNL A   1      44.638  27.217  33.019  1.00  0.00     0.049 A 
ATOM     61  H   UNL A   1      42.986  27.739  31.816  1.00  0.00     0.167 HD
ATOM     62  C   UNL A   1      44.686  25.558  31.177  1.00  0.00     0.074 A 
ATOM     63  C   UNL A   1      45.281  24.448  30.463  1.00  0.00     0.031 C 
ATOM     64  C   UNL A   1      45.181  26.076  32.328  1.00  0.00     0.034 A 
BRANCH  51  65
ATOM     65  C   UNL A   1      42.092  31.010  34.410  1.00  0.00     0.023 A 
ATOM     66  C   UNL A   1      41.392  30.764  35.610  1.00  0.00     0.012 A 
ATOM     67  C   UNL A   1      42.712  32.258  34.216  1.00  0.00     0.148 A 
ATOM     68  C   UNL A   1      41.279  31.755  36.583  1.00  0.00     0.002 A 
ATOM     69  C   UNL A   1      42.633  33.227  35.211  1.00  0.00     0.091 A 
ATOM     70  F   UNL A   1      43.352  32.483  33.059  1.00  0.00    -0.205 F 
ATOM     71  C   UNL A   1      41.909  32.981  36.388  1.00  0.00     0.022 A 
BRANCH  69  72
ATOM     72  S   UNL A   1      43.473  34.811  35.088  1.00  0.00     0.127 S 
ATOM     73  O   UNL A   1      42.797  35.414  33.939  1.00  0.00    -0.237 OA
ATOM     74  O   UNL A   1      43.153  35.429  36.375  1.00  0.00    -0.237 OA
ATOM     75  O   UNL A   1      44.882  34.502  34.897  1.00  0.00    -0.744 OA
ENDBRANCH  69  72
ENDBRANCH  51  65
BRANCH  52  76
ATOM     76  C   UNL A   1      42.621  24.115  27.193  1.00  0.00     0.023 A 
ATOM     77  C   UNL A   1      43.348  24.443  26.031  1.00  0.00     0.012 A 
ATOM     78  C   UNL A   1      42.046  22.834  27.303  1.00  0.00     0.148 A 
ATOM     79  C   UNL A   1      43.473  23.528  24.986  1.00  0.00     0.002 A 
ATOM     80  C   UNL A   1      42.221  21.907  26.281  1.00  0.00     0.091 A 
ATOM     81  F   UNL A   1      41.349  22.542  28.410  1.00  0.00    -0.205 F 
ATOM     82  C   UNL A   1      42.919  22.256  25.115  1.00  0.00     0.022 A 
BRANCH  80  83
ATOM     83  S   UNL A   1      41.656  20.206  26.421  1.00  0.00     0.127 S 
ATOM     84  O   UNL A   1      42.211  19.812  27.712  1.00  0.00    -0.237 OA
ATOM     85  O   UNL A   1      40.201  20.366  26.397  1.00  0.00    -0.237 OA
ATOM     86  O   UNL A   1      42.199  19.519  25.257  1.00  0.00    -0.744 OA
ENDBRANCH  80  83
ENDBRANCH  52  76
BRANCH  64  87
ATOM     87  C   UNL A   1      46.410  25.435  32.912  1.00  0.00     0.023 A 
ATOM     88  C   UNL A   1      47.683  25.952  32.597  1.00  0.00     0.012 A 
ATOM     89  C   UNL A   1      46.302  24.375  33.833  1.00  0.00     0.148 A 
ATOM     90  C   UNL A   1      48.830  25.406  33.171  1.00  0.00     0.002 A 
ATOM     91  C   UNL A   1      47.446  23.867  34.436  1.00  0.00     0.091 A 
ATOM     92  F   UNL A   1      45.083  23.884  34.104  1.00  0.00    -0.205 F 
ATOM     93  C   UNL A   1      48.712  24.374  34.099  1.00  0.00     0.022 A 
BRANCH  91  94
ATOM     94  S   UNL A   1      47.378  22.603  35.710  1.00  0.00     0.127 S 
ATOM     95  O   UNL A   1      48.788  22.468  36.072  1.00  0.00    -0.237 OA
ATOM     96  O   UNL A   1      46.544  23.234  36.733  1.00  0.00    -0.237 OA
ATOM     97  O   UNL A   1      46.777  21.434  35.082  1.00  0.00    -0.744 OA
ENDBRANCH  91  94
ENDBRANCH  64  87
ENDBRANCH  38  39
ENDBRANCH  30  33
ENDBRANCH  28  29
ENDBRANCH  27  28
ENDBRANCH   1  27
TORSDOF 18
ENDMDL
MODEL 3
REMARK VINA RESULT:     -12.5      5.270     10.691
REMARK SMILES C[C@@H](Sc1nc(C[NH+]2CCCC2)nc2ccccc12)C(=O)NCCCCNC(=O)c1ccc(-c2c3nc(c(-c4cccc(S(=O)(=O)[O-])c4F)c4ccc([nH]4)c(-c4cccc(S(=O)(=O)[O-])c4F)c4nc(c(-c5cccc(S(=O)(=O)[O-])c5F)c5ccc2[nH]5)C=C4)C=C3)cc1
REMARK SMILES IDX 24 1 23 2 22 3 20 4 21 5 2 7 1 8 3 9 4 10 5 11 19 12 6 13
REMARK SMILES IDX 14 14 18 15 13 16 15 17 17 18 16 19 7 20 8 21 9 22 12 23
REMARK SMILES IDX 10 25 11 26 25 27 26 28 27 29 28 30 29 32 30 33 31 34 92 35
REMARK SMILES IDX 32 36 91 37 33 38 34 39 35 40 85 41 36 42 90 43 84 44 86 45
REMARK SMILES IDX 37 46 89 47 83 48 82 49 38 51 70 52 50 53 69 54 51 55 54 56
REMARK SMILES IDX 68 57 87 58 52 59 53 60 67 62 88 63 55 64 39 65 40 66 48 67
REMARK SMILES IDX 41 68 43 69 49 70 42 71 44 72 45 73 46 74 47 75 71 76 72 77
REMARK SMILES IDX 80 78 73 79 75 80 81 81 74 82 76 83 77 84 78 85 79 86 56 87
REMARK SMILES IDX 57 88 65 89 58 90 60 91 66 92 59 93 61 94 62 95 63 96 64 97
REMARK H PARENT 22 6 8 24 27 31 86 50 54 61
REMARK Flexibility Score: inf
ROOT
ATOM      1  C   UNL A   1      34.517  21.336  24.772  1.00  0.00     0.023 C 
ENDROOT
BRANCH   1   2
ATOM      2  C   UNL A   1      33.269  22.140  24.418  1.00  0.00     0.116 C 
BRANCH   2   3
ATOM      3  N   UNL A   1      33.207  22.496  23.008  1.00  0.00    -0.355 N 
ATOM      4  C   UNL A   1      33.167  23.738  22.430  1.00  0.00     0.233 C 
ATOM      5  O   UNL A   1      33.190  23.812  21.198  1.00  0.00    -0.274 OA
ATOM      6  H   UNL A   1      33.192  21.736  22.381  1.00  0.00     0.163 HD
BRANCH   4   7
ATOM      7  C   UNL A   1      33.058  25.005  23.288  1.00  0.00     0.139 C 
ATOM      8  C   UNL A   1      33.901  26.112  22.656  1.00  0.00     0.030 C 
BRANCH   7   9
ATOM      9  S   UNL A   1      31.260  25.326  23.586  1.00  0.00    -0.093 SA
BRANCH   9  10
ATOM     10  C   UNL A   1      31.178  27.105  23.729  1.00  0.00     0.109 A 
ATOM     11  N   UNL A   1      30.608  27.736  22.687  1.00  0.00    -0.220 NA
ATOM     12  C   UNL A   1      31.556  27.763  24.908  1.00  0.00     0.033 A 
ATOM     13  C   UNL A   1      30.436  29.060  22.784  1.00  0.00     0.185 A 
ATOM     14  C   UNL A   1      31.295  29.137  24.912  1.00  0.00     0.075 A 
ATOM     15  C   UNL A   1      32.145  27.165  26.055  1.00  0.00     0.013 A 
ATOM     16  N   UNL A   1      30.760  29.783  23.871  1.00  0.00    -0.227 NA
ATOM     17  C   UNL A   1      31.595  29.870  26.055  1.00  0.00     0.029 A 
ATOM     18  C   UNL A   1      32.448  27.922  27.184  1.00  0.00     0.001 A 
ATOM     19  C   UNL A   1      32.162  29.280  27.186  1.00  0.00     0.002 A 
BRANCH  13  20
ATOM     20  C   UNL A   1      29.827  29.793  21.596  1.00  0.00     0.340 C 
BRANCH  20  21
ATOM     21  N   UNL A   1      28.407  30.208  21.655  1.00  0.00    -0.329 N 
ATOM     22  C   UNL A   1      28.191  31.644  21.484  1.00  0.00     0.262 C 
ATOM     23  C   UNL A   1      27.725  29.822  22.892  1.00  0.00     0.262 C 
ATOM     24  H   UNL A   1      28.008  29.702  20.864  1.00  0.00     0.348 HD
ATOM     25  C   UNL A   1      28.062  32.222  22.879  1.00  0.00     0.067 C 
ATOM     26  C   UNL A   1      27.498  31.088  23.711  1.00  0.00     0.067 C 
ENDBRANCH  20  21
ENDBRANCH  13  20
ENDBRANCH   9  10
ENDBRANCH   7   9
ENDBRANCH   4   7
ENDBRANCH   2   3
ENDBRANCH   1   2
BRANCH   1  27
ATOM     27  C   UNL A   1      35.377  21.945  25.870  1.00  0.00     0.023 C 
BRANCH  27  28
ATOM     28  C   UNL A   1      36.783  22.336  25.437  1.00  0.00     0.116 C 
BRANCH  28  29
ATOM     29  N   UNL A   1      37.758  21.262  25.588  1.00  0.00    -0.352 N 
ATOM     30  C   UNL A   1      39.037  21.342  26.083  1.00  0.00     0.251 C 
ATOM     31  H   UNL A   1      37.463  20.368  25.298  1.00  0.00     0.163 HD
ATOM     32  O   UNL A   1      39.780  20.367  26.063  1.00  0.00    -0.269 OA
BRANCH  30  33
ATOM     33  C   UNL A   1      39.510  22.639  26.602  1.00  0.00     0.039 A 
ATOM     34  C   UNL A   1      40.501  22.654  27.585  1.00  0.00     0.014 A 
ATOM     35  C   UNL A   1      39.038  23.830  26.043  1.00  0.00     0.014 A 
ATOM     36  C   UNL A   1      41.075  23.869  27.958  1.00  0.00     0.010 A 
ATOM     37  C   UNL A   1      39.668  25.026  26.355  1.00  0.00     0.010 A 
ATOM     38  C   UNL A   1      40.690  25.059  27.317  1.00  0.00    -0.014 A 
BRANCH  38  39
ATOM     39  C   UNL A   1      41.346  26.352  27.629  1.00  0.00     0.031 A 
ATOM     40  C   UNL A   1      42.784  26.573  27.246  1.00  0.00     0.074 A 
ATOM     41  C   UNL A   1      40.682  27.283  28.342  1.00  0.00     0.049 A 
ATOM     42  N   UNL A   1      43.553  27.599  27.494  1.00  0.00    -0.248 NA
ATOM     43  C   UNL A   1      43.455  25.480  26.521  1.00  0.00     0.031 C 
ATOM     44  C   UNL A   1      39.316  27.144  28.852  1.00  0.00     0.029 A 
ATOM     45  N   UNL A   1      41.078  28.518  28.789  1.00  0.00    -0.354 N 
ATOM     46  C   UNL A   1      44.804  27.263  26.991  1.00  0.00     0.074 A 
ATOM     47  C   UNL A   1      44.703  25.922  26.461  1.00  0.00     0.031 C 
ATOM     48  C   UNL A   1      38.989  28.251  29.539  1.00  0.00     0.029 A 
ATOM     49  C   UNL A   1      40.126  29.167  29.539  1.00  0.00     0.049 A 
ATOM     50  H   UNL A   1      41.962  28.904  28.590  1.00  0.00     0.167 HD
ATOM     51  C   UNL A   1      45.927  28.017  26.940  1.00  0.00     0.034 A 
ATOM     52  C   UNL A   1      40.165  30.363  30.158  1.00  0.00     0.034 A 
ATOM     53  C   UNL A   1      46.007  29.370  27.417  1.00  0.00     0.049 A 
ATOM     54  C   UNL A   1      41.403  31.207  30.029  1.00  0.00     0.074 A 
ATOM     55  C   UNL A   1      47.068  30.253  27.328  1.00  0.00     0.029 A 
ATOM     56  N   UNL A   1      44.983  30.037  28.072  1.00  0.00    -0.354 N 
ATOM     57  N   UNL A   1      42.523  30.939  29.401  1.00  0.00    -0.248 NA
ATOM     58  C   UNL A   1      41.372  32.536  30.658  1.00  0.00     0.031 C 
ATOM     59  C   UNL A   1      46.688  31.452  27.939  1.00  0.00     0.029 A 
ATOM     60  C   UNL A   1      45.386  31.321  28.395  1.00  0.00     0.049 A 
ATOM     61  H   UNL A   1      44.100  29.654  28.277  1.00  0.00     0.167 HD
ATOM     62  C   UNL A   1      43.314  32.075  29.530  1.00  0.00     0.074 A 
ATOM     63  C   UNL A   1      42.537  33.043  30.276  1.00  0.00     0.031 C 
ATOM     64  C   UNL A   1      44.577  32.292  29.086  1.00  0.00     0.034 A 
BRANCH  51  65
ATOM     65  C   UNL A   1      47.139  27.415  26.280  1.00  0.00     0.023 A 
ATOM     66  C   UNL A   1      47.349  27.626  24.901  1.00  0.00     0.012 A 
ATOM     67  C   UNL A   1      48.090  26.689  27.020  1.00  0.00     0.148 A 
ATOM     68  C   UNL A   1      48.467  27.091  24.262  1.00  0.00     0.002 A 
ATOM     69  C   UNL A   1      49.225  26.196  26.385  1.00  0.00     0.091 A 
ATOM     70  F   UNL A   1      47.861  26.477  28.324  1.00  0.00    -0.205 F 
ATOM     71  C   UNL A   1      49.409  26.387  25.006  1.00  0.00     0.022 A 
BRANCH  69  72
ATOM     72  S   UNL A   1      50.535  25.341  27.270  1.00  0.00     0.127 S 
ATOM     73  O   UNL A   1      49.815  24.193  27.822  1.00  0.00    -0.237 OA
ATOM     74  O   UNL A   1      51.469  25.012  26.193  1.00  0.00    -0.237 OA
ATOM     75  O   UNL A   1      51.045  26.292  28.246  1.00  0.00    -0.744 OA
ENDBRANCH  69  72
ENDBRANCH  51  65
BRANCH  52  76
ATOM     76  C   UNL A   1      38.966  30.863  30.886  1.00  0.00     0.023 A 
ATOM     77  C   UNL A   1      38.844  30.616  32.268  1.00  0.00     0.012 A 
ATOM     78  C   UNL A   1      37.967  31.611  30.233  1.00  0.00     0.148 A 
ATOM     79  C   UNL A   1      37.736  31.075  32.979  1.00  0.00     0.002 A 
ATOM     80  C   UNL A   1      36.892  32.113  30.959  1.00  0.00     0.091 A 
ATOM     81  F   UNL A   1      38.093  31.827  28.916  1.00  0.00    -0.205 F 
ATOM     82  C   UNL A   1      36.765  31.832  32.328  1.00  0.00     0.022 A 
BRANCH  80  83
ATOM     83  S   UNL A   1      35.668  33.207  30.229  1.00  0.00     0.127 S 
ATOM     84  O   UNL A   1      35.276  34.024  31.373  1.00  0.00    -0.237 OA
ATOM     85  O   UNL A   1      36.454  33.907  29.211  1.00  0.00    -0.237 OA
ATOM     86  O   UNL A   1      34.637  32.332  29.687  1.00  0.00    -0.744 OA
ENDBRANCH  80  83
ENDBRANCH  52  76
BRANCH  64  87
ATOM     87  C   UNL A   1      45.195  33.634  29.365  1.00  0.00     0.023 A 
ATOM     88  C   UNL A   1      45.943  33.826  30.544  1.00  0.00     0.012 A 
ATOM     89  C   UNL A   1      45.105  34.680  28.425  1.00  0.00     0.148 A 
ATOM     90  C   UNL A   1      46.570  35.046  30.794  1.00  0.00     0.002 A 
ATOM     91  C   UNL A   1      45.770  35.877  28.660  1.00  0.00     0.091 A 
ATOM     92  F   UNL A   1      44.371  34.484  27.319  1.00  0.00    -0.205 F 
ATOM     93  C   UNL A   1      46.495  36.065  29.848  1.00  0.00     0.022 A 
BRANCH  91  94
ATOM     94  S   UNL A   1      45.804  37.208  27.454  1.00  0.00     0.127 S 
ATOM     95  O   UNL A   1      44.381  37.493  27.284  1.00  0.00    -0.237 OA
ATOM     96  O   UNL A   1      46.555  38.248  28.158  1.00  0.00    -0.237 OA
ATOM     97  O   UNL A   1      46.480  36.667  26.282  1.00  0.00    -0.744 OA
ENDBRANCH  91  94
ENDBRANCH  64  87
ENDBRANCH  38  39
ENDBRANCH  30  33
ENDBRANCH  28  29
ENDBRANCH  27  28
ENDBRANCH   1  27
TORSDOF 18
ENDMDL
