MODEL 1
REMARK VINA RESULT:     -12.3      0.000      0.000
REMARK SMILES NC(=O)C[C@H](NC(=O)C1(c2ccccc2)CCN(C(=O)[C@@H]2CCC[NH2+]2)CC1)C(=O)NCCCCNC(=O)c1ccc(-c2c3nc(c(-c4cccc(S(=O)(=O)[O-])c4F)c4ccc([nH]4)c(-c4cccc(S(=O)(=O)[O-])c4F)c4nc(c(-c5cccc(S(=O)(=O)[O-])c5F)c5ccc2[nH]5)C=C4)C=C3)cc1
REMARK SMILES IDX 32 1 31 2 30 3 28 4 29 5 5 7 4 8 2 9 1 10 3 13 6 14 7 15
REMARK SMILES IDX 8 17 9 18 16 19 27 20 17 21 26 22 18 23 19 24 20 25 10 26
REMARK SMILES IDX 11 27 15 28 12 29 14 30 13 31 21 32 22 33 25 34 23 35 24 36
REMARK SMILES IDX 33 39 34 40 35 41 36 42 37 44 38 45 39 46 100 47 40 48 99 49
REMARK SMILES IDX 41 50 42 51 43 52 93 53 44 54 98 55 92 56 94 57 45 58 97 59
REMARK SMILES IDX 91 60 90 61 46 63 78 64 58 65 77 66 59 67 62 68 76 69 95 70
REMARK SMILES IDX 60 71 61 72 75 74 96 75 63 76 47 77 48 78 56 79 49 80 51 81
REMARK SMILES IDX 57 82 50 83 52 84 53 85 54 86 55 87 79 88 80 89 88 90 81 91
REMARK SMILES IDX 83 92 89 93 82 94 84 95 85 96 86 97 87 98 64 99 65 100
REMARK SMILES IDX 73 101 66 102 68 103 74 104 67 105 69 106 70 107 71 108
REMARK SMILES IDX 72 109
REMARK H PARENT 30 6 1 11 1 12 6 16 25 37 25 38 35 43 94 62 62 73
REMARK Flexibility Score: inf
ROOT
ATOM      1  C   UNL A   1      31.167  27.864  26.249  1.00  0.00     0.023 C 
ENDROOT
BRANCH   1   2
ATOM      2  C   UNL A   1      31.812  26.498  26.424  1.00  0.00     0.116 C 
BRANCH   2   3
ATOM      3  N   UNL A   1      32.988  26.299  25.605  1.00  0.00    -0.354 N 
ATOM      4  C   UNL A   1      33.142  25.604  24.445  1.00  0.00     0.243 C 
ATOM      5  O   UNL A   1      34.083  25.924  23.711  1.00  0.00    -0.273 OA
ATOM      6  H   UNL A   1      33.805  26.734  25.940  1.00  0.00     0.163 HD
BRANCH   4   7
ATOM      7  C   UNL A   1      32.142  24.529  23.970  1.00  0.00     0.180 C 
BRANCH   7   8
ATOM      8  C   UNL A   1      30.919  25.109  23.258  1.00  0.00     0.134 C 
BRANCH   8   9
ATOM      9  C   UNL A   1      31.182  26.341  22.436  1.00  0.00     0.220 C 
ATOM     10  N   UNL A   1      31.918  26.156  21.304  1.00  0.00    -0.370 N 
ATOM     11  H   UNL A   1      32.126  26.922  20.721  1.00  0.00     0.159 HD
ATOM     12  H   UNL A   1      32.244  25.257  21.069  1.00  0.00     0.159 HD
ATOM     13  O   UNL A   1      30.754  27.449  22.728  1.00  0.00    -0.275 OA
ENDBRANCH   8   9
ENDBRANCH   7   8
BRANCH   7  14
ATOM     14  N   UNL A   1      31.832  23.490  24.956  1.00  0.00    -0.343 N 
ATOM     15  C   UNL A   1      32.499  22.401  25.409  1.00  0.00     0.231 C 
ATOM     16  H   UNL A   1      30.952  23.609  25.380  1.00  0.00     0.164 HD
ATOM     17  O   UNL A   1      32.024  21.932  26.454  1.00  0.00    -0.274 OA
BRANCH  15  18
ATOM     18  C   UNL A   1      33.723  21.716  24.714  1.00  0.00     0.077 C 
ATOM     19  C   UNL A   1      33.473  21.365  23.219  1.00  0.00     0.043 C 
ATOM     20  C   UNL A   1      33.909  20.321  25.430  1.00  0.00     0.043 C 
ATOM     21  C   UNL A   1      32.309  20.394  23.024  1.00  0.00     0.121 C 
ATOM     22  C   UNL A   1      32.759  19.345  25.174  1.00  0.00     0.121 C 
ATOM     23  N   UNL A   1      32.558  19.154  23.747  1.00  0.00    -0.337 N 
ATOM     24  C   UNL A   1      32.570  17.957  23.042  1.00  0.00     0.280 C 
ATOM     25  O   UNL A   1      32.327  17.943  21.827  1.00  0.00    -0.268 OA
BRANCH  18  26
ATOM     26  C   UNL A   1      34.992  22.587  24.924  1.00  0.00    -0.032 A 
ATOM     27  C   UNL A   1      35.941  22.773  23.897  1.00  0.00     0.005 A 
ATOM     28  C   UNL A   1      35.282  23.197  26.157  1.00  0.00     0.005 A 
ATOM     29  C   UNL A   1      37.114  23.511  24.097  1.00  0.00     0.000 A 
ATOM     30  C   UNL A   1      36.477  23.895  26.373  1.00  0.00     0.000 A 
ATOM     31  C   UNL A   1      37.393  24.055  25.343  1.00  0.00     0.000 A 
ENDBRANCH  18  26
BRANCH  24  32
ATOM     32  C   UNL A   1      32.868  16.613  23.736  1.00  0.00     0.272 C 
ATOM     33  C   UNL A   1      32.168  16.374  25.062  1.00  0.00     0.081 C 
ATOM     34  N   UNL A   1      34.313  16.356  23.943  1.00  0.00    -0.336 N 
ATOM     35  C   UNL A   1      33.081  15.376  25.746  1.00  0.00     0.068 C 
ATOM     36  C   UNL A   1      34.473  15.757  25.270  1.00  0.00     0.261 C 
ATOM     37  H   UNL A   1      34.833  17.231  23.891  1.00  0.00     0.346 HD
ATOM     38  H   UNL A   1      34.669  15.727  23.223  1.00  0.00     0.346 HD
ENDBRANCH  24  32
ENDBRANCH  15  18
ENDBRANCH   7  14
ENDBRANCH   4   7
ENDBRANCH   2   3
ENDBRANCH   1   2
BRANCH   1  39
ATOM     39  C   UNL A   1      31.827  28.999  27.027  1.00  0.00     0.023 C 
BRANCH  39  40
ATOM     40  C   UNL A   1      32.679  29.955  26.202  1.00  0.00     0.116 C 
BRANCH  40  41
ATOM     41  N   UNL A   1      32.487  31.357  26.546  1.00  0.00    -0.352 N 
ATOM     42  C   UNL A   1      33.270  32.164  27.336  1.00  0.00     0.251 C 
ATOM     43  H   UNL A   1      31.688  31.784  26.162  1.00  0.00     0.163 HD
ATOM     44  O   UNL A   1      32.912  33.311  27.591  1.00  0.00    -0.269 OA
BRANCH  42  45
ATOM     45  C   UNL A   1      34.523  31.626  27.904  1.00  0.00     0.039 A 
ATOM     46  C   UNL A   1      35.635  32.466  28.002  1.00  0.00     0.014 A 
ATOM     47  C   UNL A   1      34.584  30.314  28.375  1.00  0.00     0.014 A 
ATOM     48  C   UNL A   1      36.792  32.004  28.630  1.00  0.00     0.010 A 
ATOM     49  C   UNL A   1      35.705  29.886  29.078  1.00  0.00     0.010 A 
ATOM     50  C   UNL A   1      36.827  30.720  29.199  1.00  0.00    -0.014 A 
BRANCH  50  51
ATOM     51  C   UNL A   1      38.035  30.217  29.899  1.00  0.00     0.031 A 
ATOM     52  C   UNL A   1      38.340  30.689  31.295  1.00  0.00     0.074 A 
ATOM     53  C   UNL A   1      38.896  29.403  29.255  1.00  0.00     0.049 A 
ATOM     54  N   UNL A   1      39.366  30.406  32.056  1.00  0.00    -0.248 NA
ATOM     55  C   UNL A   1      37.386  31.630  31.905  1.00  0.00     0.031 C 
ATOM     56  C   UNL A   1      38.759  28.949  27.869  1.00  0.00     0.029 A 
ATOM     57  N   UNL A   1      40.071  28.833  29.674  1.00  0.00    -0.354 N 
ATOM     58  C   UNL A   1      39.202  31.164  33.209  1.00  0.00     0.074 A 
ATOM     59  C   UNL A   1      38.003  31.952  33.032  1.00  0.00     0.031 C 
ATOM     60  C   UNL A   1      39.803  28.163  27.558  1.00  0.00     0.029 A 
ATOM     61  C   UNL A   1      40.692  28.073  28.711  1.00  0.00     0.049 A 
ATOM     62  H   UNL A   1      40.437  28.958  30.580  1.00  0.00     0.167 HD
ATOM     63  C   UNL A   1      39.958  31.175  34.332  1.00  0.00     0.034 A 
ATOM     64  C   UNL A   1      41.846  27.376  28.757  1.00  0.00     0.034 A 
ATOM     65  C   UNL A   1      41.111  30.342  34.530  1.00  0.00     0.049 A 
ATOM     66  C   UNL A   1      42.623  27.342  30.046  1.00  0.00     0.074 A 
ATOM     67  C   UNL A   1      41.896  30.210  35.661  1.00  0.00     0.029 A 
ATOM     68  N   UNL A   1      41.643  29.493  33.572  1.00  0.00    -0.354 N 
ATOM     69  N   UNL A   1      42.363  27.940  31.184  1.00  0.00    -0.248 NA
ATOM     70  C   UNL A   1      43.827  26.498  30.074  1.00  0.00     0.031 C 
ATOM     71  C   UNL A   1      42.909  29.285  35.384  1.00  0.00     0.029 A 
ATOM     72  C   UNL A   1      42.741  28.828  34.087  1.00  0.00     0.049 A 
ATOM     73  H   UNL A   1      41.291  29.380  32.659  1.00  0.00     0.167 HD
ATOM     74  C   UNL A   1      43.342  27.512  32.073  1.00  0.00     0.074 A 
ATOM     75  C   UNL A   1      44.191  26.590  31.346  1.00  0.00     0.031 C 
ATOM     76  C   UNL A   1      43.532  27.860  33.370  1.00  0.00     0.034 A 
BRANCH  63  77
ATOM     77  C   UNL A   1      39.513  32.068  35.463  1.00  0.00     0.023 A 
ATOM     78  C   UNL A   1      38.669  31.547  36.465  1.00  0.00     0.012 A 
ATOM     79  C   UNL A   1      39.960  33.399  35.559  1.00  0.00     0.148 A 
ATOM     80  C   UNL A   1      38.243  32.347  37.523  1.00  0.00     0.002 A 
ATOM     81  C   UNL A   1      39.569  34.177  36.644  1.00  0.00     0.091 A 
ATOM     82  F   UNL A   1      40.743  33.884  34.586  1.00  0.00    -0.205 F 
ATOM     83  C   UNL A   1      38.701  33.659  37.618  1.00  0.00     0.022 A 
BRANCH  81  84
ATOM     84  S   UNL A   1      40.170  35.851  36.900  1.00  0.00     0.127 S 
ATOM     85  O   UNL A   1      39.512  36.212  38.156  1.00  0.00    -0.237 OA
ATOM     86  O   UNL A   1      41.615  35.647  37.006  1.00  0.00    -0.237 OA
ATOM     87  O   UNL A   1      39.749  36.611  35.732  1.00  0.00    -0.744 OA
ENDBRANCH  81  84
ENDBRANCH  63  77
BRANCH  64  88
ATOM     88  C   UNL A   1      42.281  26.575  27.578  1.00  0.00     0.023 A 
ATOM     89  C   UNL A   1      43.042  27.196  26.568  1.00  0.00     0.012 A 
ATOM     90  C   UNL A   1      41.973  25.205  27.461  1.00  0.00     0.148 A 
ATOM     91  C   UNL A   1      43.457  26.479  25.446  1.00  0.00     0.002 A 
ATOM     92  C   UNL A   1      42.436  24.484  26.365  1.00  0.00     0.091 A 
ATOM     93  F   UNL A   1      41.240  24.634  28.426  1.00  0.00    -0.205 F 
ATOM     94  C   UNL A   1      43.162  25.123  25.348  1.00  0.00     0.022 A 
BRANCH  92  95
ATOM     95  S   UNL A   1      42.213  22.708  26.220  1.00  0.00     0.127 S 
ATOM     96  O   UNL A   1      40.759  22.583  26.268  1.00  0.00    -0.237 OA
ATOM     97  O   UNL A   1      42.813  22.431  24.914  1.00  0.00    -0.237 OA
ATOM     98  O   UNL A   1      42.938  22.130  27.344  1.00  0.00    -0.744 OA
ENDBRANCH  92  95
ENDBRANCH  64  88
BRANCH  76  99
ATOM     99  C   UNL A   1      44.667  27.208  34.111  1.00  0.00     0.023 A 
ATOM    100  C   UNL A   1      45.942  27.809  34.114  1.00  0.00     0.012 A 
ATOM    101  C   UNL A   1      44.450  26.041  34.870  1.00  0.00     0.148 A 
ATOM    102  C   UNL A   1      46.990  27.239  34.835  1.00  0.00     0.002 A 
ATOM    103  C   UNL A   1      45.488  25.507  35.624  1.00  0.00     0.091 A 
ATOM    104  F   UNL A   1      43.236  25.472  34.837  1.00  0.00    -0.205 F 
ATOM    105  C   UNL A   1      46.761  26.098  35.599  1.00  0.00     0.022 A 
BRANCH 103 106
ATOM    106  S   UNL A   1      45.249  24.097  36.711  1.00  0.00     0.127 S 
ATOM    107  O   UNL A   1      46.622  23.792  37.112  1.00  0.00    -0.237 OA
ATOM    108  O   UNL A   1      44.415  24.659  37.775  1.00  0.00    -0.237 OA
ATOM    109  O   UNL A   1      44.588  23.080  35.904  1.00  0.00    -0.744 OA
ENDBRANCH 103 106
ENDBRANCH  76  99
ENDBRANCH  50  51
ENDBRANCH  42  45
ENDBRANCH  40  41
ENDBRANCH  39  40
ENDBRANCH   1  39
TORSDOF 20
ENDMDL
MODEL 2
REMARK VINA RESULT:     -12.0      4.682     10.127
REMARK SMILES NC(=O)C[C@H](NC(=O)C1(c2ccccc2)CCN(C(=O)[C@@H]2CCC[NH2+]2)CC1)C(=O)NCCCCNC(=O)c1ccc(-c2c3nc(c(-c4cccc(S(=O)(=O)[O-])c4F)c4ccc([nH]4)c(-c4cccc(S(=O)(=O)[O-])c4F)c4nc(c(-c5cccc(S(=O)(=O)[O-])c5F)c5ccc2[nH]5)C=C4)C=C3)cc1
REMARK SMILES IDX 32 1 31 2 30 3 28 4 29 5 5 7 4 8 2 9 1 10 3 13 6 14 7 15
REMARK SMILES IDX 8 17 9 18 16 19 27 20 17 21 26 22 18 23 19 24 20 25 10 26
REMARK SMILES IDX 11 27 15 28 12 29 14 30 13 31 21 32 22 33 25 34 23 35 24 36
REMARK SMILES IDX 33 39 34 40 35 41 36 42 37 44 38 45 39 46 100 47 40 48 99 49
REMARK SMILES IDX 41 50 42 51 43 52 93 53 44 54 98 55 92 56 94 57 45 58 97 59
REMARK SMILES IDX 91 60 90 61 46 63 78 64 58 65 77 66 59 67 62 68 76 69 95 70
REMARK SMILES IDX 60 71 61 72 75 74 96 75 63 76 47 77 48 78 56 79 49 80 51 81
REMARK SMILES IDX 57 82 50 83 52 84 53 85 54 86 55 87 79 88 80 89 88 90 81 91
REMARK SMILES IDX 83 92 89 93 82 94 84 95 85 96 86 97 87 98 64 99 65 100
REMARK SMILES IDX 73 101 66 102 68 103 74 104 67 105 69 106 70 107 71 108
REMARK SMILES IDX 72 109
REMARK H PARENT 30 6 1 11 1 12 6 16 25 37 25 38 35 43 94 62 62 73
REMARK Flexibility Score: inf
ROOT
ATOM      1  C   UNL A   1      35.460  23.160  25.029  1.00  0.00     0.023 C 
ENDROOT
BRANCH   1   2
ATOM      2  C   UNL A   1      34.705  24.445  24.727  1.00  0.00     0.116 C 
BRANCH   2   3
ATOM      3  N   UNL A   1      33.746  24.811  25.747  1.00  0.00    -0.354 N 
ATOM      4  C   UNL A   1      32.386  24.774  25.725  1.00  0.00     0.243 C 
ATOM      5  O   UNL A   1      31.801  24.708  26.812  1.00  0.00    -0.273 OA
ATOM      6  H   UNL A   1      34.139  25.138  26.588  1.00  0.00     0.163 HD
BRANCH   4   7
ATOM      7  C   UNL A   1      31.567  24.703  24.419  1.00  0.00     0.180 C 
BRANCH   7   8
ATOM      8  C   UNL A   1      31.321  23.274  23.934  1.00  0.00     0.134 C 
BRANCH   8   9
ATOM      9  C   UNL A   1      32.385  22.712  23.031  1.00  0.00     0.220 C 
ATOM     10  N   UNL A   1      32.828  21.461  23.339  1.00  0.00    -0.370 N 
ATOM     11  H   UNL A   1      33.524  21.035  22.787  1.00  0.00     0.159 HD
ATOM     12  H   UNL A   1      32.453  20.982  24.113  1.00  0.00     0.159 HD
ATOM     13  O   UNL A   1      32.827  23.309  22.059  1.00  0.00    -0.275 OA
ENDBRANCH   8   9
ENDBRANCH   7   8
BRANCH   7  14
ATOM     14  N   UNL A   1      31.990  25.634  23.369  1.00  0.00    -0.343 N 
ATOM     15  C   UNL A   1      32.105  26.983  23.304  1.00  0.00     0.231 C 
ATOM     16  H   UNL A   1      32.247  25.183  22.533  1.00  0.00     0.164 HD
ATOM     17  O   UNL A   1      32.770  27.374  22.335  1.00  0.00    -0.274 OA
BRANCH  15  18
ATOM     18  C   UNL A   1      31.451  28.009  24.289  1.00  0.00     0.077 C 
ATOM     19  C   UNL A   1      30.049  27.572  24.802  1.00  0.00     0.043 C 
ATOM     20  C   UNL A   1      31.181  29.315  23.442  1.00  0.00     0.043 C 
ATOM     21  C   UNL A   1      29.032  27.396  23.675  1.00  0.00     0.121 C 
ATOM     22  C   UNL A   1      30.118  29.131  22.358  1.00  0.00     0.121 C 
ATOM     23  N   UNL A   1      28.877  28.641  22.934  1.00  0.00    -0.337 N 
ATOM     24  C   UNL A   1      27.615  29.215  22.843  1.00  0.00     0.280 C 
ATOM     25  O   UNL A   1      26.633  28.651  23.344  1.00  0.00    -0.268 OA
BRANCH  18  26
ATOM     26  C   UNL A   1      32.442  28.327  25.441  1.00  0.00    -0.032 A 
ATOM     27  C   UNL A   1      33.825  28.484  25.208  1.00  0.00     0.005 A 
ATOM     28  C   UNL A   1      32.022  28.431  26.779  1.00  0.00     0.005 A 
ATOM     29  C   UNL A   1      34.730  28.715  26.250  1.00  0.00     0.000 A 
ATOM     30  C   UNL A   1      32.932  28.615  27.828  1.00  0.00     0.000 A 
ATOM     31  C   UNL A   1      34.286  28.760  27.564  1.00  0.00     0.000 A 
ENDBRANCH  18  26
BRANCH  24  32
ATOM     32  C   UNL A   1      27.387  30.552  22.111  1.00  0.00     0.272 C 
ATOM     33  C   UNL A   1      28.019  30.680  20.737  1.00  0.00     0.081 C 
ATOM     34  N   UNL A   1      27.790  31.741  22.899  1.00  0.00    -0.336 N 
ATOM     35  C   UNL A   1      28.169  32.180  20.577  1.00  0.00     0.068 C 
ATOM     36  C   UNL A   1      28.447  32.679  21.985  1.00  0.00     0.261 C 
ATOM     37  H   UNL A   1      28.436  31.466  23.638  1.00  0.00     0.346 HD
ATOM     38  H   UNL A   1      26.975  32.176  23.330  1.00  0.00     0.346 HD
ENDBRANCH  24  32
ENDBRANCH  15  18
ENDBRANCH   7  14
ENDBRANCH   4   7
ENDBRANCH   2   3
ENDBRANCH   1   2
BRANCH   1  39
ATOM     39  C   UNL A   1      36.971  23.314  25.179  1.00  0.00     0.023 C 
BRANCH  39  40
ATOM     40  C   UNL A   1      37.576  22.685  26.429  1.00  0.00     0.116 C 
BRANCH  40  41
ATOM     41  N   UNL A   1      38.842  22.007  26.188  1.00  0.00    -0.352 N 
ATOM     42  C   UNL A   1      40.120  22.497  26.321  1.00  0.00     0.251 C 
ATOM     43  H   UNL A   1      38.775  21.072  25.891  1.00  0.00     0.163 HD
ATOM     44  O   UNL A   1      41.081  21.808  25.992  1.00  0.00    -0.269 OA
BRANCH  42  45
ATOM     45  C   UNL A   1      40.319  23.871  26.823  1.00  0.00     0.039 A 
ATOM     46  C   UNL A   1      40.607  24.060  28.177  1.00  0.00     0.014 A 
ATOM     47  C   UNL A   1      40.265  24.962  25.953  1.00  0.00     0.014 A 
ATOM     48  C   UNL A   1      40.900  25.342  28.646  1.00  0.00     0.010 A 
ATOM     49  C   UNL A   1      40.644  26.221  26.403  1.00  0.00     0.010 A 
ATOM     50  C   UNL A   1      40.949  26.429  27.756  1.00  0.00    -0.014 A 
BRANCH  50  51
ATOM     51  C   UNL A   1      41.288  27.795  28.225  1.00  0.00     0.031 A 
ATOM     52  C   UNL A   1      42.728  28.231  28.277  1.00  0.00     0.074 A 
ATOM     53  C   UNL A   1      40.315  28.612  28.676  1.00  0.00     0.049 A 
ATOM     54  N   UNL A   1      43.233  29.362  28.700  1.00  0.00    -0.248 NA
ATOM     55  C   UNL A   1      43.737  27.257  27.831  1.00  0.00     0.031 C 
ATOM     56  C   UNL A   1      38.894  28.272  28.762  1.00  0.00     0.029 A 
ATOM     57  N   UNL A   1      40.380  29.890  29.172  1.00  0.00    -0.354 N 
ATOM     58  C   UNL A   1      44.612  29.217  28.610  1.00  0.00     0.074 A 
ATOM     59  C   UNL A   1      44.868  27.876  28.135  1.00  0.00     0.031 C 
ATOM     60  C   UNL A   1      38.220  29.319  29.268  1.00  0.00     0.029 A 
ATOM     61  C   UNL A   1      39.161  30.395  29.561  1.00  0.00     0.049 A 
ATOM     62  H   UNL A   1      41.220  30.399  29.242  1.00  0.00     0.167 HD
ATOM     63  C   UNL A   1      45.580  30.130  28.860  1.00  0.00     0.034 A 
ATOM     64  C   UNL A   1      38.840  31.593  30.089  1.00  0.00     0.034 A 
ATOM     65  C   UNL A   1      45.318  31.482  29.268  1.00  0.00     0.049 A 
ATOM     66  C   UNL A   1      39.926  32.618  30.281  1.00  0.00     0.074 A 
ATOM     67  C   UNL A   1      46.220  32.513  29.464  1.00  0.00     0.029 A 
ATOM     68  N   UNL A   1      44.059  31.994  29.540  1.00  0.00    -0.354 N 
ATOM     69  N   UNL A   1      41.210  32.516  30.035  1.00  0.00    -0.248 NA
ATOM     70  C   UNL A   1      39.514  33.939  30.777  1.00  0.00     0.031 C 
ATOM     71  C   UNL A   1      45.504  33.648  29.861  1.00  0.00     0.029 A 
ATOM     72  C   UNL A   1      44.156  33.328  29.894  1.00  0.00     0.049 A 
ATOM     73  H   UNL A   1      43.218  31.483  29.488  1.00  0.00     0.167 HD
ATOM     74  C   UNL A   1      41.751  33.768  30.304  1.00  0.00     0.074 A 
ATOM     75  C   UNL A   1      40.652  34.618  30.714  1.00  0.00     0.031 C 
ATOM     76  C   UNL A   1      43.042  34.176  30.232  1.00  0.00     0.034 A 
BRANCH  63  77
ATOM     77  C   UNL A   1      47.009  29.713  28.627  1.00  0.00     0.023 A 
ATOM     78  C   UNL A   1      47.597  29.933  27.364  1.00  0.00     0.012 A 
ATOM     79  C   UNL A   1      47.781  29.146  29.658  1.00  0.00     0.148 A 
ATOM     80  C   UNL A   1      48.917  29.560  27.119  1.00  0.00     0.002 A 
ATOM     81  C   UNL A   1      49.112  28.821  29.420  1.00  0.00     0.091 A 
ATOM     82  F   UNL A   1      47.200  28.924  30.845  1.00  0.00    -0.205 F 
ATOM     83  C   UNL A   1      49.678  29.013  28.149  1.00  0.00     0.022 A 
BRANCH  81  84
ATOM     84  S   UNL A   1      50.198  28.188  30.704  1.00  0.00     0.127 S 
ATOM     85  O   UNL A   1      49.548  26.923  31.044  1.00  0.00    -0.237 OA
ATOM     86  O   UNL A   1      51.469  28.049  29.992  1.00  0.00    -0.237 OA
ATOM     87  O   UNL A   1      50.201  29.193  31.758  1.00  0.00    -0.744 OA
ENDBRANCH  81  84
ENDBRANCH  63  77
BRANCH  64  88
ATOM     88  C   UNL A   1      37.415  31.923  30.379  1.00  0.00     0.023 A 
ATOM     89  C   UNL A   1      36.934  31.793  31.697  1.00  0.00     0.012 A 
ATOM     90  C   UNL A   1      36.545  32.387  29.373  1.00  0.00     0.148 A 
ATOM     91  C   UNL A   1      35.604  32.083  32.002  1.00  0.00     0.002 A 
ATOM     92  C   UNL A   1      35.235  32.725  29.695  1.00  0.00     0.091 A 
ATOM     93  F   UNL A   1      37.018  32.495  28.124  1.00  0.00    -0.205 F 
ATOM     94  C   UNL A   1      34.758  32.557  31.004  1.00  0.00     0.022 A 
BRANCH  92  95
ATOM     95  S   UNL A   1      34.112  33.464  28.503  1.00  0.00     0.127 S 
ATOM     96  O   UNL A   1      33.485  32.285  27.912  1.00  0.00    -0.237 OA
ATOM     97  O   UNL A   1      33.238  34.262  29.363  1.00  0.00    -0.237 OA
ATOM     98  O   UNL A   1      34.953  34.251  27.611  1.00  0.00    -0.744 OA
ENDBRANCH  92  95
ENDBRANCH  64  88
BRANCH  76  99
ATOM     99  C   UNL A   1      43.341  35.616  30.551  1.00  0.00     0.023 A 
ATOM    100  C   UNL A   1      43.717  35.983  31.858  1.00  0.00     0.012 A 
ATOM    101  C   UNL A   1      43.324  36.593  29.535  1.00  0.00     0.148 A 
ATOM    102  C   UNL A   1      44.041  37.305  32.156  1.00  0.00     0.002 A 
ATOM    103  C   UNL A   1      43.695  37.899  29.830  1.00  0.00     0.091 A 
ATOM    104  F   UNL A   1      42.943  36.229  28.302  1.00  0.00    -0.205 F 
ATOM    105  C   UNL A   1      44.042  38.259  31.141  1.00  0.00     0.022 A 
BRANCH 103 106
ATOM    106  S   UNL A   1      43.819  39.165  28.561  1.00  0.00     0.127 S 
ATOM    107  O   UNL A   1      44.279  40.318  29.334  1.00  0.00    -0.237 OA
ATOM    108  O   UNL A   1      44.819  38.602  27.653  1.00  0.00    -0.237 OA
ATOM    109  O   UNL A   1      42.485  39.283  27.987  1.00  0.00    -0.744 OA
ENDBRANCH 103 106
ENDBRANCH  76  99
ENDBRANCH  50  51
ENDBRANCH  42  45
ENDBRANCH  40  41
ENDBRANCH  39  40
ENDBRANCH   1  39
TORSDOF 20
ENDMDL
MODEL 3
REMARK VINA RESULT:     -11.5      5.537     10.524
REMARK SMILES NC(=O)C[C@H](NC(=O)C1(c2ccccc2)CCN(C(=O)[C@@H]2CCC[NH2+]2)CC1)C(=O)NCCCCNC(=O)c1ccc(-c2c3nc(c(-c4cccc(S(=O)(=O)[O-])c4F)c4ccc([nH]4)c(-c4cccc(S(=O)(=O)[O-])c4F)c4nc(c(-c5cccc(S(=O)(=O)[O-])c5F)c5ccc2[nH]5)C=C4)C=C3)cc1
REMARK SMILES IDX 32 1 31 2 30 3 28 4 29 5 5 7 4 8 2 9 1 10 3 13 6 14 7 15
REMARK SMILES IDX 8 17 9 18 16 19 27 20 17 21 26 22 18 23 19 24 20 25 10 26
REMARK SMILES IDX 11 27 15 28 12 29 14 30 13 31 21 32 22 33 25 34 23 35 24 36
REMARK SMILES IDX 33 39 34 40 35 41 36 42 37 44 38 45 39 46 100 47 40 48 99 49
REMARK SMILES IDX 41 50 42 51 43 52 93 53 44 54 98 55 92 56 94 57 45 58 97 59
REMARK SMILES IDX 91 60 90 61 46 63 78 64 58 65 77 66 59 67 62 68 76 69 95 70
REMARK SMILES IDX 60 71 61 72 75 74 96 75 63 76 47 77 48 78 56 79 49 80 51 81
REMARK SMILES IDX 57 82 50 83 52 84 53 85 54 86 55 87 79 88 80 89 88 90 81 91
REMARK SMILES IDX 83 92 89 93 82 94 84 95 85 96 86 97 87 98 64 99 65 100
REMARK SMILES IDX 73 101 66 102 68 103 74 104 67 105 69 106 70 107 71 108
REMARK SMILES IDX 72 109
REMARK H PARENT 30 6 1 11 1 12 6 16 25 37 25 38 35 43 94 62 62 73
REMARK Flexibility Score: inf
ROOT
ATOM      1  C   UNL A   1      39.999  22.842  27.265  1.00  0.00     0.023 C 
ENDROOT
BRANCH   1   2
ATOM      2  C   UNL A   1      38.824  23.729  26.881  1.00  0.00     0.116 C 
BRANCH   2   3
ATOM      3  N   UNL A   1      38.427  23.604  25.496  1.00  0.00    -0.354 N 
ATOM      4  C   UNL A   1      37.330  23.012  24.949  1.00  0.00     0.243 C 
ATOM      5  O   UNL A   1      36.976  23.396  23.828  1.00  0.00    -0.273 OA
ATOM      6  H   UNL A   1      39.047  24.009  24.848  1.00  0.00     0.163 HD
BRANCH   4   7
ATOM      7  C   UNL A   1      36.465  21.981  25.703  1.00  0.00     0.180 C 
BRANCH   7   8
ATOM      8  C   UNL A   1      35.954  20.849  24.812  1.00  0.00     0.134 C 
BRANCH   8   9
ATOM      9  C   UNL A   1      36.766  19.583  24.855  1.00  0.00     0.220 C 
ATOM     10  N   UNL A   1      36.056  18.421  24.901  1.00  0.00    -0.370 N 
ATOM     11  H   UNL A   1      36.528  17.557  24.931  1.00  0.00     0.159 HD
ATOM     12  H   UNL A   1      35.072  18.444  24.906  1.00  0.00     0.159 HD
ATOM     13  O   UNL A   1      37.990  19.567  24.828  1.00  0.00    -0.275 OA
ENDBRANCH   8   9
ENDBRANCH   7   8
BRANCH   7  14
ATOM     14  N   UNL A   1      35.452  22.553  26.595  1.00  0.00    -0.343 N 
ATOM     15  C   UNL A   1      34.113  22.736  26.495  1.00  0.00     0.231 C 
ATOM     16  H   UNL A   1      35.824  22.873  27.448  1.00  0.00     0.164 HD
ATOM     17  O   UNL A   1      33.570  22.994  27.579  1.00  0.00    -0.274 OA
BRANCH  15  18
ATOM     18  C   UNL A   1      33.275  22.690  25.174  1.00  0.00     0.077 C 
ATOM     19  C   UNL A   1      33.944  23.439  23.986  1.00  0.00     0.043 C 
ATOM     20  C   UNL A   1      31.951  23.500  25.468  1.00  0.00     0.043 C 
ATOM     21  C   UNL A   1      34.162  24.925  24.268  1.00  0.00     0.121 C 
ATOM     22  C   UNL A   1      32.188  24.995  25.691  1.00  0.00     0.121 C 
ATOM     23  N   UNL A   1      32.892  25.577  24.560  1.00  0.00    -0.337 N 
ATOM     24  C   UNL A   1      32.493  26.650  23.773  1.00  0.00     0.280 C 
ATOM     25  O   UNL A   1      33.228  27.072  22.870  1.00  0.00    -0.268 OA
BRANCH  18  26
ATOM     26  C   UNL A   1      32.922  21.216  24.835  1.00  0.00    -0.032 A 
ATOM     27  C   UNL A   1      32.968  20.199  25.811  1.00  0.00     0.005 A 
ATOM     28  C   UNL A   1      32.583  20.811  23.532  1.00  0.00     0.005 A 
ATOM     29  C   UNL A   1      32.705  18.860  25.499  1.00  0.00     0.000 A 
ATOM     30  C   UNL A   1      32.366  19.466  23.208  1.00  0.00     0.000 A 
ATOM     31  C   UNL A   1      32.424  18.490  24.192  1.00  0.00     0.000 A 
ENDBRANCH  18  26
BRANCH  24  32
ATOM     32  C   UNL A   1      31.143  27.359  23.998  1.00  0.00     0.272 C 
ATOM     33  C   UNL A   1      30.208  27.414  22.803  1.00  0.00     0.081 C 
ATOM     34  N   UNL A   1      31.273  28.738  24.525  1.00  0.00    -0.336 N 
ATOM     35  C   UNL A   1      29.348  28.624  23.109  1.00  0.00     0.068 C 
ATOM     36  C   UNL A   1      30.284  29.572  23.840  1.00  0.00     0.261 C 
ATOM     37  H   UNL A   1      32.211  29.092  24.345  1.00  0.00     0.346 HD
ATOM     38  H   UNL A   1      31.113  28.751  25.533  1.00  0.00     0.346 HD
ENDBRANCH  24  32
ENDBRANCH  15  18
ENDBRANCH   7  14
ENDBRANCH   4   7
ENDBRANCH   2   3
ENDBRANCH   1   2
BRANCH   1  39
ATOM     39  C   UNL A   1      40.062  21.498  26.544  1.00  0.00     0.023 C 
BRANCH  39  40
ATOM     40  C   UNL A   1      40.999  20.464  27.157  1.00  0.00     0.116 C 
BRANCH  40  41
ATOM     41  N   UNL A   1      41.918  19.866  26.199  1.00  0.00    -0.352 N 
ATOM     42  C   UNL A   1      43.016  20.428  25.593  1.00  0.00     0.251 C 
ATOM     43  H   UNL A   1      41.727  18.933  25.952  1.00  0.00     0.163 HD
ATOM     44  O   UNL A   1      43.636  19.802  24.739  1.00  0.00    -0.269 OA
BRANCH  42  45
ATOM     45  C   UNL A   1      43.415  21.804  25.952  1.00  0.00     0.039 A 
ATOM     46  C   UNL A   1      43.194  22.832  25.032  1.00  0.00     0.014 A 
ATOM     47  C   UNL A   1      43.965  22.082  27.204  1.00  0.00     0.014 A 
ATOM     48  C   UNL A   1      43.470  24.151  25.396  1.00  0.00     0.010 A 
ATOM     49  C   UNL A   1      44.155  23.402  27.596  1.00  0.00     0.010 A 
ATOM     50  C   UNL A   1      43.926  24.450  26.691  1.00  0.00    -0.014 A 
BRANCH  50  51
ATOM     51  C   UNL A   1      44.198  25.847  27.112  1.00  0.00     0.031 A 
ATOM     52  C   UNL A   1      45.590  26.405  26.993  1.00  0.00     0.074 A 
ATOM     53  C   UNL A   1      43.217  26.583  27.672  1.00  0.00     0.049 A 
ATOM     54  N   UNL A   1      46.040  27.581  27.349  1.00  0.00    -0.248 NA
ATOM     55  C   UNL A   1      46.621  25.516  26.434  1.00  0.00     0.031 C 
ATOM     56  C   UNL A   1      41.850  26.123  27.925  1.00  0.00     0.029 A 
ATOM     57  N   UNL A   1      43.227  27.868  28.151  1.00  0.00    -0.354 N 
ATOM     58  C   UNL A   1      47.407  27.555  27.097  1.00  0.00     0.074 A 
ATOM     59  C   UNL A   1      47.722  26.234  26.601  1.00  0.00     0.031 C 
ATOM     60  C   UNL A   1      41.152  27.114  28.504  1.00  0.00     0.029 A 
ATOM     61  C   UNL A   1      42.023  28.272  28.680  1.00  0.00     0.049 A 
ATOM     62  H   UNL A   1      44.022  28.448  28.121  1.00  0.00     0.167 HD
ATOM     63  C   UNL A   1      48.314  28.551  27.229  1.00  0.00     0.034 A 
ATOM     64  C   UNL A   1      41.663  29.445  29.238  1.00  0.00     0.034 A 
ATOM     65  C   UNL A   1      47.985  29.881  27.660  1.00  0.00     0.049 A 
ATOM     66  C   UNL A   1      42.670  30.562  29.297  1.00  0.00     0.074 A 
ATOM     67  C   UNL A   1      48.810  30.988  27.744  1.00  0.00     0.029 A 
ATOM     68  N   UNL A   1      46.727  30.286  28.076  1.00  0.00    -0.354 N 
ATOM     69  N   UNL A   1      43.921  30.568  28.902  1.00  0.00    -0.248 NA
ATOM     70  C   UNL A   1      42.205  31.849  29.833  1.00  0.00     0.031 C 
ATOM     71  C   UNL A   1      48.049  32.063  28.219  1.00  0.00     0.029 A 
ATOM     72  C   UNL A   1      46.748  31.628  28.411  1.00  0.00     0.049 A 
ATOM     73  H   UNL A   1      45.933  29.704  28.125  1.00  0.00     0.167 HD
ATOM     74  C   UNL A   1      44.379  31.865  29.100  1.00  0.00     0.074 A 
ATOM     75  C   UNL A   1      43.265  32.623  29.634  1.00  0.00     0.031 C 
ATOM     76  C   UNL A   1      45.612  32.382  28.875  1.00  0.00     0.034 A 
BRANCH  63  77
ATOM     77  C   UNL A   1      49.738  28.255  26.830  1.00  0.00     0.023 A 
ATOM     78  C   UNL A   1      50.098  28.299  25.467  1.00  0.00     0.012 A 
ATOM     79  C   UNL A   1      50.722  27.977  27.796  1.00  0.00     0.148 A 
ATOM     80  C   UNL A   1      51.406  28.032  25.069  1.00  0.00     0.002 A 
ATOM     81  C   UNL A   1      52.036  27.759  27.395  1.00  0.00     0.091 A 
ATOM     82  F   UNL A   1      50.358  27.918  29.085  1.00  0.00    -0.205 F 
ATOM     83  C   UNL A   1      52.377  27.772  26.033  1.00  0.00     0.022 A 
BRANCH  81  84
ATOM     84  S   UNL A   1      53.375  27.498  28.564  1.00  0.00     0.127 S 
ATOM     85  O   UNL A   1      53.348  28.746  29.327  1.00  0.00    -0.237 OA
ATOM     86  O   UNL A   1      52.915  26.322  29.302  1.00  0.00    -0.237 OA
ATOM     87  O   UNL A   1      54.571  27.280  27.762  1.00  0.00    -0.744 OA
ENDBRANCH  81  84
ENDBRANCH  63  77
BRANCH  64  88
ATOM     88  C   UNL A   1      40.259  29.655  29.692  1.00  0.00     0.023 A 
ATOM     89  C   UNL A   1      39.249  29.865  28.730  1.00  0.00     0.012 A 
ATOM     90  C   UNL A   1      39.911  29.624  31.056  1.00  0.00     0.148 A 
ATOM     91  C   UNL A   1      37.927  30.076  29.120  1.00  0.00     0.002 A 
ATOM     92  C   UNL A   1      38.581  29.783  31.434  1.00  0.00     0.091 A 
ATOM     93  F   UNL A   1      40.885  29.434  31.956  1.00  0.00    -0.205 F 
ATOM     94  C   UNL A   1      37.592  30.027  30.470  1.00  0.00     0.022 A 
BRANCH  92  95
ATOM     95  S   UNL A   1      38.039  29.606  33.138  1.00  0.00     0.127 S 
ATOM     96  O   UNL A   1      37.216  30.799  33.316  1.00  0.00    -0.237 OA
ATOM     97  O   UNL A   1      37.296  28.346  33.091  1.00  0.00    -0.237 OA
ATOM     98  O   UNL A   1      39.259  29.551  33.932  1.00  0.00    -0.744 OA
ENDBRANCH  92  95
ENDBRANCH  64  88
BRANCH  76  99
ATOM     99  C   UNL A   1      45.819  33.846  29.152  1.00  0.00     0.023 A 
ATOM    100  C   UNL A   1      46.374  34.258  30.379  1.00  0.00     0.012 A 
ATOM    101  C   UNL A   1      45.536  34.809  28.162  1.00  0.00     0.148 A 
ATOM    102  C   UNL A   1      46.614  35.608  30.630  1.00  0.00     0.002 A 
ATOM    103  C   UNL A   1      45.823  36.147  28.401  1.00  0.00     0.091 A 
ATOM    104  F   UNL A   1      44.988  34.400  27.008  1.00  0.00    -0.205 F 
ATOM    105  C   UNL A   1      46.351  36.550  29.638  1.00  0.00     0.022 A 
BRANCH 103 106
ATOM    106  S   UNL A   1      45.606  37.409  27.141  1.00  0.00     0.127 S 
ATOM    107  O   UNL A   1      46.064  38.610  27.839  1.00  0.00    -0.237 OA
ATOM    108  O   UNL A   1      46.499  36.946  26.077  1.00  0.00    -0.237 OA
ATOM    109  O   UNL A   1      44.192  37.384  26.792  1.00  0.00    -0.744 OA
ENDBRANCH 103 106
ENDBRANCH  76  99
ENDBRANCH  50  51
ENDBRANCH  42  45
ENDBRANCH  40  41
ENDBRANCH  39  40
ENDBRANCH   1  39
TORSDOF 20
ENDMDL
