MODEL 1
REMARK VINA RESULT:     -11.7      0.000      0.000
REMARK SMILES COc1cc(OC)cc(-c2ccc([C@@H](C)C(=O)NCCCCNC(=O)c3ccc(-c4c5nc(c(-c6cccc(S(=O)(=O)[O-])c6F)c6ccc([nH]6)c(-c6cccc(S(=O)(=O)[O-])c6F)c6nc(c(-c7cccc(S(=O)(=O)[O-])c7F)c7ccc4[nH]7)C=C6)C=C5)cc3)cc2F)c1
REMARK SMILES IDX 20 1 19 2 18 3 16 4 17 5 14 7 15 8 13 9 10 10 11 11 90 12
REMARK SMILES IDX 12 13 89 14 91 15 9 16 3 17 4 18 92 19 5 20 8 21 2 22 1 23
REMARK SMILES IDX 6 24 7 25 21 26 22 27 23 28 24 29 25 31 26 32 27 33 88 34
REMARK SMILES IDX 28 35 87 36 29 37 30 38 31 39 81 40 32 41 86 42 80 43 82 44
REMARK SMILES IDX 33 45 85 46 79 47 78 48 34 50 66 51 46 52 65 53 47 54 50 55
REMARK SMILES IDX 64 56 83 57 48 58 49 59 63 61 84 62 51 63 35 64 36 65 44 66
REMARK SMILES IDX 37 67 39 68 45 69 38 70 40 71 41 72 42 73 43 74 67 75 68 76
REMARK SMILES IDX 76 77 69 78 71 79 77 80 70 81 72 82 73 83 74 84 75 85 52 86
REMARK SMILES IDX 53 87 61 88 54 89 56 90 62 91 55 92 57 93 58 94 59 95 60 96
REMARK H PARENT 18 6 23 30 82 49 50 60
REMARK Flexibility Score: inf
ROOT
ATOM      1  C   UNL A   1      34.456  22.898  27.321  1.00  0.00     0.023 C 
ENDROOT
BRANCH   1   2
ATOM      2  C   UNL A   1      33.742  21.551  27.189  1.00  0.00     0.116 C 
BRANCH   2   3
ATOM      3  N   UNL A   1      34.400  20.671  26.247  1.00  0.00    -0.356 N 
ATOM      4  C   UNL A   1      33.975  20.102  25.086  1.00  0.00     0.227 C 
ATOM      5  O   UNL A   1      34.765  19.334  24.522  1.00  0.00    -0.274 OA
ATOM      6  H   UNL A   1      35.326  20.440  26.492  1.00  0.00     0.163 HD
BRANCH   4   7
ATOM      7  C   UNL A   1      32.601  20.370  24.453  1.00  0.00     0.105 C 
ATOM      8  C   UNL A   1      32.248  19.421  23.307  1.00  0.00     0.023 C 
BRANCH   7   9
ATOM      9  C   UNL A   1      32.328  21.846  24.206  1.00  0.00    -0.033 A 
ATOM     10  C   UNL A   1      31.922  24.667  23.931  1.00  0.00     0.018 A 
ATOM     11  C   UNL A   1      32.805  23.958  23.098  1.00  0.00     0.012 A 
ATOM     12  C   UNL A   1      31.229  23.915  24.889  1.00  0.00     0.131 A 
ATOM     13  C   UNL A   1      32.968  22.572  23.200  1.00  0.00     0.005 A 
ATOM     14  C   UNL A   1      31.440  22.540  25.042  1.00  0.00     0.044 A 
ATOM     15  F   UNL A   1      30.324  24.498  25.689  1.00  0.00    -0.206 F 
BRANCH  10  16
ATOM     16  C   UNL A   1      31.738  26.127  23.752  1.00  0.00    -0.008 A 
ATOM     17  C   UNL A   1      30.698  28.053  22.665  1.00  0.00     0.123 A 
ATOM     18  C   UNL A   1      31.444  28.911  23.475  1.00  0.00     0.092 A 
ATOM     19  C   UNL A   1      30.843  26.669  22.809  1.00  0.00     0.055 A 
ATOM     20  C   UNL A   1      32.327  28.410  24.426  1.00  0.00     0.123 A 
ATOM     21  C   UNL A   1      32.471  27.029  24.551  1.00  0.00     0.055 A 
BRANCH  17  22
ATOM     22  O   UNL A   1      29.894  28.688  21.757  1.00  0.00    -0.497 OA
ATOM     23  C   UNL A   1      28.965  29.633  22.272  1.00  0.00     0.278 C 
ENDBRANCH  17  22
BRANCH  20  24
ATOM     24  O   UNL A   1      32.992  29.349  25.166  1.00  0.00    -0.497 OA
ATOM     25  C   UNL A   1      33.979  28.868  26.071  1.00  0.00     0.278 C 
ENDBRANCH  20  24
ENDBRANCH  10  16
ENDBRANCH   7   9
ENDBRANCH   4   7
ENDBRANCH   2   3
ENDBRANCH   1   2
BRANCH   1  26
ATOM     26  C   UNL A   1      35.014  23.469  26.019  1.00  0.00     0.023 C 
BRANCH  26  27
ATOM     27  C   UNL A   1      36.474  23.904  26.071  1.00  0.00     0.116 C 
BRANCH  27  28
ATOM     28  N   UNL A   1      37.424  22.803  26.051  1.00  0.00    -0.352 N 
ATOM     29  C   UNL A   1      38.761  22.818  26.388  1.00  0.00     0.251 C 
ATOM     30  H   UNL A   1      37.066  21.932  25.758  1.00  0.00     0.163 HD
ATOM     31  O   UNL A   1      39.443  21.816  26.238  1.00  0.00    -0.269 OA
BRANCH  29  32
ATOM     32  C   UNL A   1      39.366  24.074  26.891  1.00  0.00     0.039 A 
ATOM     33  C   UNL A   1      39.959  24.947  25.977  1.00  0.00     0.014 A 
ATOM     34  C   UNL A   1      39.313  24.405  28.247  1.00  0.00     0.014 A 
ATOM     35  C   UNL A   1      40.441  26.182  26.418  1.00  0.00     0.010 A 
ATOM     36  C   UNL A   1      39.710  25.670  28.667  1.00  0.00     0.010 A 
ATOM     37  C   UNL A   1      40.289  26.567  27.761  1.00  0.00    -0.014 A 
BRANCH  37  38
ATOM     38  C   UNL A   1      40.728  27.908  28.225  1.00  0.00     0.031 A 
ATOM     39  C   UNL A   1      42.189  28.272  28.232  1.00  0.00     0.074 A 
ATOM     40  C   UNL A   1      39.817  28.774  28.711  1.00  0.00     0.049 A 
ATOM     41  N   UNL A   1      42.756  29.397  28.587  1.00  0.00    -0.248 NA
ATOM     42  C   UNL A   1      43.143  27.230  27.820  1.00  0.00     0.031 C 
ATOM     43  C   UNL A   1      38.386  28.498  28.865  1.00  0.00     0.029 A 
ATOM     44  N   UNL A   1      39.959  30.054  29.183  1.00  0.00    -0.354 N 
ATOM     45  C   UNL A   1      44.124  29.187  28.475  1.00  0.00     0.074 A 
ATOM     46  C   UNL A   1      44.308  27.814  28.062  1.00  0.00     0.031 C 
ATOM     47  C   UNL A   1      37.781  29.582  29.377  1.00  0.00     0.029 A 
ATOM     48  C   UNL A   1      38.778  30.623  29.603  1.00  0.00     0.049 A 
ATOM     49  H   UNL A   1      40.824  30.522  29.219  1.00  0.00     0.167 HD
ATOM     50  C   UNL A   1      45.137  30.067  28.660  1.00  0.00     0.034 A 
ATOM     51  C   UNL A   1      38.527  31.850  30.101  1.00  0.00     0.034 A 
ATOM     52  C   UNL A   1      44.946  31.446  29.017  1.00  0.00     0.049 A 
ATOM     53  C   UNL A   1      39.657  32.837  30.208  1.00  0.00     0.074 A 
ATOM     54  C   UNL A   1      45.896  32.447  29.127  1.00  0.00     0.029 A 
ATOM     55  N   UNL A   1      43.723  32.020  29.323  1.00  0.00    -0.354 N 
ATOM     56  N   UNL A   1      40.925  32.675  29.915  1.00  0.00    -0.248 NA
ATOM     57  C   UNL A   1      39.314  34.191  30.666  1.00  0.00     0.031 C 
ATOM     58  C   UNL A   1      45.246  33.623  29.518  1.00  0.00     0.029 A 
ATOM     59  C   UNL A   1      43.890  33.360  29.626  1.00  0.00     0.049 A 
ATOM     60  H   UNL A   1      42.861  31.544  29.326  1.00  0.00     0.167 HD
ATOM     61  C   UNL A   1      41.523  33.913  30.118  1.00  0.00     0.074 A 
ATOM     62  C   UNL A   1      40.474  34.821  30.535  1.00  0.00     0.031 C 
ATOM     63  C   UNL A   1      42.828  34.263  29.988  1.00  0.00     0.034 A 
BRANCH  50  64
ATOM     64  C   UNL A   1      46.541  29.578  28.412  1.00  0.00     0.023 A 
ATOM     65  C   UNL A   1      47.110  29.720  27.129  1.00  0.00     0.012 A 
ATOM     66  C   UNL A   1      47.315  29.025  29.451  1.00  0.00     0.148 A 
ATOM     67  C   UNL A   1      48.410  29.288  26.874  1.00  0.00     0.002 A 
ATOM     68  C   UNL A   1      48.627  28.638  29.201  1.00  0.00     0.091 A 
ATOM     69  F   UNL A   1      46.751  28.876  30.658  1.00  0.00    -0.205 F 
ATOM     70  C   UNL A   1      49.171  28.756  27.911  1.00  0.00     0.022 A 
BRANCH  68  71
ATOM     71  S   UNL A   1      49.715  28.017  30.487  1.00  0.00     0.127 S 
ATOM     72  O   UNL A   1      49.017  26.802  30.903  1.00  0.00    -0.237 OA
ATOM     73  O   UNL A   1      50.959  27.785  29.753  1.00  0.00    -0.237 OA
ATOM     74  O   UNL A   1      49.792  29.070  31.491  1.00  0.00    -0.744 OA
ENDBRANCH  68  71
ENDBRANCH  50  64
BRANCH  51  75
ATOM     75  C   UNL A   1      37.130  32.240  30.442  1.00  0.00     0.023 A 
ATOM     76  C   UNL A   1      36.653  32.031  31.752  1.00  0.00     0.012 A 
ATOM     77  C   UNL A   1      36.285  32.847  29.494  1.00  0.00     0.148 A 
ATOM     78  C   UNL A   1      35.351  32.388  32.102  1.00  0.00     0.002 A 
ATOM     79  C   UNL A   1      35.007  33.252  29.864  1.00  0.00     0.091 A 
ATOM     80  F   UNL A   1      36.751  33.029  28.250  1.00  0.00    -0.205 F 
ATOM     81  C   UNL A   1      34.532  33.008  31.163  1.00  0.00     0.022 A 
BRANCH  79  82
ATOM     82  S   UNL A   1      33.934  34.178  28.761  1.00  0.00     0.127 S 
ATOM     83  O   UNL A   1      33.525  33.150  27.809  1.00  0.00    -0.237 OA
ATOM     84  O   UNL A   1      32.880  34.631  29.671  1.00  0.00    -0.237 OA
ATOM     85  O   UNL A   1      34.760  35.250  28.223  1.00  0.00    -0.744 OA
ENDBRANCH  79  82
ENDBRANCH  51  75
BRANCH  63  86
ATOM     86  C   UNL A   1      43.194  35.698  30.264  1.00  0.00     0.023 A 
ATOM     87  C   UNL A   1      43.697  36.061  31.530  1.00  0.00     0.012 A 
ATOM     88  C   UNL A   1      43.098  36.673  29.252  1.00  0.00     0.148 A 
ATOM     89  C   UNL A   1      44.059  37.382  31.795  1.00  0.00     0.002 A 
ATOM     90  C   UNL A   1      43.508  37.975  29.508  1.00  0.00     0.091 A 
ATOM     91  F   UNL A   1      42.597  36.312  28.061  1.00  0.00    -0.205 F 
ATOM     92  C   UNL A   1      43.976  38.334  30.782  1.00  0.00     0.022 A 
BRANCH  90  93
ATOM     93  S   UNL A   1      43.526  39.238  28.231  1.00  0.00     0.127 S 
ATOM     94  O   UNL A   1      42.142  39.205  27.760  1.00  0.00    -0.237 OA
ATOM     95  O   UNL A   1      43.885  40.441  28.984  1.00  0.00    -0.237 OA
ATOM     96  O   UNL A   1      44.531  38.812  27.268  1.00  0.00    -0.744 OA
ENDBRANCH  90  93
ENDBRANCH  63  86
ENDBRANCH  37  38
ENDBRANCH  29  32
ENDBRANCH  27  28
ENDBRANCH  26  27
ENDBRANCH   1  26
TORSDOF 18
ENDMDL
MODEL 2
REMARK VINA RESULT:     -11.3      1.888      2.441
REMARK SMILES COc1cc(OC)cc(-c2ccc([C@@H](C)C(=O)NCCCCNC(=O)c3ccc(-c4c5nc(c(-c6cccc(S(=O)(=O)[O-])c6F)c6ccc([nH]6)c(-c6cccc(S(=O)(=O)[O-])c6F)c6nc(c(-c7cccc(S(=O)(=O)[O-])c7F)c7ccc4[nH]7)C=C6)C=C5)cc3)cc2F)c1
REMARK SMILES IDX 20 1 19 2 18 3 16 4 17 5 14 7 15 8 13 9 10 10 11 11 90 12
REMARK SMILES IDX 12 13 89 14 91 15 9 16 3 17 4 18 92 19 5 20 8 21 2 22 1 23
REMARK SMILES IDX 6 24 7 25 21 26 22 27 23 28 24 29 25 31 26 32 27 33 88 34
REMARK SMILES IDX 28 35 87 36 29 37 30 38 31 39 81 40 32 41 86 42 80 43 82 44
REMARK SMILES IDX 33 45 85 46 79 47 78 48 34 50 66 51 46 52 65 53 47 54 50 55
REMARK SMILES IDX 64 56 83 57 48 58 49 59 63 61 84 62 51 63 35 64 36 65 44 66
REMARK SMILES IDX 37 67 39 68 45 69 38 70 40 71 41 72 42 73 43 74 67 75 68 76
REMARK SMILES IDX 76 77 69 78 71 79 77 80 70 81 72 82 73 83 74 84 75 85 52 86
REMARK SMILES IDX 53 87 61 88 54 89 56 90 62 91 55 92 57 93 58 94 59 95 60 96
REMARK H PARENT 18 6 23 30 82 49 50 60
REMARK Flexibility Score: inf
ROOT
ATOM      1  C   UNL A   1      34.669  22.792  27.150  1.00  0.00     0.023 C 
ENDROOT
BRANCH   1   2
ATOM      2  C   UNL A   1      33.900  21.473  27.066  1.00  0.00     0.116 C 
BRANCH   2   3
ATOM      3  N   UNL A   1      34.507  20.541  26.138  1.00  0.00    -0.356 N 
ATOM      4  C   UNL A   1      34.023  19.919  25.029  1.00  0.00     0.227 C 
ATOM      5  O   UNL A   1      34.780  19.117  24.466  1.00  0.00    -0.274 OA
ATOM      6  H   UNL A   1      35.442  20.317  26.349  1.00  0.00     0.163 HD
BRANCH   4   7
ATOM      7  C   UNL A   1      32.620  20.165  24.452  1.00  0.00     0.105 C 
ATOM      8  C   UNL A   1      32.281  19.286  23.247  1.00  0.00     0.023 C 
BRANCH   7   9
ATOM      9  C   UNL A   1      32.271  21.639  24.322  1.00  0.00    -0.033 A 
ATOM     10  C   UNL A   1      31.723  24.449  24.269  1.00  0.00     0.018 A 
ATOM     11  C   UNL A   1      32.625  23.850  23.372  1.00  0.00     0.012 A 
ATOM     12  C   UNL A   1      31.086  23.593  25.177  1.00  0.00     0.131 A 
ATOM     13  C   UNL A   1      32.856  22.471  23.366  1.00  0.00     0.005 A 
ATOM     14  C   UNL A   1      31.366  22.223  25.221  1.00  0.00     0.044 A 
ATOM     15  F   UNL A   1      30.168  24.068  26.033  1.00  0.00    -0.206 F 
BRANCH  10  16
ATOM     16  C   UNL A   1      31.465  25.907  24.206  1.00  0.00    -0.008 A 
ATOM     17  C   UNL A   1      31.590  28.163  25.139  1.00  0.00     0.123 A 
ATOM     18  C   UNL A   1      30.938  28.664  24.011  1.00  0.00     0.092 A 
ATOM     19  C   UNL A   1      31.855  26.792  25.230  1.00  0.00     0.055 A 
ATOM     20  C   UNL A   1      30.550  27.820  22.974  1.00  0.00     0.123 A 
ATOM     21  C   UNL A   1      30.808  26.455  23.084  1.00  0.00     0.055 A 
BRANCH  17  22
ATOM     22  O   UNL A   1      31.885  29.105  26.087  1.00  0.00    -0.497 OA
ATOM     23  C   UNL A   1      31.573  30.455  25.771  1.00  0.00     0.278 C 
ENDBRANCH  17  22
BRANCH  20  24
ATOM     24  O   UNL A   1      29.929  28.430  21.919  1.00  0.00    -0.497 OA
ATOM     25  C   UNL A   1      29.883  29.853  21.939  1.00  0.00     0.278 C 
ENDBRANCH  20  24
ENDBRANCH  10  16
ENDBRANCH   7   9
ENDBRANCH   4   7
ENDBRANCH   2   3
ENDBRANCH   1   2
BRANCH   1  26
ATOM     26  C   UNL A   1      35.418  23.192  25.880  1.00  0.00     0.023 C 
BRANCH  26  27
ATOM     27  C   UNL A   1      36.861  23.636  26.086  1.00  0.00     0.116 C 
BRANCH  27  28
ATOM     28  N   UNL A   1      37.829  22.551  26.038  1.00  0.00    -0.352 N 
ATOM     29  C   UNL A   1      39.169  22.584  26.363  1.00  0.00     0.251 C 
ATOM     30  H   UNL A   1      37.483  21.680  25.734  1.00  0.00     0.163 HD
ATOM     31  O   UNL A   1      39.866  21.596  26.189  1.00  0.00    -0.269 OA
BRANCH  29  32
ATOM     32  C   UNL A   1      39.758  23.841  26.881  1.00  0.00     0.039 A 
ATOM     33  C   UNL A   1      39.908  24.921  26.009  1.00  0.00     0.014 A 
ATOM     34  C   UNL A   1      40.120  23.965  28.224  1.00  0.00     0.014 A 
ATOM     35  C   UNL A   1      40.364  26.146  26.504  1.00  0.00     0.010 A 
ATOM     36  C   UNL A   1      40.486  25.208  28.730  1.00  0.00     0.010 A 
ATOM     37  C   UNL A   1      40.624  26.309  27.875  1.00  0.00    -0.014 A 
BRANCH  37  38
ATOM     38  C   UNL A   1      41.034  27.626  28.424  1.00  0.00     0.031 A 
ATOM     39  C   UNL A   1      42.493  27.974  28.562  1.00  0.00     0.074 A 
ATOM     40  C   UNL A   1      40.093  28.483  28.869  1.00  0.00     0.049 A 
ATOM     41  N   UNL A   1      43.037  29.079  29.004  1.00  0.00    -0.248 NA
ATOM     42  C   UNL A   1      43.469  26.938  28.187  1.00  0.00     0.031 C 
ATOM     43  C   UNL A   1      38.653  28.217  28.897  1.00  0.00     0.029 A 
ATOM     44  N   UNL A   1      40.207  29.743  29.399  1.00  0.00    -0.354 N 
ATOM     45  C   UNL A   1      44.409  28.859  28.993  1.00  0.00     0.074 A 
ATOM     46  C   UNL A   1      44.615  27.500  28.543  1.00  0.00     0.031 C 
ATOM     47  C   UNL A   1      38.017  29.287  29.400  1.00  0.00     0.029 A 
ATOM     48  C   UNL A   1      39.001  30.308  29.745  1.00  0.00     0.049 A 
ATOM     49  H   UNL A   1      41.070  30.200  29.522  1.00  0.00     0.167 HD
ATOM     50  C   UNL A   1      45.411  29.719  29.292  1.00  0.00     0.034 A 
ATOM     51  C   UNL A   1      38.720  31.518  30.268  1.00  0.00     0.034 A 
ATOM     52  C   UNL A   1      45.202  31.086  29.685  1.00  0.00     0.049 A 
ATOM     53  C   UNL A   1      39.845  32.488  30.503  1.00  0.00     0.074 A 
ATOM     54  C   UNL A   1      46.147  32.072  29.909  1.00  0.00     0.029 A 
ATOM     55  N   UNL A   1      43.963  31.661  29.915  1.00  0.00    -0.354 N 
ATOM     56  N   UNL A   1      41.132  32.324  30.306  1.00  0.00    -0.248 NA
ATOM     57  C   UNL A   1      39.477  33.828  30.984  1.00  0.00     0.031 C 
ATOM     58  C   UNL A   1      45.478  33.239  30.292  1.00  0.00     0.029 A 
ATOM     59  C   UNL A   1      44.115  32.987  30.281  1.00  0.00     0.049 A 
ATOM     60  H   UNL A   1      43.099  31.195  29.830  1.00  0.00     0.167 HD
ATOM     61  C   UNL A   1      41.721  33.546  30.604  1.00  0.00     0.074 A 
ATOM     62  C   UNL A   1      40.649  34.449  30.970  1.00  0.00     0.031 C 
ATOM     63  C   UNL A   1      43.035  33.887  30.592  1.00  0.00     0.034 A 
BRANCH  50  64
ATOM     64  C   UNL A   1      46.826  29.225  29.138  1.00  0.00     0.023 A 
ATOM     65  C   UNL A   1      47.490  28.663  30.249  1.00  0.00     0.012 A 
ATOM     66  C   UNL A   1      47.483  29.269  27.893  1.00  0.00     0.148 A 
ATOM     67  C   UNL A   1      48.795  28.187  30.133  1.00  0.00     0.002 A 
ATOM     68  C   UNL A   1      48.767  28.750  27.774  1.00  0.00     0.091 A 
ATOM     69  F   UNL A   1      46.846  29.827  26.854  1.00  0.00    -0.205 F 
ATOM     70  C   UNL A   1      49.429  28.222  28.895  1.00  0.00     0.022 A 
BRANCH  68  71
ATOM     71  S   UNL A   1      49.640  28.674  26.207  1.00  0.00     0.127 S 
ATOM     72  O   UNL A   1      48.564  28.306  25.288  1.00  0.00    -0.237 OA
ATOM     73  O   UNL A   1      50.126  30.046  26.057  1.00  0.00    -0.237 OA
ATOM     74  O   UNL A   1      50.686  27.676  26.377  1.00  0.00    -0.744 OA
ENDBRANCH  68  71
ENDBRANCH  50  64
BRANCH  51  75
ATOM     75  C   UNL A   1      37.303  31.910  30.511  1.00  0.00     0.023 A 
ATOM     76  C   UNL A   1      36.766  31.794  31.809  1.00  0.00     0.012 A 
ATOM     77  C   UNL A   1      36.497  32.428  29.480  1.00  0.00     0.148 A 
ATOM     78  C   UNL A   1      35.444  32.155  32.069  1.00  0.00     0.002 A 
ATOM     79  C   UNL A   1      35.197  32.838  29.757  1.00  0.00     0.091 A 
ATOM     80  F   UNL A   1      37.021  32.521  28.250  1.00  0.00    -0.205 F 
ATOM     81  C   UNL A   1      34.664  32.687  31.047  1.00  0.00     0.022 A 
BRANCH  79  82
ATOM     82  S   UNL A   1      34.167  33.658  28.535  1.00  0.00     0.127 S 
ATOM     83  O   UNL A   1      35.101  34.617  27.951  1.00  0.00    -0.237 OA
ATOM     84  O   UNL A   1      33.794  32.547  27.658  1.00  0.00    -0.237 OA
ATOM     85  O   UNL A   1      33.055  34.228  29.283  1.00  0.00    -0.744 OA
ENDBRANCH  79  82
ENDBRANCH  51  75
BRANCH  63  86
ATOM     86  C   UNL A   1      43.388  35.307  30.951  1.00  0.00     0.023 A 
ATOM     87  C   UNL A   1      43.652  36.243  29.932  1.00  0.00     0.012 A 
ATOM     88  C   UNL A   1      43.397  35.727  32.296  1.00  0.00     0.148 A 
ATOM     89  C   UNL A   1      43.959  37.566  30.247  1.00  0.00     0.002 A 
ATOM     90  C   UNL A   1      43.655  37.058  32.600  1.00  0.00     0.091 A 
ATOM     91  F   UNL A   1      43.165  34.817  33.254  1.00  0.00    -0.205 F 
ATOM     92  C   UNL A   1      43.949  37.975  31.579  1.00  0.00     0.022 A 
BRANCH  90  93
ATOM     93  S   UNL A   1      43.565  37.687  34.279  1.00  0.00     0.127 S 
ATOM     94  O   UNL A   1      42.184  37.371  34.643  1.00  0.00    -0.237 OA
ATOM     95  O   UNL A   1      44.576  36.885  34.971  1.00  0.00    -0.237 OA
ATOM     96  O   UNL A   1      43.884  39.105  34.188  1.00  0.00    -0.744 OA
ENDBRANCH  90  93
ENDBRANCH  63  86
ENDBRANCH  37  38
ENDBRANCH  29  32
ENDBRANCH  27  28
ENDBRANCH  26  27
ENDBRANCH   1  26
TORSDOF 18
ENDMDL
MODEL 3
REMARK VINA RESULT:     -10.9      4.073      7.244
REMARK SMILES COc1cc(OC)cc(-c2ccc([C@@H](C)C(=O)NCCCCNC(=O)c3ccc(-c4c5nc(c(-c6cccc(S(=O)(=O)[O-])c6F)c6ccc([nH]6)c(-c6cccc(S(=O)(=O)[O-])c6F)c6nc(c(-c7cccc(S(=O)(=O)[O-])c7F)c7ccc4[nH]7)C=C6)C=C5)cc3)cc2F)c1
REMARK SMILES IDX 20 1 19 2 18 3 16 4 17 5 14 7 15 8 13 9 10 10 11 11 90 12
REMARK SMILES IDX 12 13 89 14 91 15 9 16 3 17 4 18 92 19 5 20 8 21 2 22 1 23
REMARK SMILES IDX 6 24 7 25 21 26 22 27 23 28 24 29 25 31 26 32 27 33 88 34
REMARK SMILES IDX 28 35 87 36 29 37 30 38 31 39 81 40 32 41 86 42 80 43 82 44
REMARK SMILES IDX 33 45 85 46 79 47 78 48 34 50 66 51 46 52 65 53 47 54 50 55
REMARK SMILES IDX 64 56 83 57 48 58 49 59 63 61 84 62 51 63 35 64 36 65 44 66
REMARK SMILES IDX 37 67 39 68 45 69 38 70 40 71 41 72 42 73 43 74 67 75 68 76
REMARK SMILES IDX 76 77 69 78 71 79 77 80 70 81 72 82 73 83 74 84 75 85 52 86
REMARK SMILES IDX 53 87 61 88 54 89 56 90 62 91 55 92 57 93 58 94 59 95 60 96
REMARK H PARENT 18 6 23 30 82 49 50 60
REMARK Flexibility Score: inf
ROOT
ATOM      1  C   UNL A   1      43.563  22.605  28.524  1.00  0.00     0.023 C 
ENDROOT
BRANCH   1   2
ATOM      2  C   UNL A   1      43.341  23.940  29.238  1.00  0.00     0.116 C 
BRANCH   2   3
ATOM      3  N   UNL A   1      43.741  23.892  30.629  1.00  0.00    -0.356 N 
ATOM      4  C   UNL A   1      44.445  24.763  31.401  1.00  0.00     0.227 C 
ATOM      5  O   UNL A   1      44.682  24.409  32.563  1.00  0.00    -0.274 OA
ATOM      6  H   UNL A   1      43.451  23.079  31.102  1.00  0.00     0.163 HD
BRANCH   4   7
ATOM      7  C   UNL A   1      44.939  26.134  30.914  1.00  0.00     0.105 C 
ATOM      8  C   UNL A   1      46.453  26.324  31.022  1.00  0.00     0.023 C 
BRANCH   7   9
ATOM      9  C   UNL A   1      44.084  27.292  31.405  1.00  0.00    -0.033 A 
ATOM     10  C   UNL A   1      42.406  29.340  32.495  1.00  0.00     0.018 A 
ATOM     11  C   UNL A   1      43.808  29.414  32.562  1.00  0.00     0.012 A 
ATOM     12  C   UNL A   1      41.871  28.222  31.843  1.00  0.00     0.131 A 
ATOM     13  C   UNL A   1      44.629  28.438  31.987  1.00  0.00     0.005 A 
ATOM     14  C   UNL A   1      42.685  27.207  31.327  1.00  0.00     0.044 A 
ATOM     15  F   UNL A   1      40.544  28.095  31.682  1.00  0.00    -0.206 F 
BRANCH  10  16
ATOM     16  C   UNL A   1      41.573  30.424  33.068  1.00  0.00    -0.008 A 
ATOM     17  C   UNL A   1      39.557  31.232  34.190  1.00  0.00     0.123 A 
ATOM     18  C   UNL A   1      40.052  32.536  34.136  1.00  0.00     0.092 A 
ATOM     19  C   UNL A   1      40.319  30.183  33.663  1.00  0.00     0.055 A 
ATOM     20  C   UNL A   1      41.293  32.808  33.567  1.00  0.00     0.123 A 
ATOM     21  C   UNL A   1      42.035  31.756  33.034  1.00  0.00     0.055 A 
BRANCH  17  22
ATOM     22  O   UNL A   1      38.314  31.122  34.751  1.00  0.00    -0.497 OA
ATOM     23  C   UNL A   1      37.738  32.309  35.279  1.00  0.00     0.278 C 
ENDBRANCH  17  22
BRANCH  20  24
ATOM     24  O   UNL A   1      41.672  34.123  33.582  1.00  0.00    -0.497 OA
ATOM     25  C   UNL A   1      41.080  34.948  34.579  1.00  0.00     0.278 C 
ENDBRANCH  20  24
ENDBRANCH  10  16
ENDBRANCH   7   9
ENDBRANCH   4   7
ENDBRANCH   2   3
ENDBRANCH   1   2
BRANCH   1  26
ATOM     26  C   UNL A   1      42.292  21.890  28.069  1.00  0.00     0.023 C 
BRANCH  26  27
ATOM     27  C   UNL A   1      41.964  22.024  26.587  1.00  0.00     0.116 C 
BRANCH  27  28
ATOM     28  N   UNL A   1      40.567  21.780  26.262  1.00  0.00    -0.352 N 
ATOM     29  C   UNL A   1      39.501  22.650  26.353  1.00  0.00     0.251 C 
ATOM     30  H   UNL A   1      40.354  20.875  25.935  1.00  0.00     0.163 HD
ATOM     31  O   UNL A   1      38.369  22.260  26.116  1.00  0.00    -0.269 OA
BRANCH  29  32
ATOM     32  C   UNL A   1      39.743  24.047  26.785  1.00  0.00     0.039 A 
ATOM     33  C   UNL A   1      39.654  24.356  28.144  1.00  0.00     0.014 A 
ATOM     34  C   UNL A   1      40.094  25.035  25.861  1.00  0.00     0.014 A 
ATOM     35  C   UNL A   1      39.981  25.642  28.580  1.00  0.00     0.010 A 
ATOM     36  C   UNL A   1      40.505  26.286  26.308  1.00  0.00     0.010 A 
ATOM     37  C   UNL A   1      40.441  26.608  27.670  1.00  0.00    -0.014 A 
BRANCH  37  38
ATOM     38  C   UNL A   1      40.864  27.954  28.133  1.00  0.00     0.031 A 
ATOM     39  C   UNL A   1      42.318  28.344  28.118  1.00  0.00     0.074 A 
ATOM     40  C   UNL A   1      39.945  28.802  28.638  1.00  0.00     0.049 A 
ATOM     41  N   UNL A   1      42.870  29.477  28.469  1.00  0.00    -0.248 NA
ATOM     42  C   UNL A   1      43.284  27.321  27.685  1.00  0.00     0.031 C 
ATOM     43  C   UNL A   1      38.523  28.499  28.814  1.00  0.00     0.029 A 
ATOM     44  N   UNL A   1      40.073  30.082  29.114  1.00  0.00    -0.354 N 
ATOM     45  C   UNL A   1      44.240  29.292  28.333  1.00  0.00     0.074 A 
ATOM     46  C   UNL A   1      44.441  27.924  27.910  1.00  0.00     0.031 C 
ATOM     47  C   UNL A   1      37.907  29.570  29.342  1.00  0.00     0.029 A 
ATOM     48  C   UNL A   1      38.889  30.627  29.556  1.00  0.00     0.049 A 
ATOM     49  H   UNL A   1      40.930  30.565  29.137  1.00  0.00     0.167 HD
ATOM     50  C   UNL A   1      45.241  30.189  28.505  1.00  0.00     0.034 A 
ATOM     51  C   UNL A   1      38.624  31.848  30.063  1.00  0.00     0.034 A 
ATOM     52  C   UNL A   1      45.031  31.562  28.872  1.00  0.00     0.049 A 
ATOM     53  C   UNL A   1      39.739  32.855  30.157  1.00  0.00     0.074 A 
ATOM     54  C   UNL A   1      45.964  32.579  28.972  1.00  0.00     0.029 A 
ATOM     55  N   UNL A   1      43.803  32.114  29.201  1.00  0.00    -0.354 N 
ATOM     56  N   UNL A   1      41.005  32.716  29.842  1.00  0.00    -0.248 NA
ATOM     57  C   UNL A   1      39.380  34.200  30.627  1.00  0.00     0.031 C 
ATOM     58  C   UNL A   1      45.301  33.742  29.378  1.00  0.00     0.029 A 
ATOM     59  C   UNL A   1      43.951  33.455  29.508  1.00  0.00     0.049 A 
ATOM     60  H   UNL A   1      42.950  31.622  29.216  1.00  0.00     0.167 HD
ATOM     61  C   UNL A   1      41.584  33.963  30.042  1.00  0.00     0.074 A 
ATOM     62  C   UNL A   1      40.526  34.851  30.480  1.00  0.00     0.031 C 
ATOM     63  C   UNL A   1      42.880  34.337  29.891  1.00  0.00     0.034 A 
BRANCH  50  64
ATOM     64  C   UNL A   1      46.648  29.726  28.232  1.00  0.00     0.023 A 
ATOM     65  C   UNL A   1      47.087  29.584  26.898  1.00  0.00     0.012 A 
ATOM     66  C   UNL A   1      47.552  29.479  29.284  1.00  0.00     0.148 A 
ATOM     67  C   UNL A   1      48.387  29.168  26.616  1.00  0.00     0.002 A 
ATOM     68  C   UNL A   1      48.861  29.110  28.994  1.00  0.00     0.091 A 
ATOM     69  F   UNL A   1      47.113  29.597  30.545  1.00  0.00    -0.205 F 
ATOM     70  C   UNL A   1      49.276  28.942  27.663  1.00  0.00     0.022 A 
BRANCH  68  71
ATOM     71  S   UNL A   1      50.105  28.873  30.267  1.00  0.00     0.127 S 
ATOM     72  O   UNL A   1      51.285  28.543  29.469  1.00  0.00    -0.237 OA
ATOM     73  O   UNL A   1      50.148  30.189  30.905  1.00  0.00    -0.237 OA
ATOM     74  O   UNL A   1      49.607  27.803  31.120  1.00  0.00    -0.744 OA
ENDBRANCH  68  71
ENDBRANCH  50  64
BRANCH  51  75
ATOM     75  C   UNL A   1      37.226  32.211  30.430  1.00  0.00     0.023 A 
ATOM     76  C   UNL A   1      36.766  31.958  31.737  1.00  0.00     0.012 A 
ATOM     77  C   UNL A   1      36.365  32.836  29.508  1.00  0.00     0.148 A 
ATOM     78  C   UNL A   1      35.463  32.290  32.111  1.00  0.00     0.002 A 
ATOM     79  C   UNL A   1      35.086  33.215  29.903  1.00  0.00     0.091 A 
ATOM     80  F   UNL A   1      36.817  33.059  28.266  1.00  0.00    -0.205 F 
ATOM     81  C   UNL A   1      34.628  32.928  31.198  1.00  0.00     0.022 A 
BRANCH  79  82
ATOM     82  S   UNL A   1      33.992  34.159  28.837  1.00  0.00     0.127 S 
ATOM     83  O   UNL A   1      33.664  33.182  27.803  1.00  0.00    -0.237 OA
ATOM     84  O   UNL A   1      32.893  34.490  29.746  1.00  0.00    -0.237 OA
ATOM     85  O   UNL A   1      34.771  35.310  28.400  1.00  0.00    -0.744 OA
ENDBRANCH  79  82
ENDBRANCH  51  75
BRANCH  63  86
ATOM     86  C   UNL A   1      43.225  35.777  30.169  1.00  0.00     0.023 A 
ATOM     87  C   UNL A   1      43.725  36.146  31.433  1.00  0.00     0.012 A 
ATOM     88  C   UNL A   1      43.111  36.751  29.158  1.00  0.00     0.148 A 
ATOM     89  C   UNL A   1      44.069  37.472  31.699  1.00  0.00     0.002 A 
ATOM     90  C   UNL A   1      43.503  38.060  29.415  1.00  0.00     0.091 A 
ATOM     91  F   UNL A   1      42.613  36.385  27.967  1.00  0.00    -0.205 F 
ATOM     92  C   UNL A   1      43.969  38.424  30.688  1.00  0.00     0.022 A 
BRANCH  90  93
ATOM     93  S   UNL A   1      43.499  39.324  28.140  1.00  0.00     0.127 S 
ATOM     94  O   UNL A   1      42.074  39.428  27.826  1.00  0.00    -0.237 OA
ATOM     95  O   UNL A   1      44.053  40.482  28.843  1.00  0.00    -0.237 OA
ATOM     96  O   UNL A   1      44.343  38.811  27.070  1.00  0.00    -0.744 OA
ENDBRANCH  90  93
ENDBRANCH  63  86
ENDBRANCH  37  38
ENDBRANCH  29  32
ENDBRANCH  27  28
ENDBRANCH  26  27
ENDBRANCH   1  26
TORSDOF 18
ENDMDL
