MODEL 1
REMARK VINA RESULT:     -12.9      0.000      0.000
REMARK SMILES Cc1ccnc(C(=O)c2[nH]c3ccc(C(C)(C)C)cc3c2CC(=O)NCCCCNC(=O)c2ccc(-c3c4nc(c(-c5cccc(S(=O)(=O)[O-])c5F)c5ccc([nH]5)c(-c5cccc(S(=O)(=O)[O-])c5F)c5nc(c(-c6cccc(S(=O)(=O)[O-])c6F)c6ccc3[nH]6)C=C5)C=C4)cc2)c1
REMARK SMILES IDX 27 1 26 2 25 3 23 4 24 5 22 7 21 8 9 9 10 10 11 11 20 13
REMARK SMILES IDX 12 14 19 15 13 16 14 17 7 18 8 19 6 20 1 21 2 22 3 23 96 24
REMARK SMILES IDX 4 25 5 26 15 27 16 28 17 29 18 30 28 31 29 32 30 33 31 34
REMARK SMILES IDX 32 36 33 37 34 38 95 39 35 40 94 41 36 42 37 43 38 44 88 45
REMARK SMILES IDX 39 46 93 47 87 48 89 49 40 50 92 51 86 52 85 53 41 55 73 56
REMARK SMILES IDX 53 57 72 58 54 59 57 60 71 61 90 62 55 63 56 64 70 66 91 67
REMARK SMILES IDX 58 68 42 69 43 70 51 71 44 72 46 73 52 74 45 75 47 76 48 77
REMARK SMILES IDX 49 78 50 79 74 80 75 81 83 82 76 83 78 84 84 85 77 86 79 87
REMARK SMILES IDX 80 88 81 89 82 90 59 91 60 92 68 93 61 94 63 95 69 96 62 97
REMARK SMILES IDX 64 98 65 99 66 100 67 101
REMARK H PARENT 25 6 10 12 30 35 89 54 57 65
REMARK Flexibility Score: inf
ROOT
ATOM      1  C   UNL A   1      35.261  23.551  24.306  1.00  0.00     0.023 C 
ENDROOT
BRANCH   1   2
ATOM      2  C   UNL A   1      34.828  24.226  25.608  1.00  0.00     0.116 C 
BRANCH   2   3
ATOM      3  N   UNL A   1      34.578  23.287  26.680  1.00  0.00    -0.356 N 
ATOM      4  C   UNL A   1      33.388  22.852  27.192  1.00  0.00     0.224 C 
ATOM      5  O   UNL A   1      33.405  21.904  27.981  1.00  0.00    -0.275 OA
ATOM      6  H   UNL A   1      35.382  22.908  27.104  1.00  0.00     0.163 HD
BRANCH   4   7
ATOM      7  C   UNL A   1      32.064  23.420  26.699  1.00  0.00     0.138 C 
BRANCH   7   8
ATOM      8  C   UNL A   1      31.777  23.219  25.238  1.00  0.00    -0.002 A 
ATOM      9  C   UNL A   1      31.225  24.135  24.348  1.00  0.00     0.093 A 
ATOM     10  N   UNL A   1      31.259  23.563  23.097  1.00  0.00    -0.352 N 
ATOM     11  C   UNL A   1      31.685  22.259  23.170  1.00  0.00     0.046 A 
ATOM     12  H   UNL A   1      31.012  24.024  22.264  1.00  0.00     0.167 HD
ATOM     13  C   UNL A   1      31.999  22.008  24.500  1.00  0.00     0.004 A 
ATOM     14  C   UNL A   1      31.847  21.305  22.166  1.00  0.00     0.027 A 
ATOM     15  C   UNL A   1      32.489  20.726  24.838  1.00  0.00     0.015 A 
ATOM     16  C   UNL A   1      32.347  20.046  22.532  1.00  0.00     0.006 A 
ATOM     17  C   UNL A   1      32.677  19.727  23.858  1.00  0.00    -0.042 A 
BRANCH   9  18
ATOM     18  C   UNL A   1      30.789  25.499  24.591  1.00  0.00     0.227 C 
ATOM     19  O   UNL A   1      29.616  25.748  24.858  1.00  0.00    -0.285 OA
BRANCH  18  20
ATOM     20  C   UNL A   1      31.810  26.610  24.523  1.00  0.00     0.113 A 
ATOM     21  C   UNL A   1      34.254  28.554  26.679  1.00  0.00     0.044 C 
ATOM     22  C   UNL A   1      33.460  28.067  25.505  1.00  0.00    -0.047 A 
ATOM     23  C   UNL A   1      33.615  28.665  24.255  1.00  0.00     0.023 A 
ATOM     24  C   UNL A   1      32.555  27.007  25.634  1.00  0.00     0.036 A 
ATOM     25  C   UNL A   1      32.853  28.199  23.197  1.00  0.00     0.112 A 
ATOM     26  N   UNL A   1      31.953  27.203  23.309  1.00  0.00    -0.253 NA
ENDBRANCH  18  20
ENDBRANCH   9  18
BRANCH  17  27
ATOM     27  C   UNL A   1      33.261  18.362  24.269  1.00  0.00    -0.013 C 
ATOM     28  C   UNL A   1      32.516  17.849  25.521  1.00  0.00     0.016 C 
ATOM     29  C   UNL A   1      33.088  17.343  23.121  1.00  0.00     0.016 C 
ATOM     30  C   UNL A   1      34.767  18.406  24.612  1.00  0.00     0.016 C 
ENDBRANCH  17  27
ENDBRANCH   7   8
ENDBRANCH   4   7
ENDBRANCH   2   3
ENDBRANCH   1   2
BRANCH   1  31
ATOM     31  C   UNL A   1      35.864  22.153  24.457  1.00  0.00     0.023 C 
BRANCH  31  32
ATOM     32  C   UNL A   1      37.377  22.062  24.287  1.00  0.00     0.116 C 
BRANCH  32  33
ATOM     33  N   UNL A   1      37.977  20.957  25.019  1.00  0.00    -0.352 N 
ATOM     34  C   UNL A   1      38.933  20.996  26.010  1.00  0.00     0.251 C 
ATOM     35  H   UNL A   1      37.657  20.059  24.772  1.00  0.00     0.163 HD
ATOM     36  O   UNL A   1      39.391  19.956  26.459  1.00  0.00    -0.269 OA
BRANCH  34  37
ATOM     37  C   UNL A   1      39.433  22.304  26.497  1.00  0.00     0.039 A 
ATOM     38  C   UNL A   1      40.575  22.323  27.303  1.00  0.00     0.014 A 
ATOM     39  C   UNL A   1      38.794  23.499  26.157  1.00  0.00     0.014 A 
ATOM     40  C   UNL A   1      41.120  23.545  27.706  1.00  0.00     0.010 A 
ATOM     41  C   UNL A   1      39.369  24.717  26.514  1.00  0.00     0.010 A 
ATOM     42  C   UNL A   1      40.539  24.750  27.286  1.00  0.00    -0.014 A 
BRANCH  42  43
ATOM     43  C   UNL A   1      41.155  26.060  27.614  1.00  0.00     0.031 A 
ATOM     44  C   UNL A   1      42.570  26.356  27.208  1.00  0.00     0.074 A 
ATOM     45  C   UNL A   1      40.467  26.944  28.360  1.00  0.00     0.049 A 
ATOM     46  N   UNL A   1      43.289  27.421  27.451  1.00  0.00    -0.248 NA
ATOM     47  C   UNL A   1      43.278  25.313  26.448  1.00  0.00     0.031 C 
ATOM     48  C   UNL A   1      39.111  26.741  28.875  1.00  0.00     0.029 A 
ATOM     49  N   UNL A   1      40.822  28.182  28.834  1.00  0.00    -0.354 N 
ATOM     50  C   UNL A   1      44.541  27.164  26.908  1.00  0.00     0.074 A 
ATOM     51  C   UNL A   1      44.492  25.835  26.338  1.00  0.00     0.031 C 
ATOM     52  C   UNL A   1      38.745  27.822  29.584  1.00  0.00     0.029 A 
ATOM     53  C   UNL A   1      39.843  28.784  29.590  1.00  0.00     0.049 A 
ATOM     54  H   UNL A   1      41.693  28.600  28.650  1.00  0.00     0.167 HD
ATOM     55  C   UNL A   1      45.625  27.975  26.858  1.00  0.00     0.034 A 
ATOM     56  C   UNL A   1      39.829  29.980  30.210  1.00  0.00     0.034 A 
ATOM     57  C   UNL A   1      45.654  29.319  27.363  1.00  0.00     0.049 A 
ATOM     58  C   UNL A   1      41.030  30.877  30.101  1.00  0.00     0.074 A 
ATOM     59  C   UNL A   1      46.668  30.255  27.264  1.00  0.00     0.029 A 
ATOM     60  N   UNL A   1      44.619  29.922  28.060  1.00  0.00    -0.354 N 
ATOM     61  N   UNL A   1      42.146  30.681  29.443  1.00  0.00    -0.248 NA
ATOM     62  C   UNL A   1      40.958  32.171  30.795  1.00  0.00     0.031 C 
ATOM     63  C   UNL A   1      46.242  31.430  27.897  1.00  0.00     0.029 A 
ATOM     64  C   UNL A   1      44.968  31.218  28.401  1.00  0.00     0.049 A 
ATOM     65  H   UNL A   1      43.761  29.492  28.282  1.00  0.00     0.167 HD
ATOM     66  C   UNL A   1      42.899  31.837  29.618  1.00  0.00     0.074 A 
ATOM     67  C   UNL A   1      42.105  32.734  30.434  1.00  0.00     0.031 C 
ATOM     68  C   UNL A   1      44.142  32.120  29.160  1.00  0.00     0.034 A 
BRANCH  55  69
ATOM     69  C   UNL A   1      46.842  27.450  26.150  1.00  0.00     0.023 A 
ATOM     70  C   UNL A   1      46.962  27.650  24.760  1.00  0.00     0.012 A 
ATOM     71  C   UNL A   1      47.870  26.787  26.844  1.00  0.00     0.148 A 
ATOM     72  C   UNL A   1      48.076  27.180  24.068  1.00  0.00     0.002 A 
ATOM     73  C   UNL A   1      48.992  26.343  26.149  1.00  0.00     0.091 A 
ATOM     74  F   UNL A   1      47.730  26.573  28.160  1.00  0.00    -0.205 F 
ATOM     75  C   UNL A   1      49.095  26.533  24.763  1.00  0.00     0.022 A 
BRANCH  73  76
ATOM     76  S   UNL A   1      50.352  25.547  27.012  1.00  0.00     0.127 S 
ATOM     77  O   UNL A   1      50.734  26.569  27.984  1.00  0.00    -0.237 OA
ATOM     78  O   UNL A   1      49.721  24.363  27.596  1.00  0.00    -0.237 OA
ATOM     79  O   UNL A   1      51.326  25.249  25.970  1.00  0.00    -0.744 OA
ENDBRANCH  73  76
ENDBRANCH  55  69
BRANCH  56  80
ATOM     80  C   UNL A   1      38.588  30.439  30.891  1.00  0.00     0.023 A 
ATOM     81  C   UNL A   1      38.463  30.231  32.278  1.00  0.00     0.012 A 
ATOM     82  C   UNL A   1      37.570  31.125  30.202  1.00  0.00     0.148 A 
ATOM     83  C   UNL A   1      37.340  30.686  32.968  1.00  0.00     0.002 A 
ATOM     84  C   UNL A   1      36.470  31.612  30.903  1.00  0.00     0.091 A 
ATOM     85  F   UNL A   1      37.699  31.295  28.879  1.00  0.00    -0.205 F 
ATOM     86  C   UNL A   1      36.350  31.386  32.283  1.00  0.00     0.022 A 
BRANCH  84  87
ATOM     87  S   UNL A   1      35.208  32.624  30.121  1.00  0.00     0.127 S 
ATOM     88  O   UNL A   1      34.706  31.727  29.085  1.00  0.00    -0.237 OA
ATOM     89  O   UNL A   1      34.280  32.868  31.227  1.00  0.00    -0.237 OA
ATOM     90  O   UNL A   1      35.904  33.815  29.654  1.00  0.00    -0.744 OA
ENDBRANCH  84  87
ENDBRANCH  56  80
BRANCH  68  91
ATOM     91  C   UNL A   1      44.725  33.458  29.519  1.00  0.00     0.023 A 
ATOM     92  C   UNL A   1      45.548  33.564  30.658  1.00  0.00     0.012 A 
ATOM     93  C   UNL A   1      44.530  34.583  28.697  1.00  0.00     0.148 A 
ATOM     94  C   UNL A   1      46.158  34.776  30.979  1.00  0.00     0.002 A 
ATOM     95  C   UNL A   1      45.166  35.780  29.008  1.00  0.00     0.091 A 
ATOM     96  F   UNL A   1      43.722  34.472  27.632  1.00  0.00    -0.205 F 
ATOM     97  C   UNL A   1      45.976  35.881  30.149  1.00  0.00     0.022 A 
BRANCH  95  98
ATOM     98  S   UNL A   1      45.029  37.214  27.932  1.00  0.00     0.127 S 
ATOM     99  O   UNL A   1      43.591  37.471  27.949  1.00  0.00    -0.237 OA
ATOM    100  O   UNL A   1      45.835  38.220  28.627  1.00  0.00    -0.237 OA
ATOM    101  O   UNL A   1      45.587  36.786  26.656  1.00  0.00    -0.744 OA
ENDBRANCH  95  98
ENDBRANCH  68  91
ENDBRANCH  42  43
ENDBRANCH  34  37
ENDBRANCH  32  33
ENDBRANCH  31  32
ENDBRANCH   1  31
TORSDOF 18
ENDMDL
MODEL 2
REMARK VINA RESULT:     -12.8      1.993      4.508
REMARK SMILES Cc1ccnc(C(=O)c2[nH]c3ccc(C(C)(C)C)cc3c2CC(=O)NCCCCNC(=O)c2ccc(-c3c4nc(c(-c5cccc(S(=O)(=O)[O-])c5F)c5ccc([nH]5)c(-c5cccc(S(=O)(=O)[O-])c5F)c5nc(c(-c6cccc(S(=O)(=O)[O-])c6F)c6ccc3[nH]6)C=C5)C=C4)cc2)c1
REMARK SMILES IDX 27 1 26 2 25 3 23 4 24 5 22 7 21 8 9 9 10 10 11 11 20 13
REMARK SMILES IDX 12 14 19 15 13 16 14 17 7 18 8 19 6 20 1 21 2 22 3 23 96 24
REMARK SMILES IDX 4 25 5 26 15 27 16 28 17 29 18 30 28 31 29 32 30 33 31 34
REMARK SMILES IDX 32 36 33 37 34 38 95 39 35 40 94 41 36 42 37 43 38 44 88 45
REMARK SMILES IDX 39 46 93 47 87 48 89 49 40 50 92 51 86 52 85 53 41 55 73 56
REMARK SMILES IDX 53 57 72 58 54 59 57 60 71 61 90 62 55 63 56 64 70 66 91 67
REMARK SMILES IDX 58 68 42 69 43 70 51 71 44 72 46 73 52 74 45 75 47 76 48 77
REMARK SMILES IDX 49 78 50 79 74 80 75 81 83 82 76 83 78 84 84 85 77 86 79 87
REMARK SMILES IDX 80 88 81 89 82 90 59 91 60 92 68 93 61 94 63 95 69 96 62 97
REMARK SMILES IDX 64 98 65 99 66 100 67 101
REMARK H PARENT 25 6 10 12 30 35 89 54 57 65
REMARK Flexibility Score: inf
ROOT
ATOM      1  C   UNL A   1      36.843  20.724  24.854  1.00  0.00     0.023 C 
ENDROOT
BRANCH   1   2
ATOM      2  C   UNL A   1      37.288  22.095  24.345  1.00  0.00     0.116 C 
BRANCH   2   3
ATOM      3  N   UNL A   1      36.337  22.701  23.437  1.00  0.00    -0.356 N 
ATOM      4  C   UNL A   1      35.324  23.579  23.703  1.00  0.00     0.224 C 
ATOM      5  O   UNL A   1      34.755  24.116  22.749  1.00  0.00    -0.275 OA
ATOM      6  H   UNL A   1      36.434  22.443  22.492  1.00  0.00     0.163 HD
BRANCH   4   7
ATOM      7  C   UNL A   1      34.997  23.998  25.129  1.00  0.00     0.138 C 
BRANCH   7   8
ATOM      8  C   UNL A   1      33.543  23.946  25.502  1.00  0.00    -0.002 A 
ATOM      9  C   UNL A   1      32.812  22.835  25.913  1.00  0.00     0.093 A 
ATOM     10  N   UNL A   1      31.557  23.277  26.264  1.00  0.00    -0.352 N 
ATOM     11  C   UNL A   1      31.410  24.610  25.965  1.00  0.00     0.046 A 
ATOM     12  H   UNL A   1      30.861  22.716  26.674  1.00  0.00     0.167 HD
ATOM     13  C   UNL A   1      32.630  25.053  25.470  1.00  0.00     0.004 A 
ATOM     14  C   UNL A   1      30.312  25.455  26.128  1.00  0.00     0.027 A 
ATOM     15  C   UNL A   1      32.746  26.413  25.106  1.00  0.00     0.015 A 
ATOM     16  C   UNL A   1      30.464  26.803  25.768  1.00  0.00     0.006 A 
ATOM     17  C   UNL A   1      31.668  27.311  25.255  1.00  0.00    -0.042 A 
BRANCH   9  18
ATOM     18  C   UNL A   1      33.251  21.460  26.083  1.00  0.00     0.227 C 
ATOM     19  O   UNL A   1      33.799  21.098  27.121  1.00  0.00    -0.285 OA
BRANCH  18  20
ATOM     20  C   UNL A   1      33.008  20.478  24.962  1.00  0.00     0.113 A 
ATOM     21  C   UNL A   1      33.661  16.877  23.955  1.00  0.00     0.044 C 
ATOM     22  C   UNL A   1      33.196  18.302  23.942  1.00  0.00    -0.047 A 
ATOM     23  C   UNL A   1      32.519  18.810  22.833  1.00  0.00     0.023 A 
ATOM     24  C   UNL A   1      33.426  19.148  25.033  1.00  0.00     0.036 A 
ATOM     25  C   UNL A   1      32.119  20.135  22.850  1.00  0.00     0.112 A 
ATOM     26  N   UNL A   1      32.359  20.974  23.877  1.00  0.00    -0.253 NA
ENDBRANCH  18  20
ENDBRANCH   9  18
BRANCH  17  27
ATOM     27  C   UNL A   1      31.861  28.795  24.892  1.00  0.00    -0.013 C 
ATOM     28  C   UNL A   1      33.220  28.970  24.179  1.00  0.00     0.016 C 
ATOM     29  C   UNL A   1      30.730  29.262  23.949  1.00  0.00     0.016 C 
ATOM     30  C   UNL A   1      31.853  29.743  26.112  1.00  0.00     0.016 C 
ENDBRANCH  17  27
ENDBRANCH   7   8
ENDBRANCH   4   7
ENDBRANCH   2   3
ENDBRANCH   1   2
BRANCH   1  31
ATOM     31  C   UNL A   1      37.959  19.695  25.039  1.00  0.00     0.023 C 
BRANCH  31  32
ATOM     32  C   UNL A   1      39.187  20.179  25.804  1.00  0.00     0.116 C 
BRANCH  32  33
ATOM     33  N   UNL A   1      40.251  19.190  25.879  1.00  0.00    -0.352 N 
ATOM     34  C   UNL A   1      41.589  19.381  26.145  1.00  0.00     0.251 C 
ATOM     35  H   UNL A   1      39.978  18.258  25.719  1.00  0.00     0.163 HD
ATOM     36  O   UNL A   1      42.364  18.439  26.083  1.00  0.00    -0.269 OA
BRANCH  34  37
ATOM     37  C   UNL A   1      42.089  20.740  26.462  1.00  0.00     0.039 A 
ATOM     38  C   UNL A   1      42.389  21.604  25.405  1.00  0.00     0.014 A 
ATOM     39  C   UNL A   1      42.250  21.165  27.784  1.00  0.00     0.014 A 
ATOM     40  C   UNL A   1      42.780  22.919  25.673  1.00  0.00     0.010 A 
ATOM     41  C   UNL A   1      42.588  22.490  28.048  1.00  0.00     0.010 A 
ATOM     42  C   UNL A   1      42.849  23.380  26.996  1.00  0.00    -0.014 A 
BRANCH  42  43
ATOM     43  C   UNL A   1      43.161  24.797  27.304  1.00  0.00     0.031 A 
ATOM     44  C   UNL A   1      44.556  25.324  27.127  1.00  0.00     0.074 A 
ATOM     45  C   UNL A   1      42.204  25.583  27.834  1.00  0.00     0.049 A 
ATOM     46  N   UNL A   1      45.024  26.515  27.393  1.00  0.00    -0.248 NA
ATOM     47  C   UNL A   1      45.561  24.385  26.601  1.00  0.00     0.031 C 
ATOM     48  C   UNL A   1      40.829  25.165  28.120  1.00  0.00     0.029 A 
ATOM     49  N   UNL A   1      42.247  26.891  28.246  1.00  0.00    -0.354 N 
ATOM     50  C   UNL A   1      46.381  26.461  27.104  1.00  0.00     0.074 A 
ATOM     51  C   UNL A   1      46.667  25.114  26.659  1.00  0.00     0.031 C 
ATOM     52  C   UNL A   1      40.158  26.200  28.651  1.00  0.00     0.029 A 
ATOM     53  C   UNL A   1      41.056  27.346  28.761  1.00  0.00     0.049 A 
ATOM     54  H   UNL A   1      43.054  27.450  28.180  1.00  0.00     0.167 HD
ATOM     55  C   UNL A   1      47.301  27.453  27.169  1.00  0.00     0.034 A 
ATOM     56  C   UNL A   1      40.722  28.554  29.256  1.00  0.00     0.034 A 
ATOM     57  C   UNL A   1      47.006  28.807  27.545  1.00  0.00     0.049 A 
ATOM     58  C   UNL A   1      41.752  29.648  29.276  1.00  0.00     0.074 A 
ATOM     59  C   UNL A   1      47.847  29.906  27.541  1.00  0.00     0.029 A 
ATOM     60  N   UNL A   1      45.771  29.250  27.993  1.00  0.00    -0.354 N 
ATOM     61  N   UNL A   1      42.990  29.623  28.845  1.00  0.00    -0.248 NA
ATOM     62  C   UNL A   1      41.332  30.946  29.825  1.00  0.00     0.031 C 
ATOM     63  C   UNL A   1      47.115  31.018  27.978  1.00  0.00     0.029 A 
ATOM     64  C   UNL A   1      45.824  30.606  28.268  1.00  0.00     0.049 A 
ATOM     65  H   UNL A   1      44.972  28.684  28.099  1.00  0.00     0.167 HD
ATOM     66  C   UNL A   1      43.489  30.905  29.042  1.00  0.00     0.074 A 
ATOM     67  C   UNL A   1      42.414  31.688  29.621  1.00  0.00     0.031 C 
ATOM     68  C   UNL A   1      44.729  31.384  28.785  1.00  0.00     0.034 A 
BRANCH  55  69
ATOM     69  C   UNL A   1      48.701  27.119  26.737  1.00  0.00     0.023 A 
ATOM     70  C   UNL A   1      49.566  26.491  27.655  1.00  0.00     0.012 A 
ATOM     71  C   UNL A   1      49.157  27.396  25.436  1.00  0.00     0.148 A 
ATOM     72  C   UNL A   1      50.871  26.164  27.291  1.00  0.00     0.002 A 
ATOM     73  C   UNL A   1      50.454  27.042  25.073  1.00  0.00     0.091 A 
ATOM     74  F   UNL A   1      48.336  28.024  24.581  1.00  0.00    -0.205 F 
ATOM     75  C   UNL A   1      51.314  26.432  25.999  1.00  0.00     0.022 A 
BRANCH  73  76
ATOM     76  S   UNL A   1      51.051  27.326  23.402  1.00  0.00     0.127 S 
ATOM     77  O   UNL A   1      52.356  26.671  23.431  1.00  0.00    -0.237 OA
ATOM     78  O   UNL A   1      50.051  26.645  22.577  1.00  0.00    -0.237 OA
ATOM     79  O   UNL A   1      51.057  28.775  23.254  1.00  0.00    -0.744 OA
ENDBRANCH  73  76
ENDBRANCH  55  69
BRANCH  56  80
ATOM     80  C   UNL A   1      39.315  28.817  29.664  1.00  0.00     0.023 A 
ATOM     81  C   UNL A   1      38.921  28.491  30.976  1.00  0.00     0.012 A 
ATOM     82  C   UNL A   1      38.391  29.434  28.799  1.00  0.00     0.148 A 
ATOM     83  C   UNL A   1      37.628  28.763  31.418  1.00  0.00     0.002 A 
ATOM     84  C   UNL A   1      37.114  29.739  29.260  1.00  0.00     0.091 A 
ATOM     85  F   UNL A   1      38.781  29.718  27.548  1.00  0.00    -0.205 F 
ATOM     86  C   UNL A   1      36.728  29.397  30.565  1.00  0.00     0.022 A 
BRANCH  84  87
ATOM     87  S   UNL A   1      35.932  30.659  28.266  1.00  0.00     0.127 S 
ATOM     88  O   UNL A   1      36.700  31.849  27.914  1.00  0.00    -0.237 OA
ATOM     89  O   UNL A   1      35.680  29.738  27.157  1.00  0.00    -0.237 OA
ATOM     90  O   UNL A   1      34.783  30.874  29.135  1.00  0.00    -0.744 OA
ENDBRANCH  84  87
ENDBRANCH  56  80
BRANCH  68  91
ATOM     91  C   UNL A   1      44.999  32.826  29.115  1.00  0.00     0.023 A 
ATOM     92  C   UNL A   1      45.526  33.152  30.380  1.00  0.00     0.012 A 
ATOM     93  C   UNL A   1      44.810  33.841  28.160  1.00  0.00     0.148 A 
ATOM     94  C   UNL A   1      45.849  34.472  30.693  1.00  0.00     0.002 A 
ATOM     95  C   UNL A   1      45.163  35.150  28.469  1.00  0.00     0.091 A 
ATOM     96  F   UNL A   1      44.282  33.517  26.970  1.00  0.00    -0.205 F 
ATOM     97  C   UNL A   1      45.678  35.469  29.735  1.00  0.00     0.022 A 
BRANCH  95  98
ATOM     98  S   UNL A   1      45.036  36.462  27.246  1.00  0.00     0.127 S 
ATOM     99  O   UNL A   1      45.546  37.615  27.985  1.00  0.00    -0.237 OA
ATOM    100  O   UNL A   1      45.913  35.991  26.173  1.00  0.00    -0.237 OA
ATOM    101  O   UNL A   1      43.626  36.508  26.884  1.00  0.00    -0.744 OA
ENDBRANCH  95  98
ENDBRANCH  68  91
ENDBRANCH  42  43
ENDBRANCH  34  37
ENDBRANCH  32  33
ENDBRANCH  31  32
ENDBRANCH   1  31
TORSDOF 18
ENDMDL
MODEL 3
REMARK VINA RESULT:     -12.8      0.504      7.474
REMARK SMILES Cc1ccnc(C(=O)c2[nH]c3ccc(C(C)(C)C)cc3c2CC(=O)NCCCCNC(=O)c2ccc(-c3c4nc(c(-c5cccc(S(=O)(=O)[O-])c5F)c5ccc([nH]5)c(-c5cccc(S(=O)(=O)[O-])c5F)c5nc(c(-c6cccc(S(=O)(=O)[O-])c6F)c6ccc3[nH]6)C=C5)C=C4)cc2)c1
REMARK SMILES IDX 27 1 26 2 25 3 23 4 24 5 22 7 21 8 9 9 10 10 11 11 20 13
REMARK SMILES IDX 12 14 19 15 13 16 14 17 7 18 8 19 6 20 1 21 2 22 3 23 96 24
REMARK SMILES IDX 4 25 5 26 15 27 16 28 17 29 18 30 28 31 29 32 30 33 31 34
REMARK SMILES IDX 32 36 33 37 34 38 95 39 35 40 94 41 36 42 37 43 38 44 88 45
REMARK SMILES IDX 39 46 93 47 87 48 89 49 40 50 92 51 86 52 85 53 41 55 73 56
REMARK SMILES IDX 53 57 72 58 54 59 57 60 71 61 90 62 55 63 56 64 70 66 91 67
REMARK SMILES IDX 58 68 42 69 43 70 51 71 44 72 46 73 52 74 45 75 47 76 48 77
REMARK SMILES IDX 49 78 50 79 74 80 75 81 83 82 76 83 78 84 84 85 77 86 79 87
REMARK SMILES IDX 80 88 81 89 82 90 59 91 60 92 68 93 61 94 63 95 69 96 62 97
REMARK SMILES IDX 64 98 65 99 66 100 67 101
REMARK H PARENT 25 6 10 12 30 35 89 54 57 65
REMARK Flexibility Score: inf
ROOT
ATOM      1  C   UNL A   1      35.264  23.738  24.328  1.00  0.00     0.023 C 
ENDROOT
BRANCH   1   2
ATOM      2  C   UNL A   1      35.097  24.218  25.770  1.00  0.00     0.116 C 
BRANCH   2   3
ATOM      3  N   UNL A   1      35.038  23.134  26.728  1.00  0.00    -0.356 N 
ATOM      4  C   UNL A   1      33.947  22.520  27.275  1.00  0.00     0.224 C 
ATOM      5  O   UNL A   1      34.126  21.489  27.929  1.00  0.00    -0.275 OA
ATOM      6  H   UNL A   1      35.910  22.791  27.029  1.00  0.00     0.163 HD
BRANCH   4   7
ATOM      7  C   UNL A   1      32.535  23.004  26.973  1.00  0.00     0.138 C 
BRANCH   7   8
ATOM      8  C   UNL A   1      32.101  22.881  25.540  1.00  0.00    -0.002 A 
ATOM      9  C   UNL A   1      31.489  23.852  24.753  1.00  0.00     0.093 A 
ATOM     10  N   UNL A   1      31.386  23.341  23.479  1.00  0.00    -0.352 N 
ATOM     11  C   UNL A   1      31.782  22.027  23.448  1.00  0.00     0.046 A 
ATOM     12  H   UNL A   1      31.071  23.848  22.697  1.00  0.00     0.167 HD
ATOM     13  C   UNL A   1      32.219  21.703  24.727  1.00  0.00     0.004 A 
ATOM     14  C   UNL A   1      31.821  21.120  22.389  1.00  0.00     0.027 A 
ATOM     15  C   UNL A   1      32.706  20.397  24.954  1.00  0.00     0.015 A 
ATOM     16  C   UNL A   1      32.321  19.834  22.645  1.00  0.00     0.006 A 
ATOM     17  C   UNL A   1      32.771  19.443  23.915  1.00  0.00    -0.042 A 
BRANCH   9  18
ATOM     18  C   UNL A   1      31.114  25.212  25.101  1.00  0.00     0.227 C 
ATOM     19  O   UNL A   1      29.988  25.467  25.520  1.00  0.00    -0.285 OA
BRANCH  18  20
ATOM     20  C   UNL A   1      32.142  26.308  24.951  1.00  0.00     0.113 A 
ATOM     21  C   UNL A   1      34.115  28.846  26.969  1.00  0.00     0.044 C 
ATOM     22  C   UNL A   1      33.573  28.037  25.829  1.00  0.00    -0.047 A 
ATOM     23  C   UNL A   1      33.991  28.296  24.524  1.00  0.00     0.023 A 
ATOM     24  C   UNL A   1      32.647  27.011  26.046  1.00  0.00     0.036 A 
ATOM     25  C   UNL A   1      33.457  27.540  23.494  1.00  0.00     0.112 A 
ATOM     26  N   UNL A   1      32.541  26.570  23.679  1.00  0.00    -0.253 NA
ENDBRANCH  18  20
ENDBRANCH   9  18
BRANCH  17  27
ATOM     27  C   UNL A   1      33.357  18.048  24.202  1.00  0.00    -0.013 C 
ATOM     28  C   UNL A   1      34.860  18.187  24.528  1.00  0.00     0.016 C 
ATOM     29  C   UNL A   1      32.633  17.405  25.406  1.00  0.00     0.016 C 
ATOM     30  C   UNL A   1      33.229  17.063  23.019  1.00  0.00     0.016 C 
ENDBRANCH  17  27
ENDBRANCH   7   8
ENDBRANCH   4   7
ENDBRANCH   2   3
ENDBRANCH   1   2
BRANCH   1  31
ATOM     31  C   UNL A   1      35.813  22.320  24.165  1.00  0.00     0.023 C 
BRANCH  31  32
ATOM     32  C   UNL A   1      37.334  22.195  24.164  1.00  0.00     0.116 C 
BRANCH  32  33
ATOM     33  N   UNL A   1      37.821  21.036  24.895  1.00  0.00    -0.352 N 
ATOM     34  C   UNL A   1      38.748  20.985  25.913  1.00  0.00     0.251 C 
ATOM     35  H   UNL A   1      37.436  20.170  24.628  1.00  0.00     0.163 HD
ATOM     36  O   UNL A   1      39.106  19.906  26.360  1.00  0.00    -0.269 OA
BRANCH  34  37
ATOM     37  C   UNL A   1      39.339  22.242  26.432  1.00  0.00     0.039 A 
ATOM     38  C   UNL A   1      40.492  22.161  27.219  1.00  0.00     0.014 A 
ATOM     39  C   UNL A   1      38.773  23.485  26.141  1.00  0.00     0.014 A 
ATOM     40  C   UNL A   1      41.121  23.332  27.650  1.00  0.00     0.010 A 
ATOM     41  C   UNL A   1      39.430  24.652  26.527  1.00  0.00     0.010 A 
ATOM     42  C   UNL A   1      40.612  24.585  27.279  1.00  0.00    -0.014 A 
BRANCH  42  43
ATOM     43  C   UNL A   1      41.316  25.841  27.636  1.00  0.00     0.031 A 
ATOM     44  C   UNL A   1      40.612  26.909  28.423  1.00  0.00     0.074 A 
ATOM     45  C   UNL A   1      42.561  26.055  27.169  1.00  0.00     0.049 A 
ATOM     46  N   UNL A   1      41.049  28.088  28.782  1.00  0.00    -0.248 NA
ATOM     47  C   UNL A   1      39.231  26.625  28.845  1.00  0.00     0.031 C 
ATOM     48  C   UNL A   1      43.323  25.124  26.334  1.00  0.00     0.029 A 
ATOM     49  N   UNL A   1      43.396  27.135  27.311  1.00  0.00    -0.354 N 
ATOM     50  C   UNL A   1      39.988  28.700  29.438  1.00  0.00     0.074 A 
ATOM     51  C   UNL A   1      38.880  27.771  29.412  1.00  0.00     0.031 C 
ATOM     52  C   UNL A   1      44.517  25.668  26.048  1.00  0.00     0.029 A 
ATOM     53  C   UNL A   1      44.599  26.990  26.660  1.00  0.00     0.049 A 
ATOM     54  H   UNL A   1      43.157  27.937  27.830  1.00  0.00     0.167 HD
ATOM     55  C   UNL A   1      39.952  29.913  30.038  1.00  0.00     0.034 A 
ATOM     56  C   UNL A   1      45.653  27.826  26.576  1.00  0.00     0.034 A 
ATOM     57  C   UNL A   1      41.072  30.809  30.124  1.00  0.00     0.049 A 
ATOM     58  C   UNL A   1      45.600  29.148  27.288  1.00  0.00     0.074 A 
ATOM     59  C   UNL A   1      41.164  32.012  30.801  1.00  0.00     0.029 A 
ATOM     60  N   UNL A   1      42.298  30.598  29.514  1.00  0.00    -0.354 N 
ATOM     61  N   UNL A   1      44.647  29.640  28.041  1.00  0.00    -0.248 NA
ATOM     62  C   UNL A   1      46.779  30.018  27.163  1.00  0.00     0.031 C 
ATOM     63  C   UNL A   1      42.453  32.525  30.607  1.00  0.00     0.029 A 
ATOM     64  C   UNL A   1      43.156  31.648  29.797  1.00  0.00     0.049 A 
ATOM     65  H   UNL A   1      42.527  29.817  28.960  1.00  0.00     0.167 HD
ATOM     66  C   UNL A   1      45.120  30.863  28.504  1.00  0.00     0.074 A 
ATOM     67  C   UNL A   1      46.451  31.031  27.956  1.00  0.00     0.031 C 
ATOM     68  C   UNL A   1      44.499  31.771  29.295  1.00  0.00     0.034 A 
BRANCH  55  69
ATOM     69  C   UNL A   1      38.673  30.299  30.728  1.00  0.00     0.023 A 
ATOM     70  C   UNL A   1      38.465  29.885  32.059  1.00  0.00     0.012 A 
ATOM     71  C   UNL A   1      37.695  31.080  30.086  1.00  0.00     0.148 A 
ATOM     72  C   UNL A   1      37.293  30.223  32.732  1.00  0.00     0.002 A 
ATOM     73  C   UNL A   1      36.539  31.435  30.775  1.00  0.00     0.091 A 
ATOM     74  F   UNL A   1      37.889  31.440  28.809  1.00  0.00    -0.205 F 
ATOM     75  C   UNL A   1      36.333  31.004  32.095  1.00  0.00     0.022 A 
BRANCH  73  76
ATOM     76  S   UNL A   1      35.297  32.481  30.008  1.00  0.00     0.127 S 
ATOM     77  O   UNL A   1      36.075  33.664  29.649  1.00  0.00    -0.237 OA
ATOM     78  O   UNL A   1      34.853  31.680  28.866  1.00  0.00    -0.237 OA
ATOM     79  O   UNL A   1      34.281  32.663  31.037  1.00  0.00    -0.744 OA
ENDBRANCH  73  76
ENDBRANCH  55  69
BRANCH  56  80
ATOM     80  C   UNL A   1      46.890  27.379  25.879  1.00  0.00     0.023 A 
ATOM     81  C   UNL A   1      47.027  27.656  24.505  1.00  0.00     0.012 A 
ATOM     82  C   UNL A   1      47.943  26.744  26.564  1.00  0.00     0.148 A 
ATOM     83  C   UNL A   1      48.188  27.299  23.821  1.00  0.00     0.002 A 
ATOM     84  C   UNL A   1      49.115  26.427  25.884  1.00  0.00     0.091 A 
ATOM     85  F   UNL A   1      47.784  26.472  27.867  1.00  0.00    -0.205 F 
ATOM     86  C   UNL A   1      49.236  26.696  24.511  1.00  0.00     0.022 A 
BRANCH  84  87
ATOM     87  S   UNL A   1      50.556  25.755  26.721  1.00  0.00     0.127 S 
ATOM     88  O   UNL A   1      50.039  24.491  27.237  1.00  0.00    -0.237 OA
ATOM     89  O   UNL A   1      51.517  25.626  25.625  1.00  0.00    -0.237 OA
ATOM     90  O   UNL A   1      50.921  26.752  27.719  1.00  0.00    -0.744 OA
ENDBRANCH  84  87
ENDBRANCH  56  80
BRANCH  68  91
ATOM     91  C   UNL A   1      45.251  33.029  29.629  1.00  0.00     0.023 A 
ATOM     92  C   UNL A   1      46.083  33.048  30.766  1.00  0.00     0.012 A 
ATOM     93  C   UNL A   1      45.202  34.154  28.786  1.00  0.00     0.148 A 
ATOM     94  C   UNL A   1      46.845  34.176  31.066  1.00  0.00     0.002 A 
ATOM     95  C   UNL A   1      45.989  35.264  29.075  1.00  0.00     0.091 A 
ATOM     96  F   UNL A   1      44.385  34.129  27.723  1.00  0.00    -0.205 F 
ATOM     97  C   UNL A   1      46.807  35.280  30.216  1.00  0.00     0.022 A 
BRANCH  95  98
ATOM     98  S   UNL A   1      46.038  36.684  27.973  1.00  0.00     0.127 S 
ATOM     99  O   UNL A   1      44.729  37.290  28.202  1.00  0.00    -0.237 OA
ATOM    100  O   UNL A   1      47.166  37.459  28.492  1.00  0.00    -0.237 OA
ATOM    101  O   UNL A   1      46.262  36.126  26.646  1.00  0.00    -0.744 OA
ENDBRANCH  95  98
ENDBRANCH  68  91
ENDBRANCH  42  43
ENDBRANCH  34  37
ENDBRANCH  32  33
ENDBRANCH  31  32
ENDBRANCH   1  31
TORSDOF 18
ENDMDL
