MODEL 1
REMARK VINA RESULT:     -12.1      0.000      0.000
REMARK SMILES O=C(CSc1nnc(-c2cccc(C(F)(F)F)c2F)o1)NCCCCNC(=O)c1ccc(-c2c3nc(c(-c4cccc(S(=O)(=O)[O-])c4F)c4ccc([nH]4)c(-c4cccc(S(=O)(=O)[O-])c4F)c4nc(c(-c5cccc(S(=O)(=O)[O-])c5F)c5ccc2[nH]5)C=C4)C=C3)cc1
REMARK SMILES IDX 23 1 22 2 21 3 1 4 2 5 3 7 4 8 5 9 6 10 20 11 7 12 8 13 9 14
REMARK SMILES IDX 10 15 18 16 11 17 13 18 19 19 12 20 14 21 15 22 16 23 17 24
REMARK SMILES IDX 24 25 25 26 26 27 27 28 28 30 29 31 30 32 91 33 31 34 90 35
REMARK SMILES IDX 32 36 33 37 34 38 84 39 35 40 89 41 83 42 85 43 36 44 88 45
REMARK SMILES IDX 82 46 81 47 37 49 69 50 49 51 68 52 50 53 53 54 67 55 86 56
REMARK SMILES IDX 51 57 52 58 66 60 87 61 54 62 38 63 39 64 47 65 40 66 42 67
REMARK SMILES IDX 48 68 41 69 43 70 44 71 45 72 46 73 70 74 71 75 79 76 72 77
REMARK SMILES IDX 74 78 80 79 73 80 75 81 76 82 77 83 78 84 55 85 56 86 64 87
REMARK SMILES IDX 57 88 59 89 65 90 58 91 60 92 61 93 62 94 63 95
REMARK H PARENT 21 6 26 29 85 48 53 59
REMARK Flexibility Score: inf
ROOT
ATOM      1  C   UNL A   1      32.071  27.924  27.482  1.00  0.00     0.023 C 
ENDROOT
BRANCH   1   2
ATOM      2  C   UNL A   1      31.563  26.896  26.473  1.00  0.00     0.116 C 
BRANCH   2   3
ATOM      3  N   UNL A   1      31.645  27.368  25.105  1.00  0.00    -0.355 N 
ATOM      4  O   UNL A   1      29.536  26.698  24.501  1.00  0.00    -0.274 OA
ATOM      5  C   UNL A   1      30.587  27.274  24.224  1.00  0.00     0.230 C 
ATOM      6  H   UNL A   1      32.487  27.769  24.792  1.00  0.00     0.163 HD
BRANCH   5   7
ATOM      7  C   UNL A   1      30.845  27.835  22.834  1.00  0.00     0.179 C 
BRANCH   7   8
ATOM      8  S   UNL A   1      32.602  27.827  22.379  1.00  0.00    -0.055 SA
BRANCH   8   9
ATOM      9  C   UNL A   1      32.868  26.142  22.055  1.00  0.00     0.277 A 
ATOM     10  N   UNL A   1      33.025  25.612  20.860  1.00  0.00    -0.101 NA
ATOM     11  O   UNL A   1      32.979  25.210  23.056  1.00  0.00    -0.411 OA
ATOM     12  N   UNL A   1      33.299  24.274  21.050  1.00  0.00    -0.107 NA
ATOM     13  C   UNL A   1      33.247  24.070  22.349  1.00  0.00     0.251 A 
BRANCH  13  14
ATOM     14  C   UNL A   1      33.543  22.875  23.111  1.00  0.00     0.075 A 
ATOM     15  C   UNL A   1      32.522  21.949  23.371  1.00  0.00     0.017 A 
ATOM     16  C   UNL A   1      34.824  22.635  23.621  1.00  0.00     0.148 A 
ATOM     17  C   UNL A   1      32.786  20.795  24.108  1.00  0.00     0.002 A 
ATOM     18  C   UNL A   1      35.100  21.496  24.379  1.00  0.00     0.092 A 
ATOM     19  F   UNL A   1      35.793  23.536  23.405  1.00  0.00    -0.205 F 
ATOM     20  C   UNL A   1      34.067  20.570  24.610  1.00  0.00     0.016 A 
BRANCH  18  21
ATOM     21  C   UNL A   1      36.459  21.257  24.970  1.00  0.00     0.419 C 
ATOM     22  F   UNL A   1      37.452  21.605  24.099  1.00  0.00    -0.166 F 
ATOM     23  F   UNL A   1      36.675  22.010  26.084  1.00  0.00    -0.166 F 
ATOM     24  F   UNL A   1      36.723  19.973  25.328  1.00  0.00    -0.166 F 
ENDBRANCH  18  21
ENDBRANCH  13  14
ENDBRANCH   8   9
ENDBRANCH   7   8
ENDBRANCH   5   7
ENDBRANCH   2   3
ENDBRANCH   1   2
BRANCH   1  25
ATOM     25  C   UNL A   1      31.762  29.383  27.139  1.00  0.00     0.023 C 
BRANCH  25  26
ATOM     26  C   UNL A   1      32.905  30.173  26.506  1.00  0.00     0.116 C 
BRANCH  26  27
ATOM     27  N   UNL A   1      32.897  31.581  26.869  1.00  0.00    -0.352 N 
ATOM     28  C   UNL A   1      33.786  32.288  27.644  1.00  0.00     0.251 C 
ATOM     29  H   UNL A   1      32.146  32.105  26.507  1.00  0.00     0.163 HD
ATOM     30  O   UNL A   1      33.539  33.455  27.944  1.00  0.00    -0.269 OA
BRANCH  28  31
ATOM     31  C   UNL A   1      35.024  31.645  28.144  1.00  0.00     0.039 A 
ATOM     32  C   UNL A   1      36.203  32.393  28.186  1.00  0.00     0.014 A 
ATOM     33  C   UNL A   1      35.028  30.314  28.570  1.00  0.00     0.014 A 
ATOM     34  C   UNL A   1      37.366  31.831  28.724  1.00  0.00     0.010 A 
ATOM     35  C   UNL A   1      36.166  29.781  29.173  1.00  0.00     0.010 A 
ATOM     36  C   UNL A   1      37.348  30.533  29.260  1.00  0.00    -0.014 A 
BRANCH  36  37
ATOM     37  C   UNL A   1      38.542  29.959  29.937  1.00  0.00     0.031 A 
ATOM     38  C   UNL A   1      38.960  30.447  31.298  1.00  0.00     0.074 A 
ATOM     39  C   UNL A   1      39.302  29.051  29.291  1.00  0.00     0.049 A 
ATOM     40  N   UNL A   1      40.004  30.106  32.009  1.00  0.00    -0.248 NA
ATOM     41  C   UNL A   1      38.110  31.466  31.936  1.00  0.00     0.031 C 
ATOM     42  C   UNL A   1      39.045  28.543  27.941  1.00  0.00     0.029 A 
ATOM     43  N   UNL A   1      40.456  28.410  29.670  1.00  0.00    -0.354 N 
ATOM     44  C   UNL A   1      39.955  30.887  33.159  1.00  0.00     0.074 A 
ATOM     45  C   UNL A   1      38.795  31.743  33.037  1.00  0.00     0.031 C 
ATOM     46  C   UNL A   1      40.003  27.663  27.612  1.00  0.00     0.029 A 
ATOM     47  C   UNL A   1      40.966  27.570  28.705  1.00  0.00     0.049 A 
ATOM     48  H   UNL A   1      40.880  28.539  30.549  1.00  0.00     0.167 HD
ATOM     49  C   UNL A   1      40.782  30.871  34.230  1.00  0.00     0.034 A 
ATOM     50  C   UNL A   1      42.083  26.816  28.695  1.00  0.00     0.034 A 
ATOM     51  C   UNL A   1      41.908  29.987  34.370  1.00  0.00     0.049 A 
ATOM     52  C   UNL A   1      42.973  26.800  29.908  1.00  0.00     0.074 A 
ATOM     53  C   UNL A   1      42.751  29.843  35.456  1.00  0.00     0.029 A 
ATOM     54  N   UNL A   1      42.353  29.105  33.398  1.00  0.00    -0.354 N 
ATOM     55  N   UNL A   1      42.831  27.444  31.041  1.00  0.00    -0.248 NA
ATOM     56  C   UNL A   1      44.160  25.933  29.857  1.00  0.00     0.031 C 
ATOM     57  C   UNL A   1      43.728  28.899  35.129  1.00  0.00     0.029 A 
ATOM     58  C   UNL A   1      43.468  28.424  33.854  1.00  0.00     0.049 A 
ATOM     59  H   UNL A   1      41.938  28.982  32.513  1.00  0.00     0.167 HD
ATOM     60  C   UNL A   1      43.886  27.035  31.849  1.00  0.00     0.074 A 
ATOM     61  C   UNL A   1      44.652  26.074  31.081  1.00  0.00     0.031 C 
ATOM     62  C   UNL A   1      44.196  27.431  33.106  1.00  0.00     0.034 A 
BRANCH  49  63
ATOM     63  C   UNL A   1      40.476  31.798  35.379  1.00  0.00     0.023 A 
ATOM     64  C   UNL A   1      41.252  32.960  35.559  1.00  0.00     0.012 A 
ATOM     65  C   UNL A   1      39.355  31.579  36.205  1.00  0.00     0.148 A 
ATOM     66  C   UNL A   1      40.933  33.880  36.556  1.00  0.00     0.002 A 
ATOM     67  C   UNL A   1      39.013  32.526  37.165  1.00  0.00     0.091 A 
ATOM     68  F   UNL A   1      38.640  30.460  36.029  1.00  0.00    -0.205 F 
ATOM     69  C   UNL A   1      39.806  33.671  37.347  1.00  0.00     0.022 A 
BRANCH  67  70
ATOM     70  S   UNL A   1      37.534  32.397  38.174  1.00  0.00     0.127 S 
ATOM     71  O   UNL A   1      37.929  33.141  39.371  1.00  0.00    -0.237 OA
ATOM     72  O   UNL A   1      36.536  33.069  37.342  1.00  0.00    -0.237 OA
ATOM     73  O   UNL A   1      37.305  30.974  38.377  1.00  0.00    -0.744 OA
ENDBRANCH  67  70
ENDBRANCH  49  63
BRANCH  50  74
ATOM     74  C   UNL A   1      42.382  25.960  27.511  1.00  0.00     0.023 A 
ATOM     75  C   UNL A   1      43.167  26.480  26.463  1.00  0.00     0.012 A 
ATOM     76  C   UNL A   1      41.945  24.623  27.442  1.00  0.00     0.148 A 
ATOM     77  C   UNL A   1      43.493  25.692  25.359  1.00  0.00     0.002 A 
ATOM     78  C   UNL A   1      42.324  23.825  26.369  1.00  0.00     0.091 A 
ATOM     79  F   UNL A   1      41.190  24.150  28.443  1.00  0.00    -0.205 F 
ATOM     80  C   UNL A   1      43.084  24.362  25.317  1.00  0.00     0.022 A 
BRANCH  78  81
ATOM     81  S   UNL A   1      41.965  22.066  26.298  1.00  0.00     0.127 S 
ATOM     82  O   UNL A   1      40.527  22.063  26.039  1.00  0.00    -0.237 OA
ATOM     83  O   UNL A   1      42.795  21.636  25.172  1.00  0.00    -0.237 OA
ATOM     84  O   UNL A   1      42.374  21.526  27.588  1.00  0.00    -0.744 OA
ENDBRANCH  78  81
ENDBRANCH  50  74
BRANCH  62  85
ATOM     85  C   UNL A   1      45.399  26.814  33.773  1.00  0.00     0.023 A 
ATOM     86  C   UNL A   1      46.646  27.466  33.710  1.00  0.00     0.012 A 
ATOM     87  C   UNL A   1      45.261  25.659  34.569  1.00  0.00     0.148 A 
ATOM     88  C   UNL A   1      47.743  26.965  34.411  1.00  0.00     0.002 A 
ATOM     89  C   UNL A   1      46.344  25.197  35.307  1.00  0.00     0.091 A 
ATOM     90  F   UNL A   1      44.068  25.047  34.605  1.00  0.00    -0.205 F 
ATOM     91  C   UNL A   1      47.588  25.842  35.221  1.00  0.00     0.022 A 
BRANCH  89  92
ATOM     92  S   UNL A   1      46.213  23.826  36.462  1.00  0.00     0.127 S 
ATOM     93  O   UNL A   1      47.617  23.585  36.798  1.00  0.00    -0.237 OA
ATOM     94  O   UNL A   1      45.418  24.408  37.543  1.00  0.00    -0.237 OA
ATOM     95  O   UNL A   1      45.556  22.748  35.736  1.00  0.00    -0.744 OA
ENDBRANCH  89  92
ENDBRANCH  62  85
ENDBRANCH  36  37
ENDBRANCH  28  31
ENDBRANCH  26  27
ENDBRANCH  25  26
ENDBRANCH   1  25
TORSDOF 18
ENDMDL
MODEL 2
REMARK VINA RESULT:     -11.9      5.376     10.445
REMARK SMILES O=C(CSc1nnc(-c2cccc(C(F)(F)F)c2F)o1)NCCCCNC(=O)c1ccc(-c2c3nc(c(-c4cccc(S(=O)(=O)[O-])c4F)c4ccc([nH]4)c(-c4cccc(S(=O)(=O)[O-])c4F)c4nc(c(-c5cccc(S(=O)(=O)[O-])c5F)c5ccc2[nH]5)C=C4)C=C3)cc1
REMARK SMILES IDX 23 1 22 2 21 3 1 4 2 5 3 7 4 8 5 9 6 10 20 11 7 12 8 13 9 14
REMARK SMILES IDX 10 15 18 16 11 17 13 18 19 19 12 20 14 21 15 22 16 23 17 24
REMARK SMILES IDX 24 25 25 26 26 27 27 28 28 30 29 31 30 32 91 33 31 34 90 35
REMARK SMILES IDX 32 36 33 37 34 38 84 39 35 40 89 41 83 42 85 43 36 44 88 45
REMARK SMILES IDX 82 46 81 47 37 49 69 50 49 51 68 52 50 53 53 54 67 55 86 56
REMARK SMILES IDX 51 57 52 58 66 60 87 61 54 62 38 63 39 64 47 65 40 66 42 67
REMARK SMILES IDX 48 68 41 69 43 70 44 71 45 72 46 73 70 74 71 75 79 76 72 77
REMARK SMILES IDX 74 78 80 79 73 80 75 81 76 82 77 83 78 84 55 85 56 86 64 87
REMARK SMILES IDX 57 88 59 89 65 90 58 91 60 92 61 93 62 94 63 95
REMARK H PARENT 21 6 26 29 85 48 53 59
REMARK Flexibility Score: inf
ROOT
ATOM      1  C   UNL A   1      36.638  22.799  23.738  1.00  0.00     0.023 C 
ENDROOT
BRANCH   1   2
ATOM      2  C   UNL A   1      35.128  22.741  23.510  1.00  0.00     0.116 C 
BRANCH   2   3
ATOM      3  N   UNL A   1      34.394  22.402  24.713  1.00  0.00    -0.355 N 
ATOM      4  O   UNL A   1      34.183  20.168  24.234  1.00  0.00    -0.274 OA
ATOM      5  C   UNL A   1      34.015  21.108  25.009  1.00  0.00     0.230 C 
ATOM      6  H   UNL A   1      34.156  23.121  25.341  1.00  0.00     0.163 HD
BRANCH   5   7
ATOM      7  C   UNL A   1      33.266  20.934  26.322  1.00  0.00     0.179 C 
BRANCH   7   8
ATOM      8  S   UNL A   1      33.524  22.311  27.476  1.00  0.00    -0.055 SA
BRANCH   8   9
ATOM      9  C   UNL A   1      32.233  23.383  27.030  1.00  0.00     0.277 A 
ATOM     10  N   UNL A   1      30.988  23.289  27.447  1.00  0.00    -0.101 NA
ATOM     11  O   UNL A   1      32.427  24.468  26.213  1.00  0.00    -0.411 OA
ATOM     12  N   UNL A   1      30.313  24.377  26.936  1.00  0.00    -0.107 NA
ATOM     13  C   UNL A   1      31.184  25.037  26.202  1.00  0.00     0.251 A 
BRANCH  13  14
ATOM     14  C   UNL A   1      31.042  26.300  25.511  1.00  0.00     0.075 A 
ATOM     15  C   UNL A   1      30.490  26.327  24.222  1.00  0.00     0.017 A 
ATOM     16  C   UNL A   1      31.473  27.500  26.090  1.00  0.00     0.148 A 
ATOM     17  C   UNL A   1      30.351  27.533  23.537  1.00  0.00     0.002 A 
ATOM     18  C   UNL A   1      31.361  28.714  25.409  1.00  0.00     0.092 A 
ATOM     19  F   UNL A   1      32.034  27.474  27.307  1.00  0.00    -0.205 F 
ATOM     20  C   UNL A   1      30.785  28.720  24.126  1.00  0.00     0.016 A 
BRANCH  18  21
ATOM     21  C   UNL A   1      31.865  29.996  26.006  1.00  0.00     0.419 C 
ATOM     22  F   UNL A   1      31.669  30.032  27.356  1.00  0.00    -0.166 F 
ATOM     23  F   UNL A   1      33.206  30.153  25.830  1.00  0.00    -0.166 F 
ATOM     24  F   UNL A   1      31.289  31.129  25.525  1.00  0.00    -0.166 F 
ENDBRANCH  18  21
ENDBRANCH  13  14
ENDBRANCH   8   9
ENDBRANCH   7   8
ENDBRANCH   5   7
ENDBRANCH   2   3
ENDBRANCH   1   2
BRANCH   1  25
ATOM     25  C   UNL A   1      37.269  21.505  24.256  1.00  0.00     0.023 C 
BRANCH  25  26
ATOM     26  C   UNL A   1      37.702  21.518  25.720  1.00  0.00     0.116 C 
BRANCH  26  27
ATOM     27  N   UNL A   1      38.839  20.651  25.988  1.00  0.00    -0.352 N 
ATOM     28  C   UNL A   1      40.094  20.975  26.449  1.00  0.00     0.251 C 
ATOM     29  H   UNL A   1      38.690  19.694  25.813  1.00  0.00     0.163 HD
ATOM     30  O   UNL A   1      40.968  20.111  26.491  1.00  0.00    -0.269 OA
BRANCH  28  31
ATOM     31  C   UNL A   1      40.406  22.362  26.866  1.00  0.00     0.039 A 
ATOM     32  C   UNL A   1      41.250  22.563  27.962  1.00  0.00     0.014 A 
ATOM     33  C   UNL A   1      39.875  23.461  26.186  1.00  0.00     0.014 A 
ATOM     34  C   UNL A   1      41.618  23.861  28.328  1.00  0.00     0.010 A 
ATOM     35  C   UNL A   1      40.302  24.749  26.505  1.00  0.00     0.010 A 
ATOM     36  C   UNL A   1      41.181  24.965  27.578  1.00  0.00    -0.014 A 
BRANCH  36  37
ATOM     37  C   UNL A   1      41.652  26.343  27.882  1.00  0.00     0.031 A 
ATOM     38  C   UNL A   1      43.064  26.758  27.565  1.00  0.00     0.074 A 
ATOM     39  C   UNL A   1      40.830  27.202  28.520  1.00  0.00     0.049 A 
ATOM     40  N   UNL A   1      43.663  27.894  27.815  1.00  0.00    -0.248 NA
ATOM     41  C   UNL A   1      43.923  25.763  26.902  1.00  0.00     0.031 C 
ATOM     42  C   UNL A   1      39.460  26.903  28.944  1.00  0.00     0.029 A 
ATOM     43  N   UNL A   1      41.032  28.493  28.945  1.00  0.00    -0.354 N 
ATOM     44  C   UNL A   1      44.971  27.742  27.371  1.00  0.00     0.074 A 
ATOM     45  C   UNL A   1      45.090  26.392  26.864  1.00  0.00     0.031 C 
ATOM     46  C   UNL A   1      38.943  27.980  29.554  1.00  0.00     0.029 A 
ATOM     47  C   UNL A   1      39.951  29.034  29.604  1.00  0.00     0.049 A 
ATOM     48  H   UNL A   1      41.871  28.985  28.793  1.00  0.00     0.167 HD
ATOM     49  C   UNL A   1      45.974  28.651  27.359  1.00  0.00     0.034 A 
ATOM     50  C   UNL A   1      39.789  30.237  30.190  1.00  0.00     0.034 A 
ATOM     51  C   UNL A   1      45.841  30.007  27.821  1.00  0.00     0.049 A 
ATOM     52  C   UNL A   1      40.912  31.237  30.143  1.00  0.00     0.074 A 
ATOM     53  C   UNL A   1      46.778  31.023  27.770  1.00  0.00     0.029 A 
ATOM     54  N   UNL A   1      44.710  30.536  28.423  1.00  0.00    -0.354 N 
ATOM     55  N   UNL A   1      42.096  31.119  29.594  1.00  0.00    -0.248 NA
ATOM     56  C   UNL A   1      40.670  32.547  30.767  1.00  0.00     0.031 C 
ATOM     57  C   UNL A   1      46.228  32.157  28.373  1.00  0.00     0.029 A 
ATOM     58  C   UNL A   1      44.932  31.860  28.761  1.00  0.00     0.049 A 
ATOM     59  H   UNL A   1      43.874  30.043  28.587  1.00  0.00     0.167 HD
ATOM     60  C   UNL A   1      42.726  32.346  29.774  1.00  0.00     0.074 A 
ATOM     61  C   UNL A   1      41.786  33.200  30.469  1.00  0.00     0.031 C 
ATOM     62  C   UNL A   1      43.974  32.721  29.406  1.00  0.00     0.034 A 
BRANCH  49  63
ATOM     63  C   UNL A   1      47.300  28.241  26.773  1.00  0.00     0.023 A 
ATOM     64  C   UNL A   1      48.371  27.927  27.633  1.00  0.00     0.012 A 
ATOM     65  C   UNL A   1      47.451  28.056  25.384  1.00  0.00     0.148 A 
ATOM     66  C   UNL A   1      49.579  27.455  27.121  1.00  0.00     0.002 A 
ATOM     67  C   UNL A   1      48.641  27.538  24.884  1.00  0.00     0.091 A 
ATOM     68  F   UNL A   1      46.426  28.377  24.582  1.00  0.00    -0.205 F 
ATOM     69  C   UNL A   1      49.708  27.247  25.750  1.00  0.00     0.022 A 
BRANCH  67  70
ATOM     70  S   UNL A   1      48.879  27.149  23.148  1.00  0.00     0.127 S 
ATOM     71  O   UNL A   1      48.264  28.309  22.500  1.00  0.00    -0.237 OA
ATOM     72  O   UNL A   1      50.336  27.094  23.043  1.00  0.00    -0.237 OA
ATOM     73  O   UNL A   1      48.200  25.881  22.920  1.00  0.00    -0.744 OA
ENDBRANCH  67  70
ENDBRANCH  49  63
BRANCH  50  74
ATOM     74  C   UNL A   1      38.479  30.581  30.815  1.00  0.00     0.023 A 
ATOM     75  C   UNL A   1      38.254  30.258  32.168  1.00  0.00     0.012 A 
ATOM     76  C   UNL A   1      37.483  31.272  30.099  1.00  0.00     0.148 A 
ATOM     77  C   UNL A   1      37.052  30.598  32.789  1.00  0.00     0.002 A 
ATOM     78  C   UNL A   1      36.313  31.662  30.741  1.00  0.00     0.091 A 
ATOM     79  F   UNL A   1      37.713  31.561  28.811  1.00  0.00    -0.205 F 
ATOM     80  C   UNL A   1      36.088  31.311  32.082  1.00  0.00     0.022 A 
BRANCH  78  81
ATOM     81  S   UNL A   1      35.080  32.704  29.954  1.00  0.00     0.127 S 
ATOM     82  O   UNL A   1      34.530  31.806  28.941  1.00  0.00    -0.237 OA
ATOM     83  O   UNL A   1      34.181  33.000  31.070  1.00  0.00    -0.237 OA
ATOM     84  O   UNL A   1      35.805  33.861  29.444  1.00  0.00    -0.744 OA
ENDBRANCH  78  81
ENDBRANCH  50  74
BRANCH  62  85
ATOM     85  C   UNL A   1      44.414  34.132  29.708  1.00  0.00     0.023 A 
ATOM     86  C   UNL A   1      45.058  34.419  30.928  1.00  0.00     0.012 A 
ATOM     87  C   UNL A   1      44.303  35.141  28.730  1.00  0.00     0.148 A 
ATOM     88  C   UNL A   1      45.566  35.693  31.177  1.00  0.00     0.002 A 
ATOM     89  C   UNL A   1      44.859  36.392  28.964  1.00  0.00     0.091 A 
ATOM     90  F   UNL A   1      43.674  34.850  27.581  1.00  0.00    -0.205 F 
ATOM     91  C   UNL A   1      45.482  36.674  30.190  1.00  0.00     0.022 A 
BRANCH  89  92
ATOM     92  S   UNL A   1      44.897  37.683  27.714  1.00  0.00     0.127 S 
ATOM     93  O   UNL A   1      45.501  38.793  28.451  1.00  0.00    -0.237 OA
ATOM     94  O   UNL A   1      45.756  37.093  26.687  1.00  0.00    -0.237 OA
ATOM     95  O   UNL A   1      43.514  37.889  27.304  1.00  0.00    -0.744 OA
ENDBRANCH  89  92
ENDBRANCH  62  85
ENDBRANCH  36  37
ENDBRANCH  28  31
ENDBRANCH  26  27
ENDBRANCH  25  26
ENDBRANCH   1  25
TORSDOF 18
ENDMDL
MODEL 3
REMARK VINA RESULT:     -11.9      5.164      9.950
REMARK SMILES O=C(CSc1nnc(-c2cccc(C(F)(F)F)c2F)o1)NCCCCNC(=O)c1ccc(-c2c3nc(c(-c4cccc(S(=O)(=O)[O-])c4F)c4ccc([nH]4)c(-c4cccc(S(=O)(=O)[O-])c4F)c4nc(c(-c5cccc(S(=O)(=O)[O-])c5F)c5ccc2[nH]5)C=C4)C=C3)cc1
REMARK SMILES IDX 23 1 22 2 21 3 1 4 2 5 3 7 4 8 5 9 6 10 20 11 7 12 8 13 9 14
REMARK SMILES IDX 10 15 18 16 11 17 13 18 19 19 12 20 14 21 15 22 16 23 17 24
REMARK SMILES IDX 24 25 25 26 26 27 27 28 28 30 29 31 30 32 91 33 31 34 90 35
REMARK SMILES IDX 32 36 33 37 34 38 84 39 35 40 89 41 83 42 85 43 36 44 88 45
REMARK SMILES IDX 82 46 81 47 37 49 69 50 49 51 68 52 50 53 53 54 67 55 86 56
REMARK SMILES IDX 51 57 52 58 66 60 87 61 54 62 38 63 39 64 47 65 40 66 42 67
REMARK SMILES IDX 48 68 41 69 43 70 44 71 45 72 46 73 70 74 71 75 79 76 72 77
REMARK SMILES IDX 74 78 80 79 73 80 75 81 76 82 77 83 78 84 55 85 56 86 64 87
REMARK SMILES IDX 57 88 59 89 65 90 58 91 60 92 61 93 62 94 63 95
REMARK H PARENT 21 6 26 29 85 48 53 59
REMARK Flexibility Score: inf
ROOT
ATOM      1  C   UNL A   1      36.281  22.882  23.263  1.00  0.00     0.023 C 
ENDROOT
BRANCH   1   2
ATOM      2  C   UNL A   1      34.760  23.002  23.182  1.00  0.00     0.116 C 
BRANCH   2   3
ATOM      3  N   UNL A   1      34.090  22.385  24.309  1.00  0.00    -0.355 N 
ATOM      4  O   UNL A   1      32.547  21.235  23.060  1.00  0.00    -0.274 OA
ATOM      5  C   UNL A   1      33.047  21.493  24.153  1.00  0.00     0.230 C 
ATOM      6  H   UNL A   1      34.388  22.610  25.219  1.00  0.00     0.163 HD
BRANCH   5   7
ATOM      7  C   UNL A   1      32.474  20.930  25.444  1.00  0.00     0.179 C 
BRANCH   7   8
ATOM      8  S   UNL A   1      32.810  21.978  26.888  1.00  0.00    -0.055 SA
BRANCH   8   9
ATOM      9  C   UNL A   1      31.673  23.269  26.650  1.00  0.00     0.277 A 
ATOM     10  N   UNL A   1      30.488  23.354  27.218  1.00  0.00    -0.101 NA
ATOM     11  O   UNL A   1      31.948  24.354  25.858  1.00  0.00    -0.411 OA
ATOM     12  N   UNL A   1      29.950  24.565  26.838  1.00  0.00    -0.107 NA
ATOM     13  C   UNL A   1      30.826  25.117  26.026  1.00  0.00     0.251 A 
BRANCH  13  14
ATOM     14  C   UNL A   1      30.817  26.425  25.407  1.00  0.00     0.075 A 
ATOM     15  C   UNL A   1      30.240  26.588  24.139  1.00  0.00     0.017 A 
ATOM     16  C   UNL A   1      31.400  27.532  26.035  1.00  0.00     0.148 A 
ATOM     17  C   UNL A   1      30.228  27.838  23.523  1.00  0.00     0.002 A 
ATOM     18  C   UNL A   1      31.416  28.787  25.423  1.00  0.00     0.092 A 
ATOM     19  F   UNL A   1      31.984  27.372  27.231  1.00  0.00    -0.205 F 
ATOM     20  C   UNL A   1      30.813  28.931  24.161  1.00  0.00     0.016 A 
BRANCH  18  21
ATOM     21  C   UNL A   1      32.082  29.966  26.071  1.00  0.00     0.419 C 
ATOM     22  F   UNL A   1      31.993  29.907  27.432  1.00  0.00    -0.166 F 
ATOM     23  F   UNL A   1      33.414  30.019  25.797  1.00  0.00    -0.166 F 
ATOM     24  F   UNL A   1      31.580  31.181  25.726  1.00  0.00    -0.166 F 
ENDBRANCH  18  21
ENDBRANCH  13  14
ENDBRANCH   8   9
ENDBRANCH   7   8
ENDBRANCH   5   7
ENDBRANCH   2   3
ENDBRANCH   1   2
BRANCH   1  25
ATOM     25  C   UNL A   1      36.934  23.631  24.426  1.00  0.00     0.023 C 
BRANCH  25  26
ATOM     26  C   UNL A   1      36.862  22.940  25.785  1.00  0.00     0.116 C 
BRANCH  26  27
ATOM     27  N   UNL A   1      38.028  22.120  26.073  1.00  0.00    -0.352 N 
ATOM     28  C   UNL A   1      39.271  22.499  26.524  1.00  0.00     0.251 C 
ATOM     29  H   UNL A   1      37.912  21.154  25.923  1.00  0.00     0.163 HD
ATOM     30  O   UNL A   1      40.175  21.667  26.587  1.00  0.00    -0.269 OA
BRANCH  28  31
ATOM     31  C   UNL A   1      39.535  23.905  26.907  1.00  0.00     0.039 A 
ATOM     32  C   UNL A   1      39.305  24.300  28.228  1.00  0.00     0.014 A 
ATOM     33  C   UNL A   1      40.007  24.834  25.976  1.00  0.00     0.014 A 
ATOM     34  C   UNL A   1      39.617  25.602  28.630  1.00  0.00     0.010 A 
ATOM     35  C   UNL A   1      40.388  26.108  26.395  1.00  0.00     0.010 A 
ATOM     36  C   UNL A   1      40.200  26.507  27.727  1.00  0.00    -0.014 A 
BRANCH  36  37
ATOM     37  C   UNL A   1      40.643  27.858  28.164  1.00  0.00     0.031 A 
ATOM     38  C   UNL A   1      42.105  28.218  28.178  1.00  0.00     0.074 A 
ATOM     39  C   UNL A   1      39.733  28.741  28.626  1.00  0.00     0.049 A 
ATOM     40  N   UNL A   1      42.675  29.323  28.585  1.00  0.00    -0.248 NA
ATOM     41  C   UNL A   1      43.052  27.199  27.697  1.00  0.00     0.031 C 
ATOM     42  C   UNL A   1      38.293  28.493  28.727  1.00  0.00     0.029 A 
ATOM     43  N   UNL A   1      39.884  30.015  29.118  1.00  0.00    -0.354 N 
ATOM     44  C   UNL A   1      44.043  29.123  28.438  1.00  0.00     0.074 A 
ATOM     45  C   UNL A   1      44.221  27.778  27.935  1.00  0.00     0.031 C 
ATOM     46  C   UNL A   1      37.694  29.581  29.235  1.00  0.00     0.029 A 
ATOM     47  C   UNL A   1      38.705  30.590  29.535  1.00  0.00     0.049 A 
ATOM     48  H   UNL A   1      40.754  30.473  29.169  1.00  0.00     0.167 HD
ATOM     49  C   UNL A   1      45.057  29.989  28.672  1.00  0.00     0.034 A 
ATOM     50  C   UNL A   1      38.462  31.789  30.101  1.00  0.00     0.034 A 
ATOM     51  C   UNL A   1      44.876  31.341  29.129  1.00  0.00     0.049 A 
ATOM     52  C   UNL A   1      39.604  32.741  30.330  1.00  0.00     0.074 A 
ATOM     53  C   UNL A   1      45.839  32.317  29.313  1.00  0.00     0.029 A 
ATOM     54  N   UNL A   1      43.661  31.908  29.478  1.00  0.00    -0.354 N 
ATOM     55  N   UNL A   1      40.876  32.582  30.054  1.00  0.00    -0.248 NA
ATOM     56  C   UNL A   1      39.279  34.050  30.918  1.00  0.00     0.031 C 
ATOM     57  C   UNL A   1      45.212  33.463  29.807  1.00  0.00     0.029 A 
ATOM     58  C   UNL A   1      43.851  33.215  29.891  1.00  0.00     0.049 A 
ATOM     59  H   UNL A   1      42.791  31.448  29.439  1.00  0.00     0.167 HD
ATOM     60  C   UNL A   1      41.495  33.777  30.401  1.00  0.00     0.074 A 
ATOM     61  C   UNL A   1      40.457  34.659  30.893  1.00  0.00     0.031 C 
ATOM     62  C   UNL A   1      42.808  34.106  30.329  1.00  0.00     0.034 A 
BRANCH  49  63
ATOM     63  C   UNL A   1      46.465  29.532  28.385  1.00  0.00     0.023 A 
ATOM     64  C   UNL A   1      47.161  30.077  27.288  1.00  0.00     0.012 A 
ATOM     65  C   UNL A   1      47.133  28.656  29.263  1.00  0.00     0.148 A 
ATOM     66  C   UNL A   1      48.494  29.742  27.056  1.00  0.00     0.002 A 
ATOM     67  C   UNL A   1      48.477  28.365  29.053  1.00  0.00     0.091 A 
ATOM     68  F   UNL A   1      46.448  28.135  30.290  1.00  0.00    -0.205 F 
ATOM     69  C   UNL A   1      49.155  28.900  27.945  1.00  0.00     0.022 A 
BRANCH  67  70
ATOM     70  S   UNL A   1      49.444  27.363  30.187  1.00  0.00     0.127 S 
ATOM     71  O   UNL A   1      49.316  28.123  31.432  1.00  0.00    -0.237 OA
ATOM     72  O   UNL A   1      48.717  26.094  30.171  1.00  0.00    -0.237 OA
ATOM     73  O   UNL A   1      50.788  27.307  29.631  1.00  0.00    -0.744 OA
ENDBRANCH  67  70
ENDBRANCH  49  63
BRANCH  50  74
ATOM     74  C   UNL A   1      37.060  32.178  30.429  1.00  0.00     0.023 A 
ATOM     75  C   UNL A   1      36.581  31.995  31.741  1.00  0.00     0.012 A 
ATOM     76  C   UNL A   1      36.220  32.776  29.470  1.00  0.00     0.148 A 
ATOM     77  C   UNL A   1      35.286  32.382  32.086  1.00  0.00     0.002 A 
ATOM     78  C   UNL A   1      34.953  33.214  29.835  1.00  0.00     0.091 A 
ATOM     79  F   UNL A   1      36.690  32.931  28.224  1.00  0.00    -0.205 F 
ATOM     80  C   UNL A   1      34.477  33.003  31.139  1.00  0.00     0.022 A 
BRANCH  78  81
ATOM     81  S   UNL A   1      33.896  34.150  28.724  1.00  0.00     0.127 S 
ATOM     82  O   UNL A   1      33.372  33.101  27.853  1.00  0.00    -0.237 OA
ATOM     83  O   UNL A   1      32.922  34.726  29.652  1.00  0.00    -0.237 OA
ATOM     84  O   UNL A   1      34.765  35.128  28.081  1.00  0.00    -0.744 OA
ENDBRANCH  78  81
ENDBRANCH  50  74
BRANCH  62  85
ATOM     85  C   UNL A   1      43.222  35.490  30.758  1.00  0.00     0.023 A 
ATOM     86  C   UNL A   1      43.713  35.703  32.061  1.00  0.00     0.012 A 
ATOM     87  C   UNL A   1      43.243  36.550  29.828  1.00  0.00     0.148 A 
ATOM     88  C   UNL A   1      44.201  36.954  32.438  1.00  0.00     0.002 A 
ATOM     89  C   UNL A   1      43.780  37.778  30.195  1.00  0.00     0.091 A 
ATOM     90  F   UNL A   1      42.758  36.330  28.597  1.00  0.00    -0.205 F 
ATOM     91  C   UNL A   1      44.250  37.985  31.502  1.00  0.00     0.022 A 
BRANCH  89  92
ATOM     92  S   UNL A   1      43.987  39.131  29.029  1.00  0.00     0.127 S 
ATOM     93  O   UNL A   1      42.607  39.368  28.603  1.00  0.00    -0.237 OA
ATOM     94  O   UNL A   1      44.554  40.182  29.874  1.00  0.00    -0.237 OA
ATOM     95  O   UNL A   1      44.881  38.636  27.992  1.00  0.00    -0.744 OA
ENDBRANCH  89  92
ENDBRANCH  62  85
ENDBRANCH  36  37
ENDBRANCH  28  31
ENDBRANCH  26  27
ENDBRANCH  25  26
ENDBRANCH   1  25
TORSDOF 18
ENDMDL
