MODEL 1
REMARK VINA RESULT:     -12.2      0.000      0.000
REMARK SMILES O=C(NCCCCNC(=O)c1cc(Cl)c2c(c1)[C@H]1C=CC[C@H]1[C@H](c1ccc(S(=O)(=O)N3CCOCC3)cc1)N2)c1ccc(-c2c3nc(c(-c4cccc(S(=O)(=O)[O-])c4F)c4ccc([nH]4)c(-c4cccc(S(=O)(=O)[O-])c4F)c4nc(c(-c5cccc(S(=O)(=O)[O-])c5F)c5ccc2[nH]5)C=C4)C=C3)cc1
REMARK SMILES IDX 5 1 4 2 3 3 1 4 2 5 40 7 41 8 102 9 42 10 101 11 43 12 44 13
REMARK SMILES IDX 45 14 95 15 46 16 100 17 94 18 96 19 47 20 99 21 93 22 92 23
REMARK SMILES IDX 48 25 80 26 60 27 79 28 61 29 64 30 78 31 97 32 62 33 63 34
REMARK SMILES IDX 77 36 98 37 65 38 49 39 50 40 58 41 51 42 53 43 59 44 52 45
REMARK SMILES IDX 54 46 55 47 56 48 57 49 81 50 82 51 90 52 83 53 85 54 91 55
REMARK SMILES IDX 84 56 86 57 87 58 88 59 89 60 66 61 67 62 75 63 68 64 70 65
REMARK SMILES IDX 76 66 69 67 71 68 72 69 73 70 74 71 6 72 7 73 8 74 9 75
REMARK SMILES IDX 10 77 11 78 12 79 17 80 13 81 16 82 14 83 15 84 18 85 39 86
REMARK SMILES IDX 19 87 22 88 23 89 20 91 21 92 24 93 25 94 38 95 26 96 37 97
REMARK SMILES IDX 27 98 28 99 29 100 30 101 31 102 32 103 36 104 33 105 35 106
REMARK SMILES IDX 34 107
REMARK H PARENT 3 6 96 24 64 35 8 76 39 90
REMARK Flexibility Score: inf
ROOT
ATOM      1  C   UNL A   1      36.524  33.376  32.878  1.00  0.00     0.023 C 
ENDROOT
BRANCH   1   2
ATOM      2  C   UNL A   1      37.386  32.387  33.654  1.00  0.00     0.116 C 
BRANCH   2   3
ATOM      3  N   UNL A   1      36.985  31.005  33.445  1.00  0.00    -0.352 N 
ATOM      4  O   UNL A   1      37.037  28.968  32.471  1.00  0.00    -0.269 OA
ATOM      5  C   UNL A   1      37.572  30.058  32.639  1.00  0.00     0.251 C 
ATOM      6  H   UNL A   1      36.190  30.709  33.946  1.00  0.00     0.163 HD
BRANCH   5   7
ATOM      7  C   UNL A   1      38.837  30.393  31.954  1.00  0.00     0.039 A 
ATOM      8  C   UNL A   1      40.029  30.479  32.680  1.00  0.00     0.014 A 
ATOM      9  C   UNL A   1      38.811  30.684  30.589  1.00  0.00     0.014 A 
ATOM     10  C   UNL A   1      41.172  30.979  32.064  1.00  0.00     0.010 A 
ATOM     11  C   UNL A   1      39.972  31.141  29.963  1.00  0.00     0.010 A 
ATOM     12  C   UNL A   1      41.147  31.331  30.706  1.00  0.00    -0.014 A 
BRANCH  12  13
ATOM     13  C   UNL A   1      42.360  31.897  30.069  1.00  0.00     0.031 A 
ATOM     14  C   UNL A   1      43.490  31.002  29.643  1.00  0.00     0.074 A 
ATOM     15  C   UNL A   1      42.434  33.226  29.866  1.00  0.00     0.049 A 
ATOM     16  N   UNL A   1      44.614  31.324  29.057  1.00  0.00    -0.248 NA
ATOM     17  C   UNL A   1      43.341  29.560  29.903  1.00  0.00     0.031 C 
ATOM     18  C   UNL A   1      41.406  34.194  30.253  1.00  0.00     0.029 A 
ATOM     19  N   UNL A   1      43.417  33.989  29.292  1.00  0.00    -0.354 N 
ATOM     20  C   UNL A   1      45.316  30.136  28.898  1.00  0.00     0.074 A 
ATOM     21  C   UNL A   1      44.496  29.083  29.456  1.00  0.00     0.031 C 
ATOM     22  C   UNL A   1      41.809  35.423  29.896  1.00  0.00     0.029 A 
ATOM     23  C   UNL A   1      43.132  35.333  29.286  1.00  0.00     0.049 A 
ATOM     24  H   UNL A   1      44.246  33.611  28.920  1.00  0.00     0.167 HD
ATOM     25  C   UNL A   1      46.523  29.940  28.319  1.00  0.00     0.034 A 
ATOM     26  C   UNL A   1      43.857  36.378  28.845  1.00  0.00     0.034 A 
ATOM     27  C   UNL A   1      47.322  30.982  27.732  1.00  0.00     0.049 A 
ATOM     28  C   UNL A   1      45.200  36.133  28.220  1.00  0.00     0.074 A 
ATOM     29  C   UNL A   1      48.533  30.865  27.075  1.00  0.00     0.029 A 
ATOM     30  N   UNL A   1      46.994  32.327  27.737  1.00  0.00    -0.354 N 
ATOM     31  N   UNL A   1      45.800  34.991  27.985  1.00  0.00    -0.248 NA
ATOM     32  C   UNL A   1      45.960  37.314  27.785  1.00  0.00     0.031 C 
ATOM     33  C   UNL A   1      48.943  32.144  26.687  1.00  0.00     0.029 A 
ATOM     34  C   UNL A   1      47.985  33.055  27.101  1.00  0.00     0.049 A 
ATOM     35  H   UNL A   1      46.178  32.710  28.133  1.00  0.00     0.167 HD
ATOM     36  C   UNL A   1      46.998  35.313  27.363  1.00  0.00     0.074 A 
ATOM     37  C   UNL A   1      47.033  36.756  27.240  1.00  0.00     0.031 C 
ATOM     38  C   UNL A   1      47.989  34.487  26.948  1.00  0.00     0.034 A 
BRANCH  25  39
ATOM     39  C   UNL A   1      47.043  28.532  28.229  1.00  0.00     0.023 A 
ATOM     40  C   UNL A   1      47.916  28.063  29.230  1.00  0.00     0.012 A 
ATOM     41  C   UNL A   1      46.593  27.651  27.227  1.00  0.00     0.148 A 
ATOM     42  C   UNL A   1      48.339  26.734  29.234  1.00  0.00     0.002 A 
ATOM     43  C   UNL A   1      46.999  26.322  27.252  1.00  0.00     0.091 A 
ATOM     44  F   UNL A   1      45.773  28.128  26.280  1.00  0.00    -0.205 F 
ATOM     45  C   UNL A   1      47.873  25.863  28.252  1.00  0.00     0.022 A 
BRANCH  43  46
ATOM     46  S   UNL A   1      46.424  25.104  26.064  1.00  0.00     0.127 S 
ATOM     47  O   UNL A   1      47.192  23.923  26.457  1.00  0.00    -0.237 OA
ATOM     48  O   UNL A   1      44.994  25.031  26.368  1.00  0.00    -0.237 OA
ATOM     49  O   UNL A   1      46.744  25.639  24.749  1.00  0.00    -0.744 OA
ENDBRANCH  43  46
ENDBRANCH  25  39
BRANCH  26  50
ATOM     50  C   UNL A   1      43.287  37.748  28.938  1.00  0.00     0.023 A 
ATOM     51  C   UNL A   1      43.566  38.531  30.073  1.00  0.00     0.012 A 
ATOM     52  C   UNL A   1      42.538  38.299  27.881  1.00  0.00     0.148 A 
ATOM     53  C   UNL A   1      43.102  39.843  30.157  1.00  0.00     0.002 A 
ATOM     54  C   UNL A   1      42.113  39.620  27.954  1.00  0.00     0.091 A 
ATOM     55  F   UNL A   1      42.286  37.527  26.814  1.00  0.00    -0.205 F 
ATOM     56  C   UNL A   1      42.385  40.390  29.095  1.00  0.00     0.022 A 
BRANCH  54  57
ATOM     57  S   UNL A   1      41.274  40.444  26.597  1.00  0.00     0.127 S 
ATOM     58  O   UNL A   1      42.372  41.174  25.967  1.00  0.00    -0.237 OA
ATOM     59  O   UNL A   1      40.767  39.308  25.827  1.00  0.00    -0.237 OA
ATOM     60  O   UNL A   1      40.243  41.271  27.210  1.00  0.00    -0.744 OA
ENDBRANCH  54  57
ENDBRANCH  26  50
BRANCH  38  61
ATOM     61  C   UNL A   1      49.208  35.106  26.324  1.00  0.00     0.023 A 
ATOM     62  C   UNL A   1      49.170  35.474  24.967  1.00  0.00     0.012 A 
ATOM     63  C   UNL A   1      50.335  35.431  27.103  1.00  0.00     0.148 A 
ATOM     64  C   UNL A   1      50.241  36.153  24.389  1.00  0.00     0.002 A 
ATOM     65  C   UNL A   1      51.385  36.136  26.529  1.00  0.00     0.091 A 
ATOM     66  F   UNL A   1      50.348  35.059  28.393  1.00  0.00    -0.205 F 
ATOM     67  C   UNL A   1      51.342  36.494  25.171  1.00  0.00     0.022 A 
BRANCH  65  68
ATOM     68  S   UNL A   1      52.813  36.686  27.472  1.00  0.00     0.127 S 
ATOM     69  O   UNL A   1      53.574  37.415  26.458  1.00  0.00    -0.237 OA
ATOM     70  O   UNL A   1      52.199  37.529  28.498  1.00  0.00    -0.237 OA
ATOM     71  O   UNL A   1      53.451  35.479  27.978  1.00  0.00    -0.744 OA
ENDBRANCH  65  68
ENDBRANCH  38  61
ENDBRANCH  12  13
ENDBRANCH   5   7
ENDBRANCH   2   3
ENDBRANCH   1   2
BRANCH   1  72
ATOM     72  C   UNL A   1      35.023  33.098  32.917  1.00  0.00     0.023 C 
BRANCH  72  73
ATOM     73  C   UNL A   1      34.407  32.697  31.580  1.00  0.00     0.116 C 
BRANCH  73  74
ATOM     74  N   UNL A   1      34.297  33.815  30.654  1.00  0.00    -0.352 N 
ATOM     75  C   UNL A   1      34.344  33.797  29.283  1.00  0.00     0.251 C 
ATOM     76  H   UNL A   1      34.173  34.700  31.066  1.00  0.00     0.163 HD
ATOM     77  O   UNL A   1      34.358  34.831  28.626  1.00  0.00    -0.269 OA
BRANCH  75  78
ATOM     78  C   UNL A   1      34.425  32.497  28.602  1.00  0.00     0.041 A 
ATOM     79  C   UNL A   1      35.647  31.842  28.466  1.00  0.00     0.036 A 
ATOM     80  C   UNL A   1      33.260  31.961  28.056  1.00  0.00     0.020 A 
ATOM     81  C   UNL A   1      35.713  30.703  27.672  1.00  0.00     0.065 A 
ATOM     82  C   UNL A   1      33.325  30.794  27.281  1.00  0.00    -0.015 A 
ATOM     83  Cl  UNL A   1      37.259  29.959  27.441  1.00  0.00    -0.082 Cl
ATOM     84  C   UNL A   1      34.566  30.190  27.031  1.00  0.00     0.057 A 
ATOM     85  C   UNL A   1      32.050  30.196  26.759  1.00  0.00     0.049 C 
ATOM     86  N   UNL A   1      34.648  29.062  26.226  1.00  0.00    -0.376 N 
ATOM     87  C   UNL A   1      31.382  30.975  25.655  1.00  0.00    -0.023 C 
ATOM     88  C   UNL A   1      32.197  28.798  26.121  1.00  0.00     0.031 C 
ATOM     89  C   UNL A   1      33.543  28.701  25.355  1.00  0.00     0.114 C 
ATOM     90  H   UNL A   1      35.460  28.505  26.245  1.00  0.00     0.161 HD
ATOM     91  C   UNL A   1      30.757  30.152  24.805  1.00  0.00    -0.030 C 
ATOM     92  C   UNL A   1      30.943  28.728  25.223  1.00  0.00     0.034 C 
BRANCH  89  93
ATOM     93  C   UNL A   1      33.795  27.309  24.786  1.00  0.00    -0.025 A 
ATOM     94  C   UNL A   1      34.197  26.208  25.569  1.00  0.00     0.007 A 
ATOM     95  C   UNL A   1      33.603  27.107  23.417  1.00  0.00     0.007 A 
ATOM     96  C   UNL A   1      34.377  24.941  24.998  1.00  0.00     0.022 A 
ATOM     97  C   UNL A   1      33.733  25.842  22.862  1.00  0.00     0.022 A 
ATOM     98  C   UNL A   1      34.121  24.759  23.639  1.00  0.00     0.082 A 
BRANCH  98  99
ATOM     99  S   UNL A   1      34.273  23.135  22.931  1.00  0.00     0.243 S 
ATOM    100  O   UNL A   1      33.243  23.034  21.915  1.00  0.00    -0.207 OA
ATOM    101  O   UNL A   1      35.671  22.951  22.619  1.00  0.00    -0.207 OA
BRANCH  99 102
ATOM    102  N   UNL A   1      33.883  22.074  24.172  1.00  0.00    -0.193 NA
ATOM    103  C   UNL A   1      34.909  21.316  24.919  1.00  0.00     0.131 C 
ATOM    104  C   UNL A   1      32.486  21.787  24.539  1.00  0.00     0.131 C 
ATOM    105  C   UNL A   1      34.530  19.832  25.073  1.00  0.00     0.177 C 
ATOM    106  C   UNL A   1      32.250  20.278  24.594  1.00  0.00     0.177 C 
ATOM    107  O   UNL A   1      33.172  19.642  25.491  1.00  0.00    -0.379 OA
ENDBRANCH  99 102
ENDBRANCH  98  99
ENDBRANCH  89  93
ENDBRANCH  75  78
ENDBRANCH  73  74
ENDBRANCH  72  73
ENDBRANCH   1  72
TORSDOF 17
ENDMDL
MODEL 2
REMARK VINA RESULT:     -11.7      1.358      1.714
REMARK SMILES O=C(NCCCCNC(=O)c1cc(Cl)c2c(c1)[C@H]1C=CC[C@H]1[C@H](c1ccc(S(=O)(=O)N3CCOCC3)cc1)N2)c1ccc(-c2c3nc(c(-c4cccc(S(=O)(=O)[O-])c4F)c4ccc([nH]4)c(-c4cccc(S(=O)(=O)[O-])c4F)c4nc(c(-c5cccc(S(=O)(=O)[O-])c5F)c5ccc2[nH]5)C=C4)C=C3)cc1
REMARK SMILES IDX 5 1 4 2 3 3 1 4 2 5 40 7 41 8 102 9 42 10 101 11 43 12 44 13
REMARK SMILES IDX 45 14 95 15 46 16 100 17 94 18 96 19 47 20 99 21 93 22 92 23
REMARK SMILES IDX 48 25 80 26 60 27 79 28 61 29 64 30 78 31 97 32 62 33 63 34
REMARK SMILES IDX 77 36 98 37 65 38 49 39 50 40 58 41 51 42 53 43 59 44 52 45
REMARK SMILES IDX 54 46 55 47 56 48 57 49 81 50 82 51 90 52 83 53 85 54 91 55
REMARK SMILES IDX 84 56 86 57 87 58 88 59 89 60 66 61 67 62 75 63 68 64 70 65
REMARK SMILES IDX 76 66 69 67 71 68 72 69 73 70 74 71 6 72 7 73 8 74 9 75
REMARK SMILES IDX 10 77 11 78 12 79 17 80 13 81 16 82 14 83 15 84 18 85 39 86
REMARK SMILES IDX 19 87 22 88 23 89 20 91 21 92 24 93 25 94 38 95 26 96 37 97
REMARK SMILES IDX 27 98 28 99 29 100 30 101 31 102 32 103 36 104 33 105 35 106
REMARK SMILES IDX 34 107
REMARK H PARENT 3 6 96 24 64 35 8 76 39 90
REMARK Flexibility Score: inf
ROOT
ATOM      1  C   UNL A   1      37.006  33.033  32.210  1.00  0.00     0.023 C 
ENDROOT
BRANCH   1   2
ATOM      2  C   UNL A   1      37.763  32.289  33.302  1.00  0.00     0.116 C 
BRANCH   2   3
ATOM      3  N   UNL A   1      37.552  30.851  33.256  1.00  0.00    -0.352 N 
ATOM      4  O   UNL A   1      37.918  28.735  32.558  1.00  0.00    -0.269 OA
ATOM      5  C   UNL A   1      38.301  29.898  32.609  1.00  0.00     0.251 C 
ATOM      6  H   UNL A   1      36.770  30.517  33.753  1.00  0.00     0.163 HD
BRANCH   5   7
ATOM      7  C   UNL A   1      39.556  30.310  31.946  1.00  0.00     0.039 A 
ATOM      8  C   UNL A   1      40.664  30.688  32.710  1.00  0.00     0.014 A 
ATOM      9  C   UNL A   1      39.595  30.376  30.552  1.00  0.00     0.014 A 
ATOM     10  C   UNL A   1      41.769  31.254  32.082  1.00  0.00     0.010 A 
ATOM     11  C   UNL A   1      40.725  30.899  29.922  1.00  0.00     0.010 A 
ATOM     12  C   UNL A   1      41.800  31.380  30.684  1.00  0.00    -0.014 A 
BRANCH  12  13
ATOM     13  C   UNL A   1      42.967  32.017  30.028  1.00  0.00     0.031 A 
ATOM     14  C   UNL A   1      44.214  31.226  29.747  1.00  0.00     0.074 A 
ATOM     15  C   UNL A   1      42.893  33.314  29.676  1.00  0.00     0.049 A 
ATOM     16  N   UNL A   1      45.319  31.617  29.168  1.00  0.00    -0.248 NA
ATOM     17  C   UNL A   1      44.225  29.815  30.168  1.00  0.00     0.031 C 
ATOM     18  C   UNL A   1      41.740  34.185  29.912  1.00  0.00     0.029 A 
ATOM     19  N   UNL A   1      43.805  34.124  29.051  1.00  0.00    -0.354 N 
ATOM     20  C   UNL A   1      46.163  30.514  29.172  1.00  0.00     0.074 A 
ATOM     21  C   UNL A   1      45.448  29.436  29.819  1.00  0.00     0.031 C 
ATOM     22  C   UNL A   1      42.011  35.407  29.429  1.00  0.00     0.029 A 
ATOM     23  C   UNL A   1      43.364  35.414  28.879  1.00  0.00     0.049 A 
ATOM     24  H   UNL A   1      44.690  33.812  28.754  1.00  0.00     0.167 HD
ATOM     25  C   UNL A   1      47.411  30.405  28.660  1.00  0.00     0.034 A 
ATOM     26  C   UNL A   1      43.980  36.485  28.345  1.00  0.00     0.034 A 
ATOM     27  C   UNL A   1      48.108  31.466  27.985  1.00  0.00     0.049 A 
ATOM     28  C   UNL A   1      45.371  36.340  27.800  1.00  0.00     0.074 A 
ATOM     29  C   UNL A   1      49.355  31.427  27.387  1.00  0.00     0.029 A 
ATOM     30  N   UNL A   1      47.624  32.753  27.822  1.00  0.00    -0.354 N 
ATOM     31  N   UNL A   1      46.112  35.261  27.719  1.00  0.00    -0.248 NA
ATOM     32  C   UNL A   1      46.006  37.549  27.257  1.00  0.00     0.031 C 
ATOM     33  C   UNL A   1      49.629  32.696  26.868  1.00  0.00     0.029 A 
ATOM     34  C   UNL A   1      48.551  33.522  27.140  1.00  0.00     0.049 A 
ATOM     35  H   UNL A   1      46.750  33.074  28.143  1.00  0.00     0.167 HD
ATOM     36  C   UNL A   1      47.293  35.657  27.105  1.00  0.00     0.074 A 
ATOM     37  C   UNL A   1      47.162  37.071  26.817  1.00  0.00     0.031 C 
ATOM     38  C   UNL A   1      48.393  34.918  26.823  1.00  0.00     0.034 A 
BRANCH  25  39
ATOM     39  C   UNL A   1      48.098  29.071  28.752  1.00  0.00     0.023 A 
ATOM     40  C   UNL A   1      48.856  28.772  29.901  1.00  0.00     0.012 A 
ATOM     41  C   UNL A   1      47.911  28.086  27.764  1.00  0.00     0.148 A 
ATOM     42  C   UNL A   1      49.424  27.509  30.065  1.00  0.00     0.002 A 
ATOM     43  C   UNL A   1      48.459  26.821  27.946  1.00  0.00     0.091 A 
ATOM     44  F   UNL A   1      47.195  28.401  26.675  1.00  0.00    -0.205 F 
ATOM     45  C   UNL A   1      49.217  26.533  29.094  1.00  0.00     0.022 A 
BRANCH  43  46
ATOM     46  S   UNL A   1      48.216  25.475  26.782  1.00  0.00     0.127 S 
ATOM     47  O   UNL A   1      48.989  24.402  27.407  1.00  0.00    -0.237 OA
ATOM     48  O   UNL A   1      46.766  25.289  26.826  1.00  0.00    -0.237 OA
ATOM     49  O   UNL A   1      48.735  25.946  25.506  1.00  0.00    -0.744 OA
ENDBRANCH  43  46
ENDBRANCH  25  39
BRANCH  26  50
ATOM     50  C   UNL A   1      43.248  37.776  28.259  1.00  0.00     0.023 A 
ATOM     51  C   UNL A   1      42.406  38.014  27.156  1.00  0.00     0.012 A 
ATOM     52  C   UNL A   1      43.324  38.727  29.293  1.00  0.00     0.148 A 
ATOM     53  C   UNL A   1      41.654  39.185  27.082  1.00  0.00     0.002 A 
ATOM     54  C   UNL A   1      42.541  39.874  29.232  1.00  0.00     0.091 A 
ATOM     55  F   UNL A   1      44.136  38.474  30.329  1.00  0.00    -0.205 F 
ATOM     56  C   UNL A   1      41.714  40.109  28.123  1.00  0.00     0.022 A 
BRANCH  54  57
ATOM     57  S   UNL A   1      42.471  41.072  30.568  1.00  0.00     0.127 S 
ATOM     58  O   UNL A   1      41.140  41.646  30.384  1.00  0.00    -0.237 OA
ATOM     59  O   UNL A   1      42.615  40.214  31.745  1.00  0.00    -0.237 OA
ATOM     60  O   UNL A   1      43.583  41.985  30.343  1.00  0.00    -0.744 OA
ENDBRANCH  54  57
ENDBRANCH  26  50
BRANCH  38  61
ATOM     61  C   UNL A   1      49.558  35.609  26.174  1.00  0.00     0.023 A 
ATOM     62  C   UNL A   1      49.730  35.500  24.781  1.00  0.00     0.012 A 
ATOM     63  C   UNL A   1      50.403  36.457  26.915  1.00  0.00     0.148 A 
ATOM     64  C   UNL A   1      50.732  36.220  24.134  1.00  0.00     0.002 A 
ATOM     65  C   UNL A   1      51.379  37.197  26.260  1.00  0.00     0.091 A 
ATOM     66  F   UNL A   1      50.222  36.535  28.243  1.00  0.00    -0.205 F 
ATOM     67  C   UNL A   1      51.548  37.076  24.870  1.00  0.00     0.022 A 
BRANCH  65  68
ATOM     68  S   UNL A   1      52.430  38.383  27.108  1.00  0.00     0.127 S 
ATOM     69  O   UNL A   1      51.443  39.305  27.668  1.00  0.00    -0.237 OA
ATOM     70  O   UNL A   1      53.110  37.543  28.094  1.00  0.00    -0.237 OA
ATOM     71  O   UNL A   1      53.301  38.951  26.088  1.00  0.00    -0.744 OA
ENDBRANCH  65  68
ENDBRANCH  38  61
ENDBRANCH  12  13
ENDBRANCH   5   7
ENDBRANCH   2   3
ENDBRANCH   1   2
BRANCH   1  72
ATOM     72  C   UNL A   1      37.867  33.549  31.059  1.00  0.00     0.023 C 
BRANCH  72  73
ATOM     73  C   UNL A   1      37.116  33.803  29.756  1.00  0.00     0.116 C 
BRANCH  73  74
ATOM     74  N   UNL A   1      35.760  34.284  29.973  1.00  0.00    -0.352 N 
ATOM     75  C   UNL A   1      34.579  33.739  29.536  1.00  0.00     0.251 C 
ATOM     76  H   UNL A   1      35.679  35.108  30.503  1.00  0.00     0.163 HD
ATOM     77  O   UNL A   1      33.508  34.314  29.691  1.00  0.00    -0.269 OA
BRANCH  75  78
ATOM     78  C   UNL A   1      34.621  32.452  28.826  1.00  0.00     0.041 A 
ATOM     79  C   UNL A   1      35.823  31.763  28.677  1.00  0.00     0.036 A 
ATOM     80  C   UNL A   1      33.443  31.964  28.267  1.00  0.00     0.020 A 
ATOM     81  C   UNL A   1      35.856  30.641  27.859  1.00  0.00     0.065 A 
ATOM     82  C   UNL A   1      33.473  30.813  27.467  1.00  0.00    -0.015 A 
ATOM     83  Cl  UNL A   1      37.380  29.855  27.615  1.00  0.00    -0.082 Cl
ATOM     84  C   UNL A   1      34.696  30.176  27.206  1.00  0.00     0.057 A 
ATOM     85  C   UNL A   1      32.182  30.265  26.930  1.00  0.00     0.049 C 
ATOM     86  N   UNL A   1      34.745  29.065  26.376  1.00  0.00    -0.376 N 
ATOM     87  C   UNL A   1      31.540  31.088  25.843  1.00  0.00    -0.023 C 
ATOM     88  C   UNL A   1      32.288  28.878  26.262  1.00  0.00     0.031 C 
ATOM     89  C   UNL A   1      33.631  28.756  25.496  1.00  0.00     0.114 C 
ATOM     90  H   UNL A   1      35.540  28.482  26.384  1.00  0.00     0.161 HD
ATOM     91  C   UNL A   1      30.892  30.303  24.974  1.00  0.00    -0.030 C 
ATOM     92  C   UNL A   1      31.034  28.865  25.361  1.00  0.00     0.034 C 
BRANCH  89  93
ATOM     93  C   UNL A   1      33.842  27.370  24.897  1.00  0.00    -0.025 A 
ATOM     94  C   UNL A   1      34.153  26.229  25.664  1.00  0.00     0.007 A 
ATOM     95  C   UNL A   1      33.706  27.217  23.515  1.00  0.00     0.007 A 
ATOM     96  C   UNL A   1      34.297  24.971  25.063  1.00  0.00     0.022 A 
ATOM     97  C   UNL A   1      33.801  25.963  22.929  1.00  0.00     0.022 A 
ATOM     98  C   UNL A   1      34.097  24.840  23.689  1.00  0.00     0.082 A 
BRANCH  98  99
ATOM     99  S   UNL A   1      34.204  23.231  22.940  1.00  0.00     0.243 S 
ATOM    100  O   UNL A   1      33.115  23.152  21.985  1.00  0.00    -0.207 OA
ATOM    101  O   UNL A   1      35.581  23.053  22.541  1.00  0.00    -0.207 OA
BRANCH  99 102
ATOM    102  N   UNL A   1      33.888  22.145  24.180  1.00  0.00    -0.193 NA
ATOM    103  C   UNL A   1      32.531  21.943  24.731  1.00  0.00     0.131 C 
ATOM    104  C   UNL A   1      34.962  21.380  24.835  1.00  0.00     0.131 C 
ATOM    105  C   UNL A   1      32.531  21.939  26.270  1.00  0.00     0.177 C 
ATOM    106  C   UNL A   1      34.863  21.520  26.355  1.00  0.00     0.177 C 
ATOM    107  O   UNL A   1      33.568  21.123  26.828  1.00  0.00    -0.379 OA
ENDBRANCH  99 102
ENDBRANCH  98  99
ENDBRANCH  89  93
ENDBRANCH  75  78
ENDBRANCH  73  74
ENDBRANCH  72  73
ENDBRANCH   1  72
TORSDOF 17
ENDMDL
MODEL 3
REMARK VINA RESULT:     -11.6      1.466      7.236
REMARK SMILES O=C(NCCCCNC(=O)c1cc(Cl)c2c(c1)[C@H]1C=CC[C@H]1[C@H](c1ccc(S(=O)(=O)N3CCOCC3)cc1)N2)c1ccc(-c2c3nc(c(-c4cccc(S(=O)(=O)[O-])c4F)c4ccc([nH]4)c(-c4cccc(S(=O)(=O)[O-])c4F)c4nc(c(-c5cccc(S(=O)(=O)[O-])c5F)c5ccc2[nH]5)C=C4)C=C3)cc1
REMARK SMILES IDX 5 1 4 2 3 3 1 4 2 5 40 7 41 8 102 9 42 10 101 11 43 12 44 13
REMARK SMILES IDX 45 14 95 15 46 16 100 17 94 18 96 19 47 20 99 21 93 22 92 23
REMARK SMILES IDX 48 25 80 26 60 27 79 28 61 29 64 30 78 31 97 32 62 33 63 34
REMARK SMILES IDX 77 36 98 37 65 38 49 39 50 40 58 41 51 42 53 43 59 44 52 45
REMARK SMILES IDX 54 46 55 47 56 48 57 49 81 50 82 51 90 52 83 53 85 54 91 55
REMARK SMILES IDX 84 56 86 57 87 58 88 59 89 60 66 61 67 62 75 63 68 64 70 65
REMARK SMILES IDX 76 66 69 67 71 68 72 69 73 70 74 71 6 72 7 73 8 74 9 75
REMARK SMILES IDX 10 77 11 78 12 79 17 80 13 81 16 82 14 83 15 84 18 85 39 86
REMARK SMILES IDX 19 87 22 88 23 89 20 91 21 92 24 93 25 94 38 95 26 96 37 97
REMARK SMILES IDX 27 98 28 99 29 100 30 101 31 102 32 103 36 104 33 105 35 106
REMARK SMILES IDX 34 107
REMARK H PARENT 3 6 96 24 64 35 8 76 39 90
REMARK Flexibility Score: inf
ROOT
ATOM      1  C   UNL A   1      36.885  33.305  32.563  1.00  0.00     0.023 C 
ENDROOT
BRANCH   1   2
ATOM      2  C   UNL A   1      37.999  32.561  33.290  1.00  0.00     0.116 C 
BRANCH   2   3
ATOM      3  N   UNL A   1      37.792  31.123  33.317  1.00  0.00    -0.352 N 
ATOM      4  O   UNL A   1      38.157  28.975  32.719  1.00  0.00    -0.269 OA
ATOM      5  C   UNL A   1      38.537  30.141  32.708  1.00  0.00     0.251 C 
ATOM      6  H   UNL A   1      37.017  30.811  33.839  1.00  0.00     0.163 HD
BRANCH   5   7
ATOM      7  C   UNL A   1      39.782  30.523  32.010  1.00  0.00     0.039 A 
ATOM      8  C   UNL A   1      40.916  30.885  32.744  1.00  0.00     0.014 A 
ATOM      9  C   UNL A   1      39.786  30.578  30.616  1.00  0.00     0.014 A 
ATOM     10  C   UNL A   1      42.015  31.424  32.084  1.00  0.00     0.010 A 
ATOM     11  C   UNL A   1      40.910  31.075  29.953  1.00  0.00     0.010 A 
ATOM     12  C   UNL A   1      42.013  31.540  30.685  1.00  0.00    -0.014 A 
BRANCH  12  13
ATOM     13  C   UNL A   1      43.176  32.149  29.994  1.00  0.00     0.031 A 
ATOM     14  C   UNL A   1      43.146  33.590  29.571  1.00  0.00     0.074 A 
ATOM     15  C   UNL A   1      44.267  31.396  29.760  1.00  0.00     0.049 A 
ATOM     16  N   UNL A   1      44.077  34.289  28.975  1.00  0.00    -0.248 NA
ATOM     17  C   UNL A   1      41.916  34.350  29.855  1.00  0.00     0.031 C 
ATOM     18  C   UNL A   1      44.403  29.981  30.111  1.00  0.00     0.029 A 
ATOM     19  N   UNL A   1      45.461  31.712  29.167  1.00  0.00    -0.354 N 
ATOM     20  C   UNL A   1      43.544  35.558  28.790  1.00  0.00     0.074 A 
ATOM     21  C   UNL A   1      42.202  35.536  29.331  1.00  0.00     0.031 C 
ATOM     22  C   UNL A   1      45.618  29.553  29.736  1.00  0.00     0.029 A 
ATOM     23  C   UNL A   1      46.332  30.653  29.091  1.00  0.00     0.049 A 
ATOM     24  H   UNL A   1      45.674  32.612  28.830  1.00  0.00     0.167 HD
ATOM     25  C   UNL A   1      44.129  36.647  28.242  1.00  0.00     0.034 A 
ATOM     26  C   UNL A   1      47.565  30.571  28.557  1.00  0.00     0.034 A 
ATOM     27  C   UNL A   1      45.475  36.680  27.737  1.00  0.00     0.049 A 
ATOM     28  C   UNL A   1      48.184  31.792  27.940  1.00  0.00     0.074 A 
ATOM     29  C   UNL A   1      46.168  37.757  27.213  1.00  0.00     0.029 A 
ATOM     30  N   UNL A   1      46.328  35.590  27.687  1.00  0.00    -0.354 N 
ATOM     31  N   UNL A   1      47.703  33.009  27.870  1.00  0.00    -0.248 NA
ATOM     32  C   UNL A   1      49.519  31.636  27.345  1.00  0.00     0.031 C 
ATOM     33  C   UNL A   1      47.441  37.315  26.839  1.00  0.00     0.029 A 
ATOM     34  C   UNL A   1      47.539  35.965  27.133  1.00  0.00     0.049 A 
ATOM     35  H   UNL A   1      46.106  34.683  28.000  1.00  0.00     0.167 HD
ATOM     36  C   UNL A   1      48.679  33.767  27.237  1.00  0.00     0.074 A 
ATOM     37  C   UNL A   1      49.788  32.877  26.961  1.00  0.00     0.031 C 
ATOM     38  C   UNL A   1      48.650  35.079  26.900  1.00  0.00     0.034 A 
BRANCH  25  39
ATOM     39  C   UNL A   1      43.344  37.929  28.207  1.00  0.00     0.023 A 
ATOM     40  C   UNL A   1      42.527  38.198  27.091  1.00  0.00     0.012 A 
ATOM     41  C   UNL A   1      43.329  38.806  29.308  1.00  0.00     0.148 A 
ATOM     42  C   UNL A   1      41.709  39.327  27.068  1.00  0.00     0.002 A 
ATOM     43  C   UNL A   1      42.492  39.916  29.289  1.00  0.00     0.091 A 
ATOM     44  F   UNL A   1      44.125  38.532  30.352  1.00  0.00    -0.205 F 
ATOM     45  C   UNL A   1      41.685  40.178  28.170  1.00  0.00     0.022 A 
BRANCH  43  46
ATOM     46  S   UNL A   1      42.348  41.053  30.672  1.00  0.00     0.127 S 
ATOM     47  O   UNL A   1      43.215  42.150  30.243  1.00  0.00    -0.237 OA
ATOM     48  O   UNL A   1      40.918  41.366  30.663  1.00  0.00    -0.237 OA
ATOM     49  O   UNL A   1      42.808  40.324  31.845  1.00  0.00    -0.744 OA
ENDBRANCH  43  46
ENDBRANCH  25  39
BRANCH  26  50
ATOM     50  C   UNL A   1      48.307  29.285  28.638  1.00  0.00     0.023 A 
ATOM     51  C   UNL A   1      49.197  29.074  29.707  1.00  0.00     0.012 A 
ATOM     52  C   UNL A   1      48.080  28.253  27.708  1.00  0.00     0.148 A 
ATOM     53  C   UNL A   1      49.855  27.853  29.848  1.00  0.00     0.002 A 
ATOM     54  C   UNL A   1      48.709  27.025  27.877  1.00  0.00     0.091 A 
ATOM     55  F   UNL A   1      47.230  28.485  26.699  1.00  0.00    -0.205 F 
ATOM     56  C   UNL A   1      49.604  26.827  28.940  1.00  0.00     0.022 A 
BRANCH  54  57
ATOM     57  S   UNL A   1      48.373  25.611  26.822  1.00  0.00     0.127 S 
ATOM     58  O   UNL A   1      48.662  26.154  25.496  1.00  0.00    -0.237 OA
ATOM     59  O   UNL A   1      49.347  24.635  27.314  1.00  0.00    -0.237 OA
ATOM     60  O   UNL A   1      46.982  25.255  27.063  1.00  0.00    -0.744 OA
ENDBRANCH  54  57
ENDBRANCH  26  50
BRANCH  38  61
ATOM     61  C   UNL A   1      49.843  35.650  26.187  1.00  0.00     0.023 A 
ATOM     62  C   UNL A   1      49.935  35.513  24.789  1.00  0.00     0.012 A 
ATOM     63  C   UNL A   1      50.800  36.418  26.876  1.00  0.00     0.148 A 
ATOM     64  C   UNL A   1      50.968  36.128  24.085  1.00  0.00     0.002 A 
ATOM     65  C   UNL A   1      51.810  37.056  26.165  1.00  0.00     0.091 A 
ATOM     66  F   UNL A   1      50.694  36.525  28.209  1.00  0.00    -0.205 F 
ATOM     67  C   UNL A   1      51.897  36.908  24.770  1.00  0.00     0.022 A 
BRANCH  65  68
ATOM     68  S   UNL A   1      53.009  38.142  26.946  1.00  0.00     0.127 S 
ATOM     69  O   UNL A   1      52.166  39.257  27.372  1.00  0.00    -0.237 OA
ATOM     70  O   UNL A   1      53.516  37.308  28.036  1.00  0.00    -0.237 OA
ATOM     71  O   UNL A   1      53.991  38.463  25.919  1.00  0.00    -0.744 OA
ENDBRANCH  65  68
ENDBRANCH  38  61
ENDBRANCH  12  13
ENDBRANCH   5   7
ENDBRANCH   2   3
ENDBRANCH   1   2
BRANCH   1  72
ATOM     72  C   UNL A   1      35.469  32.847  32.903  1.00  0.00     0.023 C 
BRANCH  72  73
ATOM     73  C   UNL A   1      34.512  32.779  31.717  1.00  0.00     0.116 C 
BRANCH  73  74
ATOM     74  N   UNL A   1      34.691  33.883  30.786  1.00  0.00    -0.352 N 
ATOM     75  C   UNL A   1      34.903  33.833  29.432  1.00  0.00     0.251 C 
ATOM     76  H   UNL A   1      34.655  34.784  31.180  1.00  0.00     0.163 HD
ATOM     77  O   UNL A   1      35.157  34.841  28.783  1.00  0.00    -0.269 OA
BRANCH  75  78
ATOM     78  C   UNL A   1      34.865  32.524  28.764  1.00  0.00     0.041 A 
ATOM     79  C   UNL A   1      36.029  31.776  28.602  1.00  0.00     0.036 A 
ATOM     80  C   UNL A   1      33.648  32.073  28.257  1.00  0.00     0.020 A 
ATOM     81  C   UNL A   1      35.986  30.628  27.821  1.00  0.00     0.065 A 
ATOM     82  C   UNL A   1      33.602  30.897  27.495  1.00  0.00    -0.015 A 
ATOM     83  Cl  UNL A   1      37.464  29.765  27.558  1.00  0.00    -0.082 Cl
ATOM     84  C   UNL A   1      34.786  30.197  27.218  1.00  0.00     0.057 A 
ATOM     85  C   UNL A   1      32.271  30.393  27.015  1.00  0.00     0.049 C 
ATOM     86  N   UNL A   1      34.760  29.058  26.425  1.00  0.00    -0.376 N 
ATOM     87  C   UNL A   1      31.634  31.209  25.920  1.00  0.00    -0.023 C 
ATOM     88  C   UNL A   1      32.294  28.981  26.390  1.00  0.00     0.031 C 
ATOM     89  C   UNL A   1      33.605  28.774  25.588  1.00  0.00     0.114 C 
ATOM     90  H   UNL A   1      35.527  28.441  26.429  1.00  0.00     0.161 HD
ATOM     91  C   UNL A   1      30.924  30.428  25.097  1.00  0.00    -0.030 C 
ATOM     92  C   UNL A   1      31.013  28.998  25.528  1.00  0.00     0.034 C 
BRANCH  89  93
ATOM     93  C   UNL A   1      33.735  27.361  25.030  1.00  0.00    -0.025 A 
ATOM     94  C   UNL A   1      33.905  26.217  25.835  1.00  0.00     0.007 A 
ATOM     95  C   UNL A   1      33.668  27.187  23.646  1.00  0.00     0.007 A 
ATOM     96  C   UNL A   1      33.979  24.937  25.268  1.00  0.00     0.022 A 
ATOM     97  C   UNL A   1      33.692  25.916  23.090  1.00  0.00     0.022 A 
ATOM     98  C   UNL A   1      33.849  24.791  23.888  1.00  0.00     0.082 A 
BRANCH  98  99
ATOM     99  S   UNL A   1      33.866  23.161  23.177  1.00  0.00     0.243 S 
ATOM    100  O   UNL A   1      32.687  22.483  23.682  1.00  0.00    -0.207 OA
ATOM    101  O   UNL A   1      34.097  23.331  21.761  1.00  0.00    -0.207 OA
BRANCH  99 102
ATOM    102  N   UNL A   1      35.217  22.408  23.828  1.00  0.00    -0.193 NA
ATOM    103  C   UNL A   1      35.118  21.237  24.725  1.00  0.00     0.131 C 
ATOM    104  C   UNL A   1      36.579  22.919  23.596  1.00  0.00     0.131 C 
ATOM    105  C   UNL A   1      36.017  21.385  25.965  1.00  0.00     0.177 C 
ATOM    106  C   UNL A   1      37.325  23.066  24.922  1.00  0.00     0.177 C 
ATOM    107  O   UNL A   1      37.342  21.827  25.645  1.00  0.00    -0.379 OA
ENDBRANCH  99 102
ENDBRANCH  98  99
ENDBRANCH  89  93
ENDBRANCH  75  78
ENDBRANCH  73  74
ENDBRANCH  72  73
ENDBRANCH   1  72
TORSDOF 17
ENDMDL
