MODEL 1
REMARK VINA RESULT:     -13.5      0.000      0.000
REMARK SMILES O=C(NCCCCNC(=O)[C@H](c1c[nH]c2cc(F)ccc12)[NH+]1CC[NH+](CC(=O)N2CCOCC2)CC1)c1ccc(-c2c3nc(c(-c4cccc(S(=O)(=O)[O-])c4F)c4ccc([nH]4)c(-c4cccc(S(=O)(=O)[O-])c4F)c4nc(c(-c5cccc(S(=O)(=O)[O-])c5F)c5ccc2[nH]5)C=C4)C=C3)cc1
REMARK SMILES IDX 5 1 4 2 3 3 1 4 2 5 37 7 38 8 99 9 39 10 98 11 40 12 41 13
REMARK SMILES IDX 42 14 92 15 43 16 97 17 91 18 93 19 44 20 96 21 90 22 89 23
REMARK SMILES IDX 45 25 77 26 57 27 76 28 58 29 61 30 75 31 94 32 59 33 60 34
REMARK SMILES IDX 74 36 95 37 62 38 46 39 47 40 55 41 48 42 50 43 56 44 49 45
REMARK SMILES IDX 51 46 52 47 53 48 54 49 78 50 79 51 87 52 80 53 82 54 88 55
REMARK SMILES IDX 81 56 83 57 84 58 85 59 86 60 63 61 64 62 72 63 65 64 67 65
REMARK SMILES IDX 73 66 66 67 68 68 69 69 70 70 71 71 6 72 7 73 8 74 9 75
REMARK SMILES IDX 10 77 11 78 22 79 23 80 36 81 24 83 35 84 25 85 26 87 27 88
REMARK SMILES IDX 28 89 29 90 30 91 34 92 31 93 33 94 32 95 12 96 13 97 21 98
REMARK SMILES IDX 14 99 15 100 20 101 16 103 19 104 17 105 18 106
REMARK H PARENT 3 6 93 24 61 35 8 76 22 82 25 86 14 102
REMARK Flexibility Score: inf
ROOT
ATOM      1  C   UNL A   1      32.822  29.745  25.184  1.00  0.00     0.023 C 
ENDROOT
BRANCH   1   2
ATOM      2  C   UNL A   1      32.335  30.009  26.610  1.00  0.00     0.116 C 
BRANCH   2   3
ATOM      3  N   UNL A   1      32.205  31.412  26.979  1.00  0.00    -0.352 N 
ATOM      4  O   UNL A   1      32.878  33.449  27.678  1.00  0.00    -0.269 OA
ATOM      5  C   UNL A   1      33.167  32.279  27.476  1.00  0.00     0.251 C 
ATOM      6  H   UNL A   1      31.308  31.800  26.860  1.00  0.00     0.163 HD
BRANCH   5   7
ATOM      7  C   UNL A   1      34.519  31.765  27.816  1.00  0.00     0.039 A 
ATOM      8  C   UNL A   1      34.714  30.427  28.152  1.00  0.00     0.014 A 
ATOM      9  C   UNL A   1      35.589  32.663  27.881  1.00  0.00     0.014 A 
ATOM     10  C   UNL A   1      35.902  30.042  28.769  1.00  0.00     0.010 A 
ATOM     11  C   UNL A   1      36.816  32.250  28.421  1.00  0.00     0.010 A 
ATOM     12  C   UNL A   1      36.958  30.956  28.942  1.00  0.00    -0.014 A 
BRANCH  12  13
ATOM     13  C   UNL A   1      38.180  30.527  29.681  1.00  0.00     0.031 A 
ATOM     14  C   UNL A   1      38.446  30.983  31.096  1.00  0.00     0.074 A 
ATOM     15  C   UNL A   1      39.032  29.668  29.089  1.00  0.00     0.049 A 
ATOM     16  N   UNL A   1      39.412  30.627  31.907  1.00  0.00    -0.248 NA
ATOM     17  C   UNL A   1      37.519  31.969  31.677  1.00  0.00     0.031 C 
ATOM     18  C   UNL A   1      38.919  29.194  27.708  1.00  0.00     0.029 A 
ATOM     19  N   UNL A   1      40.151  29.035  29.568  1.00  0.00    -0.354 N 
ATOM     20  C   UNL A   1      39.228  31.360  33.075  1.00  0.00     0.074 A 
ATOM     21  C   UNL A   1      38.066  32.196  32.865  1.00  0.00     0.031 C 
ATOM     22  C   UNL A   1      39.908  28.323  27.461  1.00  0.00     0.029 A 
ATOM     23  C   UNL A   1      40.746  28.203  28.649  1.00  0.00     0.049 A 
ATOM     24  H   UNL A   1      40.494  29.164  30.482  1.00  0.00     0.167 HD
ATOM     25  C   UNL A   1      39.941  31.322  34.229  1.00  0.00     0.034 A 
ATOM     26  C   UNL A   1      41.846  27.431  28.744  1.00  0.00     0.034 A 
ATOM     27  C   UNL A   1      41.074  30.462  34.455  1.00  0.00     0.049 A 
ATOM     28  C   UNL A   1      42.582  27.364  30.052  1.00  0.00     0.074 A 
ATOM     29  C   UNL A   1      41.837  30.326  35.602  1.00  0.00     0.029 A 
ATOM     30  N   UNL A   1      41.608  29.589  33.519  1.00  0.00    -0.354 N 
ATOM     31  N   UNL A   1      42.315  27.975  31.180  1.00  0.00    -0.248 NA
ATOM     32  C   UNL A   1      43.751  26.475  30.111  1.00  0.00     0.031 C 
ATOM     33  C   UNL A   1      42.834  29.374  35.359  1.00  0.00     0.029 A 
ATOM     34  C   UNL A   1      42.685  28.909  34.063  1.00  0.00     0.049 A 
ATOM     35  H   UNL A   1      41.270  29.469  32.602  1.00  0.00     0.167 HD
ATOM     36  C   UNL A   1      43.275  27.541  32.085  1.00  0.00     0.074 A 
ATOM     37  C   UNL A   1      44.102  26.579  31.384  1.00  0.00     0.031 C 
ATOM     38  C   UNL A   1      43.475  27.925  33.369  1.00  0.00     0.034 A 
BRANCH  25  39
ATOM     39  C   UNL A   1      39.485  32.193  35.373  1.00  0.00     0.023 A 
ATOM     40  C   UNL A   1      38.657  31.639  36.371  1.00  0.00     0.012 A 
ATOM     41  C   UNL A   1      39.946  33.518  35.516  1.00  0.00     0.148 A 
ATOM     42  C   UNL A   1      38.277  32.394  37.480  1.00  0.00     0.002 A 
ATOM     43  C   UNL A   1      39.590  34.252  36.644  1.00  0.00     0.091 A 
ATOM     44  F   UNL A   1      40.718  34.035  34.550  1.00  0.00    -0.205 F 
ATOM     45  C   UNL A   1      38.751  33.694  37.622  1.00  0.00     0.022 A 
BRANCH  43  46
ATOM     46  S   UNL A   1      40.208  35.912  36.958  1.00  0.00     0.127 S 
ATOM     47  O   UNL A   1      39.724  36.633  35.782  1.00  0.00    -0.237 OA
ATOM     48  O   UNL A   1      39.532  36.262  38.208  1.00  0.00    -0.237 OA
ATOM     49  O   UNL A   1      41.655  35.787  37.065  1.00  0.00    -0.744 OA
ENDBRANCH  43  46
ENDBRANCH  25  39
BRANCH  26  50
ATOM     50  C   UNL A   1      42.274  26.620  27.570  1.00  0.00     0.023 A 
ATOM     51  C   UNL A   1      43.093  27.198  26.582  1.00  0.00     0.012 A 
ATOM     52  C   UNL A   1      41.923  25.262  27.462  1.00  0.00     0.148 A 
ATOM     53  C   UNL A   1      43.538  26.440  25.497  1.00  0.00     0.002 A 
ATOM     54  C   UNL A   1      42.423  24.497  26.415  1.00  0.00     0.091 A 
ATOM     55  F   UNL A   1      41.121  24.733  28.398  1.00  0.00    -0.205 F 
ATOM     56  C   UNL A   1      43.217  25.087  25.422  1.00  0.00     0.022 A 
BRANCH  54  57
ATOM     57  S   UNL A   1      42.184  22.717  26.359  1.00  0.00     0.127 S 
ATOM     58  O   UNL A   1      40.735  22.612  26.213  1.00  0.00    -0.237 OA
ATOM     59  O   UNL A   1      42.952  22.337  25.172  1.00  0.00    -0.237 OA
ATOM     60  O   UNL A   1      42.745  22.221  27.609  1.00  0.00    -0.744 OA
ENDBRANCH  54  57
ENDBRANCH  26  50
BRANCH  38  61
ATOM     61  C   UNL A   1      44.638  27.307  34.098  1.00  0.00     0.023 A 
ATOM     62  C   UNL A   1      45.896  27.940  34.055  1.00  0.00     0.012 A 
ATOM     63  C   UNL A   1      44.482  26.127  34.851  1.00  0.00     0.148 A 
ATOM     64  C   UNL A   1      46.992  27.388  34.717  1.00  0.00     0.002 A 
ATOM     65  C   UNL A   1      45.570  25.606  35.544  1.00  0.00     0.091 A 
ATOM     66  F   UNL A   1      43.285  25.525  34.864  1.00  0.00    -0.205 F 
ATOM     67  C   UNL A   1      46.827  26.228  35.469  1.00  0.00     0.022 A 
BRANCH  65  68
ATOM     68  S   UNL A   1      45.422  24.158  36.599  1.00  0.00     0.127 S 
ATOM     69  O   UNL A   1      44.348  24.558  37.505  1.00  0.00    -0.237 OA
ATOM     70  O   UNL A   1      45.057  23.109  35.646  1.00  0.00    -0.237 OA
ATOM     71  O   UNL A   1      46.733  23.982  37.210  1.00  0.00    -0.744 OA
ENDBRANCH  65  68
ENDBRANCH  38  61
ENDBRANCH  12  13
ENDBRANCH   5   7
ENDBRANCH   2   3
ENDBRANCH   1   2
BRANCH   1  72
ATOM     72  C   UNL A   1      33.911  28.691  24.977  1.00  0.00     0.023 C 
BRANCH  72  73
ATOM     73  C   UNL A   1      33.549  27.241  25.282  1.00  0.00     0.116 C 
BRANCH  73  74
ATOM     74  N   UNL A   1      32.390  27.021  26.126  1.00  0.00    -0.351 N 
ATOM     75  C   UNL A   1      31.210  26.342  25.877  1.00  0.00     0.283 C 
ATOM     76  H   UNL A   1      32.453  27.420  27.023  1.00  0.00     0.163 HD
ATOM     77  O   UNL A   1      30.531  26.108  26.886  1.00  0.00    -0.268 OA
BRANCH  75  78
ATOM     78  C   UNL A   1      30.758  25.899  24.407  1.00  0.00     0.308 C 
BRANCH  78  79
ATOM     79  N   UNL A   1      30.350  24.460  24.368  1.00  0.00    -0.312 N 
ATOM     80  C   UNL A   1      30.710  23.675  23.155  1.00  0.00     0.325 C 
ATOM     81  C   UNL A   1      30.805  23.703  25.519  1.00  0.00     0.325 C 
ATOM     82  H   UNL A   1      29.336  24.567  24.360  1.00  0.00     0.349 HD
ATOM     83  C   UNL A   1      31.968  22.719  23.167  1.00  0.00     0.325 C 
ATOM     84  C   UNL A   1      32.323  23.423  25.430  1.00  0.00     0.325 C 
ATOM     85  N   UNL A   1      32.636  22.414  24.442  1.00  0.00    -0.318 N 
ATOM     86  H   UNL A   1      33.633  22.467  24.229  1.00  0.00     0.348 HD
BRANCH  85  87
ATOM     87  C   UNL A   1      32.584  21.024  24.936  1.00  0.00     0.364 C 
BRANCH  87  88
ATOM     88  C   UNL A   1      33.843  20.168  24.714  1.00  0.00     0.277 C 
ATOM     89  O   UNL A   1      33.712  19.019  24.276  1.00  0.00    -0.268 OA
ATOM     90  N   UNL A   1      35.110  20.692  25.013  1.00  0.00    -0.333 N 
ATOM     91  C   UNL A   1      35.371  21.892  25.823  1.00  0.00     0.148 C 
ATOM     92  C   UNL A   1      36.248  19.769  24.904  1.00  0.00     0.148 C 
ATOM     93  C   UNL A   1      36.778  22.474  25.683  1.00  0.00     0.181 C 
ATOM     94  C   UNL A   1      37.595  20.482  24.776  1.00  0.00     0.181 C 
ATOM     95  O   UNL A   1      37.763  21.448  25.820  1.00  0.00    -0.378 OA
ENDBRANCH  87  88
ENDBRANCH  85  87
ENDBRANCH  78  79
BRANCH  78  96
ATOM     96  C   UNL A   1      29.548  26.726  23.983  1.00  0.00     0.044 A 
ATOM     97  C   UNL A   1      28.215  26.386  24.164  1.00  0.00     0.094 A 
ATOM     98  C   UNL A   1      29.548  27.955  23.239  1.00  0.00     0.009 A 
ATOM     99  N   UNL A   1      27.431  27.323  23.559  1.00  0.00    -0.361 N 
ATOM    100  C   UNL A   1      28.215  28.278  22.961  1.00  0.00     0.049 A 
ATOM    101  C   UNL A   1      30.560  28.803  22.738  1.00  0.00     0.014 A 
ATOM    102  H   UNL A   1      26.446  27.315  23.553  1.00  0.00     0.166 HD
ATOM    103  C   UNL A   1      27.846  29.391  22.196  1.00  0.00     0.065 A 
ATOM    104  C   UNL A   1      30.207  29.925  21.977  1.00  0.00     0.040 A 
ATOM    105  C   UNL A   1      28.871  30.198  21.711  1.00  0.00     0.125 A 
ATOM    106  F   UNL A   1      28.560  31.266  20.963  1.00  0.00    -0.207 F 
ENDBRANCH  78  96
ENDBRANCH  75  78
ENDBRANCH  73  74
ENDBRANCH  72  73
ENDBRANCH   1  72
TORSDOF 18
ENDMDL
MODEL 2
REMARK VINA RESULT:     -13.5      1.610      2.224
REMARK SMILES O=C(NCCCCNC(=O)[C@H](c1c[nH]c2cc(F)ccc12)[NH+]1CC[NH+](CC(=O)N2CCOCC2)CC1)c1ccc(-c2c3nc(c(-c4cccc(S(=O)(=O)[O-])c4F)c4ccc([nH]4)c(-c4cccc(S(=O)(=O)[O-])c4F)c4nc(c(-c5cccc(S(=O)(=O)[O-])c5F)c5ccc2[nH]5)C=C4)C=C3)cc1
REMARK SMILES IDX 5 1 4 2 3 3 1 4 2 5 37 7 38 8 99 9 39 10 98 11 40 12 41 13
REMARK SMILES IDX 42 14 92 15 43 16 97 17 91 18 93 19 44 20 96 21 90 22 89 23
REMARK SMILES IDX 45 25 77 26 57 27 76 28 58 29 61 30 75 31 94 32 59 33 60 34
REMARK SMILES IDX 74 36 95 37 62 38 46 39 47 40 55 41 48 42 50 43 56 44 49 45
REMARK SMILES IDX 51 46 52 47 53 48 54 49 78 50 79 51 87 52 80 53 82 54 88 55
REMARK SMILES IDX 81 56 83 57 84 58 85 59 86 60 63 61 64 62 72 63 65 64 67 65
REMARK SMILES IDX 73 66 66 67 68 68 69 69 70 70 71 71 6 72 7 73 8 74 9 75
REMARK SMILES IDX 10 77 11 78 22 79 23 80 36 81 24 83 35 84 25 85 26 87 27 88
REMARK SMILES IDX 28 89 29 90 30 91 34 92 31 93 33 94 32 95 12 96 13 97 21 98
REMARK SMILES IDX 14 99 15 100 20 101 16 103 19 104 17 105 18 106
REMARK H PARENT 3 6 93 24 61 35 8 76 22 82 25 86 14 102
REMARK Flexibility Score: inf
ROOT
ATOM      1  C   UNL A   1      31.522  29.578  26.787  1.00  0.00     0.023 C 
ENDROOT
BRANCH   1   2
ATOM      2  C   UNL A   1      32.772  30.443  26.617  1.00  0.00     0.116 C 
BRANCH   2   3
ATOM      3  N   UNL A   1      32.686  31.788  27.172  1.00  0.00    -0.352 N 
ATOM      4  O   UNL A   1      33.418  33.685  28.148  1.00  0.00    -0.269 OA
ATOM      5  C   UNL A   1      33.669  32.543  27.793  1.00  0.00     0.251 C 
ATOM      6  H   UNL A   1      31.805  32.220  27.096  1.00  0.00     0.163 HD
BRANCH   5   7
ATOM      7  C   UNL A   1      34.997  31.938  28.074  1.00  0.00     0.039 A 
ATOM      8  C   UNL A   1      35.117  30.586  28.387  1.00  0.00     0.014 A 
ATOM      9  C   UNL A   1      36.125  32.765  28.110  1.00  0.00     0.014 A 
ATOM     10  C   UNL A   1      36.300  30.117  28.954  1.00  0.00     0.010 A 
ATOM     11  C   UNL A   1      37.341  32.267  28.597  1.00  0.00     0.010 A 
ATOM     12  C   UNL A   1      37.418  30.959  29.098  1.00  0.00    -0.014 A 
BRANCH  12  13
ATOM     13  C   UNL A   1      38.637  30.442  29.784  1.00  0.00     0.031 A 
ATOM     14  C   UNL A   1      38.995  30.874  31.186  1.00  0.00     0.074 A 
ATOM     15  C   UNL A   1      39.400  29.526  29.157  1.00  0.00     0.049 A 
ATOM     16  N   UNL A   1      39.966  30.448  31.956  1.00  0.00    -0.248 NA
ATOM     17  C   UNL A   1      38.166  31.922  31.806  1.00  0.00     0.031 C 
ATOM     18  C   UNL A   1      39.195  29.064  27.782  1.00  0.00     0.029 A 
ATOM     19  N   UNL A   1      40.490  28.814  29.588  1.00  0.00    -0.354 N 
ATOM     20  C   UNL A   1      39.884  31.189  33.131  1.00  0.00     0.074 A 
ATOM     21  C   UNL A   1      38.777  32.107  32.969  1.00  0.00     0.031 C 
ATOM     22  C   UNL A   1      40.108  28.126  27.494  1.00  0.00     0.029 A 
ATOM     23  C   UNL A   1      40.985  27.943  28.645  1.00  0.00     0.049 A 
ATOM     24  H   UNL A   1      40.880  28.915  30.487  1.00  0.00     0.167 HD
ATOM     25  C   UNL A   1      40.641  31.098  34.253  1.00  0.00     0.034 A 
ATOM     26  C   UNL A   1      42.030  27.094  28.694  1.00  0.00     0.034 A 
ATOM     27  C   UNL A   1      41.718  30.159  34.431  1.00  0.00     0.049 A 
ATOM     28  C   UNL A   1      42.814  26.972  29.970  1.00  0.00     0.074 A 
ATOM     29  C   UNL A   1      42.517  29.965  35.545  1.00  0.00     0.029 A 
ATOM     30  N   UNL A   1      42.148  29.252  33.474  1.00  0.00    -0.354 N 
ATOM     31  N   UNL A   1      42.639  27.598  31.108  1.00  0.00    -0.248 NA
ATOM     32  C   UNL A   1      43.918  26.002  29.979  1.00  0.00     0.031 C 
ATOM     33  C   UNL A   1      43.432  28.945  35.260  1.00  0.00     0.029 A 
ATOM     34  C   UNL A   1      43.196  28.495  33.973  1.00  0.00     0.049 A 
ATOM     35  H   UNL A   1      41.764  29.159  32.572  1.00  0.00     0.167 HD
ATOM     36  C   UNL A   1      43.603  27.094  31.971  1.00  0.00     0.074 A 
ATOM     37  C   UNL A   1      44.329  26.077  31.237  1.00  0.00     0.031 C 
ATOM     38  C   UNL A   1      43.884  27.460  33.246  1.00  0.00     0.034 A 
BRANCH  25  39
ATOM     39  C   UNL A   1      40.297  31.996  35.415  1.00  0.00     0.023 A 
ATOM     40  C   UNL A   1      41.036  33.182  35.609  1.00  0.00     0.012 A 
ATOM     41  C   UNL A   1      39.195  31.726  36.251  1.00  0.00     0.148 A 
ATOM     42  C   UNL A   1      40.697  34.072  36.628  1.00  0.00     0.002 A 
ATOM     43  C   UNL A   1      38.843  32.637  37.243  1.00  0.00     0.091 A 
ATOM     44  F   UNL A   1      38.514  30.587  36.063  1.00  0.00    -0.205 F 
ATOM     45  C   UNL A   1      39.597  33.806  37.436  1.00  0.00     0.022 A 
BRANCH  43  46
ATOM     46  S   UNL A   1      37.397  32.423  38.291  1.00  0.00     0.127 S 
ATOM     47  O   UNL A   1      36.356  33.064  37.488  1.00  0.00    -0.237 OA
ATOM     48  O   UNL A   1      37.290  30.966  38.376  1.00  0.00    -0.237 OA
ATOM     49  O   UNL A   1      37.713  33.083  39.549  1.00  0.00    -0.744 OA
ENDBRANCH  43  46
ENDBRANCH  25  39
BRANCH  26  50
ATOM     50  C   UNL A   1      42.349  26.259  27.504  1.00  0.00     0.023 A 
ATOM     51  C   UNL A   1      43.144  26.788  26.470  1.00  0.00     0.012 A 
ATOM     52  C   UNL A   1      41.918  24.921  27.422  1.00  0.00     0.148 A 
ATOM     53  C   UNL A   1      43.488  26.004  25.367  1.00  0.00     0.002 A 
ATOM     54  C   UNL A   1      42.318  24.127  26.354  1.00  0.00     0.091 A 
ATOM     55  F   UNL A   1      41.140  24.440  28.402  1.00  0.00    -0.205 F 
ATOM     56  C   UNL A   1      43.089  24.670  25.316  1.00  0.00     0.022 A 
BRANCH  54  57
ATOM     57  S   UNL A   1      41.979  22.363  26.320  1.00  0.00     0.127 S 
ATOM     58  O   UNL A   1      42.494  21.932  27.617  1.00  0.00    -0.237 OA
ATOM     59  O   UNL A   1      40.522  22.327  26.193  1.00  0.00    -0.237 OA
ATOM     60  O   UNL A   1      42.688  21.865  25.148  1.00  0.00    -0.744 OA
ENDBRANCH  54  57
ENDBRANCH  26  50
BRANCH  38  61
ATOM     61  C   UNL A   1      45.030  26.758  33.925  1.00  0.00     0.023 A 
ATOM     62  C   UNL A   1      46.342  27.235  33.736  1.00  0.00     0.012 A 
ATOM     63  C   UNL A   1      44.809  25.656  34.774  1.00  0.00     0.148 A 
ATOM     64  C   UNL A   1      47.422  26.603  34.349  1.00  0.00     0.002 A 
ATOM     65  C   UNL A   1      45.888  25.057  35.416  1.00  0.00     0.091 A 
ATOM     66  F   UNL A   1      43.558  25.201  34.926  1.00  0.00    -0.205 F 
ATOM     67  C   UNL A   1      47.195  25.522  35.196  1.00  0.00     0.022 A 
BRANCH  65  68
ATOM     68  S   UNL A   1      45.672  23.709  36.585  1.00  0.00     0.127 S 
ATOM     69  O   UNL A   1      47.050  23.441  36.990  1.00  0.00    -0.237 OA
ATOM     70  O   UNL A   1      44.840  24.321  37.622  1.00  0.00    -0.237 OA
ATOM     71  O   UNL A   1      45.013  22.645  35.839  1.00  0.00    -0.744 OA
ENDBRANCH  65  68
ENDBRANCH  38  61
ENDBRANCH  12  13
ENDBRANCH   5   7
ENDBRANCH   2   3
ENDBRANCH   1   2
BRANCH   1  72
ATOM     72  C   UNL A   1      31.658  28.253  27.538  1.00  0.00     0.023 C 
BRANCH  72  73
ATOM     73  C   UNL A   1      31.960  27.007  26.710  1.00  0.00     0.116 C 
BRANCH  73  74
ATOM     74  N   UNL A   1      33.027  27.115  25.734  1.00  0.00    -0.351 N 
ATOM     75  C   UNL A   1      33.108  26.650  24.433  1.00  0.00     0.283 C 
ATOM     76  H   UNL A   1      33.825  27.597  26.048  1.00  0.00     0.163 HD
ATOM     77  O   UNL A   1      34.041  27.129  23.774  1.00  0.00    -0.268 OA
BRANCH  75  78
ATOM     78  C   UNL A   1      32.083  25.579  23.830  1.00  0.00     0.308 C 
BRANCH  78  79
ATOM     79  N   UNL A   1      32.065  24.320  24.638  1.00  0.00    -0.312 N 
ATOM     80  C   UNL A   1      31.558  23.085  23.978  1.00  0.00     0.325 C 
ATOM     81  C   UNL A   1      33.353  23.996  25.222  1.00  0.00     0.325 C 
ATOM     82  H   UNL A   1      31.380  24.578  25.348  1.00  0.00     0.349 HD
ATOM     83  C   UNL A   1      32.568  22.016  23.401  1.00  0.00     0.325 C 
ATOM     84  C   UNL A   1      34.327  23.461  24.148  1.00  0.00     0.325 C 
ATOM     85  N   UNL A   1      33.998  22.116  23.731  1.00  0.00    -0.318 N 
ATOM     86  H   UNL A   1      34.479  21.921  22.852  1.00  0.00     0.348 HD
BRANCH  85  87
ATOM     87  C   UNL A   1      34.595  21.047  24.556  1.00  0.00     0.364 C 
BRANCH  87  88
ATOM     88  C   UNL A   1      33.614  20.101  25.269  1.00  0.00     0.277 C 
ATOM     89  O   UNL A   1      32.869  20.563  26.142  1.00  0.00    -0.268 OA
ATOM     90  N   UNL A   1      33.578  18.740  24.929  1.00  0.00    -0.333 N 
ATOM     91  C   UNL A   1      34.607  18.021  24.161  1.00  0.00     0.148 C 
ATOM     92  C   UNL A   1      32.713  17.878  25.747  1.00  0.00     0.148 C 
ATOM     93  C   UNL A   1      34.167  16.672  23.593  1.00  0.00     0.181 C 
ATOM     94  C   UNL A   1      32.355  16.557  25.063  1.00  0.00     0.181 C 
ATOM     95  O   UNL A   1      33.533  15.884  24.602  1.00  0.00    -0.378 OA
ENDBRANCH  87  88
ENDBRANCH  85  87
ENDBRANCH  78  79
BRANCH  78  96
ATOM     96  C   UNL A   1      30.672  26.160  23.862  1.00  0.00     0.044 A 
ATOM     97  C   UNL A   1      29.540  25.542  24.377  1.00  0.00     0.094 A 
ATOM     98  C   UNL A   1      30.224  27.398  23.289  1.00  0.00     0.009 A 
ATOM     99  N   UNL A   1      28.453  26.327  24.128  1.00  0.00    -0.361 N 
ATOM    100  C   UNL A   1      28.834  27.454  23.441  1.00  0.00     0.049 A 
ATOM    101  C   UNL A   1      30.866  28.462  22.618  1.00  0.00     0.014 A 
ATOM    102  H   UNL A   1      27.532  26.117  24.402  1.00  0.00     0.166 HD
ATOM    103  C   UNL A   1      28.055  28.504  22.940  1.00  0.00     0.065 A 
ATOM    104  C   UNL A   1      30.102  29.524  22.118  1.00  0.00     0.040 A 
ATOM    105  C   UNL A   1      28.722  29.529  22.275  1.00  0.00     0.125 A 
ATOM    106  F   UNL A   1      28.011  30.547  21.770  1.00  0.00    -0.207 F 
ENDBRANCH  78  96
ENDBRANCH  75  78
ENDBRANCH  73  74
ENDBRANCH  72  73
ENDBRANCH   1  72
TORSDOF 18
ENDMDL
MODEL 3
REMARK VINA RESULT:     -13.5      1.561      2.153
REMARK SMILES O=C(NCCCCNC(=O)[C@H](c1c[nH]c2cc(F)ccc12)[NH+]1CC[NH+](CC(=O)N2CCOCC2)CC1)c1ccc(-c2c3nc(c(-c4cccc(S(=O)(=O)[O-])c4F)c4ccc([nH]4)c(-c4cccc(S(=O)(=O)[O-])c4F)c4nc(c(-c5cccc(S(=O)(=O)[O-])c5F)c5ccc2[nH]5)C=C4)C=C3)cc1
REMARK SMILES IDX 5 1 4 2 3 3 1 4 2 5 37 7 38 8 99 9 39 10 98 11 40 12 41 13
REMARK SMILES IDX 42 14 92 15 43 16 97 17 91 18 93 19 44 20 96 21 90 22 89 23
REMARK SMILES IDX 45 25 77 26 57 27 76 28 58 29 61 30 75 31 94 32 59 33 60 34
REMARK SMILES IDX 74 36 95 37 62 38 46 39 47 40 55 41 48 42 50 43 56 44 49 45
REMARK SMILES IDX 51 46 52 47 53 48 54 49 78 50 79 51 87 52 80 53 82 54 88 55
REMARK SMILES IDX 81 56 83 57 84 58 85 59 86 60 63 61 64 62 72 63 65 64 67 65
REMARK SMILES IDX 73 66 66 67 68 68 69 69 70 70 71 71 6 72 7 73 8 74 9 75
REMARK SMILES IDX 10 77 11 78 22 79 23 80 36 81 24 83 35 84 25 85 26 87 27 88
REMARK SMILES IDX 28 89 29 90 30 91 34 92 31 93 33 94 32 95 12 96 13 97 21 98
REMARK SMILES IDX 14 99 15 100 20 101 16 103 19 104 17 105 18 106
REMARK H PARENT 3 6 93 24 61 35 8 76 22 82 25 86 14 102
REMARK Flexibility Score: inf
ROOT
ATOM      1  C   UNL A   1      32.974  29.857  25.775  1.00  0.00     0.023 C 
ENDROOT
BRANCH   1   2
ATOM      2  C   UNL A   1      33.031  30.501  27.161  1.00  0.00     0.116 C 
BRANCH   2   3
ATOM      3  N   UNL A   1      32.578  31.885  27.230  1.00  0.00    -0.352 N 
ATOM      4  O   UNL A   1      32.686  34.087  27.709  1.00  0.00    -0.269 OA
ATOM      5  C   UNL A   1      33.204  32.983  27.800  1.00  0.00     0.251 C 
ATOM      6  H   UNL A   1      31.705  32.064  26.813  1.00  0.00     0.163 HD
BRANCH   5   7
ATOM      7  C   UNL A   1      34.464  32.800  28.567  1.00  0.00     0.039 A 
ATOM      8  C   UNL A   1      35.705  32.961  27.956  1.00  0.00     0.014 A 
ATOM      9  C   UNL A   1      34.391  32.373  29.897  1.00  0.00     0.014 A 
ATOM     10  C   UNL A   1      36.848  32.478  28.590  1.00  0.00     0.010 A 
ATOM     11  C   UNL A   1      35.556  31.971  30.565  1.00  0.00     0.010 A 
ATOM     12  C   UNL A   1      36.784  31.945  29.891  1.00  0.00    -0.014 A 
BRANCH  12  13
ATOM     13  C   UNL A   1      38.014  31.364  30.501  1.00  0.00     0.031 A 
ATOM     14  C   UNL A   1      38.429  31.702  31.913  1.00  0.00     0.074 A 
ATOM     15  C   UNL A   1      38.736  30.474  29.792  1.00  0.00     0.049 A 
ATOM     16  N   UNL A   1      39.417  31.212  32.620  1.00  0.00    -0.248 NA
ATOM     17  C   UNL A   1      37.644  32.725  32.624  1.00  0.00     0.031 C 
ATOM     18  C   UNL A   1      38.475  30.103  28.400  1.00  0.00     0.029 A 
ATOM     19  N   UNL A   1      39.826  29.717  30.141  1.00  0.00    -0.354 N 
ATOM     20  C   UNL A   1      39.391  31.880  33.840  1.00  0.00     0.074 A 
ATOM     21  C   UNL A   1      38.299  32.826  33.775  1.00  0.00     0.031 C 
ATOM     22  C   UNL A   1      39.358  29.167  28.023  1.00  0.00     0.029 A 
ATOM     23  C   UNL A   1      40.270  28.897  29.129  1.00  0.00     0.049 A 
ATOM     24  H   UNL A   1      40.248  29.755  31.029  1.00  0.00     0.167 HD
ATOM     25  C   UNL A   1      40.184  31.706  34.927  1.00  0.00     0.034 A 
ATOM     26  C   UNL A   1      41.298  28.027  29.089  1.00  0.00     0.034 A 
ATOM     27  C   UNL A   1      41.247  30.737  35.009  1.00  0.00     0.049 A 
ATOM     28  C   UNL A   1      42.123  27.813  30.326  1.00  0.00     0.074 A 
ATOM     29  C   UNL A   1      42.080  30.461  36.081  1.00  0.00     0.029 A 
ATOM     30  N   UNL A   1      41.625  29.884  33.984  1.00  0.00    -0.354 N 
ATOM     31  N   UNL A   1      42.000  28.370  31.506  1.00  0.00    -0.248 NA
ATOM     32  C   UNL A   1      43.206  26.823  30.237  1.00  0.00     0.031 C 
ATOM     33  C   UNL A   1      42.963  29.443  35.702  1.00  0.00     0.029 A 
ATOM     34  C   UNL A   1      42.674  29.078  34.398  1.00  0.00     0.049 A 
ATOM     35  H   UNL A   1      41.208  29.854  33.092  1.00  0.00     0.167 HD
ATOM     36  C   UNL A   1      42.982  27.796  32.302  1.00  0.00     0.074 A 
ATOM     37  C   UNL A   1      43.661  26.812  31.482  1.00  0.00     0.031 C 
ATOM     38  C   UNL A   1      43.315  28.077  33.586  1.00  0.00     0.034 A 
BRANCH  25  39
ATOM     39  C   UNL A   1      39.898  32.537  36.153  1.00  0.00     0.023 A 
ATOM     40  C   UNL A   1      40.544  33.782  36.305  1.00  0.00     0.012 A 
ATOM     41  C   UNL A   1      38.931  32.142  37.100  1.00  0.00     0.148 A 
ATOM     42  C   UNL A   1      40.248  34.609  37.388  1.00  0.00     0.002 A 
ATOM     43  C   UNL A   1      38.617  32.989  38.159  1.00  0.00     0.091 A 
ATOM     44  F   UNL A   1      38.340  30.948  36.950  1.00  0.00    -0.205 F 
ATOM     45  C   UNL A   1      39.279  34.219  38.307  1.00  0.00     0.022 A 
BRANCH  43  46
ATOM     46  S   UNL A   1      37.331  32.612  39.357  1.00  0.00     0.127 S 
ATOM     47  O   UNL A   1      37.506  33.695  40.325  1.00  0.00    -0.237 OA
ATOM     48  O   UNL A   1      36.116  32.711  38.547  1.00  0.00    -0.237 OA
ATOM     49  O   UNL A   1      37.624  31.275  39.853  1.00  0.00    -0.744 OA
ENDBRANCH  43  46
ENDBRANCH  25  39
BRANCH  26  50
ATOM     50  C   UNL A   1      41.559  27.261  27.839  1.00  0.00     0.023 A 
ATOM     51  C   UNL A   1      42.149  27.903  26.734  1.00  0.00     0.012 A 
ATOM     52  C   UNL A   1      41.280  25.883  27.763  1.00  0.00     0.148 A 
ATOM     53  C   UNL A   1      42.439  27.189  25.570  1.00  0.00     0.002 A 
ATOM     54  C   UNL A   1      41.632  25.166  26.627  1.00  0.00     0.091 A 
ATOM     55  F   UNL A   1      40.694  25.292  28.815  1.00  0.00    -0.205 F 
ATOM     56  C   UNL A   1      42.195  25.819  25.522  1.00  0.00     0.022 A 
BRANCH  54  57
ATOM     57  S   UNL A   1      41.500  23.375  26.572  1.00  0.00     0.127 S 
ATOM     58  O   UNL A   1      42.097  22.990  27.848  1.00  0.00    -0.237 OA
ATOM     59  O   UNL A   1      40.053  23.171  26.483  1.00  0.00    -0.237 OA
ATOM     60  O   UNL A   1      42.228  22.979  25.374  1.00  0.00    -0.744 OA
ENDBRANCH  54  57
ENDBRANCH  26  50
BRANCH  38  61
ATOM     61  C   UNL A   1      44.468  27.313  34.180  1.00  0.00     0.023 A 
ATOM     62  C   UNL A   1      45.762  27.868  34.131  1.00  0.00     0.012 A 
ATOM     63  C   UNL A   1      44.270  26.072  34.815  1.00  0.00     0.148 A 
ATOM     64  C   UNL A   1      46.849  27.182  34.670  1.00  0.00     0.002 A 
ATOM     65  C   UNL A   1      45.353  25.414  35.388  1.00  0.00     0.091 A 
ATOM     66  F   UNL A   1      43.037  25.548  34.835  1.00  0.00    -0.205 F 
ATOM     67  C   UNL A   1      46.644  25.961  35.306  1.00  0.00     0.022 A 
BRANCH  65  68
ATOM     68  S   UNL A   1      45.161  23.874  36.296  1.00  0.00     0.127 S 
ATOM     69  O   UNL A   1      46.506  23.309  36.214  1.00  0.00    -0.237 OA
ATOM     70  O   UNL A   1      44.776  24.340  37.629  1.00  0.00    -0.237 OA
ATOM     71  O   UNL A   1      44.119  23.134  35.597  1.00  0.00    -0.744 OA
ENDBRANCH  65  68
ENDBRANCH  38  61
ENDBRANCH  12  13
ENDBRANCH   5   7
ENDBRANCH   2   3
ENDBRANCH   1   2
BRANCH   1  72
ATOM     72  C   UNL A   1      34.002  28.776  25.438  1.00  0.00     0.023 C 
BRANCH  72  73
ATOM     73  C   UNL A   1      33.507  27.334  25.377  1.00  0.00     0.116 C 
BRANCH  73  74
ATOM     74  N   UNL A   1      32.389  26.991  26.234  1.00  0.00    -0.351 N 
ATOM     75  C   UNL A   1      31.273  26.209  25.991  1.00  0.00     0.283 C 
ATOM     76  H   UNL A   1      32.429  27.378  27.139  1.00  0.00     0.163 HD
ATOM     77  O   UNL A   1      30.636  25.894  27.005  1.00  0.00    -0.268 OA
BRANCH  75  78
ATOM     78  C   UNL A   1      30.839  25.754  24.519  1.00  0.00     0.308 C 
BRANCH  78  79
ATOM     79  N   UNL A   1      30.382  24.329  24.497  1.00  0.00    -0.312 N 
ATOM     80  C   UNL A   1      30.646  23.540  23.263  1.00  0.00     0.325 C 
ATOM     81  C   UNL A   1      30.877  23.551  25.618  1.00  0.00     0.325 C 
ATOM     82  H   UNL A   1      29.373  24.469  24.548  1.00  0.00     0.349 HD
ATOM     83  C   UNL A   1      31.870  22.543  23.199  1.00  0.00     0.325 C 
ATOM     84  C   UNL A   1      32.376  23.222  25.441  1.00  0.00     0.325 C 
ATOM     85  N   UNL A   1      32.600  22.210  24.432  1.00  0.00    -0.318 N 
ATOM     86  H   UNL A   1      33.584  22.231  24.164  1.00  0.00     0.348 HD
BRANCH  85  87
ATOM     87  C   UNL A   1      32.530  20.819  24.923  1.00  0.00     0.364 C 
BRANCH  87  88
ATOM     88  C   UNL A   1      33.793  19.960  24.737  1.00  0.00     0.277 C 
ATOM     89  O   UNL A   1      34.877  20.527  24.555  1.00  0.00    -0.268 OA
ATOM     90  N   UNL A   1      33.702  18.560  24.773  1.00  0.00    -0.333 N 
ATOM     91  C   UNL A   1      32.460  17.780  24.660  1.00  0.00     0.148 C 
ATOM     92  C   UNL A   1      34.925  17.811  24.452  1.00  0.00     0.148 C 
ATOM     93  C   UNL A   1      32.567  16.323  25.111  1.00  0.00     0.181 C 
ATOM     94  C   UNL A   1      34.898  16.366  24.954  1.00  0.00     0.181 C 
ATOM     95  O   UNL A   1      33.708  15.697  24.520  1.00  0.00    -0.378 OA
ENDBRANCH  87  88
ENDBRANCH  85  87
ENDBRANCH  78  79
BRANCH  78  96
ATOM     96  C   UNL A   1      29.667  26.614  24.052  1.00  0.00     0.044 A 
ATOM     97  C   UNL A   1      28.320  26.303  24.172  1.00  0.00     0.094 A 
ATOM     98  C   UNL A   1      29.728  27.848  23.321  1.00  0.00     0.009 A 
ATOM     99  N   UNL A   1      27.585  27.264  23.544  1.00  0.00    -0.361 N 
ATOM    100  C   UNL A   1      28.416  28.206  22.990  1.00  0.00     0.049 A 
ATOM    101  C   UNL A   1      30.780  28.677  22.872  1.00  0.00     0.014 A 
ATOM    102  H   UNL A   1      26.602  27.281  23.496  1.00  0.00     0.166 HD
ATOM    103  C   UNL A   1      28.107  29.334  22.220  1.00  0.00     0.065 A 
ATOM    104  C   UNL A   1      30.487  29.813  22.107  1.00  0.00     0.040 A 
ATOM    105  C   UNL A   1      29.170  30.120  21.787  1.00  0.00     0.125 A 
ATOM    106  F   UNL A   1      28.916  31.202  21.037  1.00  0.00    -0.207 F 
ENDBRANCH  78  96
ENDBRANCH  75  78
ENDBRANCH  73  74
ENDBRANCH  72  73
ENDBRANCH   1  72
TORSDOF 18
ENDMDL
