MODEL 1
REMARK VINA RESULT:     -11.9      0.000      0.000
REMARK SMILES COc1ccc(N[C@]2(Br)C(=O)NC(=O)N[C@@H]2C(=O)NCCCCNC(=O)c2ccc(-c3c4nc(c(-c5cccc(S(=O)(=O)[O-])c5F)c5ccc([nH]5)c(-c5cccc(S(=O)(=O)[O-])c5F)c5nc(c(-c6cccc(S(=O)(=O)[O-])c6F)c6ccc3[nH]6)C=C5)C=C4)cc2)cc1
REMARK SMILES IDX 21 1 20 2 19 3 17 4 18 5 16 7 8 8 10 9 9 10 11 11 12 12
REMARK SMILES IDX 15 13 13 14 14 17 7 18 6 20 3 21 4 22 91 23 5 24 90 25 2 26
REMARK SMILES IDX 1 27 22 28 23 29 24 30 25 31 26 33 27 34 28 35 89 36 29 37
REMARK SMILES IDX 88 38 30 39 31 40 32 41 82 42 33 43 87 44 81 45 83 46 34 47
REMARK SMILES IDX 86 48 80 49 79 50 35 52 67 53 47 54 66 55 48 56 51 57 65 58
REMARK SMILES IDX 84 59 49 60 50 61 64 63 85 64 52 65 36 66 37 67 45 68 38 69
REMARK SMILES IDX 40 70 46 71 39 72 41 73 42 74 43 75 44 76 68 77 69 78 77 79
REMARK SMILES IDX 70 80 72 81 78 82 71 83 73 84 74 85 75 86 76 87 53 88 54 89
REMARK SMILES IDX 62 90 55 91 57 92 63 93 56 94 58 95 59 96 60 97 61 98
REMARK H PARENT 19 6 12 15 15 16 7 19 24 32 83 51 51 62
REMARK Flexibility Score: inf
ROOT
ATOM      1  C   UNL A   1      31.169  30.603  25.653  1.00  0.00     0.023 C 
ENDROOT
BRANCH   1   2
ATOM      2  C   UNL A   1      32.345  29.728  26.076  1.00  0.00     0.116 C 
BRANCH   2   3
ATOM      3  N   UNL A   1      31.838  28.531  26.701  1.00  0.00    -0.354 N 
ATOM      4  C   UNL A   1      31.612  27.287  26.220  1.00  0.00     0.246 C 
ATOM      5  O   UNL A   1      30.723  26.648  26.800  1.00  0.00    -0.273 OA
ATOM      6  H   UNL A   1      31.615  28.640  27.654  1.00  0.00     0.163 HD
BRANCH   4   7
ATOM      7  C   UNL A   1      32.279  26.664  24.996  1.00  0.00     0.219 C 
ATOM      8  C   UNL A   1      31.475  25.936  23.918  1.00  0.00     0.202 C 
ATOM      9  C   UNL A   1      31.487  24.403  24.170  1.00  0.00     0.267 C 
ATOM     10  Br  UNL A   1      32.607  25.995  22.220  1.00  0.00    -0.048 Br
ATOM     11  O   UNL A   1      30.647  23.639  23.684  1.00  0.00    -0.271 OA
ATOM     12  N   UNL A   1      32.489  23.883  24.955  1.00  0.00    -0.275 N 
ATOM     13  N   UNL A   1      33.419  25.911  25.525  1.00  0.00    -0.322 N 
ATOM     14  C   UNL A   1      33.463  24.564  25.615  1.00  0.00     0.322 C 
ATOM     15  H   UNL A   1      32.504  22.903  25.049  1.00  0.00     0.174 HD
ATOM     16  H   UNL A   1      34.203  26.419  25.834  1.00  0.00     0.166 HD
ATOM     17  O   UNL A   1      34.331  23.989  26.258  1.00  0.00    -0.248 OA
BRANCH   8  18
ATOM     18  N   UNL A   1      30.131  26.351  23.467  1.00  0.00    -0.360 N 
ATOM     19  H   UNL A   1      29.490  25.607  23.406  1.00  0.00     0.162 HD
BRANCH  18  20
ATOM     20  C   UNL A   1      29.597  27.570  23.115  1.00  0.00     0.036 A 
ATOM     21  C   UNL A   1      28.437  30.097  22.528  1.00  0.00     0.119 A 
ATOM     22  C   UNL A   1      29.763  29.851  22.234  1.00  0.00     0.048 A 
ATOM     23  C   UNL A   1      27.663  29.092  23.094  1.00  0.00     0.048 A 
ATOM     24  C   UNL A   1      30.324  28.608  22.540  1.00  0.00     0.029 A 
ATOM     25  C   UNL A   1      28.243  27.843  23.381  1.00  0.00     0.029 A 
BRANCH  21  26
ATOM     26  O   UNL A   1      27.922  31.312  22.185  1.00  0.00    -0.497 OA
ATOM     27  C   UNL A   1      28.720  32.380  22.694  1.00  0.00     0.278 C 
ENDBRANCH  21  26
ENDBRANCH  18  20
ENDBRANCH   8  18
ENDBRANCH   4   7
ENDBRANCH   2   3
ENDBRANCH   1   2
BRANCH   1  28
ATOM     28  C   UNL A   1      31.084  31.910  26.443  1.00  0.00     0.023 C 
BRANCH  28  29
ATOM     29  C   UNL A   1      32.435  32.468  26.877  1.00  0.00     0.116 C 
BRANCH  29  30
ATOM     30  N   UNL A   1      32.343  33.835  27.375  1.00  0.00    -0.352 N 
ATOM     31  C   UNL A   1      33.117  34.446  28.329  1.00  0.00     0.251 C 
ATOM     32  H   UNL A   1      31.635  34.390  26.976  1.00  0.00     0.163 HD
ATOM     33  O   UNL A   1      32.823  35.558  28.758  1.00  0.00    -0.269 OA
BRANCH  31  34
ATOM     34  C   UNL A   1      34.295  33.726  28.842  1.00  0.00     0.039 A 
ATOM     35  C   UNL A   1      35.560  34.299  28.700  1.00  0.00     0.014 A 
ATOM     36  C   UNL A   1      34.123  32.523  29.531  1.00  0.00     0.014 A 
ATOM     37  C   UNL A   1      36.655  33.686  29.308  1.00  0.00     0.010 A 
ATOM     38  C   UNL A   1      35.200  31.962  30.202  1.00  0.00     0.010 A 
ATOM     39  C   UNL A   1      36.477  32.532  30.089  1.00  0.00    -0.014 A 
BRANCH  39  40
ATOM     40  C   UNL A   1      37.615  31.900  30.800  1.00  0.00     0.031 A 
ATOM     41  C   UNL A   1      38.452  30.865  30.100  1.00  0.00     0.074 A 
ATOM     42  C   UNL A   1      37.832  32.188  32.099  1.00  0.00     0.049 A 
ATOM     43  N   UNL A   1      39.449  30.160  30.566  1.00  0.00    -0.248 NA
ATOM     44  C   UNL A   1      38.098  30.553  28.704  1.00  0.00     0.031 C 
ATOM     45  C   UNL A   1      37.026  33.102  32.911  1.00  0.00     0.029 A 
ATOM     46  N   UNL A   1      38.783  31.721  32.971  1.00  0.00    -0.354 N 
ATOM     47  C   UNL A   1      39.813  29.297  29.541  1.00  0.00     0.074 A 
ATOM     48  C   UNL A   1      38.903  29.535  28.442  1.00  0.00     0.031 C 
ATOM     49  C   UNL A   1      37.522  33.136  34.159  1.00  0.00     0.029 A 
ATOM     50  C   UNL A   1      38.666  32.233  34.242  1.00  0.00     0.049 A 
ATOM     51  H   UNL A   1      39.483  31.080  32.711  1.00  0.00     0.167 HD
ATOM     52  C   UNL A   1      40.836  28.413  29.500  1.00  0.00     0.034 A 
ATOM     53  C   UNL A   1      39.402  32.004  35.346  1.00  0.00     0.034 A 
ATOM     54  C   UNL A   1      41.776  28.229  30.571  1.00  0.00     0.049 A 
ATOM     55  C   UNL A   1      40.583  31.074  35.251  1.00  0.00     0.074 A 
ATOM     56  C   UNL A   1      42.908  27.436  30.596  1.00  0.00     0.029 A 
ATOM     57  N   UNL A   1      41.693  28.850  31.808  1.00  0.00    -0.354 N 
ATOM     58  N   UNL A   1      41.016  30.394  34.217  1.00  0.00    -0.248 NA
ATOM     59  C   UNL A   1      41.399  30.910  36.463  1.00  0.00     0.031 C 
ATOM     60  C   UNL A   1      43.506  27.569  31.854  1.00  0.00     0.029 A 
ATOM     61  C   UNL A   1      42.753  28.457  32.606  1.00  0.00     0.049 A 
ATOM     62  H   UNL A   1      40.984  29.477  32.079  1.00  0.00     0.167 HD
ATOM     63  C   UNL A   1      42.174  29.752  34.640  1.00  0.00     0.074 A 
ATOM     64  C   UNL A   1      42.386  30.142  36.020  1.00  0.00     0.031 C 
ATOM     65  C   UNL A   1      42.980  28.903  33.957  1.00  0.00     0.034 A 
BRANCH  52  66
ATOM     66  C   UNL A   1      41.033  27.632  28.229  1.00  0.00     0.023 A 
ATOM     67  C   UNL A   1      41.628  28.260  27.114  1.00  0.00     0.012 A 
ATOM     68  C   UNL A   1      40.675  26.272  28.145  1.00  0.00     0.148 A 
ATOM     69  C   UNL A   1      41.828  27.560  25.926  1.00  0.00     0.002 A 
ATOM     70  C   UNL A   1      40.919  25.569  26.970  1.00  0.00     0.091 A 
ATOM     71  F   UNL A   1      40.089  25.698  29.204  1.00  0.00    -0.205 F 
ATOM     72  C   UNL A   1      41.483  26.214  25.857  1.00  0.00     0.022 A 
BRANCH  70  73
ATOM     73  S   UNL A   1      40.581  23.812  26.806  1.00  0.00     0.127 S 
ATOM     74  O   UNL A   1      41.487  23.437  25.721  1.00  0.00    -0.237 OA
ATOM     75  O   UNL A   1      40.962  23.302  28.123  1.00  0.00    -0.237 OA
ATOM     76  O   UNL A   1      39.161  23.705  26.502  1.00  0.00    -0.744 OA
ENDBRANCH  70  73
ENDBRANCH  52  66
BRANCH  53  77
ATOM     77  C   UNL A   1      39.100  32.735  36.609  1.00  0.00     0.023 A 
ATOM     78  C   UNL A   1      39.648  34.017  36.809  1.00  0.00     0.012 A 
ATOM     79  C   UNL A   1      38.253  32.190  37.592  1.00  0.00     0.148 A 
ATOM     80  C   UNL A   1      39.385  34.729  37.979  1.00  0.00     0.002 A 
ATOM     81  C   UNL A   1      37.952  32.927  38.732  1.00  0.00     0.091 A 
ATOM     82  F   UNL A   1      37.750  30.964  37.390  1.00  0.00    -0.205 F 
ATOM     83  C   UNL A   1      38.530  34.190  38.936  1.00  0.00     0.022 A 
BRANCH  81  84
ATOM     84  S   UNL A   1      36.760  32.365  39.953  1.00  0.00     0.127 S 
ATOM     85  O   UNL A   1      36.792  33.453  40.927  1.00  0.00    -0.237 OA
ATOM     86  O   UNL A   1      35.531  32.281  39.162  1.00  0.00    -0.237 OA
ATOM     87  O   UNL A   1      37.258  31.078  40.420  1.00  0.00    -0.744 OA
ENDBRANCH  81  84
ENDBRANCH  53  77
BRANCH  65  88
ATOM     88  C   UNL A   1      44.186  28.359  34.672  1.00  0.00     0.023 A 
ATOM     89  C   UNL A   1      45.384  29.100  34.682  1.00  0.00     0.012 A 
ATOM     90  C   UNL A   1      44.109  27.157  35.403  1.00  0.00     0.148 A 
ATOM     91  C   UNL A   1      46.496  28.639  35.384  1.00  0.00     0.002 A 
ATOM     92  C   UNL A   1      45.206  26.727  36.139  1.00  0.00     0.091 A 
ATOM     93  F   UNL A   1      42.965  26.457  35.365  1.00  0.00    -0.205 F 
ATOM     94  C   UNL A   1      46.403  27.460  36.123  1.00  0.00     0.022 A 
BRANCH  92  95
ATOM     95  S   UNL A   1      45.142  25.275  37.195  1.00  0.00     0.127 S 
ATOM     96  O   UNL A   1      46.538  25.146  37.608  1.00  0.00    -0.237 OA
ATOM     97  O   UNL A   1      44.228  25.700  38.257  1.00  0.00    -0.237 OA
ATOM     98  O   UNL A   1      44.632  24.197  36.358  1.00  0.00    -0.744 OA
ENDBRANCH  92  95
ENDBRANCH  65  88
ENDBRANCH  39  40
ENDBRANCH  31  34
ENDBRANCH  29  30
ENDBRANCH  28  29
ENDBRANCH   1  28
TORSDOF 17
ENDMDL
MODEL 2
REMARK VINA RESULT:     -11.9      5.816     11.215
REMARK SMILES COc1ccc(N[C@]2(Br)C(=O)NC(=O)N[C@@H]2C(=O)NCCCCNC(=O)c2ccc(-c3c4nc(c(-c5cccc(S(=O)(=O)[O-])c5F)c5ccc([nH]5)c(-c5cccc(S(=O)(=O)[O-])c5F)c5nc(c(-c6cccc(S(=O)(=O)[O-])c6F)c6ccc3[nH]6)C=C5)C=C4)cc2)cc1
REMARK SMILES IDX 21 1 20 2 19 3 17 4 18 5 16 7 8 8 10 9 9 10 11 11 12 12
REMARK SMILES IDX 15 13 13 14 14 17 7 18 6 20 3 21 4 22 91 23 5 24 90 25 2 26
REMARK SMILES IDX 1 27 22 28 23 29 24 30 25 31 26 33 27 34 28 35 89 36 29 37
REMARK SMILES IDX 88 38 30 39 31 40 32 41 82 42 33 43 87 44 81 45 83 46 34 47
REMARK SMILES IDX 86 48 80 49 79 50 35 52 67 53 47 54 66 55 48 56 51 57 65 58
REMARK SMILES IDX 84 59 49 60 50 61 64 63 85 64 52 65 36 66 37 67 45 68 38 69
REMARK SMILES IDX 40 70 46 71 39 72 41 73 42 74 43 75 44 76 68 77 69 78 77 79
REMARK SMILES IDX 70 80 72 81 78 82 71 83 73 84 74 85 75 86 76 87 53 88 54 89
REMARK SMILES IDX 62 90 55 91 57 92 63 93 56 94 58 95 59 96 60 97 61 98
REMARK H PARENT 19 6 12 15 15 16 7 19 24 32 83 51 51 62
REMARK Flexibility Score: inf
ROOT
ATOM      1  C   UNL A   1      37.283  21.239  24.396  1.00  0.00     0.023 C 
ENDROOT
BRANCH   1   2
ATOM      2  C   UNL A   1      37.181  22.276  25.510  1.00  0.00     0.116 C 
BRANCH   2   3
ATOM      3  N   UNL A   1      36.201  21.836  26.472  1.00  0.00    -0.354 N 
ATOM      4  C   UNL A   1      34.866  22.036  26.556  1.00  0.00     0.246 C 
ATOM      5  O   UNL A   1      34.396  22.002  27.702  1.00  0.00    -0.273 OA
ATOM      6  H   UNL A   1      36.572  21.290  27.202  1.00  0.00     0.163 HD
BRANCH   4   7
ATOM      7  C   UNL A   1      33.936  22.386  25.396  1.00  0.00     0.219 C 
ATOM      8  C   UNL A   1      32.780  23.375  25.554  1.00  0.00     0.202 C 
ATOM      9  C   UNL A   1      31.450  22.621  25.829  1.00  0.00     0.267 C 
ATOM     10  Br  UNL A   1      32.371  24.084  23.685  1.00  0.00    -0.048 Br
ATOM     11  O   UNL A   1      30.466  23.165  26.341  1.00  0.00    -0.271 OA
ATOM     12  N   UNL A   1      31.369  21.297  25.467  1.00  0.00    -0.275 N 
ATOM     13  N   UNL A   1      33.565  21.099  24.804  1.00  0.00    -0.322 N 
ATOM     14  C   UNL A   1      32.354  20.518  24.945  1.00  0.00     0.322 C 
ATOM     15  H   UNL A   1      30.495  20.862  25.600  1.00  0.00     0.174 HD
ATOM     16  H   UNL A   1      34.242  20.627  24.268  1.00  0.00     0.166 HD
ATOM     17  O   UNL A   1      32.155  19.354  24.624  1.00  0.00    -0.248 OA
BRANCH   8  18
ATOM     18  N   UNL A   1      32.840  24.590  26.393  1.00  0.00    -0.360 N 
ATOM     19  H   UNL A   1      32.987  24.401  27.348  1.00  0.00     0.162 HD
BRANCH  18  20
ATOM     20  C   UNL A   1      32.730  25.932  26.106  1.00  0.00     0.036 A 
ATOM     21  C   UNL A   1      32.451  28.723  25.654  1.00  0.00     0.119 A 
ATOM     22  C   UNL A   1      33.627  28.077  25.332  1.00  0.00     0.048 A 
ATOM     23  C   UNL A   1      31.392  27.996  26.181  1.00  0.00     0.048 A 
ATOM     24  C   UNL A   1      33.756  26.706  25.572  1.00  0.00     0.029 A 
ATOM     25  C   UNL A   1      31.536  26.613  26.401  1.00  0.00     0.029 A 
BRANCH  21  26
ATOM     26  O   UNL A   1      32.357  30.055  25.376  1.00  0.00    -0.497 OA
ATOM     27  C   UNL A   1      32.031  30.811  26.542  1.00  0.00     0.278 C 
ENDBRANCH  21  26
ENDBRANCH  18  20
ENDBRANCH   8  18
ENDBRANCH   4   7
ENDBRANCH   2   3
ENDBRANCH   1   2
BRANCH   1  28
ATOM     28  C   UNL A   1      37.913  19.925  24.858  1.00  0.00     0.023 C 
BRANCH  28  29
ATOM     29  C   UNL A   1      38.751  20.045  26.126  1.00  0.00     0.116 C 
BRANCH  29  30
ATOM     30  N   UNL A   1      39.940  19.202  26.095  1.00  0.00    -0.352 N 
ATOM     31  C   UNL A   1      41.253  19.578  26.218  1.00  0.00     0.251 C 
ATOM     32  H   UNL A   1      39.779  18.239  25.970  1.00  0.00     0.163 HD
ATOM     33  O   UNL A   1      42.158  18.774  26.016  1.00  0.00    -0.269 OA
BRANCH  31  34
ATOM     34  C   UNL A   1      41.551  20.976  26.574  1.00  0.00     0.039 A 
ATOM     35  C   UNL A   1      42.274  21.245  27.736  1.00  0.00     0.014 A 
ATOM     36  C   UNL A   1      41.176  22.005  25.705  1.00  0.00     0.014 A 
ATOM     37  C   UNL A   1      42.676  22.554  27.999  1.00  0.00     0.010 A 
ATOM     38  C   UNL A   1      41.647  23.290  25.928  1.00  0.00     0.010 A 
ATOM     39  C   UNL A   1      42.393  23.579  27.081  1.00  0.00    -0.014 A 
BRANCH  39  40
ATOM     40  C   UNL A   1      42.867  24.967  27.305  1.00  0.00     0.031 A 
ATOM     41  C   UNL A   1      41.959  25.970  27.961  1.00  0.00     0.074 A 
ATOM     42  C   UNL A   1      44.073  25.343  26.834  1.00  0.00     0.049 A 
ATOM     43  N   UNL A   1      42.166  27.239  28.194  1.00  0.00    -0.248 NA
ATOM     44  C   UNL A   1      40.628  25.494  28.377  1.00  0.00     0.031 C 
ATOM     45  C   UNL A   1      45.000  24.485  26.094  1.00  0.00     0.029 A 
ATOM     46  N   UNL A   1      44.713  26.555  26.886  1.00  0.00    -0.354 N 
ATOM     47  C   UNL A   1      40.984  27.720  28.741  1.00  0.00     0.074 A 
ATOM     48  C   UNL A   1      40.049  26.618  28.769  1.00  0.00     0.031 C 
ATOM     49  C   UNL A   1      46.094  25.194  25.771  1.00  0.00     0.029 A 
ATOM     50  C   UNL A   1      45.937  26.561  26.259  1.00  0.00     0.049 A 
ATOM     51  H   UNL A   1      44.331  27.347  27.329  1.00  0.00     0.167 HD
ATOM     52  C   UNL A   1      40.713  28.958  29.217  1.00  0.00     0.034 A 
ATOM     53  C   UNL A   1      46.833  27.554  26.102  1.00  0.00     0.034 A 
ATOM     54  C   UNL A   1      41.669  30.030  29.247  1.00  0.00     0.049 A 
ATOM     55  C   UNL A   1      46.538  28.900  26.710  1.00  0.00     0.074 A 
ATOM     56  C   UNL A   1      41.532  31.290  29.798  1.00  0.00     0.029 A 
ATOM     57  N   UNL A   1      42.943  29.965  28.703  1.00  0.00    -0.354 N 
ATOM     58  N   UNL A   1      45.480  29.289  27.379  1.00  0.00    -0.248 NA
ATOM     59  C   UNL A   1      47.577  29.932  26.576  1.00  0.00     0.031 C 
ATOM     60  C   UNL A   1      42.721  31.994  29.580  1.00  0.00     0.029 A 
ATOM     61  C   UNL A   1      43.604  31.164  28.905  1.00  0.00     0.049 A 
ATOM     62  H   UNL A   1      43.321  29.182  28.242  1.00  0.00     0.167 HD
ATOM     63  C   UNL A   1      45.738  30.595  27.777  1.00  0.00     0.074 A 
ATOM     64  C   UNL A   1      47.064  30.924  27.292  1.00  0.00     0.031 C 
ATOM     65  C   UNL A   1      44.946  31.452  28.466  1.00  0.00     0.034 A 
BRANCH  52  66
ATOM     66  C   UNL A   1      39.349  29.194  29.808  1.00  0.00     0.023 A 
ATOM     67  C   UNL A   1      39.108  28.849  31.154  1.00  0.00     0.012 A 
ATOM     68  C   UNL A   1      38.321  29.795  29.055  1.00  0.00     0.148 A 
ATOM     69  C   UNL A   1      37.857  29.060  31.730  1.00  0.00     0.002 A 
ATOM     70  C   UNL A   1      37.089  30.044  29.651  1.00  0.00     0.091 A 
ATOM     71  F   UNL A   1      38.560  30.095  27.771  1.00  0.00    -0.205 F 
ATOM     72  C   UNL A   1      36.852  29.667  30.983  1.00  0.00     0.022 A 
BRANCH  70  73
ATOM     73  S   UNL A   1      35.755  30.890  28.795  1.00  0.00     0.127 S 
ATOM     74  O   UNL A   1      34.982  31.428  29.914  1.00  0.00    -0.237 OA
ATOM     75  O   UNL A   1      36.478  31.893  28.014  1.00  0.00    -0.237 OA
ATOM     76  O   UNL A   1      35.081  29.872  28.001  1.00  0.00    -0.744 OA
ENDBRANCH  70  73
ENDBRANCH  52  66
BRANCH  53  77
ATOM     77  C   UNL A   1      48.131  27.288  25.420  1.00  0.00     0.023 A 
ATOM     78  C   UNL A   1      49.224  26.823  26.178  1.00  0.00     0.012 A 
ATOM     79  C   UNL A   1      48.281  27.455  24.030  1.00  0.00     0.148 A 
ATOM     80  C   UNL A   1      50.453  26.563  25.571  1.00  0.00     0.002 A 
ATOM     81  C   UNL A   1      49.493  27.144  23.423  1.00  0.00     0.091 A 
ATOM     82  F   UNL A   1      47.234  27.908  23.328  1.00  0.00    -0.205 F 
ATOM     83  C   UNL A   1      50.584  26.713  24.193  1.00  0.00     0.022 A 
BRANCH  81  84
ATOM     84  S   UNL A   1      49.712  27.183  21.640  1.00  0.00     0.127 S 
ATOM     85  O   UNL A   1      48.657  26.279  21.189  1.00  0.00    -0.237 OA
ATOM     86  O   UNL A   1      49.485  28.596  21.337  1.00  0.00    -0.237 OA
ATOM     87  O   UNL A   1      51.077  26.733  21.406  1.00  0.00    -0.744 OA
ENDBRANCH  81  84
ENDBRANCH  53  77
BRANCH  65  88
ATOM     88  C   UNL A   1      45.495  32.819  28.770  1.00  0.00     0.023 A 
ATOM     89  C   UNL A   1      46.284  33.013  29.921  1.00  0.00     0.012 A 
ATOM     90  C   UNL A   1      45.300  33.888  27.874  1.00  0.00     0.148 A 
ATOM     91  C   UNL A   1      46.847  34.260  30.191  1.00  0.00     0.002 A 
ATOM     92  C   UNL A   1      45.903  35.115  28.125  1.00  0.00     0.091 A 
ATOM     93  F   UNL A   1      44.530  33.688  26.794  1.00  0.00    -0.205 F 
ATOM     94  C   UNL A   1      46.668  35.306  29.287  1.00  0.00     0.022 A 
BRANCH  92  95
ATOM     95  S   UNL A   1      45.806  36.485  26.967  1.00  0.00     0.127 S 
ATOM     96  O   UNL A   1      46.410  35.906  25.769  1.00  0.00    -0.237 OA
ATOM     97  O   UNL A   1      44.363  36.714  26.874  1.00  0.00    -0.237 OA
ATOM     98  O   UNL A   1      46.550  37.578  27.580  1.00  0.00    -0.744 OA
ENDBRANCH  92  95
ENDBRANCH  65  88
ENDBRANCH  39  40
ENDBRANCH  31  34
ENDBRANCH  29  30
ENDBRANCH  28  29
ENDBRANCH   1  28
TORSDOF 17
ENDMDL
MODEL 3
REMARK VINA RESULT:     -11.9      6.033     11.521
REMARK SMILES COc1ccc(N[C@]2(Br)C(=O)NC(=O)N[C@@H]2C(=O)NCCCCNC(=O)c2ccc(-c3c4nc(c(-c5cccc(S(=O)(=O)[O-])c5F)c5ccc([nH]5)c(-c5cccc(S(=O)(=O)[O-])c5F)c5nc(c(-c6cccc(S(=O)(=O)[O-])c6F)c6ccc3[nH]6)C=C5)C=C4)cc2)cc1
REMARK SMILES IDX 21 1 20 2 19 3 17 4 18 5 16 7 8 8 10 9 9 10 11 11 12 12
REMARK SMILES IDX 15 13 13 14 14 17 7 18 6 20 3 21 4 22 91 23 5 24 90 25 2 26
REMARK SMILES IDX 1 27 22 28 23 29 24 30 25 31 26 33 27 34 28 35 89 36 29 37
REMARK SMILES IDX 88 38 30 39 31 40 32 41 82 42 33 43 87 44 81 45 83 46 34 47
REMARK SMILES IDX 86 48 80 49 79 50 35 52 67 53 47 54 66 55 48 56 51 57 65 58
REMARK SMILES IDX 84 59 49 60 50 61 64 63 85 64 52 65 36 66 37 67 45 68 38 69
REMARK SMILES IDX 40 70 46 71 39 72 41 73 42 74 43 75 44 76 68 77 69 78 77 79
REMARK SMILES IDX 70 80 72 81 78 82 71 83 73 84 74 85 75 86 76 87 53 88 54 89
REMARK SMILES IDX 62 90 55 91 57 92 63 93 56 94 58 95 59 96 60 97 61 98
REMARK H PARENT 19 6 12 15 15 16 7 19 24 32 83 51 51 62
REMARK Flexibility Score: inf
ROOT
ATOM      1  C   UNL A   1      36.354  20.277  24.906  1.00  0.00     0.023 C 
ENDROOT
BRANCH   1   2
ATOM      2  C   UNL A   1      36.337  21.773  25.202  1.00  0.00     0.116 C 
BRANCH   2   3
ATOM      3  N   UNL A   1      35.975  22.485  24.002  1.00  0.00    -0.354 N 
ATOM      4  C   UNL A   1      34.861  23.170  23.659  1.00  0.00     0.246 C 
ATOM      5  O   UNL A   1      34.618  23.215  22.445  1.00  0.00    -0.273 OA
ATOM      6  H   UNL A   1      36.667  22.468  23.301  1.00  0.00     0.163 HD
BRANCH   4   7
ATOM      7  C   UNL A   1      33.857  23.792  24.628  1.00  0.00     0.219 C 
ATOM      8  C   UNL A   1      32.353  23.550  24.502  1.00  0.00     0.202 C 
ATOM      9  C   UNL A   1      31.676  24.715  23.728  1.00  0.00     0.267 C 
ATOM     10  Br  UNL A   1      31.560  23.884  26.352  1.00  0.00    -0.048 Br
ATOM     11  O   UNL A   1      30.573  24.605  23.184  1.00  0.00    -0.271 OA
ATOM     12  N   UNL A   1      32.333  25.922  23.668  1.00  0.00    -0.275 N 
ATOM     13  N   UNL A   1      34.246  25.201  24.727  1.00  0.00    -0.322 N 
ATOM     14  C   UNL A   1      33.567  26.218  24.155  1.00  0.00     0.322 C 
ATOM     15  H   UNL A   1      31.853  26.657  23.222  1.00  0.00     0.174 HD
ATOM     16  H   UNL A   1      35.053  25.420  25.245  1.00  0.00     0.166 HD
ATOM     17  O   UNL A   1      34.039  27.344  24.076  1.00  0.00    -0.248 OA
BRANCH   8  18
ATOM     18  N   UNL A   1      31.754  22.266  24.082  1.00  0.00    -0.360 N 
ATOM     19  H   UNL A   1      30.897  22.368  23.609  1.00  0.00     0.162 HD
BRANCH  18  20
ATOM     20  C   UNL A   1      32.155  20.957  24.221  1.00  0.00     0.036 A 
ATOM     21  C   UNL A   1      33.073  18.273  24.387  1.00  0.00     0.119 A 
ATOM     22  C   UNL A   1      33.063  19.079  25.507  1.00  0.00     0.048 A 
ATOM     23  C   UNL A   1      32.610  18.774  23.178  1.00  0.00     0.048 A 
ATOM     24  C   UNL A   1      32.621  20.402  25.409  1.00  0.00     0.029 A 
ATOM     25  C   UNL A   1      32.155  20.104  23.102  1.00  0.00     0.029 A 
BRANCH  21  26
ATOM     26  O   UNL A   1      33.484  16.981  24.534  1.00  0.00    -0.497 OA
ATOM     27  C   UNL A   1      32.653  16.270  25.451  1.00  0.00     0.278 C 
ENDBRANCH  21  26
ENDBRANCH  18  20
ENDBRANCH   8  18
ENDBRANCH   4   7
ENDBRANCH   2   3
ENDBRANCH   1   2
BRANCH   1  28
ATOM     28  C   UNL A   1      37.768  19.707  24.786  1.00  0.00     0.023 C 
BRANCH  28  29
ATOM     29  C   UNL A   1      38.736  20.206  25.855  1.00  0.00     0.116 C 
BRANCH  29  30
ATOM     30  N   UNL A   1      39.893  19.334  26.015  1.00  0.00    -0.352 N 
ATOM     31  C   UNL A   1      41.185  19.682  26.317  1.00  0.00     0.251 C 
ATOM     32  H   UNL A   1      39.725  18.372  25.889  1.00  0.00     0.163 HD
ATOM     33  O   UNL A   1      42.087  18.851  26.266  1.00  0.00    -0.269 OA
BRANCH  31  34
ATOM     34  C   UNL A   1      41.466  21.081  26.680  1.00  0.00     0.039 A 
ATOM     35  C   UNL A   1      42.091  21.359  27.896  1.00  0.00     0.014 A 
ATOM     36  C   UNL A   1      41.178  22.103  25.769  1.00  0.00     0.014 A 
ATOM     37  C   UNL A   1      42.484  22.667  28.176  1.00  0.00     0.010 A 
ATOM     38  C   UNL A   1      41.642  23.386  26.017  1.00  0.00     0.010 A 
ATOM     39  C   UNL A   1      42.291  23.683  27.225  1.00  0.00    -0.014 A 
BRANCH  39  40
ATOM     40  C   UNL A   1      42.759  25.068  27.471  1.00  0.00     0.031 A 
ATOM     41  C   UNL A   1      41.830  26.071  28.099  1.00  0.00     0.074 A 
ATOM     42  C   UNL A   1      43.981  25.445  27.045  1.00  0.00     0.049 A 
ATOM     43  N   UNL A   1      42.031  27.338  28.344  1.00  0.00    -0.248 NA
ATOM     44  C   UNL A   1      40.484  25.596  28.466  1.00  0.00     0.031 C 
ATOM     45  C   UNL A   1      44.933  24.587  26.335  1.00  0.00     0.029 A 
ATOM     46  N   UNL A   1      44.621  26.655  27.124  1.00  0.00    -0.354 N 
ATOM     47  C   UNL A   1      40.831  27.820  28.851  1.00  0.00     0.074 A 
ATOM     48  C   UNL A   1      39.893  26.720  28.841  1.00  0.00     0.031 C 
ATOM     49  C   UNL A   1      46.039  25.296  26.054  1.00  0.00     0.029 A 
ATOM     50  C   UNL A   1      45.867  26.660  26.542  1.00  0.00     0.049 A 
ATOM     51  H   UNL A   1      44.225  27.446  27.557  1.00  0.00     0.167 HD
ATOM     52  C   UNL A   1      40.545  29.056  29.322  1.00  0.00     0.034 A 
ATOM     53  C   UNL A   1      46.770  27.653  26.421  1.00  0.00     0.034 A 
ATOM     54  C   UNL A   1      41.502  30.126  29.391  1.00  0.00     0.049 A 
ATOM     55  C   UNL A   1      46.456  28.996  27.024  1.00  0.00     0.074 A 
ATOM     56  C   UNL A   1      41.348  31.384  29.942  1.00  0.00     0.029 A 
ATOM     57  N   UNL A   1      42.794  30.061  28.892  1.00  0.00    -0.354 N 
ATOM     58  N   UNL A   1      45.375  29.385  27.656  1.00  0.00    -0.248 NA
ATOM     59  C   UNL A   1      47.501  30.027  26.931  1.00  0.00     0.031 C 
ATOM     60  C   UNL A   1      42.545  32.086  29.769  1.00  0.00     0.029 A 
ATOM     61  C   UNL A   1      43.450  31.258  29.122  1.00  0.00     0.049 A 
ATOM     62  H   UNL A   1      43.187  29.279  28.442  1.00  0.00     0.167 HD
ATOM     63  C   UNL A   1      45.622  30.689  28.069  1.00  0.00     0.074 A 
ATOM     64  C   UNL A   1      46.964  31.017  27.632  1.00  0.00     0.031 C 
ATOM     65  C   UNL A   1      44.807  31.544  28.733  1.00  0.00     0.034 A 
BRANCH  52  66
ATOM     66  C   UNL A   1      39.162  29.292  29.865  1.00  0.00     0.023 A 
ATOM     67  C   UNL A   1      38.876  28.954  31.205  1.00  0.00     0.012 A 
ATOM     68  C   UNL A   1      38.159  29.887  29.075  1.00  0.00     0.148 A 
ATOM     69  C   UNL A   1      37.606  29.166  31.737  1.00  0.00     0.002 A 
ATOM     70  C   UNL A   1      36.907  30.136  29.627  1.00  0.00     0.091 A 
ATOM     71  F   UNL A   1      38.440  30.180  27.798  1.00  0.00    -0.205 F 
ATOM     72  C   UNL A   1      36.625  29.766  30.952  1.00  0.00     0.022 A 
BRANCH  70  73
ATOM     73  S   UNL A   1      35.600  30.974  28.722  1.00  0.00     0.127 S 
ATOM     74  O   UNL A   1      34.974  29.861  28.010  1.00  0.00    -0.237 OA
ATOM     75  O   UNL A   1      34.792  31.540  29.802  1.00  0.00    -0.237 OA
ATOM     76  O   UNL A   1      36.265  31.960  27.882  1.00  0.00    -0.744 OA
ENDBRANCH  70  73
ENDBRANCH  52  66
BRANCH  53  77
ATOM     77  C   UNL A   1      48.090  27.386  25.784  1.00  0.00     0.023 A 
ATOM     78  C   UNL A   1      49.167  26.959  26.586  1.00  0.00     0.012 A 
ATOM     79  C   UNL A   1      48.279  27.518  24.396  1.00  0.00     0.148 A 
ATOM     80  C   UNL A   1      50.417  26.701  26.022  1.00  0.00     0.002 A 
ATOM     81  C   UNL A   1      49.512  27.207  23.833  1.00  0.00     0.091 A 
ATOM     82  F   UNL A   1      47.247  27.936  23.651  1.00  0.00    -0.205 F 
ATOM     83  C   UNL A   1      50.587  26.814  24.646  1.00  0.00     0.022 A 
BRANCH  81  84
ATOM     84  S   UNL A   1      49.782  27.200  22.056  1.00  0.00     0.127 S 
ATOM     85  O   UNL A   1      49.538  28.598  21.711  1.00  0.00    -0.237 OA
ATOM     86  O   UNL A   1      51.180  26.777  21.963  1.00  0.00    -0.237 OA
ATOM     87  O   UNL A   1      48.829  26.237  21.522  1.00  0.00    -0.744 OA
ENDBRANCH  81  84
ENDBRANCH  53  77
BRANCH  65  88
ATOM     88  C   UNL A   1      45.347  32.910  29.062  1.00  0.00     0.023 A 
ATOM     89  C   UNL A   1      46.084  33.100  30.247  1.00  0.00     0.012 A 
ATOM     90  C   UNL A   1      45.198  33.980  28.158  1.00  0.00     0.148 A 
ATOM     91  C   UNL A   1      46.639  34.344  30.543  1.00  0.00     0.002 A 
ATOM     92  C   UNL A   1      45.795  35.203  28.437  1.00  0.00     0.091 A 
ATOM     93  F   UNL A   1      44.477  33.782  27.044  1.00  0.00    -0.205 F 
ATOM     94  C   UNL A   1      46.506  35.391  29.632  1.00  0.00     0.022 A 
BRANCH  92  95
ATOM     95  S   UNL A   1      45.756  36.574  27.276  1.00  0.00     0.127 S 
ATOM     96  O   UNL A   1      46.525  37.591  27.990  1.00  0.00    -0.237 OA
ATOM     97  O   UNL A   1      46.428  36.011  26.104  1.00  0.00    -0.237 OA
ATOM     98  O   UNL A   1      44.346  36.882  27.072  1.00  0.00    -0.744 OA
ENDBRANCH  92  95
ENDBRANCH  65  88
ENDBRANCH  39  40
ENDBRANCH  31  34
ENDBRANCH  29  30
ENDBRANCH  28  29
ENDBRANCH   1  28
TORSDOF 17
ENDMDL
