MODEL 1
REMARK VINA RESULT:     -13.1      0.000      0.000
REMARK SMILES O=C(NCCCCNC(=O)[C@H]1CC2=c3ccccc3=N[C@H]2[C@@H](c2ccccc2)[NH2+]1)c1ccc(-c2c3nc(c(-c4cccc(S(=O)(=O)[O-])c4F)c4ccc([nH]4)c(-c4cccc(S(=O)(=O)[O-])c4F)c4nc(c(-c5cccc(S(=O)(=O)[O-])c5F)c5ccc2[nH]5)C=C4)C=C3)cc1
REMARK SMILES IDX 4 1 3 2 1 3 2 4 30 6 31 7 92 8 32 9 91 10 33 11 34 12 35 13
REMARK SMILES IDX 85 14 36 15 90 16 84 17 86 18 37 19 89 20 83 21 82 22 38 24
REMARK SMILES IDX 70 25 50 26 69 27 51 28 54 29 68 30 87 31 52 32 53 33 67 35
REMARK SMILES IDX 88 36 55 37 39 38 40 39 48 40 41 41 43 42 49 43 42 44 44 45
REMARK SMILES IDX 45 46 46 47 47 48 71 49 72 50 80 51 73 52 75 53 81 54 74 55
REMARK SMILES IDX 76 56 77 57 78 58 79 59 56 60 57 61 65 62 58 63 60 64 66 65
REMARK SMILES IDX 59 66 61 67 62 68 63 69 64 70 5 71 6 72 7 73 8 74 9 75 10 77
REMARK SMILES IDX 11 78 12 79 29 80 13 81 22 82 14 85 21 86 15 87 19 88 20 89
REMARK SMILES IDX 16 90 18 91 17 92 23 93 24 94 28 95 25 96 27 97 26 98
REMARK H PARENT 3 5 86 23 54 34 8 76 29 83 29 84
REMARK Flexibility Score: inf
ROOT
ATOM      1  C   UNL A   1      32.872  32.632  27.170  1.00  0.00     0.116 C 
ENDROOT
BRANCH   1   2
ATOM      2  N   UNL A   1      32.595  33.984  27.636  1.00  0.00    -0.352 N 
ATOM      3  O   UNL A   1      32.732  35.772  28.995  1.00  0.00    -0.269 OA
ATOM      4  C   UNL A   1      33.172  34.674  28.664  1.00  0.00     0.251 C 
ATOM      5  H   UNL A   1      31.894  34.466  27.142  1.00  0.00     0.163 HD
BRANCH   4   6
ATOM      6  C   UNL A   1      34.311  34.075  29.377  1.00  0.00     0.039 A 
ATOM      7  C   UNL A   1      34.054  33.151  30.389  1.00  0.00     0.014 A 
ATOM      8  C   UNL A   1      35.620  34.429  29.037  1.00  0.00     0.014 A 
ATOM      9  C   UNL A   1      35.122  32.559  31.058  1.00  0.00     0.010 A 
ATOM     10  C   UNL A   1      36.683  33.793  29.662  1.00  0.00     0.010 A 
ATOM     11  C   UNL A   1      36.441  32.872  30.692  1.00  0.00    -0.014 A 
BRANCH  11  12
ATOM     12  C   UNL A   1      37.591  32.295  31.420  1.00  0.00     0.031 A 
ATOM     13  C   UNL A   1      38.374  31.179  30.786  1.00  0.00     0.074 A 
ATOM     14  C   UNL A   1      37.896  32.741  32.653  1.00  0.00     0.049 A 
ATOM     15  N   UNL A   1      39.353  30.475  31.288  1.00  0.00    -0.248 NA
ATOM     16  C   UNL A   1      37.997  30.786  29.415  1.00  0.00     0.031 C 
ATOM     17  C   UNL A   1      37.186  33.801  33.373  1.00  0.00     0.029 A 
ATOM     18  N   UNL A   1      38.879  32.350  33.526  1.00  0.00    -0.354 N 
ATOM     19  C   UNL A   1      39.682  29.540  30.316  1.00  0.00     0.074 A 
ATOM     20  C   UNL A   1      38.790  29.746  29.199  1.00  0.00     0.031 C 
ATOM     21  C   UNL A   1      37.769  33.988  34.569  1.00  0.00     0.029 A 
ATOM     22  C   UNL A   1      38.869  33.041  34.714  1.00  0.00     0.049 A 
ATOM     23  H   UNL A   1      39.530  31.640  33.321  1.00  0.00     0.167 HD
ATOM     24  C   UNL A   1      40.665  28.613  30.343  1.00  0.00     0.034 A 
ATOM     25  C   UNL A   1      39.663  32.920  35.796  1.00  0.00     0.034 A 
ATOM     26  C   UNL A   1      41.592  28.461  31.426  1.00  0.00     0.049 A 
ATOM     27  C   UNL A   1      40.763  31.895  35.782  1.00  0.00     0.074 A 
ATOM     28  C   UNL A   1      42.655  27.581  31.524  1.00  0.00     0.029 A 
ATOM     29  N   UNL A   1      41.581  29.216  32.586  1.00  0.00    -0.354 N 
ATOM     30  N   UNL A   1      41.097  31.064  34.827  1.00  0.00    -0.248 NA
ATOM     31  C   UNL A   1      41.611  31.809  36.981  1.00  0.00     0.031 C 
ATOM     32  C   UNL A   1      43.291  27.807  32.746  1.00  0.00     0.029 A 
ATOM     33  C   UNL A   1      42.631  28.836  33.399  1.00  0.00     0.049 A 
ATOM     34  H   UNL A   1      40.926  29.920  32.798  1.00  0.00     0.167 HD
ATOM     35  C   UNL A   1      42.219  30.387  35.289  1.00  0.00     0.074 A 
ATOM     36  C   UNL A   1      42.509  30.905  36.610  1.00  0.00     0.031 C 
ATOM     37  C   UNL A   1      42.940  29.419  34.677  1.00  0.00     0.034 A 
BRANCH  24  38
ATOM     38  C   UNL A   1      40.856  27.734  29.141  1.00  0.00     0.023 A 
ATOM     39  C   UNL A   1      40.054  26.586  29.001  1.00  0.00     0.012 A 
ATOM     40  C   UNL A   1      41.710  28.122  28.091  1.00  0.00     0.148 A 
ATOM     41  C   UNL A   1      40.091  25.837  27.826  1.00  0.00     0.002 A 
ATOM     42  C   UNL A   1      41.719  27.390  26.912  1.00  0.00     0.091 A 
ATOM     43  F   UNL A   1      42.468  29.216  28.259  1.00  0.00    -0.205 F 
ATOM     44  C   UNL A   1      40.912  26.247  26.778  1.00  0.00     0.022 A 
BRANCH  42  45
ATOM     45  S   UNL A   1      42.692  27.864  25.479  1.00  0.00     0.127 S 
ATOM     46  O   UNL A   1      42.603  26.661  24.650  1.00  0.00    -0.237 OA
ATOM     47  O   UNL A   1      41.945  29.013  24.970  1.00  0.00    -0.237 OA
ATOM     48  O   UNL A   1      44.028  28.164  25.976  1.00  0.00    -0.744 OA
ENDBRANCH  42  45
ENDBRANCH  24  38
BRANCH  25  49
ATOM     49  C   UNL A   1      39.500  33.850  36.947  1.00  0.00     0.023 A 
ATOM     50  C   UNL A   1      39.935  35.183  36.812  1.00  0.00     0.012 A 
ATOM     51  C   UNL A   1      38.897  33.439  38.149  1.00  0.00     0.148 A 
ATOM     52  C   UNL A   1      39.794  36.086  37.866  1.00  0.00     0.002 A 
ATOM     53  C   UNL A   1      38.724  34.354  39.182  1.00  0.00     0.091 A 
ATOM     54  F   UNL A   1      38.496  32.164  38.255  1.00  0.00    -0.205 F 
ATOM     55  C   UNL A   1      39.182  35.674  39.046  1.00  0.00     0.022 A 
BRANCH  53  56
ATOM     56  S   UNL A   1      37.863  33.944  40.703  1.00  0.00     0.127 S 
ATOM     57  O   UNL A   1      36.620  33.368  40.196  1.00  0.00    -0.237 OA
ATOM     58  O   UNL A   1      38.780  32.984  41.319  1.00  0.00    -0.237 OA
ATOM     59  O   UNL A   1      37.726  35.198  41.431  1.00  0.00    -0.744 OA
ENDBRANCH  53  56
ENDBRANCH  25  49
BRANCH  37  60
ATOM     60  C   UNL A   1      44.152  28.883  35.383  1.00  0.00     0.023 A 
ATOM     61  C   UNL A   1      45.391  29.530  35.225  1.00  0.00     0.012 A 
ATOM     62  C   UNL A   1      44.022  27.831  36.310  1.00  0.00     0.148 A 
ATOM     63  C   UNL A   1      46.492  29.129  35.978  1.00  0.00     0.002 A 
ATOM     64  C   UNL A   1      45.114  27.461  37.082  1.00  0.00     0.091 A 
ATOM     65  F   UNL A   1      42.828  27.232  36.432  1.00  0.00    -0.205 F 
ATOM     66  C   UNL A   1      46.352  28.105  36.915  1.00  0.00     0.022 A 
BRANCH  64  67
ATOM     67  S   UNL A   1      45.008  26.213  38.369  1.00  0.00     0.127 S 
ATOM     68  O   UNL A   1      44.666  25.019  37.597  1.00  0.00    -0.237 OA
ATOM     69  O   UNL A   1      46.364  26.219  38.917  1.00  0.00    -0.237 OA
ATOM     70  O   UNL A   1      43.977  26.670  39.292  1.00  0.00    -0.744 OA
ENDBRANCH  64  67
ENDBRANCH  37  60
ENDBRANCH  11  12
ENDBRANCH   4   6
ENDBRANCH   1   2
BRANCH   1  71
ATOM     71  C   UNL A   1      31.601  31.874  26.793  1.00  0.00     0.023 C 
BRANCH  71  72
ATOM     72  C   UNL A   1      31.755  30.348  26.733  1.00  0.00     0.023 C 
BRANCH  72  73
ATOM     73  C   UNL A   1      32.465  29.838  25.479  1.00  0.00     0.116 C 
BRANCH  73  74
ATOM     74  N   UNL A   1      31.519  29.669  24.410  1.00  0.00    -0.351 N 
ATOM     75  C   UNL A   1      31.497  28.828  23.357  1.00  0.00     0.278 C 
ATOM     76  H   UNL A   1      30.746  30.277  24.457  1.00  0.00     0.163 HD
ATOM     77  O   UNL A   1      30.740  29.174  22.436  1.00  0.00    -0.268 OA
BRANCH  75  78
ATOM     78  C   UNL A   1      32.243  27.472  23.257  1.00  0.00     0.277 C 
ATOM     79  C   UNL A   1      33.217  26.924  24.341  1.00  0.00     0.109 C 
ATOM     80  N   UNL A   1      31.237  26.464  22.794  1.00  0.00    -0.327 N 
ATOM     81  C   UNL A   1      33.851  25.643  23.846  1.00  0.00    -0.024 C 
ATOM     82  C   UNL A   1      31.635  25.039  22.910  1.00  0.00     0.243 C 
ATOM     83  H   UNL A   1      31.036  26.652  21.813  1.00  0.00     0.347 HD
ATOM     84  H   UNL A   1      30.435  26.574  23.416  1.00  0.00     0.347 HD
ATOM     85  C   UNL A   1      34.757  24.796  24.327  1.00  0.00     0.002 A 
ATOM     86  C   UNL A   1      33.179  25.037  22.639  1.00  0.00     0.196 C 
ATOM     87  C   UNL A   1      35.525  24.659  25.523  1.00  0.00     0.010 A 
ATOM     88  C   UNL A   1      34.755  23.718  23.310  1.00  0.00     0.066 A 
ATOM     89  N   UNL A   1      33.834  23.732  22.394  1.00  0.00    -0.270 NA
ATOM     90  C   UNL A   1      36.360  23.610  25.634  1.00  0.00     0.001 A 
ATOM     91  C   UNL A   1      35.800  22.684  23.433  1.00  0.00     0.028 A 
ATOM     92  C   UNL A   1      36.559  22.672  24.540  1.00  0.00     0.002 A 
BRANCH  82  93
ATOM     93  C   UNL A   1      31.149  24.377  24.228  1.00  0.00     0.012 A 
ATOM     94  C   UNL A   1      30.435  25.073  25.224  1.00  0.00     0.010 A 
ATOM     95  C   UNL A   1      31.373  23.008  24.464  1.00  0.00     0.010 A 
ATOM     96  C   UNL A   1      30.045  24.453  26.420  1.00  0.00     0.001 A 
ATOM     97  C   UNL A   1      31.009  22.392  25.669  1.00  0.00     0.001 A 
ATOM     98  C   UNL A   1      30.351  23.117  26.651  1.00  0.00     0.000 A 
ENDBRANCH  82  93
ENDBRANCH  75  78
ENDBRANCH  73  74
ENDBRANCH  72  73
ENDBRANCH  71  72
ENDBRANCH   1  71
TORSDOF 15
ENDMDL
MODEL 2
REMARK VINA RESULT:     -13.0      5.258      8.639
REMARK SMILES O=C(NCCCCNC(=O)[C@H]1CC2=c3ccccc3=N[C@H]2[C@@H](c2ccccc2)[NH2+]1)c1ccc(-c2c3nc(c(-c4cccc(S(=O)(=O)[O-])c4F)c4ccc([nH]4)c(-c4cccc(S(=O)(=O)[O-])c4F)c4nc(c(-c5cccc(S(=O)(=O)[O-])c5F)c5ccc2[nH]5)C=C4)C=C3)cc1
REMARK SMILES IDX 4 1 3 2 1 3 2 4 30 6 31 7 92 8 32 9 91 10 33 11 34 12 35 13
REMARK SMILES IDX 85 14 36 15 90 16 84 17 86 18 37 19 89 20 83 21 82 22 38 24
REMARK SMILES IDX 70 25 50 26 69 27 51 28 54 29 68 30 87 31 52 32 53 33 67 35
REMARK SMILES IDX 88 36 55 37 39 38 40 39 48 40 41 41 43 42 49 43 42 44 44 45
REMARK SMILES IDX 45 46 46 47 47 48 71 49 72 50 80 51 73 52 75 53 81 54 74 55
REMARK SMILES IDX 76 56 77 57 78 58 79 59 56 60 57 61 65 62 58 63 60 64 66 65
REMARK SMILES IDX 59 66 61 67 62 68 63 69 64 70 5 71 6 72 7 73 8 74 9 75 10 77
REMARK SMILES IDX 11 78 12 79 29 80 13 81 22 82 14 85 21 86 15 87 19 88 20 89
REMARK SMILES IDX 16 90 18 91 17 92 23 93 24 94 28 95 25 96 27 97 26 98
REMARK H PARENT 3 5 86 23 54 34 8 76 29 83 29 84
REMARK Flexibility Score: inf
ROOT
ATOM      1  C   UNL A   1      36.767  23.475  25.864  1.00  0.00     0.116 C 
ENDROOT
BRANCH   1   2
ATOM      2  N   UNL A   1      37.834  22.500  26.048  1.00  0.00    -0.352 N 
ATOM      3  O   UNL A   1      39.921  21.773  26.468  1.00  0.00    -0.269 OA
ATOM      4  C   UNL A   1      39.114  22.699  26.483  1.00  0.00     0.251 C 
ATOM      5  H   UNL A   1      37.599  21.570  25.830  1.00  0.00     0.163 HD
BRANCH   4   6
ATOM      6  C   UNL A   1      39.512  24.036  26.946  1.00  0.00     0.039 A 
ATOM      7  C   UNL A   1      40.056  24.929  26.023  1.00  0.00     0.014 A 
ATOM      8  C   UNL A   1      39.343  24.396  28.286  1.00  0.00     0.014 A 
ATOM      9  C   UNL A   1      40.417  26.207  26.443  1.00  0.00     0.010 A 
ATOM     10  C   UNL A   1      39.646  25.689  28.689  1.00  0.00     0.010 A 
ATOM     11  C   UNL A   1      40.207  26.595  27.776  1.00  0.00    -0.014 A 
BRANCH  11  12
ATOM     12  C   UNL A   1      40.629  27.927  28.257  1.00  0.00     0.031 A 
ATOM     13  C   UNL A   1      42.091  28.279  28.250  1.00  0.00     0.074 A 
ATOM     14  C   UNL A   1      39.712  28.789  28.737  1.00  0.00     0.049 A 
ATOM     15  N   UNL A   1      42.679  29.349  28.711  1.00  0.00    -0.248 NA
ATOM     16  C   UNL A   1      43.018  27.291  27.664  1.00  0.00     0.031 C 
ATOM     17  C   UNL A   1      38.271  28.538  28.816  1.00  0.00     0.029 A 
ATOM     18  N   UNL A   1      39.859  30.047  29.261  1.00  0.00    -0.354 N 
ATOM     19  C   UNL A   1      44.039  29.150  28.507  1.00  0.00     0.074 A 
ATOM     20  C   UNL A   1      44.197  27.850  27.898  1.00  0.00     0.031 C 
ATOM     21  C   UNL A   1      37.664  29.618  29.338  1.00  0.00     0.029 A 
ATOM     22  C   UNL A   1      38.675  30.620  29.662  1.00  0.00     0.049 A 
ATOM     23  H   UNL A   1      40.730  30.499  29.343  1.00  0.00     0.167 HD
ATOM     24  C   UNL A   1      45.059  29.994  28.775  1.00  0.00     0.034 A 
ATOM     25  C   UNL A   1      38.437  31.820  30.226  1.00  0.00     0.034 A 
ATOM     26  C   UNL A   1      44.888  31.311  29.315  1.00  0.00     0.049 A 
ATOM     27  C   UNL A   1      39.594  32.744  30.487  1.00  0.00     0.074 A 
ATOM     28  C   UNL A   1      45.859  32.261  29.576  1.00  0.00     0.029 A 
ATOM     29  N   UNL A   1      43.669  31.872  29.655  1.00  0.00    -0.354 N 
ATOM     30  N   UNL A   1      40.865  32.562  30.228  1.00  0.00    -0.248 NA
ATOM     31  C   UNL A   1      39.283  34.048  31.093  1.00  0.00     0.031 C 
ATOM     32  C   UNL A   1      45.226  33.401  30.073  1.00  0.00     0.029 A 
ATOM     33  C   UNL A   1      43.861  33.163  30.107  1.00  0.00     0.049 A 
ATOM     34  H   UNL A   1      42.798  31.420  29.584  1.00  0.00     0.167 HD
ATOM     35  C   UNL A   1      41.500  33.741  30.596  1.00  0.00     0.074 A 
ATOM     36  C   UNL A   1      40.475  34.632  31.097  1.00  0.00     0.031 C 
ATOM     37  C   UNL A   1      42.815  34.054  30.532  1.00  0.00     0.034 A 
BRANCH  24  38
ATOM     38  C   UNL A   1      46.455  29.568  28.421  1.00  0.00     0.023 A 
ATOM     39  C   UNL A   1      47.016  30.011  27.208  1.00  0.00     0.012 A 
ATOM     40  C   UNL A   1      47.251  28.865  29.345  1.00  0.00     0.148 A 
ATOM     41  C   UNL A   1      48.359  29.769  26.922  1.00  0.00     0.002 A 
ATOM     42  C   UNL A   1      48.595  28.654  29.067  1.00  0.00     0.091 A 
ATOM     43  F   UNL A   1      46.684  28.448  30.486  1.00  0.00    -0.205 F 
ATOM     44  C   UNL A   1      49.150  29.104  27.856  1.00  0.00     0.022 A 
BRANCH  42  45
ATOM     45  S   UNL A   1      49.717  27.864  30.225  1.00  0.00     0.127 S 
ATOM     46  O   UNL A   1      49.278  26.470  30.157  1.00  0.00    -0.237 OA
ATOM     47  O   UNL A   1      51.019  28.125  29.614  1.00  0.00    -0.237 OA
ATOM     48  O   UNL A   1      49.495  28.512  31.511  1.00  0.00    -0.744 OA
ENDBRANCH  42  45
ENDBRANCH  24  38
BRANCH  25  49
ATOM     49  C   UNL A   1      37.039  32.249  30.503  1.00  0.00     0.023 A 
ATOM     50  C   UNL A   1      36.503  32.034  31.788  1.00  0.00     0.012 A 
ATOM     51  C   UNL A   1      36.255  32.886  29.525  1.00  0.00     0.148 A 
ATOM     52  C   UNL A   1      35.198  32.427  32.088  1.00  0.00     0.002 A 
ATOM     53  C   UNL A   1      34.968  33.310  29.842  1.00  0.00     0.091 A 
ATOM     54  F   UNL A   1      36.785  33.073  28.309  1.00  0.00    -0.205 F 
ATOM     55  C   UNL A   1      34.435  33.071  31.118  1.00  0.00     0.022 A 
BRANCH  53  56
ATOM     56  S   UNL A   1      33.943  34.231  28.691  1.00  0.00     0.127 S 
ATOM     57  O   UNL A   1      33.646  33.219  27.680  1.00  0.00    -0.237 OA
ATOM     58  O   UNL A   1      32.810  34.612  29.534  1.00  0.00    -0.237 OA
ATOM     59  O   UNL A   1      34.761  35.349  28.241  1.00  0.00    -0.744 OA
ENDBRANCH  53  56
ENDBRANCH  25  49
BRANCH  37  60
ATOM     60  C   UNL A   1      43.237  35.432  30.951  1.00  0.00     0.023 A 
ATOM     61  C   UNL A   1      43.634  35.663  32.282  1.00  0.00     0.012 A 
ATOM     62  C   UNL A   1      43.376  36.452  29.990  1.00  0.00     0.148 A 
ATOM     63  C   UNL A   1      44.157  36.900  32.653  1.00  0.00     0.002 A 
ATOM     64  C   UNL A   1      43.931  37.669  30.360  1.00  0.00     0.091 A 
ATOM     65  F   UNL A   1      42.983  36.202  28.733  1.00  0.00    -0.205 F 
ATOM     66  C   UNL A   1      44.318  37.897  31.692  1.00  0.00     0.022 A 
BRANCH  64  67
ATOM     67  S   UNL A   1      44.254  38.982  29.178  1.00  0.00     0.127 S 
ATOM     68  O   UNL A   1      42.901  39.332  28.747  1.00  0.00    -0.237 OA
ATOM     69  O   UNL A   1      44.911  39.991  30.008  1.00  0.00    -0.237 OA
ATOM     70  O   UNL A   1      45.101  38.398  28.146  1.00  0.00    -0.744 OA
ENDBRANCH  64  67
ENDBRANCH  37  60
ENDBRANCH  11  12
ENDBRANCH   4   6
ENDBRANCH   1   2
BRANCH   1  71
ATOM     71  C   UNL A   1      35.379  22.857  26.019  1.00  0.00     0.023 C 
BRANCH  71  72
ATOM     72  C   UNL A   1      34.231  23.869  26.127  1.00  0.00     0.023 C 
BRANCH  72  73
ATOM     73  C   UNL A   1      33.093  23.634  25.133  1.00  0.00     0.116 C 
BRANCH  73  74
ATOM     74  N   UNL A   1      33.612  23.575  23.793  1.00  0.00    -0.351 N 
ATOM     75  C   UNL A   1      33.259  24.223  22.666  1.00  0.00     0.278 C 
ATOM     76  H   UNL A   1      34.361  22.946  23.680  1.00  0.00     0.163 HD
ATOM     77  O   UNL A   1      33.657  23.691  21.619  1.00  0.00    -0.268 OA
BRANCH  75  78
ATOM     78  C   UNL A   1      32.507  25.578  22.590  1.00  0.00     0.277 C 
ATOM     79  C   UNL A   1      31.041  25.795  23.069  1.00  0.00     0.109 C 
ATOM     80  N   UNL A   1      33.458  26.622  23.087  1.00  0.00    -0.327 N 
ATOM     81  C   UNL A   1      30.603  27.201  22.724  1.00  0.00    -0.024 C 
ATOM     82  C   UNL A   1      32.871  27.951  23.391  1.00  0.00     0.243 C 
ATOM     83  H   UNL A   1      34.174  26.755  22.374  1.00  0.00     0.347 HD
ATOM     84  H   UNL A   1      33.811  26.270  23.977  1.00  0.00     0.347 HD
ATOM     85  C   UNL A   1      29.476  27.895  22.859  1.00  0.00     0.002 A 
ATOM     86  C   UNL A   1      31.727  28.129  22.335  1.00  0.00     0.196 C 
ATOM     87  C   UNL A   1      28.178  27.676  23.413  1.00  0.00     0.010 A 
ATOM     88  C   UNL A   1      29.876  29.244  22.394  1.00  0.00     0.066 A 
ATOM     89  N   UNL A   1      31.135  29.478  22.180  1.00  0.00    -0.270 NA
ATOM     90  C   UNL A   1      27.280  28.677  23.360  1.00  0.00     0.001 A 
ATOM     91  C   UNL A   1      28.798  30.238  22.232  1.00  0.00     0.028 A 
ATOM     92  C   UNL A   1      27.572  29.931  22.682  1.00  0.00     0.002 A 
BRANCH  82  93
ATOM     93  C   UNL A   1      32.485  28.118  24.886  1.00  0.00     0.012 A 
ATOM     94  C   UNL A   1      32.505  27.055  25.812  1.00  0.00     0.010 A 
ATOM     95  C   UNL A   1      32.129  29.380  25.395  1.00  0.00     0.010 A 
ATOM     96  C   UNL A   1      32.111  27.232  27.146  1.00  0.00     0.001 A 
ATOM     97  C   UNL A   1      31.708  29.556  26.720  1.00  0.00     0.001 A 
ATOM     98  C   UNL A   1      31.693  28.479  27.594  1.00  0.00     0.000 A 
ENDBRANCH  82  93
ENDBRANCH  75  78
ENDBRANCH  73  74
ENDBRANCH  72  73
ENDBRANCH  71  72
ENDBRANCH   1  71
TORSDOF 15
ENDMDL
MODEL 3
REMARK VINA RESULT:     -13.0      1.487      7.605
REMARK SMILES O=C(NCCCCNC(=O)[C@H]1CC2=c3ccccc3=N[C@H]2[C@@H](c2ccccc2)[NH2+]1)c1ccc(-c2c3nc(c(-c4cccc(S(=O)(=O)[O-])c4F)c4ccc([nH]4)c(-c4cccc(S(=O)(=O)[O-])c4F)c4nc(c(-c5cccc(S(=O)(=O)[O-])c5F)c5ccc2[nH]5)C=C4)C=C3)cc1
REMARK SMILES IDX 4 1 3 2 1 3 2 4 30 6 31 7 92 8 32 9 91 10 33 11 34 12 35 13
REMARK SMILES IDX 85 14 36 15 90 16 84 17 86 18 37 19 89 20 83 21 82 22 38 24
REMARK SMILES IDX 70 25 50 26 69 27 51 28 54 29 68 30 87 31 52 32 53 33 67 35
REMARK SMILES IDX 88 36 55 37 39 38 40 39 48 40 41 41 43 42 49 43 42 44 44 45
REMARK SMILES IDX 45 46 46 47 47 48 71 49 72 50 80 51 73 52 75 53 81 54 74 55
REMARK SMILES IDX 76 56 77 57 78 58 79 59 56 60 57 61 65 62 58 63 60 64 66 65
REMARK SMILES IDX 59 66 61 67 62 68 63 69 64 70 5 71 6 72 7 73 8 74 9 75 10 77
REMARK SMILES IDX 11 78 12 79 29 80 13 81 22 82 14 85 21 86 15 87 19 88 20 89
REMARK SMILES IDX 16 90 18 91 17 92 23 93 24 94 28 95 25 96 27 97 26 98
REMARK H PARENT 3 5 86 23 54 34 8 76 29 83 29 84
REMARK Flexibility Score: inf
ROOT
ATOM      1  C   UNL A   1      32.756  32.593  26.991  1.00  0.00     0.116 C 
ENDROOT
BRANCH   1   2
ATOM      2  N   UNL A   1      32.595  33.910  27.592  1.00  0.00    -0.352 N 
ATOM      3  O   UNL A   1      32.935  35.556  29.087  1.00  0.00    -0.269 OA
ATOM      4  C   UNL A   1      33.284  34.471  28.631  1.00  0.00     0.251 C 
ATOM      5  H   UNL A   1      31.892  34.473  27.197  1.00  0.00     0.163 HD
BRANCH   4   6
ATOM      6  C   UNL A   1      34.431  33.749  29.201  1.00  0.00     0.039 A 
ATOM      7  C   UNL A   1      34.186  32.672  30.054  1.00  0.00     0.014 A 
ATOM      8  C   UNL A   1      35.736  34.139  28.886  1.00  0.00     0.014 A 
ATOM      9  C   UNL A   1      35.261  31.965  30.583  1.00  0.00     0.010 A 
ATOM     10  C   UNL A   1      36.805  33.395  29.366  1.00  0.00     0.010 A 
ATOM     11  C   UNL A   1      36.575  32.318  30.236  1.00  0.00    -0.014 A 
BRANCH  11  12
ATOM     12  C   UNL A   1      37.735  31.615  30.826  1.00  0.00     0.031 A 
ATOM     13  C   UNL A   1      38.148  31.939  32.235  1.00  0.00     0.074 A 
ATOM     14  C   UNL A   1      38.432  30.733  30.085  1.00  0.00     0.049 A 
ATOM     15  N   UNL A   1      39.183  31.510  32.905  1.00  0.00    -0.248 NA
ATOM     16  C   UNL A   1      37.299  32.885  32.985  1.00  0.00     0.031 C 
ATOM     17  C   UNL A   1      38.134  30.365  28.699  1.00  0.00     0.029 A 
ATOM     18  N   UNL A   1      39.544  29.992  30.393  1.00  0.00    -0.354 N 
ATOM     19  C   UNL A   1      39.130  32.156  34.134  1.00  0.00     0.074 A 
ATOM     20  C   UNL A   1      37.975  33.022  34.117  1.00  0.00     0.031 C 
ATOM     21  C   UNL A   1      39.030  29.454  28.283  1.00  0.00     0.029 A 
ATOM     22  C   UNL A   1      39.982  29.200  29.359  1.00  0.00     0.049 A 
ATOM     23  H   UNL A   1      39.987  30.025  31.272  1.00  0.00     0.167 HD
ATOM     24  C   UNL A   1      39.956  32.010  35.193  1.00  0.00     0.034 A 
ATOM     25  C   UNL A   1      41.036  28.361  29.293  1.00  0.00     0.034 A 
ATOM     26  C   UNL A   1      41.060  31.096  35.228  1.00  0.00     0.049 A 
ATOM     27  C   UNL A   1      41.919  28.205  30.499  1.00  0.00     0.074 A 
ATOM     28  C   UNL A   1      41.927  30.841  36.276  1.00  0.00     0.029 A 
ATOM     29  N   UNL A   1      41.436  30.273  34.181  1.00  0.00    -0.354 N 
ATOM     30  N   UNL A   1      41.815  28.778  31.672  1.00  0.00    -0.248 NA
ATOM     31  C   UNL A   1      43.049  27.270  30.383  1.00  0.00     0.031 C 
ATOM     32  C   UNL A   1      42.828  29.859  35.862  1.00  0.00     0.029 A 
ATOM     33  C   UNL A   1      42.512  29.495  34.562  1.00  0.00     0.049 A 
ATOM     34  H   UNL A   1      41.001  30.244  33.298  1.00  0.00     0.167 HD
ATOM     35  C   UNL A   1      42.835  28.241  32.448  1.00  0.00     0.074 A 
ATOM     36  C   UNL A   1      43.547  27.298  31.612  1.00  0.00     0.031 C 
ATOM     37  C   UNL A   1      43.156  28.511  33.735  1.00  0.00     0.034 A 
BRANCH  24  38
ATOM     38  C   UNL A   1      39.667  32.793  36.442  1.00  0.00     0.023 A 
ATOM     39  C   UNL A   1      40.215  34.082  36.581  1.00  0.00     0.012 A 
ATOM     40  C   UNL A   1      38.743  32.319  37.392  1.00  0.00     0.148 A 
ATOM     41  C   UNL A   1      39.841  34.896  37.648  1.00  0.00     0.002 A 
ATOM     42  C   UNL A   1      38.351  33.147  38.435  1.00  0.00     0.091 A 
ATOM     43  F   UNL A   1      38.246  31.083  37.236  1.00  0.00    -0.205 F 
ATOM     44  C   UNL A   1      38.899  34.435  38.566  1.00  0.00     0.022 A 
BRANCH  42  45
ATOM     45  S   UNL A   1      37.101  32.676  39.636  1.00  0.00     0.127 S 
ATOM     46  O   UNL A   1      37.210  33.758  40.615  1.00  0.00    -0.237 OA
ATOM     47  O   UNL A   1      35.881  32.701  38.831  1.00  0.00    -0.237 OA
ATOM     48  O   UNL A   1      37.490  31.363  40.132  1.00  0.00    -0.744 OA
ENDBRANCH  42  45
ENDBRANCH  24  38
BRANCH  25  49
ATOM     49  C   UNL A   1      41.260  27.544  28.069  1.00  0.00     0.023 A 
ATOM     50  C   UNL A   1      41.796  28.166  26.924  1.00  0.00     0.012 A 
ATOM     51  C   UNL A   1      40.979  26.167  28.040  1.00  0.00     0.148 A 
ATOM     52  C   UNL A   1      42.027  27.432  25.761  1.00  0.00     0.002 A 
ATOM     53  C   UNL A   1      41.247  25.433  26.888  1.00  0.00     0.091 A 
ATOM     54  F   UNL A   1      40.464  25.600  29.139  1.00  0.00    -0.205 F 
ATOM     55  C   UNL A   1      41.760  26.066  25.746  1.00  0.00     0.022 A 
BRANCH  53  56
ATOM     56  S   UNL A   1      41.026  23.653  26.803  1.00  0.00     0.127 S 
ATOM     57  O   UNL A   1      41.899  23.297  25.687  1.00  0.00    -0.237 OA
ATOM     58  O   UNL A   1      41.503  23.227  28.119  1.00  0.00    -0.237 OA
ATOM     59  O   UNL A   1      39.602  23.442  26.581  1.00  0.00    -0.744 OA
ENDBRANCH  53  56
ENDBRANCH  25  49
BRANCH  37  60
ATOM     60  C   UNL A   1      44.287  27.746  34.359  1.00  0.00     0.023 A 
ATOM     61  C   UNL A   1      45.581  28.300  34.365  1.00  0.00     0.012 A 
ATOM     62  C   UNL A   1      44.030  26.552  35.060  1.00  0.00     0.148 A 
ATOM     63  C   UNL A   1      46.610  27.667  35.059  1.00  0.00     0.002 A 
ATOM     64  C   UNL A   1      45.053  25.948  35.778  1.00  0.00     0.091 A 
ATOM     65  F   UNL A   1      42.788  26.048  35.028  1.00  0.00    -0.205 F 
ATOM     66  C   UNL A   1      46.345  26.500  35.774  1.00  0.00     0.022 A 
BRANCH  64  67
ATOM     67  S   UNL A   1      44.787  24.491  36.794  1.00  0.00     0.127 S 
ATOM     68  O   UNL A   1      43.783  24.970  37.744  1.00  0.00    -0.237 OA
ATOM     69  O   UNL A   1      44.292  23.520  35.819  1.00  0.00    -0.237 OA
ATOM     70  O   UNL A   1      46.083  24.163  37.376  1.00  0.00    -0.744 OA
ENDBRANCH  64  67
ENDBRANCH  37  60
ENDBRANCH  11  12
ENDBRANCH   4   6
ENDBRANCH   1   2
BRANCH   1  71
ATOM     71  C   UNL A   1      31.423  31.978  26.570  1.00  0.00     0.023 C 
BRANCH  71  72
ATOM     72  C   UNL A   1      31.403  30.444  26.540  1.00  0.00     0.023 C 
BRANCH  72  73
ATOM     73  C   UNL A   1      32.155  29.830  25.358  1.00  0.00     0.116 C 
BRANCH  73  74
ATOM     74  N   UNL A   1      31.269  29.672  24.237  1.00  0.00    -0.351 N 
ATOM     75  C   UNL A   1      31.304  28.840  23.177  1.00  0.00     0.278 C 
ATOM     76  H   UNL A   1      30.495  30.282  24.247  1.00  0.00     0.163 HD
ATOM     77  O   UNL A   1      30.599  29.195  22.220  1.00  0.00    -0.268 OA
BRANCH  75  78
ATOM     78  C   UNL A   1      32.053  27.484  23.106  1.00  0.00     0.277 C 
ATOM     79  C   UNL A   1      33.060  26.980  24.182  1.00  0.00     0.109 C 
ATOM     80  N   UNL A   1      31.037  26.456  22.711  1.00  0.00    -0.327 N 
ATOM     81  C   UNL A   1      33.684  25.683  23.717  1.00  0.00    -0.024 C 
ATOM     82  C   UNL A   1      31.445  25.038  22.869  1.00  0.00     0.243 C 
ATOM     83  H   UNL A   1      30.808  26.606  21.730  1.00  0.00     0.347 HD
ATOM     84  H   UNL A   1      30.253  26.587  23.351  1.00  0.00     0.347 HD
ATOM     85  C   UNL A   1      34.607  24.858  24.203  1.00  0.00     0.002 A 
ATOM     86  C   UNL A   1      32.980  25.030  22.554  1.00  0.00     0.196 C 
ATOM     87  C   UNL A   1      35.410  24.768  25.380  1.00  0.00     0.010 A 
ATOM     88  C   UNL A   1      34.580  23.743  23.228  1.00  0.00     0.066 A 
ATOM     89  N   UNL A   1      33.633  23.719  22.338  1.00  0.00    -0.270 NA
ATOM     90  C   UNL A   1      36.252  23.726  25.506  1.00  0.00     0.001 A 
ATOM     91  C   UNL A   1      35.632  22.717  23.359  1.00  0.00     0.028 A 
ATOM     92  C   UNL A   1      36.424  22.748  24.443  1.00  0.00     0.002 A 
BRANCH  82  93
ATOM     93  C   UNL A   1      30.999  24.424  24.224  1.00  0.00     0.012 A 
ATOM     94  C   UNL A   1      30.282  25.146  25.200  1.00  0.00     0.010 A 
ATOM     95  C   UNL A   1      31.266  23.075  24.519  1.00  0.00     0.010 A 
ATOM     96  C   UNL A   1      29.930  24.571  26.431  1.00  0.00     0.001 A 
ATOM     97  C   UNL A   1      30.941  22.505  25.757  1.00  0.00     0.001 A 
ATOM     98  C   UNL A   1      30.278  23.257  26.717  1.00  0.00     0.000 A 
ENDBRANCH  82  93
ENDBRANCH  75  78
ENDBRANCH  73  74
ENDBRANCH  72  73
ENDBRANCH  71  72
ENDBRANCH   1  71
TORSDOF 15
ENDMDL
