MODEL 1
REMARK VINA RESULT:     -11.6      0.000      0.000
REMARK SMILES CC1(C)C[C@@]([NH2+]CCN=[N+]=[N-])(C(=O)NCCCCNC(=O)c2ccc(-c3c4nc(c(-c5cccc(S(=O)(=O)[O-])c5F)c5ccc([nH]5)c(-c5cccc(S(=O)(=O)[O-])c5F)c5nc(c(-c6cccc(S(=O)(=O)[O-])c6F)c6ccc3[nH]6)C=C5)C=C4)cc2)C(C)(C)O1
REMARK SMILES IDX 16 1 15 2 14 3 12 4 13 5 5 7 1 8 2 9 3 10 4 11 88 12 85 13
REMARK SMILES IDX 86 14 87 15 6 16 7 19 8 20 9 21 10 22 11 23 17 24 18 25
REMARK SMILES IDX 19 26 20 27 21 29 22 30 23 31 84 32 24 33 83 34 25 35 26 36
REMARK SMILES IDX 27 37 77 38 28 39 82 40 76 41 78 42 29 43 81 44 75 45 74 46
REMARK SMILES IDX 30 48 62 49 42 50 61 51 43 52 46 53 60 54 79 55 44 56 45 57
REMARK SMILES IDX 59 59 80 60 47 61 31 62 32 63 40 64 33 65 35 66 41 67 34 68
REMARK SMILES IDX 36 69 37 70 38 71 39 72 63 73 64 74 72 75 65 76 67 77 73 78
REMARK SMILES IDX 66 79 68 80 69 81 70 82 71 83 48 84 49 85 57 86 50 87 52 88
REMARK SMILES IDX 58 89 51 90 53 91 54 92 55 93 56 94
REMARK H PARENT 14 6 6 17 6 18 19 28 78 47 46 58
REMARK Flexibility Score: inf
ROOT
ATOM      1  C   UNL A   1      32.843  30.076  26.027  1.00  0.00     0.023 C 
ENDROOT
BRANCH   1   2
ATOM      2  C   UNL A   1      31.598  29.718  25.209  1.00  0.00     0.116 C 
BRANCH   2   3
ATOM      3  N   UNL A   1      31.237  28.335  25.403  1.00  0.00    -0.351 N 
ATOM      4  C   UNL A   1      31.201  27.243  24.601  1.00  0.00     0.284 C 
ATOM      5  O   UNL A   1      30.588  26.302  25.129  1.00  0.00    -0.268 OA
ATOM      6  H   UNL A   1      30.954  28.140  26.326  1.00  0.00     0.163 HD
BRANCH   4   7
ATOM      7  C   UNL A   1      31.758  27.106  23.130  1.00  0.00     0.206 C 
ATOM      8  C   UNL A   1      33.192  23.922  21.861  1.00  0.00     0.042 C 
ATOM      9  C   UNL A   1      32.713  25.367  21.700  1.00  0.00     0.070 C 
ATOM     10  C   UNL A   1      32.382  25.607  20.226  1.00  0.00     0.042 C 
ATOM     11  C   UNL A   1      31.562  25.654  22.666  1.00  0.00     0.117 C 
ATOM     12  O   UNL A   1      33.776  26.279  22.027  1.00  0.00    -0.362 OA
ATOM     13  C   UNL A   1      33.360  27.145  23.125  1.00  0.00     0.127 C 
ATOM     14  C   UNL A   1      34.088  26.573  24.357  1.00  0.00     0.049 C 
ATOM     15  C   UNL A   1      33.974  28.532  22.862  1.00  0.00     0.049 C 
BRANCH   7  16
ATOM     16  N   UNL A   1      31.209  28.118  22.164  1.00  0.00    -0.331 N 
ATOM     17  H   UNL A   1      31.332  27.737  21.227  1.00  0.00     0.347 HD
ATOM     18  H   UNL A   1      31.728  28.971  22.376  1.00  0.00     0.347 HD
BRANCH  16  19
ATOM     19  C   UNL A   1      29.802  28.515  22.288  1.00  0.00     0.267 C 
BRANCH  19  20
ATOM     20  C   UNL A   1      29.617  29.996  21.892  1.00  0.00     0.152 C 
BRANCH  20  21
ATOM     21  N   UNL A   1      28.193  30.327  21.740  1.00  0.00    -0.088 NA
ATOM     22  N   UNL A   1      27.724  31.120  22.580  1.00  0.00     0.001 N 
ATOM     23  N   UNL A   1      27.303  31.857  23.332  1.00  0.00    -0.003 NA
ENDBRANCH  20  21
ENDBRANCH  19  20
ENDBRANCH  16  19
ENDBRANCH   7  16
ENDBRANCH   4   7
ENDBRANCH   2   3
ENDBRANCH   1   2
BRANCH   1  24
ATOM     24  C   UNL A   1      32.603  30.936  27.258  1.00  0.00     0.023 C 
BRANCH  24  25
ATOM     25  C   UNL A   1      33.534  32.131  27.373  1.00  0.00     0.116 C 
BRANCH  25  26
ATOM     26  N   UNL A   1      32.863  33.420  27.519  1.00  0.00    -0.352 N 
ATOM     27  C   UNL A   1      33.156  34.406  28.437  1.00  0.00     0.251 C 
ATOM     28  H   UNL A   1      32.122  33.604  26.896  1.00  0.00     0.163 HD
ATOM     29  O   UNL A   1      32.495  35.435  28.502  1.00  0.00    -0.269 OA
BRANCH  27  30
ATOM     30  C   UNL A   1      34.261  34.146  29.379  1.00  0.00     0.039 A 
ATOM     31  C   UNL A   1      33.998  33.434  30.548  1.00  0.00     0.014 A 
ATOM     32  C   UNL A   1      35.571  34.441  28.993  1.00  0.00     0.014 A 
ATOM     33  C   UNL A   1      35.067  32.935  31.293  1.00  0.00     0.010 A 
ATOM     34  C   UNL A   1      36.624  33.850  29.673  1.00  0.00     0.010 A 
ATOM     35  C   UNL A   1      36.386  33.094  30.832  1.00  0.00    -0.014 A 
BRANCH  35  36
ATOM     36  C   UNL A   1      37.535  32.480  31.543  1.00  0.00     0.031 A 
ATOM     37  C   UNL A   1      38.287  31.346  30.903  1.00  0.00     0.074 A 
ATOM     38  C   UNL A   1      37.841  32.877  32.795  1.00  0.00     0.049 A 
ATOM     39  N   UNL A   1      39.278  30.640  31.380  1.00  0.00    -0.248 NA
ATOM     40  C   UNL A   1      37.844  30.923  29.562  1.00  0.00     0.031 C 
ATOM     41  C   UNL A   1      37.128  33.902  33.561  1.00  0.00     0.029 A 
ATOM     42  N   UNL A   1      38.822  32.448  33.655  1.00  0.00    -0.354 N 
ATOM     43  C   UNL A   1      39.549  29.674  30.421  1.00  0.00     0.074 A 
ATOM     44  C   UNL A   1      38.585  29.846  29.359  1.00  0.00     0.031 C 
ATOM     45  C   UNL A   1      37.706  34.036  34.766  1.00  0.00     0.029 A 
ATOM     46  C   UNL A   1      38.809  33.087  34.874  1.00  0.00     0.049 A 
ATOM     47  H   UNL A   1      39.474  31.748  33.421  1.00  0.00     0.167 HD
ATOM     48  C   UNL A   1      40.537  28.750  30.402  1.00  0.00     0.034 A 
ATOM     49  C   UNL A   1      39.598  32.923  35.955  1.00  0.00     0.034 A 
ATOM     50  C   UNL A   1      41.523  28.614  31.437  1.00  0.00     0.049 A 
ATOM     51  C   UNL A   1      40.715  31.915  35.894  1.00  0.00     0.074 A 
ATOM     52  C   UNL A   1      42.620  27.771  31.475  1.00  0.00     0.029 A 
ATOM     53  N   UNL A   1      41.530  29.336  32.621  1.00  0.00    -0.354 N 
ATOM     54  N   UNL A   1      41.057  31.121  34.908  1.00  0.00    -0.248 NA
ATOM     55  C   UNL A   1      41.578  31.807  37.079  1.00  0.00     0.031 C 
ATOM     56  C   UNL A   1      43.274  27.966  32.696  1.00  0.00     0.029 A 
ATOM     57  C   UNL A   1      42.604  28.953  33.402  1.00  0.00     0.049 A 
ATOM     58  H   UNL A   1      40.867  30.021  32.868  1.00  0.00     0.167 HD
ATOM     59  C   UNL A   1      42.196  30.448  35.338  1.00  0.00     0.074 A 
ATOM     60  C   UNL A   1      42.496  30.944  36.666  1.00  0.00     0.031 C 
ATOM     61  C   UNL A   1      42.920  29.496  34.699  1.00  0.00     0.034 A 
BRANCH  48  62
ATOM     62  C   UNL A   1      40.630  27.854  29.195  1.00  0.00     0.023 A 
ATOM     63  C   UNL A   1      39.827  26.696  29.124  1.00  0.00     0.012 A 
ATOM     64  C   UNL A   1      41.481  28.170  28.119  1.00  0.00     0.148 A 
ATOM     65  C   UNL A   1      39.901  25.844  28.023  1.00  0.00     0.002 A 
ATOM     66  C   UNL A   1      41.511  27.344  27.002  1.00  0.00     0.091 A 
ATOM     67  F   UNL A   1      42.253  29.261  28.214  1.00  0.00    -0.205 F 
ATOM     68  C   UNL A   1      40.734  26.174  26.958  1.00  0.00     0.022 A 
BRANCH  66  69
ATOM     69  S   UNL A   1      42.489  27.723  25.543  1.00  0.00     0.127 S 
ATOM     70  O   UNL A   1      43.838  27.794  26.104  1.00  0.00    -0.237 OA
ATOM     71  O   UNL A   1      42.241  26.555  24.697  1.00  0.00    -0.237 OA
ATOM     72  O   UNL A   1      41.962  28.976  25.022  1.00  0.00    -0.744 OA
ENDBRANCH  66  69
ENDBRANCH  48  62
BRANCH  49  73
ATOM     73  C   UNL A   1      39.408  33.781  37.160  1.00  0.00     0.023 A 
ATOM     74  C   UNL A   1      39.886  35.106  37.147  1.00  0.00     0.012 A 
ATOM     75  C   UNL A   1      38.747  33.303  38.308  1.00  0.00     0.148 A 
ATOM     76  C   UNL A   1      39.743  35.928  38.266  1.00  0.00     0.002 A 
ATOM     77  C   UNL A   1      38.558  34.144  39.399  1.00  0.00     0.091 A 
ATOM     78  F   UNL A   1      38.307  32.037  38.305  1.00  0.00    -0.205 F 
ATOM     79  C   UNL A   1      39.072  35.451  39.388  1.00  0.00     0.022 A 
BRANCH  77  80
ATOM     80  S   UNL A   1      37.595  33.659  40.836  1.00  0.00     0.127 S 
ATOM     81  O   UNL A   1      36.400  33.092  40.217  1.00  0.00    -0.237 OA
ATOM     82  O   UNL A   1      38.481  32.684  41.475  1.00  0.00    -0.237 OA
ATOM     83  O   UNL A   1      37.393  34.879  41.604  1.00  0.00    -0.744 OA
ENDBRANCH  77  80
ENDBRANCH  49  73
BRANCH  61  84
ATOM     84  C   UNL A   1      44.135  28.951  35.402  1.00  0.00     0.023 A 
ATOM     85  C   UNL A   1      45.389  29.565  35.217  1.00  0.00     0.012 A 
ATOM     86  C   UNL A   1      44.016  27.878  36.306  1.00  0.00     0.148 A 
ATOM     87  C   UNL A   1      46.513  29.099  35.898  1.00  0.00     0.002 A 
ATOM     88  C   UNL A   1      45.128  27.453  37.022  1.00  0.00     0.091 A 
ATOM     89  F   UNL A   1      42.816  27.297  36.455  1.00  0.00    -0.205 F 
ATOM     90  C   UNL A   1      46.380  28.053  36.809  1.00  0.00     0.022 A 
BRANCH  88  91
ATOM     91  S   UNL A   1      45.031  26.183  38.288  1.00  0.00     0.127 S 
ATOM     92  O   UNL A   1      46.415  26.123  38.755  1.00  0.00    -0.237 OA
ATOM     93  O   UNL A   1      44.090  26.770  39.243  1.00  0.00    -0.237 OA
ATOM     94  O   UNL A   1      44.545  24.984  37.619  1.00  0.00    -0.744 OA
ENDBRANCH  88  91
ENDBRANCH  61  84
ENDBRANCH  35  36
ENDBRANCH  27  30
ENDBRANCH  25  26
ENDBRANCH  24  25
ENDBRANCH   1  24
TORSDOF 18
ENDMDL
MODEL 2
REMARK VINA RESULT:     -11.4      2.721      8.159
REMARK SMILES CC1(C)C[C@@]([NH2+]CCN=[N+]=[N-])(C(=O)NCCCCNC(=O)c2ccc(-c3c4nc(c(-c5cccc(S(=O)(=O)[O-])c5F)c5ccc([nH]5)c(-c5cccc(S(=O)(=O)[O-])c5F)c5nc(c(-c6cccc(S(=O)(=O)[O-])c6F)c6ccc3[nH]6)C=C5)C=C4)cc2)C(C)(C)O1
REMARK SMILES IDX 16 1 15 2 14 3 12 4 13 5 5 7 1 8 2 9 3 10 4 11 88 12 85 13
REMARK SMILES IDX 86 14 87 15 6 16 7 19 8 20 9 21 10 22 11 23 17 24 18 25
REMARK SMILES IDX 19 26 20 27 21 29 22 30 23 31 84 32 24 33 83 34 25 35 26 36
REMARK SMILES IDX 27 37 77 38 28 39 82 40 76 41 78 42 29 43 81 44 75 45 74 46
REMARK SMILES IDX 30 48 62 49 42 50 61 51 43 52 46 53 60 54 79 55 44 56 45 57
REMARK SMILES IDX 59 59 80 60 47 61 31 62 32 63 40 64 33 65 35 66 41 67 34 68
REMARK SMILES IDX 36 69 37 70 38 71 39 72 63 73 64 74 72 75 65 76 67 77 73 78
REMARK SMILES IDX 66 79 68 80 69 81 70 82 71 83 48 84 49 85 57 86 50 87 52 88
REMARK SMILES IDX 58 89 51 90 53 91 54 92 55 93 56 94
REMARK H PARENT 14 6 6 17 6 18 19 28 78 47 46 58
REMARK Flexibility Score: inf
ROOT
ATOM      1  C   UNL A   1      32.015  27.792  25.644  1.00  0.00     0.023 C 
ENDROOT
BRANCH   1   2
ATOM      2  C   UNL A   1      32.843  26.714  26.353  1.00  0.00     0.116 C 
BRANCH   2   3
ATOM      3  N   UNL A   1      31.990  25.674  26.873  1.00  0.00    -0.351 N 
ATOM      4  C   UNL A   1      31.601  24.455  26.426  1.00  0.00     0.284 C 
ATOM      5  O   UNL A   1      30.657  23.999  27.090  1.00  0.00    -0.268 OA
ATOM      6  H   UNL A   1      31.603  25.899  27.751  1.00  0.00     0.163 HD
BRANCH   4   7
ATOM      7  C   UNL A   1      32.151  23.665  25.174  1.00  0.00     0.206 C 
ATOM      8  C   UNL A   1      32.446  19.962  25.163  1.00  0.00     0.042 C 
ATOM      9  C   UNL A   1      32.511  21.341  24.504  1.00  0.00     0.070 C 
ATOM     10  C   UNL A   1      32.361  21.162  22.991  1.00  0.00     0.042 C 
ATOM     11  C   UNL A   1      31.483  22.280  25.139  1.00  0.00     0.117 C 
ATOM     12  O   UNL A   1      33.806  21.928  24.713  1.00  0.00    -0.362 OA
ATOM     13  C   UNL A   1      33.663  23.196  25.419  1.00  0.00     0.127 C 
ATOM     14  C   UNL A   1      34.081  22.874  26.868  1.00  0.00     0.049 C 
ATOM     15  C   UNL A   1      34.736  24.149  24.859  1.00  0.00     0.049 C 
BRANCH   7  16
ATOM     16  N   UNL A   1      32.040  24.412  23.874  1.00  0.00    -0.331 N 
ATOM     17  H   UNL A   1      32.343  23.777  23.136  1.00  0.00     0.347 HD
ATOM     18  H   UNL A   1      32.613  25.244  24.016  1.00  0.00     0.347 HD
BRANCH  16  19
ATOM     19  C   UNL A   1      30.731  24.941  23.478  1.00  0.00     0.267 C 
BRANCH  19  20
ATOM     20  C   UNL A   1      30.893  26.254  22.682  1.00  0.00     0.152 C 
BRANCH  20  21
ATOM     21  N   UNL A   1      29.852  27.225  23.050  1.00  0.00    -0.088 NA
ATOM     22  N   UNL A   1      29.906  28.329  22.473  1.00  0.00     0.001 N 
ATOM     23  N   UNL A   1      29.943  29.325  21.933  1.00  0.00    -0.003 NA
ENDBRANCH  20  21
ENDBRANCH  19  20
ENDBRANCH  16  19
ENDBRANCH   7  16
ENDBRANCH   4   7
ENDBRANCH   2   3
ENDBRANCH   1   2
BRANCH   1  24
ATOM     24  C   UNL A   1      31.834  29.096  26.404  1.00  0.00     0.023 C 
BRANCH  24  25
ATOM     25  C   UNL A   1      32.851  30.168  26.051  1.00  0.00     0.116 C 
BRANCH  25  26
ATOM     26  N   UNL A   1      32.577  31.484  26.623  1.00  0.00    -0.352 N 
ATOM     27  C   UNL A   1      33.406  32.215  27.449  1.00  0.00     0.251 C 
ATOM     28  H   UNL A   1      31.710  31.892  26.395  1.00  0.00     0.163 HD
ATOM     29  O   UNL A   1      33.056  33.294  27.911  1.00  0.00    -0.269 OA
BRANCH  27  30
ATOM     30  C   UNL A   1      34.707  31.618  27.802  1.00  0.00     0.039 A 
ATOM     31  C   UNL A   1      35.817  32.451  27.940  1.00  0.00     0.014 A 
ATOM     32  C   UNL A   1      34.762  30.275  28.180  1.00  0.00     0.014 A 
ATOM     33  C   UNL A   1      36.968  31.951  28.548  1.00  0.00     0.010 A 
ATOM     34  C   UNL A   1      35.866  29.816  28.882  1.00  0.00     0.010 A 
ATOM     35  C   UNL A   1      36.982  30.646  29.071  1.00  0.00    -0.014 A 
BRANCH  35  36
ATOM     36  C   UNL A   1      38.152  30.124  29.821  1.00  0.00     0.031 A 
ATOM     37  C   UNL A   1      38.406  30.594  31.226  1.00  0.00     0.074 A 
ATOM     38  C   UNL A   1      39.032  29.304  29.209  1.00  0.00     0.049 A 
ATOM     39  N   UNL A   1      39.398  30.305  32.026  1.00  0.00    -0.248 NA
ATOM     40  C   UNL A   1      37.436  31.547  31.797  1.00  0.00     0.031 C 
ATOM     41  C   UNL A   1      38.947  28.850  27.819  1.00  0.00     0.029 A 
ATOM     42  N   UNL A   1      40.186  28.724  29.675  1.00  0.00    -0.354 N 
ATOM     43  C   UNL A   1      39.193  31.063  33.171  1.00  0.00     0.074 A 
ATOM     44  C   UNL A   1      38.014  31.867  32.944  1.00  0.00     0.031 C 
ATOM     45  C   UNL A   1      39.990  28.047  27.552  1.00  0.00     0.029 A 
ATOM     46  C   UNL A   1      40.837  27.954  28.737  1.00  0.00     0.049 A 
ATOM     47  H   UNL A   1      40.518  28.847  30.594  1.00  0.00     0.167 HD
ATOM     48  C   UNL A   1      39.896  31.062  34.327  1.00  0.00     0.034 A 
ATOM     49  C   UNL A   1      41.986  27.255  28.826  1.00  0.00     0.034 A 
ATOM     50  C   UNL A   1      41.038  30.225  34.567  1.00  0.00     0.049 A 
ATOM     51  C   UNL A   1      42.728  27.239  30.136  1.00  0.00     0.074 A 
ATOM     52  C   UNL A   1      41.769  30.081  35.732  1.00  0.00     0.029 A 
ATOM     53  N   UNL A   1      41.620  29.395  33.622  1.00  0.00    -0.354 N 
ATOM     54  N   UNL A   1      42.426  27.836  31.263  1.00  0.00    -0.248 NA
ATOM     55  C   UNL A   1      43.949  26.424  30.197  1.00  0.00     0.031 C 
ATOM     56  C   UNL A   1      42.810  29.181  35.482  1.00  0.00     0.029 A 
ATOM     57  C   UNL A   1      42.707  28.742  34.172  1.00  0.00     0.049 A 
ATOM     58  H   UNL A   1      41.305  29.286  32.695  1.00  0.00     0.167 HD
ATOM     59  C   UNL A   1      43.396  27.439  32.177  1.00  0.00     0.074 A 
ATOM     60  C   UNL A   1      44.283  26.533  31.476  1.00  0.00     0.031 C 
ATOM     61  C   UNL A   1      43.547  27.801  33.475  1.00  0.00     0.034 A 
BRANCH  48  62
ATOM     62  C   UNL A   1      39.410  31.956  35.438  1.00  0.00     0.023 A 
ATOM     63  C   UNL A   1      38.513  31.446  36.401  1.00  0.00     0.012 A 
ATOM     64  C   UNL A   1      39.861  33.285  35.550  1.00  0.00     0.148 A 
ATOM     65  C   UNL A   1      38.040  32.256  37.432  1.00  0.00     0.002 A 
ATOM     66  C   UNL A   1      39.425  34.070  36.610  1.00  0.00     0.091 A 
ATOM     67  F   UNL A   1      40.693  33.759  34.613  1.00  0.00    -0.205 F 
ATOM     68  C   UNL A   1      38.504  33.563  37.543  1.00  0.00     0.022 A 
BRANCH  66  69
ATOM     69  S   UNL A   1      40.025  35.740  36.890  1.00  0.00     0.127 S 
ATOM     70  O   UNL A   1      41.469  35.524  36.969  1.00  0.00    -0.237 OA
ATOM     71  O   UNL A   1      39.577  36.433  35.681  1.00  0.00    -0.237 OA
ATOM     72  O   UNL A   1      39.393  36.193  38.121  1.00  0.00    -0.744 OA
ENDBRANCH  66  69
ENDBRANCH  48  62
BRANCH  49  73
ATOM     73  C   UNL A   1      42.468  26.453  27.664  1.00  0.00     0.023 A 
ATOM     74  C   UNL A   1      43.340  27.046  26.730  1.00  0.00     0.012 A 
ATOM     75  C   UNL A   1      42.085  25.110  27.487  1.00  0.00     0.148 A 
ATOM     76  C   UNL A   1      43.792  26.329  25.620  1.00  0.00     0.002 A 
ATOM     77  C   UNL A   1      42.583  24.384  26.410  1.00  0.00     0.091 A 
ATOM     78  F   UNL A   1      41.248  24.566  28.381  1.00  0.00    -0.205 F 
ATOM     79  C   UNL A   1      43.421  24.997  25.465  1.00  0.00     0.022 A 
BRANCH  77  80
ATOM     80  S   UNL A   1      42.263  22.629  26.199  1.00  0.00     0.127 S 
ATOM     81  O   UNL A   1      42.929  22.061  27.367  1.00  0.00    -0.237 OA
ATOM     82  O   UNL A   1      40.800  22.584  26.240  1.00  0.00    -0.237 OA
ATOM     83  O   UNL A   1      42.838  22.277  24.908  1.00  0.00    -0.744 OA
ENDBRANCH  77  80
ENDBRANCH  49  73
BRANCH  61  84
ATOM     84  C   UNL A   1      44.689  27.189  34.244  1.00  0.00     0.023 A 
ATOM     85  C   UNL A   1      45.949  27.818  34.252  1.00  0.00     0.012 A 
ATOM     86  C   UNL A   1      44.487  26.032  35.021  1.00  0.00     0.148 A 
ATOM     87  C   UNL A   1      47.001  27.286  34.997  1.00  0.00     0.002 A 
ATOM     88  C   UNL A   1      45.524  25.538  35.802  1.00  0.00     0.091 A 
ATOM     89  F   UNL A   1      43.284  25.439  34.986  1.00  0.00    -0.205 F 
ATOM     90  C   UNL A   1      46.785  26.155  35.781  1.00  0.00     0.022 A 
BRANCH  88  91
ATOM     91  S   UNL A   1      45.309  24.149  36.921  1.00  0.00     0.127 S 
ATOM     92  O   UNL A   1      46.660  23.986  37.455  1.00  0.00    -0.237 OA
ATOM     93  O   UNL A   1      44.334  24.671  37.879  1.00  0.00    -0.237 OA
ATOM     94  O   UNL A   1      44.823  23.045  36.103  1.00  0.00    -0.744 OA
ENDBRANCH  88  91
ENDBRANCH  61  84
ENDBRANCH  35  36
ENDBRANCH  27  30
ENDBRANCH  25  26
ENDBRANCH  24  25
ENDBRANCH   1  24
TORSDOF 18
ENDMDL
MODEL 3
REMARK VINA RESULT:     -11.3      5.761      8.959
REMARK SMILES CC1(C)C[C@@]([NH2+]CCN=[N+]=[N-])(C(=O)NCCCCNC(=O)c2ccc(-c3c4nc(c(-c5cccc(S(=O)(=O)[O-])c5F)c5ccc([nH]5)c(-c5cccc(S(=O)(=O)[O-])c5F)c5nc(c(-c6cccc(S(=O)(=O)[O-])c6F)c6ccc3[nH]6)C=C5)C=C4)cc2)C(C)(C)O1
REMARK SMILES IDX 16 1 15 2 14 3 12 4 13 5 5 7 1 8 2 9 3 10 4 11 88 12 85 13
REMARK SMILES IDX 86 14 87 15 6 16 7 19 8 20 9 21 10 22 11 23 17 24 18 25
REMARK SMILES IDX 19 26 20 27 21 29 22 30 23 31 84 32 24 33 83 34 25 35 26 36
REMARK SMILES IDX 27 37 77 38 28 39 82 40 76 41 78 42 29 43 81 44 75 45 74 46
REMARK SMILES IDX 30 48 62 49 42 50 61 51 43 52 46 53 60 54 79 55 44 56 45 57
REMARK SMILES IDX 59 59 80 60 47 61 31 62 32 63 40 64 33 65 35 66 41 67 34 68
REMARK SMILES IDX 36 69 37 70 38 71 39 72 63 73 64 74 72 75 65 76 67 77 73 78
REMARK SMILES IDX 66 79 68 80 69 81 70 82 71 83 48 84 49 85 57 86 50 87 52 88
REMARK SMILES IDX 58 89 51 90 53 91 54 92 55 93 56 94
REMARK H PARENT 14 6 6 17 6 18 19 28 78 47 46 58
REMARK Flexibility Score: inf
ROOT
ATOM      1  C   UNL A   1      35.379  22.519  23.987  1.00  0.00     0.023 C 
ENDROOT
BRANCH   1   2
ATOM      2  C   UNL A   1      35.026  23.973  24.322  1.00  0.00     0.116 C 
BRANCH   2   3
ATOM      3  N   UNL A   1      34.666  24.700  23.129  1.00  0.00    -0.351 N 
ATOM      4  C   UNL A   1      33.560  25.369  22.725  1.00  0.00     0.284 C 
ATOM      5  O   UNL A   1      33.598  25.637  21.514  1.00  0.00    -0.268 OA
ATOM      6  H   UNL A   1      35.387  24.712  22.457  1.00  0.00     0.163 HD
BRANCH   4   7
ATOM      7  C   UNL A   1      32.287  25.738  23.583  1.00  0.00     0.206 C 
ATOM      8  C   UNL A   1      29.936  28.426  22.557  1.00  0.00     0.042 C 
ATOM      9  C   UNL A   1      30.381  27.265  23.449  1.00  0.00     0.070 C 
ATOM     10  C   UNL A   1      29.145  26.684  24.140  1.00  0.00     0.042 C 
ATOM     11  C   UNL A   1      31.191  26.253  22.636  1.00  0.00     0.117 C 
ATOM     12  O   UNL A   1      31.238  27.747  24.497  1.00  0.00    -0.362 OA
ATOM     13  C   UNL A   1      32.534  27.084  24.416  1.00  0.00     0.127 C 
ATOM     14  C   UNL A   1      33.465  28.144  23.793  1.00  0.00     0.049 C 
ATOM     15  C   UNL A   1      33.024  26.872  25.861  1.00  0.00     0.049 C 
BRANCH   7  16
ATOM     16  N   UNL A   1      31.817  24.639  24.495  1.00  0.00    -0.331 N 
ATOM     17  H   UNL A   1      31.050  25.017  25.051  1.00  0.00     0.347 HD
ATOM     18  H   UNL A   1      32.655  24.368  25.010  1.00  0.00     0.347 HD
BRANCH  16  19
ATOM     19  C   UNL A   1      31.342  23.387  23.898  1.00  0.00     0.267 C 
BRANCH  19  20
ATOM     20  C   UNL A   1      31.760  22.178  24.763  1.00  0.00     0.152 C 
BRANCH  20  21
ATOM     21  N   UNL A   1      30.705  21.829  25.726  1.00  0.00    -0.088 NA
ATOM     22  N   UNL A   1      30.368  22.732  26.517  1.00  0.00     0.001 N 
ATOM     23  N   UNL A   1      30.047  23.559  27.224  1.00  0.00    -0.003 NA
ENDBRANCH  20  21
ENDBRANCH  19  20
ENDBRANCH  16  19
ENDBRANCH   7  16
ENDBRANCH   4   7
ENDBRANCH   2   3
ENDBRANCH   1   2
BRANCH   1  24
ATOM     24  C   UNL A   1      36.845  22.142  24.135  1.00  0.00     0.023 C 
BRANCH  24  25
ATOM     25  C   UNL A   1      37.236  21.701  25.535  1.00  0.00     0.116 C 
BRANCH  25  26
ATOM     26  N   UNL A   1      38.327  20.732  25.591  1.00  0.00    -0.352 N 
ATOM     27  C   UNL A   1      39.573  20.921  26.150  1.00  0.00     0.251 C 
ATOM     28  H   UNL A   1      38.154  19.851  25.185  1.00  0.00     0.163 HD
ATOM     29  O   UNL A   1      40.434  20.051  26.100  1.00  0.00    -0.269 OA
BRANCH  27  30
ATOM     30  C   UNL A   1      39.848  22.235  26.760  1.00  0.00     0.039 A 
ATOM     31  C   UNL A   1      40.792  22.320  27.783  1.00  0.00     0.014 A 
ATOM     32  C   UNL A   1      39.312  23.384  26.177  1.00  0.00     0.014 A 
ATOM     33  C   UNL A   1      41.269  23.574  28.162  1.00  0.00     0.010 A 
ATOM     34  C   UNL A   1      39.869  24.617  26.478  1.00  0.00     0.010 A 
ATOM     35  C   UNL A   1      40.850  24.728  27.476  1.00  0.00    -0.014 A 
BRANCH  35  36
ATOM     36  C   UNL A   1      41.422  26.063  27.783  1.00  0.00     0.031 A 
ATOM     37  C   UNL A   1      42.834  26.380  27.372  1.00  0.00     0.074 A 
ATOM     38  C   UNL A   1      40.710  26.950  28.508  1.00  0.00     0.049 A 
ATOM     39  N   UNL A   1      43.534  27.460  27.595  1.00  0.00    -0.248 NA
ATOM     40  C   UNL A   1      43.570  25.329  26.647  1.00  0.00     0.031 C 
ATOM     41  C   UNL A   1      39.365  26.725  29.045  1.00  0.00     0.029 A 
ATOM     42  N   UNL A   1      41.028  28.215  28.937  1.00  0.00    -0.354 N 
ATOM     43  C   UNL A   1      44.796  27.206  27.074  1.00  0.00     0.074 A 
ATOM     44  C   UNL A   1      44.784  25.851  26.572  1.00  0.00     0.031 C 
ATOM     45  C   UNL A   1      38.968  27.821  29.713  1.00  0.00     0.029 A 
ATOM     46  C   UNL A   1      40.038  28.813  29.681  1.00  0.00     0.049 A 
ATOM     47  H   UNL A   1      41.886  28.653  28.732  1.00  0.00     0.167 HD
ATOM     48  C   UNL A   1      45.860  28.037  26.980  1.00  0.00     0.034 A 
ATOM     49  C   UNL A   1      39.999  30.025  30.272  1.00  0.00     0.034 A 
ATOM     50  C   UNL A   1      45.851  29.399  27.436  1.00  0.00     0.049 A 
ATOM     51  C   UNL A   1      41.180  30.946  30.120  1.00  0.00     0.074 A 
ATOM     52  C   UNL A   1      46.844  30.354  27.310  1.00  0.00     0.029 A 
ATOM     53  N   UNL A   1      44.800  29.999  28.111  1.00  0.00    -0.354 N 
ATOM     54  N   UNL A   1      42.306  30.745  29.479  1.00  0.00    -0.248 NA
ATOM     55  C   UNL A   1      41.071  32.274  30.740  1.00  0.00     0.031 C 
ATOM     56  C   UNL A   1      46.401  31.525  27.933  1.00  0.00     0.029 A 
ATOM     57  C   UNL A   1      45.121  31.308  28.418  1.00  0.00     0.049 A 
ATOM     58  H   UNL A   1      43.949  29.557  28.339  1.00  0.00     0.167 HD
ATOM     59  C   UNL A   1      43.023  31.931  29.586  1.00  0.00     0.074 A 
ATOM     60  C   UNL A   1      42.193  32.853  30.335  1.00  0.00     0.031 C 
ATOM     61  C   UNL A   1      44.261  32.229  29.118  1.00  0.00     0.034 A 
BRANCH  48  62
ATOM     62  C   UNL A   1      47.100  27.507  26.310  1.00  0.00     0.023 A 
ATOM     63  C   UNL A   1      47.327  27.784  24.945  1.00  0.00     0.012 A 
ATOM     64  C   UNL A   1      48.056  26.767  27.032  1.00  0.00     0.148 A 
ATOM     65  C   UNL A   1      48.461  27.296  24.299  1.00  0.00     0.002 A 
ATOM     66  C   UNL A   1      49.209  26.328  26.393  1.00  0.00     0.091 A 
ATOM     67  F   UNL A   1      47.812  26.494  28.321  1.00  0.00    -0.205 F 
ATOM     68  C   UNL A   1      49.407  26.579  25.025  1.00  0.00     0.022 A 
BRANCH  66  69
ATOM     69  S   UNL A   1      50.527  25.466  27.258  1.00  0.00     0.127 S 
ATOM     70  O   UNL A   1      49.835  24.267  27.728  1.00  0.00    -0.237 OA
ATOM     71  O   UNL A   1      51.494  25.231  26.185  1.00  0.00    -0.237 OA
ATOM     72  O   UNL A   1      50.983  26.374  28.301  1.00  0.00    -0.744 OA
ENDBRANCH  66  69
ENDBRANCH  48  62
BRANCH  49  73
ATOM     73  C   UNL A   1      38.774  30.467  30.999  1.00  0.00     0.023 A 
ATOM     74  C   UNL A   1      38.668  30.227  32.383  1.00  0.00     0.012 A 
ATOM     75  C   UNL A   1      37.725  31.134  30.337  1.00  0.00     0.148 A 
ATOM     76  C   UNL A   1      37.525  30.609  33.088  1.00  0.00     0.002 A 
ATOM     77  C   UNL A   1      36.614  31.561  31.055  1.00  0.00     0.091 A 
ATOM     78  F   UNL A   1      37.840  31.345  29.019  1.00  0.00    -0.205 F 
ATOM     79  C   UNL A   1      36.503  31.284  32.427  1.00  0.00     0.022 A 
BRANCH  77  80
ATOM     80  S   UNL A   1      35.308  32.549  30.315  1.00  0.00     0.127 S 
ATOM     81  O   UNL A   1      36.035  33.746  29.904  1.00  0.00    -0.237 OA
ATOM     82  O   UNL A   1      34.867  31.687  29.217  1.00  0.00    -0.237 OA
ATOM     83  O   UNL A   1      34.316  32.739  31.364  1.00  0.00    -0.744 OA
ENDBRANCH  77  80
ENDBRANCH  49  73
BRANCH  61  84
ATOM     84  C   UNL A   1      44.786  33.619  29.361  1.00  0.00     0.023 A 
ATOM     85  C   UNL A   1      45.474  33.912  30.555  1.00  0.00     0.012 A 
ATOM     86  C   UNL A   1      44.664  34.612  28.370  1.00  0.00     0.148 A 
ATOM     87  C   UNL A   1      46.005  35.183  30.771  1.00  0.00     0.002 A 
ATOM     88  C   UNL A   1      45.241  35.859  28.570  1.00  0.00     0.091 A 
ATOM     89  F   UNL A   1      43.990  34.317  27.248  1.00  0.00    -0.205 F 
ATOM     90  C   UNL A   1      45.900  36.152  29.775  1.00  0.00     0.022 A 
BRANCH  88  91
ATOM     91  S   UNL A   1      45.245  37.133  27.303  1.00  0.00     0.127 S 
ATOM     92  O   UNL A   1      45.912  38.236  27.993  1.00  0.00    -0.237 OA
ATOM     93  O   UNL A   1      46.035  36.511  26.241  1.00  0.00    -0.237 OA
ATOM     94  O   UNL A   1      43.848  37.365  26.961  1.00  0.00    -0.744 OA
ENDBRANCH  88  91
ENDBRANCH  61  84
ENDBRANCH  35  36
ENDBRANCH  27  30
ENDBRANCH  25  26
ENDBRANCH  24  25
ENDBRANCH   1  24
TORSDOF 18
ENDMDL
