MODEL 1
REMARK VINA RESULT:     -12.9      0.000      0.000
REMARK SMILES O=C(NCCCCNC(=O)c1nccnc1C(=O)Nc1ccc(-n2cncn2)c(Cl)c1)c1ccc(-c2c3nc(c(-c4cccc(S(=O)(=O)[O-])c4F)c4ccc([nH]4)c(-c4cccc(S(=O)(=O)[O-])c4F)c4nc(c(-c5cccc(S(=O)(=O)[O-])c5F)c5ccc2[nH]5)C=C4)C=C3)cc1
REMARK SMILES IDX 5 1 4 2 3 3 1 4 2 5 32 7 33 8 94 9 34 10 93 11 35 12 36 13
REMARK SMILES IDX 37 14 87 15 38 16 92 17 86 18 88 19 39 20 91 21 85 22 84 23
REMARK SMILES IDX 40 25 72 26 52 27 71 28 53 29 56 30 70 31 89 32 54 33 55 34
REMARK SMILES IDX 69 36 90 37 57 38 41 39 42 40 50 41 43 42 45 43 51 44 44 45
REMARK SMILES IDX 46 46 47 47 48 48 49 49 73 50 74 51 82 52 75 53 77 54 83 55
REMARK SMILES IDX 76 56 78 57 79 58 80 59 81 60 58 61 59 62 67 63 60 64 62 65
REMARK SMILES IDX 68 66 61 67 63 68 64 69 65 70 66 71 6 72 7 73 8 74 9 75
REMARK SMILES IDX 10 77 11 78 12 79 16 80 13 81 15 82 14 83 17 84 18 85 19 86
REMARK SMILES IDX 20 88 21 89 31 90 22 91 29 92 23 93 30 94 24 95 25 96 28 97
REMARK SMILES IDX 26 98 27 99
REMARK H PARENT 3 6 88 24 56 35 8 76 19 87
REMARK Flexibility Score: inf
ROOT
ATOM      1  C   UNL A   1      31.874  29.086  26.570  1.00  0.00     0.023 C 
ENDROOT
BRANCH   1   2
ATOM      2  C   UNL A   1      33.296  29.499  26.936  1.00  0.00     0.116 C 
BRANCH   2   3
ATOM      3  N   UNL A   1      33.432  30.843  27.444  1.00  0.00    -0.352 N 
ATOM      4  O   UNL A   1      34.199  32.785  28.128  1.00  0.00    -0.269 OA
ATOM      5  C   UNL A   1      34.462  31.594  27.936  1.00  0.00     0.251 C 
ATOM      6  H   UNL A   1      32.580  31.337  27.432  1.00  0.00     0.163 HD
BRANCH   5   7
ATOM      7  C   UNL A   1      35.813  31.087  28.301  1.00  0.00     0.039 A 
ATOM      8  C   UNL A   1      36.888  31.849  28.762  1.00  0.00     0.014 A 
ATOM      9  C   UNL A   1      35.987  29.694  28.170  1.00  0.00     0.014 A 
ATOM     10  C   UNL A   1      38.121  31.244  29.024  1.00  0.00     0.010 A 
ATOM     11  C   UNL A   1      37.209  29.086  28.441  1.00  0.00     0.010 A 
ATOM     12  C   UNL A   1      38.289  29.866  28.842  1.00  0.00    -0.014 A 
BRANCH  12  13
ATOM     13  C   UNL A   1      39.570  29.255  29.203  1.00  0.00     0.031 A 
ATOM     14  C   UNL A   1      39.951  29.360  30.643  1.00  0.00     0.074 A 
ATOM     15  C   UNL A   1      40.303  28.490  28.365  1.00  0.00     0.049 A 
ATOM     16  N   UNL A   1      40.982  29.948  31.158  1.00  0.00    -0.248 NA
ATOM     17  C   UNL A   1      39.020  28.809  31.640  1.00  0.00     0.031 C 
ATOM     18  C   UNL A   1      39.924  28.002  27.036  1.00  0.00     0.029 A 
ATOM     19  N   UNL A   1      41.501  27.872  28.591  1.00  0.00    -0.354 N 
ATOM     20  C   UNL A   1      40.939  29.674  32.527  1.00  0.00     0.074 A 
ATOM     21  C   UNL A   1      39.647  29.096  32.782  1.00  0.00     0.031 C 
ATOM     22  C   UNL A   1      40.743  26.984  26.687  1.00  0.00     0.029 A 
ATOM     23  C   UNL A   1      41.782  26.849  27.692  1.00  0.00     0.049 A 
ATOM     24  H   UNL A   1      42.108  28.129  29.322  1.00  0.00     0.167 HD
ATOM     25  C   UNL A   1      42.044  29.768  33.321  1.00  0.00     0.034 A 
ATOM     26  C   UNL A   1      42.756  25.912  27.805  1.00  0.00     0.034 A 
ATOM     27  C   UNL A   1      43.104  30.492  32.673  1.00  0.00     0.049 A 
ATOM     28  C   UNL A   1      43.766  26.427  28.756  1.00  0.00     0.074 A 
ATOM     29  C   UNL A   1      43.271  31.767  32.177  1.00  0.00     0.029 A 
ATOM     30  N   UNL A   1      44.143  29.749  32.170  1.00  0.00    -0.354 N 
ATOM     31  N   UNL A   1      44.539  27.447  28.513  1.00  0.00    -0.248 NA
ATOM     32  C   UNL A   1      43.666  26.029  30.149  1.00  0.00     0.031 C 
ATOM     33  C   UNL A   1      44.106  31.606  31.034  1.00  0.00     0.029 A 
ATOM     34  C   UNL A   1      44.430  30.251  30.933  1.00  0.00     0.049 A 
ATOM     35  H   UNL A   1      44.596  28.998  32.618  1.00  0.00     0.167 HD
ATOM     36  C   UNL A   1      44.660  28.084  29.738  1.00  0.00     0.074 A 
ATOM     37  C   UNL A   1      44.209  27.104  30.723  1.00  0.00     0.031 C 
ATOM     38  C   UNL A   1      44.839  29.435  29.813  1.00  0.00     0.034 A 
BRANCH  25  39
ATOM     39  C   UNL A   1      42.331  28.936  34.554  1.00  0.00     0.023 A 
ATOM     40  C   UNL A   1      42.893  29.606  35.670  1.00  0.00     0.012 A 
ATOM     41  C   UNL A   1      42.365  27.524  34.575  1.00  0.00     0.148 A 
ATOM     42  C   UNL A   1      43.520  28.913  36.710  1.00  0.00     0.002 A 
ATOM     43  C   UNL A   1      42.926  26.838  35.649  1.00  0.00     0.091 A 
ATOM     44  F   UNL A   1      41.976  26.831  33.502  1.00  0.00    -0.205 F 
ATOM     45  C   UNL A   1      43.535  27.526  36.700  1.00  0.00     0.022 A 
BRANCH  43  46
ATOM     46  S   UNL A   1      42.928  25.041  35.715  1.00  0.00     0.127 S 
ATOM     47  O   UNL A   1      43.734  24.711  34.537  1.00  0.00    -0.237 OA
ATOM     48  O   UNL A   1      43.590  24.791  37.000  1.00  0.00    -0.237 OA
ATOM     49  O   UNL A   1      41.536  24.648  35.674  1.00  0.00    -0.744 OA
ENDBRANCH  43  46
ENDBRANCH  25  39
BRANCH  26  50
ATOM     50  C   UNL A   1      42.777  24.504  27.349  1.00  0.00     0.023 A 
ATOM     51  C   UNL A   1      41.617  23.711  27.465  1.00  0.00     0.012 A 
ATOM     52  C   UNL A   1      43.832  24.026  26.540  1.00  0.00     0.148 A 
ATOM     53  C   UNL A   1      41.497  22.500  26.773  1.00  0.00     0.002 A 
ATOM     54  C   UNL A   1      43.710  22.820  25.857  1.00  0.00     0.091 A 
ATOM     55  F   UNL A   1      44.910  24.801  26.368  1.00  0.00    -0.205 F 
ATOM     56  C   UNL A   1      42.539  22.059  25.962  1.00  0.00     0.022 A 
BRANCH  54  57
ATOM     57  S   UNL A   1      45.001  22.200  24.768  1.00  0.00     0.127 S 
ATOM     58  O   UNL A   1      44.350  21.040  24.159  1.00  0.00    -0.237 OA
ATOM     59  O   UNL A   1      45.204  23.332  23.868  1.00  0.00    -0.237 OA
ATOM     60  O   UNL A   1      46.126  21.869  25.633  1.00  0.00    -0.744 OA
ENDBRANCH  54  57
ENDBRANCH  26  50
BRANCH  38  61
ATOM     61  C   UNL A   1      45.203  30.183  28.559  1.00  0.00     0.023 A 
ATOM     62  C   UNL A   1      44.231  30.787  27.735  1.00  0.00     0.012 A 
ATOM     63  C   UNL A   1      46.561  30.467  28.337  1.00  0.00     0.148 A 
ATOM     64  C   UNL A   1      44.609  31.651  26.705  1.00  0.00     0.002 A 
ATOM     65  C   UNL A   1      46.930  31.368  27.348  1.00  0.00     0.091 A 
ATOM     66  F   UNL A   1      47.469  29.884  29.135  1.00  0.00    -0.205 F 
ATOM     67  C   UNL A   1      45.956  31.956  26.522  1.00  0.00     0.022 A 
BRANCH  65  68
ATOM     68  S   UNL A   1      48.626  31.921  27.165  1.00  0.00     0.127 S 
ATOM     69  O   UNL A   1      49.304  30.697  26.746  1.00  0.00    -0.237 OA
ATOM     70  O   UNL A   1      48.510  32.944  26.124  1.00  0.00    -0.237 OA
ATOM     71  O   UNL A   1      49.024  32.443  28.468  1.00  0.00    -0.744 OA
ENDBRANCH  65  68
ENDBRANCH  38  61
ENDBRANCH  12  13
ENDBRANCH   5   7
ENDBRANCH   2   3
ENDBRANCH   1   2
BRANCH   1  72
ATOM     72  C   UNL A   1      31.403  27.701  27.037  1.00  0.00     0.023 C 
BRANCH  72  73
ATOM     73  C   UNL A   1      32.115  26.456  26.502  1.00  0.00     0.116 C 
BRANCH  73  74
ATOM     74  N   UNL A   1      31.396  25.202  26.644  1.00  0.00    -0.351 N 
ATOM     75  C   UNL A   1      31.872  23.914  26.520  1.00  0.00     0.272 C 
ATOM     76  H   UNL A   1      30.438  25.283  26.857  1.00  0.00     0.163 HD
ATOM     77  O   UNL A   1      31.374  23.000  27.174  1.00  0.00    -0.267 OA
BRANCH  75  78
ATOM     78  C   UNL A   1      33.050  23.615  25.709  1.00  0.00     0.159 A 
ATOM     79  N   UNL A   1      34.191  23.628  26.489  1.00  0.00    -0.247 NA
ATOM     80  C   UNL A   1      33.037  23.209  24.379  1.00  0.00     0.159 A 
ATOM     81  C   UNL A   1      35.330  23.223  25.906  1.00  0.00     0.132 A 
ATOM     82  N   UNL A   1      34.245  22.820  23.827  1.00  0.00    -0.247 NA
ATOM     83  C   UNL A   1      35.358  22.827  24.592  1.00  0.00     0.132 A 
BRANCH  80  84
ATOM     84  C   UNL A   1      31.946  23.106  23.323  1.00  0.00     0.276 C 
ATOM     85  O   UNL A   1      31.823  22.004  22.759  1.00  0.00    -0.267 OA
ATOM     86  N   UNL A   1      30.986  24.007  22.910  1.00  0.00    -0.321 N 
ATOM     87  H   UNL A   1      30.336  23.617  22.281  1.00  0.00     0.170 HD
BRANCH  86  88
ATOM     88  C   UNL A   1      30.741  25.337  23.190  1.00  0.00     0.043 A 
ATOM     89  C   UNL A   1      29.564  25.708  23.831  1.00  0.00     0.028 A 
ATOM     90  C   UNL A   1      31.734  26.285  22.955  1.00  0.00     0.049 A 
ATOM     91  C   UNL A   1      29.258  27.063  23.960  1.00  0.00     0.032 A 
ATOM     92  C   UNL A   1      31.418  27.644  23.044  1.00  0.00     0.068 A 
ATOM     93  C   UNL A   1      30.116  28.022  23.391  1.00  0.00     0.085 A 
ATOM     94  Cl  UNL A   1      32.703  28.766  22.769  1.00  0.00    -0.082 Cl
BRANCH  93  95
ATOM     95  N   UNL A   1      29.519  29.231  22.933  1.00  0.00    -0.220 N 
ATOM     96  C   UNL A   1      29.484  30.465  23.545  1.00  0.00     0.226 A 
ATOM     97  N   UNL A   1      29.153  29.388  21.630  1.00  0.00    -0.155 NA
ATOM     98  N   UNL A   1      29.058  31.389  22.713  1.00  0.00    -0.223 NA
ATOM     99  C   UNL A   1      28.877  30.690  21.562  1.00  0.00     0.246 A 
ENDBRANCH  93  95
ENDBRANCH  86  88
ENDBRANCH  80  84
ENDBRANCH  75  78
ENDBRANCH  73  74
ENDBRANCH  72  73
ENDBRANCH   1  72
TORSDOF 17
ENDMDL
MODEL 2
REMARK VINA RESULT:     -12.9      1.624      2.096
REMARK SMILES O=C(NCCCCNC(=O)c1nccnc1C(=O)Nc1ccc(-n2cncn2)c(Cl)c1)c1ccc(-c2c3nc(c(-c4cccc(S(=O)(=O)[O-])c4F)c4ccc([nH]4)c(-c4cccc(S(=O)(=O)[O-])c4F)c4nc(c(-c5cccc(S(=O)(=O)[O-])c5F)c5ccc2[nH]5)C=C4)C=C3)cc1
REMARK SMILES IDX 5 1 4 2 3 3 1 4 2 5 32 7 33 8 94 9 34 10 93 11 35 12 36 13
REMARK SMILES IDX 37 14 87 15 38 16 92 17 86 18 88 19 39 20 91 21 85 22 84 23
REMARK SMILES IDX 40 25 72 26 52 27 71 28 53 29 56 30 70 31 89 32 54 33 55 34
REMARK SMILES IDX 69 36 90 37 57 38 41 39 42 40 50 41 43 42 45 43 51 44 44 45
REMARK SMILES IDX 46 46 47 47 48 48 49 49 73 50 74 51 82 52 75 53 77 54 83 55
REMARK SMILES IDX 76 56 78 57 79 58 80 59 81 60 58 61 59 62 67 63 60 64 62 65
REMARK SMILES IDX 68 66 61 67 63 68 64 69 65 70 66 71 6 72 7 73 8 74 9 75
REMARK SMILES IDX 10 77 11 78 12 79 16 80 13 81 15 82 14 83 17 84 18 85 19 86
REMARK SMILES IDX 20 88 21 89 31 90 22 91 29 92 23 93 30 94 24 95 25 96 28 97
REMARK SMILES IDX 26 98 27 99
REMARK H PARENT 3 6 88 24 56 35 8 76 19 87
REMARK Flexibility Score: inf
ROOT
ATOM      1  C   UNL A   1      32.247  29.653  26.831  1.00  0.00     0.023 C 
ENDROOT
BRANCH   1   2
ATOM      2  C   UNL A   1      33.729  30.003  26.732  1.00  0.00     0.116 C 
BRANCH   2   3
ATOM      3  N   UNL A   1      34.105  31.252  27.348  1.00  0.00    -0.352 N 
ATOM      4  O   UNL A   1      35.211  32.957  28.186  1.00  0.00    -0.269 OA
ATOM      5  C   UNL A   1      35.251  31.757  27.895  1.00  0.00     0.251 C 
ATOM      6  H   UNL A   1      33.359  31.894  27.383  1.00  0.00     0.163 HD
BRANCH   5   7
ATOM      7  C   UNL A   1      36.483  30.981  28.208  1.00  0.00     0.039 A 
ATOM      8  C   UNL A   1      36.689  29.622  27.967  1.00  0.00     0.014 A 
ATOM      9  C   UNL A   1      37.529  31.724  28.790  1.00  0.00     0.014 A 
ATOM     10  C   UNL A   1      37.884  29.009  28.356  1.00  0.00     0.010 A 
ATOM     11  C   UNL A   1      38.725  31.122  29.168  1.00  0.00     0.010 A 
ATOM     12  C   UNL A   1      38.894  29.754  28.977  1.00  0.00    -0.014 A 
BRANCH  12  13
ATOM     13  C   UNL A   1      40.163  29.097  29.297  1.00  0.00     0.031 A 
ATOM     14  C   UNL A   1      40.367  28.759  30.738  1.00  0.00     0.074 A 
ATOM     15  C   UNL A   1      41.038  28.653  28.369  1.00  0.00     0.049 A 
ATOM     16  N   UNL A   1      41.290  29.187  31.538  1.00  0.00    -0.248 NA
ATOM     17  C   UNL A   1      39.367  27.899  31.388  1.00  0.00     0.031 C 
ATOM     18  C   UNL A   1      40.849  28.592  26.917  1.00  0.00     0.029 A 
ATOM     19  N   UNL A   1      42.240  28.029  28.550  1.00  0.00    -0.354 N 
ATOM     20  C   UNL A   1      41.108  28.498  32.740  1.00  0.00     0.074 A 
ATOM     21  C   UNL A   1      39.837  27.834  32.635  1.00  0.00     0.031 C 
ATOM     22  C   UNL A   1      41.769  27.757  26.385  1.00  0.00     0.029 A 
ATOM     23  C   UNL A   1      42.692  27.344  27.427  1.00  0.00     0.049 A 
ATOM     24  H   UNL A   1      42.740  28.062  29.397  1.00  0.00     0.167 HD
ATOM     25  C   UNL A   1      42.105  28.371  33.662  1.00  0.00     0.034 A 
ATOM     26  C   UNL A   1      43.707  26.447  27.374  1.00  0.00     0.034 A 
ATOM     27  C   UNL A   1      43.181  29.290  33.411  1.00  0.00     0.049 A 
ATOM     28  C   UNL A   1      44.563  26.669  28.560  1.00  0.00     0.074 A 
ATOM     29  C   UNL A   1      43.319  30.661  33.354  1.00  0.00     0.029 A 
ATOM     30  N   UNL A   1      44.319  28.771  32.845  1.00  0.00    -0.354 N 
ATOM     31  N   UNL A   1      45.289  27.734  28.744  1.00  0.00    -0.248 NA
ATOM     32  C   UNL A   1      44.330  25.853  29.739  1.00  0.00     0.031 C 
ATOM     33  C   UNL A   1      44.289  30.887  32.336  1.00  0.00     0.029 A 
ATOM     34  C   UNL A   1      44.713  29.641  31.869  1.00  0.00     0.049 A 
ATOM     35  H   UNL A   1      44.767  27.931  33.097  1.00  0.00     0.167 HD
ATOM     36  C   UNL A   1      45.224  27.962  30.110  1.00  0.00     0.074 A 
ATOM     37  C   UNL A   1      44.730  26.711  30.680  1.00  0.00     0.031 C 
ATOM     38  C   UNL A   1      45.302  29.226  30.616  1.00  0.00     0.034 A 
BRANCH  25  39
ATOM     39  C   UNL A   1      42.303  27.205  34.608  1.00  0.00     0.023 A 
ATOM     40  C   UNL A   1      41.987  27.420  35.974  1.00  0.00     0.012 A 
ATOM     41  C   UNL A   1      43.044  26.043  34.300  1.00  0.00     0.148 A 
ATOM     42  C   UNL A   1      42.449  26.567  36.982  1.00  0.00     0.002 A 
ATOM     43  C   UNL A   1      43.438  25.160  35.302  1.00  0.00     0.091 A 
ATOM     44  F   UNL A   1      43.489  25.846  33.057  1.00  0.00    -0.205 F 
ATOM     45  C   UNL A   1      43.175  25.434  36.645  1.00  0.00     0.022 A 
BRANCH  43  46
ATOM     46  S   UNL A   1      44.336  23.650  34.919  1.00  0.00     0.127 S 
ATOM     47  O   UNL A   1      44.563  23.102  36.259  1.00  0.00    -0.237 OA
ATOM     48  O   UNL A   1      43.354  22.915  34.115  1.00  0.00    -0.237 OA
ATOM     49  O   UNL A   1      45.512  24.070  34.188  1.00  0.00    -0.744 OA
ENDBRANCH  43  46
ENDBRANCH  25  39
BRANCH  26  50
ATOM     50  C   UNL A   1      43.875  25.252  26.517  1.00  0.00     0.023 A 
ATOM     51  C   UNL A   1      45.053  25.094  25.756  1.00  0.00     0.012 A 
ATOM     52  C   UNL A   1      43.023  24.136  26.665  1.00  0.00     0.148 A 
ATOM     53  C   UNL A   1      45.386  23.857  25.191  1.00  0.00     0.002 A 
ATOM     54  C   UNL A   1      43.357  22.909  26.098  1.00  0.00     0.091 A 
ATOM     55  F   UNL A   1      41.938  24.255  27.441  1.00  0.00    -0.205 F 
ATOM     56  C   UNL A   1      44.544  22.763  25.370  1.00  0.00     0.022 A 
BRANCH  54  57
ATOM     57  S   UNL A   1      42.334  21.445  26.311  1.00  0.00     0.127 S 
ATOM     58  O   UNL A   1      43.010  20.478  25.445  1.00  0.00    -0.237 OA
ATOM     59  O   UNL A   1      42.472  21.187  27.742  1.00  0.00    -0.237 OA
ATOM     60  O   UNL A   1      41.001  21.822  25.861  1.00  0.00    -0.744 OA
ENDBRANCH  54  57
ENDBRANCH  26  50
BRANCH  38  61
ATOM     61  C   UNL A   1      45.758  30.338  29.710  1.00  0.00     0.023 A 
ATOM     62  C   UNL A   1      47.110  30.726  29.619  1.00  0.00     0.012 A 
ATOM     63  C   UNL A   1      44.836  30.842  28.776  1.00  0.00     0.148 A 
ATOM     64  C   UNL A   1      47.532  31.606  28.620  1.00  0.00     0.002 A 
ATOM     65  C   UNL A   1      45.269  31.672  27.752  1.00  0.00     0.091 A 
ATOM     66  F   UNL A   1      43.555  30.457  28.880  1.00  0.00    -0.205 F 
ATOM     67  C   UNL A   1      46.615  32.065  27.676  1.00  0.00     0.022 A 
BRANCH  65  68
ATOM     68  S   UNL A   1      44.175  32.169  26.421  1.00  0.00     0.127 S 
ATOM     69  O   UNL A   1      43.388  30.958  26.202  1.00  0.00    -0.237 OA
ATOM     70  O   UNL A   1      43.436  33.281  27.023  1.00  0.00    -0.237 OA
ATOM     71  O   UNL A   1      45.039  32.563  25.314  1.00  0.00    -0.744 OA
ENDBRANCH  65  68
ENDBRANCH  38  61
ENDBRANCH  12  13
ENDBRANCH   5   7
ENDBRANCH   2   3
ENDBRANCH   1   2
BRANCH   1  72
ATOM     72  C   UNL A   1      31.890  28.242  27.319  1.00  0.00     0.023 C 
BRANCH  72  73
ATOM     73  C   UNL A   1      32.233  27.041  26.434  1.00  0.00     0.116 C 
BRANCH  73  74
ATOM     74  N   UNL A   1      31.429  25.849  26.641  1.00  0.00    -0.351 N 
ATOM     75  C   UNL A   1      31.809  24.526  26.565  1.00  0.00     0.272 C 
ATOM     76  H   UNL A   1      30.483  26.008  26.864  1.00  0.00     0.163 HD
ATOM     77  O   UNL A   1      31.259  23.679  27.265  1.00  0.00    -0.267 OA
BRANCH  75  78
ATOM     78  C   UNL A   1      32.949  24.109  25.751  1.00  0.00     0.159 A 
ATOM     79  N   UNL A   1      34.115  24.156  26.490  1.00  0.00    -0.247 NA
ATOM     80  C   UNL A   1      32.877  23.579  24.468  1.00  0.00     0.159 A 
ATOM     81  C   UNL A   1      35.220  23.656  25.914  1.00  0.00     0.132 A 
ATOM     82  N   UNL A   1      34.052  23.096  23.919  1.00  0.00    -0.247 NA
ATOM     83  C   UNL A   1      35.190  23.136  24.645  1.00  0.00     0.132 A 
BRANCH  80  84
ATOM     84  C   UNL A   1      31.749  23.416  23.460  1.00  0.00     0.276 C 
ATOM     85  O   UNL A   1      31.606  22.282  22.967  1.00  0.00    -0.267 OA
ATOM     86  N   UNL A   1      30.773  24.292  23.030  1.00  0.00    -0.321 N 
ATOM     87  H   UNL A   1      30.101  23.867  22.449  1.00  0.00     0.170 HD
BRANCH  86  88
ATOM     88  C   UNL A   1      30.537  25.637  23.241  1.00  0.00     0.043 A 
ATOM     89  C   UNL A   1      29.372  26.047  23.880  1.00  0.00     0.028 A 
ATOM     90  C   UNL A   1      31.529  26.566  22.937  1.00  0.00     0.049 A 
ATOM     91  C   UNL A   1      29.073  27.408  23.939  1.00  0.00     0.032 A 
ATOM     92  C   UNL A   1      31.219  27.929  22.955  1.00  0.00     0.068 A 
ATOM     93  C   UNL A   1      29.924  28.331  23.303  1.00  0.00     0.085 A 
ATOM     94  Cl  UNL A   1      32.503  29.029  22.596  1.00  0.00    -0.082 Cl
BRANCH  93  95
ATOM     95  N   UNL A   1      29.323  29.515  22.790  1.00  0.00    -0.220 N 
ATOM     96  C   UNL A   1      29.156  30.738  23.403  1.00  0.00     0.226 A 
ATOM     97  N   UNL A   1      29.102  29.672  21.454  1.00  0.00    -0.155 NA
ATOM     98  N   UNL A   1      28.782  31.651  22.535  1.00  0.00    -0.223 NA
ATOM     99  C   UNL A   1      28.770  30.960  21.365  1.00  0.00     0.246 A 
ENDBRANCH  93  95
ENDBRANCH  86  88
ENDBRANCH  80  84
ENDBRANCH  75  78
ENDBRANCH  73  74
ENDBRANCH  72  73
ENDBRANCH   1  72
TORSDOF 17
ENDMDL
MODEL 3
REMARK VINA RESULT:     -12.5      2.450      4.388
REMARK SMILES O=C(NCCCCNC(=O)c1nccnc1C(=O)Nc1ccc(-n2cncn2)c(Cl)c1)c1ccc(-c2c3nc(c(-c4cccc(S(=O)(=O)[O-])c4F)c4ccc([nH]4)c(-c4cccc(S(=O)(=O)[O-])c4F)c4nc(c(-c5cccc(S(=O)(=O)[O-])c5F)c5ccc2[nH]5)C=C4)C=C3)cc1
REMARK SMILES IDX 5 1 4 2 3 3 1 4 2 5 32 7 33 8 94 9 34 10 93 11 35 12 36 13
REMARK SMILES IDX 37 14 87 15 38 16 92 17 86 18 88 19 39 20 91 21 85 22 84 23
REMARK SMILES IDX 40 25 72 26 52 27 71 28 53 29 56 30 70 31 89 32 54 33 55 34
REMARK SMILES IDX 69 36 90 37 57 38 41 39 42 40 50 41 43 42 45 43 51 44 44 45
REMARK SMILES IDX 46 46 47 47 48 48 49 49 73 50 74 51 82 52 75 53 77 54 83 55
REMARK SMILES IDX 76 56 78 57 79 58 80 59 81 60 58 61 59 62 67 63 60 64 62 65
REMARK SMILES IDX 68 66 61 67 63 68 64 69 65 70 66 71 6 72 7 73 8 74 9 75
REMARK SMILES IDX 10 77 11 78 12 79 16 80 13 81 15 82 14 83 17 84 18 85 19 86
REMARK SMILES IDX 20 88 21 89 31 90 22 91 29 92 23 93 30 94 24 95 25 96 28 97
REMARK SMILES IDX 26 98 27 99
REMARK H PARENT 3 6 88 24 56 35 8 76 19 87
REMARK Flexibility Score: inf
ROOT
ATOM      1  C   UNL A   1      33.017  30.012  27.156  1.00  0.00     0.023 C 
ENDROOT
BRANCH   1   2
ATOM      2  C   UNL A   1      34.003  31.159  27.356  1.00  0.00     0.116 C 
BRANCH   2   3
ATOM      3  N   UNL A   1      34.030  31.719  28.685  1.00  0.00    -0.352 N 
ATOM      4  O   UNL A   1      34.641  32.569  30.617  1.00  0.00    -0.269 OA
ATOM      5  C   UNL A   1      34.987  31.890  29.646  1.00  0.00     0.251 C 
ATOM      6  H   UNL A   1      33.150  32.058  28.968  1.00  0.00     0.163 HD
BRANCH   5   7
ATOM      7  C   UNL A   1      36.349  31.290  29.636  1.00  0.00     0.039 A 
ATOM      8  C   UNL A   1      37.560  31.985  29.619  1.00  0.00     0.014 A 
ATOM      9  C   UNL A   1      36.386  29.882  29.659  1.00  0.00     0.014 A 
ATOM     10  C   UNL A   1      38.772  31.289  29.564  1.00  0.00     0.010 A 
ATOM     11  C   UNL A   1      37.589  29.185  29.616  1.00  0.00     0.010 A 
ATOM     12  C   UNL A   1      38.787  29.890  29.540  1.00  0.00    -0.014 A 
BRANCH  12  13
ATOM     13  C   UNL A   1      40.075  29.195  29.563  1.00  0.00     0.031 A 
ATOM     14  C   UNL A   1      40.671  28.986  30.917  1.00  0.00     0.074 A 
ATOM     15  C   UNL A   1      40.638  28.613  28.481  1.00  0.00     0.049 A 
ATOM     16  N   UNL A   1      41.795  29.435  31.375  1.00  0.00    -0.248 NA
ATOM     17  C   UNL A   1      39.873  28.253  31.910  1.00  0.00     0.031 C 
ATOM     18  C   UNL A   1      40.042  28.423  27.156  1.00  0.00     0.029 A 
ATOM     19  N   UNL A   1      41.823  27.941  28.386  1.00  0.00    -0.354 N 
ATOM     20  C   UNL A   1      41.943  28.878  32.648  1.00  0.00     0.074 A 
ATOM     21  C   UNL A   1      40.675  28.281  32.975  1.00  0.00     0.031 C 
ATOM     22  C   UNL A   1      40.749  27.488  26.482  1.00  0.00     0.029 A 
ATOM     23  C   UNL A   1      41.918  27.125  27.263  1.00  0.00     0.049 A 
ATOM     24  H   UNL A   1      42.544  28.026  29.050  1.00  0.00     0.167 HD
ATOM     25  C   UNL A   1      43.156  28.783  33.262  1.00  0.00     0.034 A 
ATOM     26  C   UNL A   1      42.851  26.170  27.027  1.00  0.00     0.034 A 
ATOM     27  C   UNL A   1      44.142  29.610  32.621  1.00  0.00     0.049 A 
ATOM     28  C   UNL A   1      44.015  26.455  27.894  1.00  0.00     0.074 A 
ATOM     29  C   UNL A   1      44.297  30.958  32.379  1.00  0.00     0.029 A 
ATOM     30  N   UNL A   1      45.057  28.973  31.820  1.00  0.00    -0.354 N 
ATOM     31  N   UNL A   1      44.792  27.490  27.750  1.00  0.00    -0.248 NA
ATOM     32  C   UNL A   1      44.103  25.773  29.173  1.00  0.00     0.031 C 
ATOM     33  C   UNL A   1      44.944  31.028  31.112  1.00  0.00     0.029 A 
ATOM     34  C   UNL A   1      45.182  29.720  30.684  1.00  0.00     0.049 A 
ATOM     35  H   UNL A   1      45.534  28.137  32.027  1.00  0.00     0.167 HD
ATOM     36  C   UNL A   1      45.125  27.852  29.047  1.00  0.00     0.074 A 
ATOM     37  C   UNL A   1      44.778  26.693  29.865  1.00  0.00     0.031 C 
ATOM     38  C   UNL A   1      45.379  29.153  29.370  1.00  0.00     0.034 A 
BRANCH  25  39
ATOM     39  C   UNL A   1      43.582  27.705  34.237  1.00  0.00     0.023 A 
ATOM     40  C   UNL A   1      44.178  28.129  35.451  1.00  0.00     0.012 A 
ATOM     41  C   UNL A   1      43.706  26.336  33.910  1.00  0.00     0.148 A 
ATOM     42  C   UNL A   1      44.920  27.257  36.255  1.00  0.00     0.002 A 
ATOM     43  C   UNL A   1      44.384  25.458  34.752  1.00  0.00     0.091 A 
ATOM     44  F   UNL A   1      43.287  25.893  32.722  1.00  0.00    -0.205 F 
ATOM     45  C   UNL A   1      45.021  25.919  35.905  1.00  0.00     0.022 A 
BRANCH  43  46
ATOM     46  S   UNL A   1      44.505  23.704  34.376  1.00  0.00     0.127 S 
ATOM     47  O   UNL A   1      45.268  23.729  33.126  1.00  0.00    -0.237 OA
ATOM     48  O   UNL A   1      45.246  23.201  35.537  1.00  0.00    -0.237 OA
ATOM     49  O   UNL A   1      43.140  23.230  34.288  1.00  0.00    -0.744 OA
ENDBRANCH  43  46
ENDBRANCH  25  39
BRANCH  26  50
ATOM     50  C   UNL A   1      42.734  24.890  26.292  1.00  0.00     0.023 A 
ATOM     51  C   UNL A   1      43.748  24.503  25.391  1.00  0.00     0.012 A 
ATOM     52  C   UNL A   1      41.787  23.919  26.686  1.00  0.00     0.148 A 
ATOM     53  C   UNL A   1      43.836  23.185  24.925  1.00  0.00     0.002 A 
ATOM     54  C   UNL A   1      41.876  22.612  26.217  1.00  0.00     0.091 A 
ATOM     55  F   UNL A   1      40.862  24.256  27.593  1.00  0.00    -0.205 F 
ATOM     56  C   UNL A   1      42.906  22.238  25.345  1.00  0.00     0.022 A 
BRANCH  54  57
ATOM     57  S   UNL A   1      40.730  21.327  26.737  1.00  0.00     0.127 S 
ATOM     58  O   UNL A   1      39.464  21.809  26.184  1.00  0.00    -0.237 OA
ATOM     59  O   UNL A   1      41.279  20.147  26.073  1.00  0.00    -0.237 OA
ATOM     60  O   UNL A   1      40.782  21.314  28.193  1.00  0.00    -0.744 OA
ENDBRANCH  54  57
ENDBRANCH  26  50
BRANCH  38  61
ATOM     61  C   UNL A   1      45.590  30.143  28.256  1.00  0.00     0.023 A 
ATOM     62  C   UNL A   1      44.517  30.820  27.641  1.00  0.00     0.012 A 
ATOM     63  C   UNL A   1      46.905  30.556  27.986  1.00  0.00     0.148 A 
ATOM     64  C   UNL A   1      44.755  31.884  26.767  1.00  0.00     0.002 A 
ATOM     65  C   UNL A   1      47.136  31.647  27.161  1.00  0.00     0.091 A 
ATOM     66  F   UNL A   1      47.911  29.898  28.586  1.00  0.00    -0.205 F 
ATOM     67  C   UNL A   1      46.063  32.309  26.541  1.00  0.00     0.022 A 
BRANCH  65  68
ATOM     68  S   UNL A   1      48.777  32.339  26.954  1.00  0.00     0.127 S 
ATOM     69  O   UNL A   1      49.551  31.172  26.538  1.00  0.00    -0.237 OA
ATOM     70  O   UNL A   1      48.564  33.339  25.907  1.00  0.00    -0.237 OA
ATOM     71  O   UNL A   1      49.143  32.904  28.248  1.00  0.00    -0.744 OA
ENDBRANCH  65  68
ENDBRANCH  38  61
ENDBRANCH  12  13
ENDBRANCH   5   7
ENDBRANCH   2   3
ENDBRANCH   1   2
BRANCH   1  72
ATOM     72  C   UNL A   1      32.035  30.128  25.981  1.00  0.00     0.023 C 
BRANCH  72  73
ATOM     73  C   UNL A   1      31.975  28.997  24.950  1.00  0.00     0.116 C 
BRANCH  73  74
ATOM     74  N   UNL A   1      30.805  28.139  25.016  1.00  0.00    -0.351 N 
ATOM     75  C   UNL A   1      30.690  26.808  24.678  1.00  0.00     0.272 C 
ATOM     76  H   UNL A   1      29.981  28.567  25.345  1.00  0.00     0.163 HD
ATOM     77  O   UNL A   1      29.889  26.083  25.265  1.00  0.00    -0.267 OA
BRANCH  75  78
ATOM     78  C   UNL A   1      31.590  26.190  23.707  1.00  0.00     0.159 A 
ATOM     79  N   UNL A   1      31.159  26.443  22.418  1.00  0.00    -0.247 NA
ATOM     80  C   UNL A   1      32.801  25.574  24.002  1.00  0.00     0.159 A 
ATOM     81  C   UNL A   1      31.973  26.063  21.420  1.00  0.00     0.132 A 
ATOM     82  N   UNL A   1      33.588  25.187  22.931  1.00  0.00    -0.247 NA
ATOM     83  C   UNL A   1      33.169  25.440  21.673  1.00  0.00     0.132 A 
BRANCH  80  84
ATOM     84  C   UNL A   1      33.492  25.183  25.300  1.00  0.00     0.276 C 
ATOM     85  O   UNL A   1      33.701  26.101  26.114  1.00  0.00    -0.267 OA
ATOM     86  N   UNL A   1      33.876  23.955  25.797  1.00  0.00    -0.321 N 
ATOM     87  H   UNL A   1      34.202  23.999  26.726  1.00  0.00     0.170 HD
BRANCH  86  88
ATOM     88  C   UNL A   1      33.900  22.677  25.273  1.00  0.00     0.043 A 
ATOM     89  C   UNL A   1      32.778  22.167  24.630  1.00  0.00     0.028 A 
ATOM     90  C   UNL A   1      35.093  21.957  25.268  1.00  0.00     0.049 A 
ATOM     91  C   UNL A   1      32.763  20.824  24.252  1.00  0.00     0.032 A 
ATOM     92  C   UNL A   1      35.072  20.602  24.930  1.00  0.00     0.068 A 
ATOM     93  C   UNL A   1      33.857  20.002  24.579  1.00  0.00     0.085 A 
ATOM     94  Cl  UNL A   1      36.590  19.775  24.916  1.00  0.00    -0.082 Cl
BRANCH  93  95
ATOM     95  N   UNL A   1      33.581  18.626  24.818  1.00  0.00    -0.220 N 
ATOM     96  C   UNL A   1      32.740  18.061  25.752  1.00  0.00     0.226 A 
ATOM     97  N   UNL A   1      33.910  17.671  23.903  1.00  0.00    -0.155 NA
ATOM     98  N   UNL A   1      32.563  16.781  25.510  1.00  0.00    -0.223 NA
ATOM     99  C   UNL A   1      33.286  16.592  24.375  1.00  0.00     0.246 A 
ENDBRANCH  93  95
ENDBRANCH  86  88
ENDBRANCH  80  84
ENDBRANCH  75  78
ENDBRANCH  73  74
ENDBRANCH  72  73
ENDBRANCH   1  72
TORSDOF 17
ENDMDL
