MODEL 1
REMARK VINA RESULT:     -11.3      0.000      0.000
REMARK SMILES CCOc1ccc(-c2ccc(=O)n(CC(=O)NCCCCNC(=O)c3ccc(-c4c5nc(c(-c6cccc(S(=O)(=O)[O-])c6F)c6ccc([nH]6)c(-c6cccc(S(=O)(=O)[O-])c6F)c6nc(c(-c7cccc(S(=O)(=O)[O-])c7F)c7ccc4[nH]7)C=C6)C=C5)cc3)n2)cc1
REMARK SMILES IDX 19 1 18 2 17 3 15 4 16 5 14 7 13 8 8 9 9 10 88 11 10 12
REMARK SMILES IDX 11 13 12 14 7 15 4 16 5 17 90 18 6 19 89 20 3 21 2 22 1 23
REMARK SMILES IDX 20 24 21 25 22 26 23 27 24 29 25 30 26 31 87 32 27 33 86 34
REMARK SMILES IDX 28 35 29 36 30 37 80 38 31 39 85 40 79 41 81 42 32 43 84 44
REMARK SMILES IDX 78 45 77 46 33 48 65 49 45 50 64 51 46 52 49 53 63 54 82 55
REMARK SMILES IDX 47 56 48 57 62 59 83 60 50 61 34 62 35 63 43 64 36 65 38 66
REMARK SMILES IDX 44 67 37 68 39 69 40 70 41 71 42 72 66 73 67 74 75 75 68 76
REMARK SMILES IDX 70 77 76 78 69 79 71 80 72 81 73 82 74 83 51 84 52 85 60 86
REMARK SMILES IDX 53 87 55 88 61 89 54 90 56 91 57 92 58 93 59 94
REMARK H PARENT 17 6 22 28 81 47 49 58
REMARK Flexibility Score: inf
ROOT
ATOM      1  C   UNL A   1      36.797  20.020  24.812  1.00  0.00     0.023 C 
ENDROOT
BRANCH   1   2
ATOM      2  C   UNL A   1      36.901  21.535  24.976  1.00  0.00     0.116 C 
BRANCH   2   3
ATOM      3  N   UNL A   1      36.135  22.029  26.101  1.00  0.00    -0.354 N 
ATOM      4  C   UNL A   1      35.276  23.093  26.156  1.00  0.00     0.241 C 
ATOM      5  O   UNL A   1      34.518  23.156  27.129  1.00  0.00    -0.273 OA
ATOM      6  H   UNL A   1      36.248  21.532  26.943  1.00  0.00     0.163 HD
BRANCH   4   7
ATOM      7  C   UNL A   1      35.116  24.056  24.975  1.00  0.00     0.248 C 
BRANCH   7   8
ATOM      8  N   UNL A   1      33.747  24.153  24.481  1.00  0.00    -0.220 N 
ATOM      9  C   UNL A   1      31.943  25.496  24.071  1.00  0.00     0.091 A 
ATOM     10  C   UNL A   1      31.108  24.355  23.651  1.00  0.00     0.036 A 
ATOM     11  N   UNL A   1      33.178  25.409  24.449  1.00  0.00    -0.169 NA
ATOM     12  C   UNL A   1      31.714  23.169  23.587  1.00  0.00     0.075 A 
ATOM     13  C   UNL A   1      33.135  23.017  23.972  1.00  0.00     0.267 A 
ATOM     14  O   UNL A   1      33.671  21.921  23.847  1.00  0.00    -0.268 OA
BRANCH   9  15
ATOM     15  C   UNL A   1      31.310  26.831  24.017  1.00  0.00     0.002 A 
ATOM     16  C   UNL A   1      30.074  29.313  23.821  1.00  0.00     0.119 A 
ATOM     17  C   UNL A   1      31.245  29.181  24.569  1.00  0.00     0.047 A 
ATOM     18  C   UNL A   1      29.548  28.223  23.130  1.00  0.00     0.047 A 
ATOM     19  C   UNL A   1      31.865  27.933  24.676  1.00  0.00     0.014 A 
ATOM     20  C   UNL A   1      30.162  26.977  23.232  1.00  0.00     0.014 A 
BRANCH  16  21
ATOM     21  O   UNL A   1      29.520  30.554  23.676  1.00  0.00    -0.494 OA
BRANCH  21  22
ATOM     22  C   UNL A   1      29.207  30.860  22.311  1.00  0.00     0.226 C 
ATOM     23  C   UNL A   1      27.812  31.454  22.178  1.00  0.00     0.049 C 
ENDBRANCH  21  22
ENDBRANCH  16  21
ENDBRANCH   9  15
ENDBRANCH   7   8
ENDBRANCH   4   7
ENDBRANCH   2   3
ENDBRANCH   1   2
BRANCH   1  24
ATOM     24  C   UNL A   1      38.112  19.256  24.983  1.00  0.00     0.023 C 
BRANCH  24  25
ATOM     25  C   UNL A   1      39.150  19.923  25.878  1.00  0.00     0.116 C 
BRANCH  25  26
ATOM     26  N   UNL A   1      40.374  19.148  26.017  1.00  0.00    -0.352 N 
ATOM     27  C   UNL A   1      41.639  19.586  26.333  1.00  0.00     0.251 C 
ATOM     28  H   UNL A   1      40.284  18.179  25.866  1.00  0.00     0.163 HD
ATOM     29  O   UNL A   1      42.586  18.804  26.291  1.00  0.00    -0.269 OA
BRANCH  27  30
ATOM     30  C   UNL A   1      41.860  21.005  26.687  1.00  0.00     0.039 A 
ATOM     31  C   UNL A   1      42.238  21.325  27.993  1.00  0.00     0.014 A 
ATOM     32  C   UNL A   1      41.719  22.014  25.730  1.00  0.00     0.014 A 
ATOM     33  C   UNL A   1      42.547  22.649  28.320  1.00  0.00     0.010 A 
ATOM     34  C   UNL A   1      42.093  23.319  26.039  1.00  0.00     0.010 A 
ATOM     35  C   UNL A   1      42.514  23.651  27.337  1.00  0.00    -0.014 A 
BRANCH  35  36
ATOM     36  C   UNL A   1      42.941  25.044  27.632  1.00  0.00     0.031 A 
ATOM     37  C   UNL A   1      41.965  26.031  28.214  1.00  0.00     0.074 A 
ATOM     38  C   UNL A   1      44.174  25.451  27.268  1.00  0.00     0.049 A 
ATOM     39  N   UNL A   1      42.132  27.304  28.463  1.00  0.00    -0.248 NA
ATOM     40  C   UNL A   1      40.617  25.532  28.532  1.00  0.00     0.031 C 
ATOM     41  C   UNL A   1      45.181  24.617  26.609  1.00  0.00     0.029 A 
ATOM     42  N   UNL A   1      44.777  26.682  27.365  1.00  0.00    -0.354 N 
ATOM     43  C   UNL A   1      40.904  27.768  28.916  1.00  0.00     0.074 A 
ATOM     44  C   UNL A   1      39.994  26.644  28.893  1.00  0.00     0.031 C 
ATOM     45  C   UNL A   1      46.270  25.360  26.351  1.00  0.00     0.029 A 
ATOM     46  C   UNL A   1      46.032  26.728  26.801  1.00  0.00     0.049 A 
ATOM     47  H   UNL A   1      44.352  27.457  27.797  1.00  0.00     0.167 HD
ATOM     48  C   UNL A   1      40.569  29.011  29.339  1.00  0.00     0.034 A 
ATOM     49  C   UNL A   1      46.890  27.756  26.652  1.00  0.00     0.034 A 
ATOM     50  C   UNL A   1      41.493  30.109  29.421  1.00  0.00     0.049 A 
ATOM     51  C   UNL A   1      46.515  29.109  27.194  1.00  0.00     0.074 A 
ATOM     52  C   UNL A   1      41.282  31.369  29.955  1.00  0.00     0.029 A 
ATOM     53  N   UNL A   1      42.795  30.088  28.949  1.00  0.00    -0.354 N 
ATOM     54  N   UNL A   1      45.413  29.476  27.803  1.00  0.00    -0.248 NA
ATOM     55  C   UNL A   1      47.515  30.180  27.066  1.00  0.00     0.031 C 
ATOM     56  C   UNL A   1      42.451  32.116  29.785  1.00  0.00     0.029 A 
ATOM     57  C   UNL A   1      43.397  31.315  29.166  1.00  0.00     0.049 A 
ATOM     58  H   UNL A   1      43.228  29.313  28.522  1.00  0.00     0.167 HD
ATOM     59  C   UNL A   1      45.601  30.807  28.161  1.00  0.00     0.074 A 
ATOM     60  C   UNL A   1      46.931  31.175  27.721  1.00  0.00     0.031 C 
ATOM     61  C   UNL A   1      44.743  31.651  28.782  1.00  0.00     0.034 A 
BRANCH  48  62
ATOM     62  C   UNL A   1      39.156  29.244  29.802  1.00  0.00     0.023 A 
ATOM     63  C   UNL A   1      38.799  28.932  31.129  1.00  0.00     0.012 A 
ATOM     64  C   UNL A   1      38.209  29.850  28.954  1.00  0.00     0.148 A 
ATOM     65  C   UNL A   1      37.512  29.195  31.599  1.00  0.00     0.002 A 
ATOM     66  C   UNL A   1      36.941  30.149  29.442  1.00  0.00     0.091 A 
ATOM     67  F   UNL A   1      38.563  30.121  27.689  1.00  0.00    -0.205 F 
ATOM     68  C   UNL A   1      36.590  29.813  30.760  1.00  0.00     0.022 A 
BRANCH  66  69
ATOM     69  S   UNL A   1      35.707  31.017  28.467  1.00  0.00     0.127 S 
ATOM     70  O   UNL A   1      34.758  31.435  29.498  1.00  0.00    -0.237 OA
ATOM     71  O   UNL A   1      36.488  32.106  27.881  1.00  0.00    -0.237 OA
ATOM     72  O   UNL A   1      35.199  30.048  27.506  1.00  0.00    -0.744 OA
ENDBRANCH  66  69
ENDBRANCH  48  62
BRANCH  49  73
ATOM     73  C   UNL A   1      48.217  27.535  26.009  1.00  0.00     0.023 A 
ATOM     74  C   UNL A   1      49.324  27.192  26.809  1.00  0.00     0.012 A 
ATOM     75  C   UNL A   1      48.385  27.642  24.615  1.00  0.00     0.148 A 
ATOM     76  C   UNL A   1      50.583  26.998  26.238  1.00  0.00     0.002 A 
ATOM     77  C   UNL A   1      49.629  27.392  24.047  1.00  0.00     0.091 A 
ATOM     78  F   UNL A   1      47.324  27.984  23.871  1.00  0.00    -0.205 F 
ATOM     79  C   UNL A   1      50.733  27.089  24.857  1.00  0.00     0.022 A 
BRANCH  77  80
ATOM     80  S   UNL A   1      49.876  27.352  22.267  1.00  0.00     0.127 S 
ATOM     81  O   UNL A   1      51.282  26.972  22.168  1.00  0.00    -0.237 OA
ATOM     82  O   UNL A   1      48.927  26.317  21.851  1.00  0.00    -0.237 OA
ATOM     83  O   UNL A   1      49.540  28.691  21.800  1.00  0.00    -0.744 OA
ENDBRANCH  77  80
ENDBRANCH  49  73
BRANCH  61  84
ATOM     84  C   UNL A   1      45.216  33.054  29.064  1.00  0.00     0.023 A 
ATOM     85  C   UNL A   1      45.927  33.326  30.249  1.00  0.00     0.012 A 
ATOM     86  C   UNL A   1      45.030  34.078  28.117  1.00  0.00     0.148 A 
ATOM     87  C   UNL A   1      46.423  34.606  30.499  1.00  0.00     0.002 A 
ATOM     88  C   UNL A   1      45.568  35.339  28.350  1.00  0.00     0.091 A 
ATOM     89  F   UNL A   1      44.333  33.804  27.004  1.00  0.00    -0.205 F 
ATOM     90  C   UNL A   1      46.254  35.607  29.545  1.00  0.00     0.022 A 
BRANCH  88  91
ATOM     91  S   UNL A   1      45.483  36.660  27.135  1.00  0.00     0.127 S 
ATOM     92  O   UNL A   1      46.207  37.734  27.812  1.00  0.00    -0.237 OA
ATOM     93  O   UNL A   1      46.185  36.077  25.991  1.00  0.00    -0.237 OA
ATOM     94  O   UNL A   1      44.065  36.906  26.910  1.00  0.00    -0.744 OA
ENDBRANCH  88  91
ENDBRANCH  61  84
ENDBRANCH  35  36
ENDBRANCH  27  30
ENDBRANCH  25  26
ENDBRANCH  24  25
ENDBRANCH   1  24
TORSDOF 18
ENDMDL
MODEL 2
REMARK VINA RESULT:     -11.3      6.313     11.650
REMARK SMILES CCOc1ccc(-c2ccc(=O)n(CC(=O)NCCCCNC(=O)c3ccc(-c4c5nc(c(-c6cccc(S(=O)(=O)[O-])c6F)c6ccc([nH]6)c(-c6cccc(S(=O)(=O)[O-])c6F)c6nc(c(-c7cccc(S(=O)(=O)[O-])c7F)c7ccc4[nH]7)C=C6)C=C5)cc3)n2)cc1
REMARK SMILES IDX 19 1 18 2 17 3 15 4 16 5 14 7 13 8 8 9 9 10 88 11 10 12
REMARK SMILES IDX 11 13 12 14 7 15 4 16 5 17 90 18 6 19 89 20 3 21 2 22 1 23
REMARK SMILES IDX 20 24 21 25 22 26 23 27 24 29 25 30 26 31 87 32 27 33 86 34
REMARK SMILES IDX 28 35 29 36 30 37 80 38 31 39 85 40 79 41 81 42 32 43 84 44
REMARK SMILES IDX 78 45 77 46 33 48 65 49 45 50 64 51 46 52 49 53 63 54 82 55
REMARK SMILES IDX 47 56 48 57 62 59 83 60 50 61 34 62 35 63 43 64 36 65 38 66
REMARK SMILES IDX 44 67 37 68 39 69 40 70 41 71 42 72 66 73 67 74 75 75 68 76
REMARK SMILES IDX 70 77 76 78 69 79 71 80 72 81 73 82 74 83 51 84 52 85 60 86
REMARK SMILES IDX 53 87 55 88 61 89 54 90 56 91 57 92 58 93 59 94
REMARK H PARENT 17 6 22 28 81 47 49 58
REMARK Flexibility Score: inf
ROOT
ATOM      1  C   UNL A   1      32.132  30.198  26.929  1.00  0.00     0.023 C 
ENDROOT
BRANCH   1   2
ATOM      2  C   UNL A   1      31.743  29.476  25.641  1.00  0.00     0.116 C 
BRANCH   2   3
ATOM      3  N   UNL A   1      32.888  29.148  24.816  1.00  0.00    -0.354 N 
ATOM      4  C   UNL A   1      32.942  28.935  23.466  1.00  0.00     0.241 C 
ATOM      5  O   UNL A   1      34.059  28.955  22.937  1.00  0.00    -0.273 OA
ATOM      6  H   UNL A   1      33.744  29.065  25.294  1.00  0.00     0.163 HD
BRANCH   4   7
ATOM      7  C   UNL A   1      31.672  28.872  22.612  1.00  0.00     0.248 C 
BRANCH   7   8
ATOM      8  N   UNL A   1      30.689  27.910  23.096  1.00  0.00    -0.220 N 
ATOM      9  C   UNL A   1      30.284  25.786  23.841  1.00  0.00     0.091 A 
ATOM     10  C   UNL A   1      28.830  26.020  23.915  1.00  0.00     0.036 A 
ATOM     11  N   UNL A   1      31.158  26.667  23.470  1.00  0.00    -0.169 NA
ATOM     12  C   UNL A   1      28.416  27.260  23.652  1.00  0.00     0.075 A 
ATOM     13  C   UNL A   1      29.373  28.317  23.259  1.00  0.00     0.267 A 
ATOM     14  O   UNL A   1      28.960  29.458  23.079  1.00  0.00    -0.268 OA
BRANCH   9  15
ATOM     15  C   UNL A   1      30.758  24.449  24.257  1.00  0.00     0.002 A 
ATOM     16  C   UNL A   1      31.631  21.899  24.938  1.00  0.00     0.119 A 
ATOM     17  C   UNL A   1      31.115  22.739  25.926  1.00  0.00     0.047 A 
ATOM     18  C   UNL A   1      31.665  22.307  23.607  1.00  0.00     0.047 A 
ATOM     19  C   UNL A   1      30.682  24.025  25.589  1.00  0.00     0.014 A 
ATOM     20  C   UNL A   1      31.234  23.587  23.264  1.00  0.00     0.014 A 
BRANCH  16  21
ATOM     21  O   UNL A   1      31.988  20.624  25.278  1.00  0.00    -0.494 OA
BRANCH  21  22
ATOM     22  C   UNL A   1      32.719  19.963  24.238  1.00  0.00     0.226 C 
ATOM     23  C   UNL A   1      34.146  19.655  24.668  1.00  0.00     0.049 C 
ENDBRANCH  21  22
ENDBRANCH  16  21
ENDBRANCH   9  15
ENDBRANCH   7   8
ENDBRANCH   4   7
ENDBRANCH   2   3
ENDBRANCH   1   2
BRANCH   1  24
ATOM     24  C   UNL A   1      31.894  31.710  26.924  1.00  0.00     0.023 C 
BRANCH  24  25
ATOM     25  C   UNL A   1      33.083  32.566  27.345  1.00  0.00     0.116 C 
BRANCH  25  26
ATOM     26  N   UNL A   1      32.719  33.938  27.668  1.00  0.00    -0.352 N 
ATOM     27  C   UNL A   1      33.252  34.766  28.627  1.00  0.00     0.251 C 
ATOM     28  H   UNL A   1      31.993  34.325  27.126  1.00  0.00     0.163 HD
ATOM     29  O   UNL A   1      32.740  35.862  28.844  1.00  0.00    -0.269 OA
BRANCH  27  30
ATOM     30  C   UNL A   1      34.419  34.320  29.420  1.00  0.00     0.039 A 
ATOM     31  C   UNL A   1      34.199  33.644  30.624  1.00  0.00     0.014 A 
ATOM     32  C   UNL A   1      35.722  34.546  28.970  1.00  0.00     0.014 A 
ATOM     33  C   UNL A   1      35.286  33.129  31.337  1.00  0.00     0.010 A 
ATOM     34  C   UNL A   1      36.797  33.973  29.645  1.00  0.00     0.010 A 
ATOM     35  C   UNL A   1      36.591  33.256  30.835  1.00  0.00    -0.014 A 
BRANCH  35  36
ATOM     36  C   UNL A   1      37.751  32.626  31.517  1.00  0.00     0.031 A 
ATOM     37  C   UNL A   1      38.491  31.489  30.866  1.00  0.00     0.074 A 
ATOM     38  C   UNL A   1      38.066  33.001  32.774  1.00  0.00     0.049 A 
ATOM     39  N   UNL A   1      39.472  30.765  31.340  1.00  0.00    -0.248 NA
ATOM     40  C   UNL A   1      38.055  31.092  29.517  1.00  0.00     0.031 C 
ATOM     41  C   UNL A   1      37.366  34.026  33.552  1.00  0.00     0.029 A 
ATOM     42  N   UNL A   1      39.031  32.537  33.634  1.00  0.00    -0.354 N 
ATOM     43  C   UNL A   1      39.735  29.801  30.376  1.00  0.00     0.074 A 
ATOM     44  C   UNL A   1      38.801  30.020  29.294  1.00  0.00     0.031 C 
ATOM     45  C   UNL A   1      37.916  34.104  34.775  1.00  0.00     0.029 A 
ATOM     46  C   UNL A   1      38.989  33.120  34.879  1.00  0.00     0.049 A 
ATOM     47  H   UNL A   1      39.691  31.851  33.382  1.00  0.00     0.167 HD
ATOM     48  C   UNL A   1      40.687  28.837  30.377  1.00  0.00     0.034 A 
ATOM     49  C   UNL A   1      39.723  32.884  35.984  1.00  0.00     0.034 A 
ATOM     50  C   UNL A   1      41.656  28.663  31.425  1.00  0.00     0.049 A 
ATOM     51  C   UNL A   1      40.818  31.853  35.931  1.00  0.00     0.074 A 
ATOM     52  C   UNL A   1      42.737  27.800  31.460  1.00  0.00     0.029 A 
ATOM     53  N   UNL A   1      41.658  29.354  32.626  1.00  0.00    -0.354 N 
ATOM     54  N   UNL A   1      41.180  31.085  34.932  1.00  0.00    -0.248 NA
ATOM     55  C   UNL A   1      41.633  31.682  37.144  1.00  0.00     0.031 C 
ATOM     56  C   UNL A   1      43.380  27.953  32.692  1.00  0.00     0.029 A 
ATOM     57  C   UNL A   1      42.712  28.928  33.415  1.00  0.00     0.049 A 
ATOM     58  H   UNL A   1      41.005  30.046  32.880  1.00  0.00     0.167 HD
ATOM     59  C   UNL A   1      42.283  30.368  35.382  1.00  0.00     0.074 A 
ATOM     60  C   UNL A   1      42.544  30.809  36.736  1.00  0.00     0.031 C 
ATOM     61  C   UNL A   1      43.003  29.419  34.737  1.00  0.00     0.034 A 
BRANCH  48  62
ATOM     62  C   UNL A   1      40.771  27.923  29.184  1.00  0.00     0.023 A 
ATOM     63  C   UNL A   1      39.939  26.788  29.118  1.00  0.00     0.012 A 
ATOM     64  C   UNL A   1      41.607  28.234  28.094  1.00  0.00     0.148 A 
ATOM     65  C   UNL A   1      39.956  25.960  27.996  1.00  0.00     0.002 A 
ATOM     66  C   UNL A   1      41.586  27.428  26.961  1.00  0.00     0.091 A 
ATOM     67  F   UNL A   1      42.404  29.308  28.185  1.00  0.00    -0.205 F 
ATOM     68  C   UNL A   1      40.769  26.287  26.915  1.00  0.00     0.022 A 
BRANCH  66  69
ATOM     69  S   UNL A   1      42.536  27.808  25.484  1.00  0.00     0.127 S 
ATOM     70  O   UNL A   1      42.380  26.577  24.710  1.00  0.00    -0.237 OA
ATOM     71  O   UNL A   1      41.817  28.962  24.944  1.00  0.00    -0.237 OA
ATOM     72  O   UNL A   1      43.890  28.093  25.938  1.00  0.00    -0.744 OA
ENDBRANCH  66  69
ENDBRANCH  48  62
BRANCH  49  73
ATOM     73  C   UNL A   1      39.485  33.679  37.223  1.00  0.00     0.023 A 
ATOM     74  C   UNL A   1      40.012  34.981  37.321  1.00  0.00     0.012 A 
ATOM     75  C   UNL A   1      38.728  33.164  38.293  1.00  0.00     0.148 A 
ATOM     76  C   UNL A   1      39.823  35.742  38.475  1.00  0.00     0.002 A 
ATOM     77  C   UNL A   1      38.496  33.948  39.417  1.00  0.00     0.091 A 
ATOM     78  F   UNL A   1      38.247  31.917  38.190  1.00  0.00    -0.205 F 
ATOM     79  C   UNL A   1      39.057  35.230  39.519  1.00  0.00     0.022 A 
BRANCH  77  80
ATOM     80  S   UNL A   1      37.407  33.417  40.745  1.00  0.00     0.127 S 
ATOM     81  O   UNL A   1      38.071  32.202  41.209  1.00  0.00    -0.237 OA
ATOM     82  O   UNL A   1      37.479  34.549  41.670  1.00  0.00    -0.237 OA
ATOM     83  O   UNL A   1      36.101  33.236  40.124  1.00  0.00    -0.744 OA
ENDBRANCH  77  80
ENDBRANCH  49  73
BRANCH  61  84
ATOM     84  C   UNL A   1      44.172  28.807  35.464  1.00  0.00     0.023 A 
ATOM     85  C   UNL A   1      45.457  29.363  35.313  1.00  0.00     0.012 A 
ATOM     86  C   UNL A   1      43.981  27.738  36.360  1.00  0.00     0.148 A 
ATOM     87  C   UNL A   1      46.540  28.845  36.023  1.00  0.00     0.002 A 
ATOM     88  C   UNL A   1      45.055  27.259  37.101  1.00  0.00     0.091 A 
ATOM     89  F   UNL A   1      42.753  27.210  36.475  1.00  0.00    -0.205 F 
ATOM     90  C   UNL A   1      46.337  27.803  36.925  1.00  0.00     0.022 A 
BRANCH  88  91
ATOM     91  S   UNL A   1      44.866  25.986  38.355  1.00  0.00     0.127 S 
ATOM     92  O   UNL A   1      43.875  26.588  39.244  1.00  0.00    -0.237 OA
ATOM     93  O   UNL A   1      44.377  24.849  37.575  1.00  0.00    -0.237 OA
ATOM     94  O   UNL A   1      46.191  25.795  38.932  1.00  0.00    -0.744 OA
ENDBRANCH  88  91
ENDBRANCH  61  84
ENDBRANCH  35  36
ENDBRANCH  27  30
ENDBRANCH  25  26
ENDBRANCH  24  25
ENDBRANCH   1  24
TORSDOF 18
ENDMDL
MODEL 3
REMARK VINA RESULT:     -11.3      5.300      9.116
REMARK SMILES CCOc1ccc(-c2ccc(=O)n(CC(=O)NCCCCNC(=O)c3ccc(-c4c5nc(c(-c6cccc(S(=O)(=O)[O-])c6F)c6ccc([nH]6)c(-c6cccc(S(=O)(=O)[O-])c6F)c6nc(c(-c7cccc(S(=O)(=O)[O-])c7F)c7ccc4[nH]7)C=C6)C=C5)cc3)n2)cc1
REMARK SMILES IDX 19 1 18 2 17 3 15 4 16 5 14 7 13 8 8 9 9 10 88 11 10 12
REMARK SMILES IDX 11 13 12 14 7 15 4 16 5 17 90 18 6 19 89 20 3 21 2 22 1 23
REMARK SMILES IDX 20 24 21 25 22 26 23 27 24 29 25 30 26 31 87 32 27 33 86 34
REMARK SMILES IDX 28 35 29 36 30 37 80 38 31 39 85 40 79 41 81 42 32 43 84 44
REMARK SMILES IDX 78 45 77 46 33 48 65 49 45 50 64 51 46 52 49 53 63 54 82 55
REMARK SMILES IDX 47 56 48 57 62 59 83 60 50 61 34 62 35 63 43 64 36 65 38 66
REMARK SMILES IDX 44 67 37 68 39 69 40 70 41 71 42 72 66 73 67 74 75 75 68 76
REMARK SMILES IDX 70 77 76 78 69 79 71 80 72 81 73 82 74 83 51 84 52 85 60 86
REMARK SMILES IDX 53 87 55 88 61 89 54 90 56 91 57 92 58 93 59 94
REMARK H PARENT 17 6 22 28 81 47 49 58
REMARK Flexibility Score: inf
ROOT
ATOM      1  C   UNL A   1      33.143  27.707  26.307  1.00  0.00     0.023 C 
ENDROOT
BRANCH   1   2
ATOM      2  C   UNL A   1      31.688  27.820  25.855  1.00  0.00     0.116 C 
BRANCH   2   3
ATOM      3  N   UNL A   1      30.837  26.812  26.454  1.00  0.00    -0.354 N 
ATOM      4  C   UNL A   1      30.091  25.842  25.842  1.00  0.00     0.241 C 
ATOM      5  O   UNL A   1      29.676  24.919  26.550  1.00  0.00    -0.273 OA
ATOM      6  H   UNL A   1      30.788  26.827  27.436  1.00  0.00     0.163 HD
BRANCH   4   7
ATOM      7  C   UNL A   1      29.939  25.789  24.318  1.00  0.00     0.248 C 
BRANCH   7   8
ATOM      8  N   UNL A   1      31.088  25.206  23.636  1.00  0.00    -0.220 N 
ATOM      9  C   UNL A   1      32.538  23.445  23.476  1.00  0.00     0.091 A 
ATOM     10  C   UNL A   1      33.339  24.116  22.435  1.00  0.00     0.036 A 
ATOM     11  N   UNL A   1      31.480  23.944  24.033  1.00  0.00    -0.169 NA
ATOM     12  C   UNL A   1      32.876  25.286  21.994  1.00  0.00     0.075 A 
ATOM     13  C   UNL A   1      31.652  25.887  22.567  1.00  0.00     0.267 A 
ATOM     14  O   UNL A   1      31.228  26.938  22.097  1.00  0.00    -0.268 OA
BRANCH   9  15
ATOM     15  C   UNL A   1      32.976  22.090  23.873  1.00  0.00     0.002 A 
ATOM     16  C   UNL A   1      33.695  19.509  24.615  1.00  0.00     0.119 A 
ATOM     17  C   UNL A   1      34.492  20.587  25.002  1.00  0.00     0.047 A 
ATOM     18  C   UNL A   1      32.515  19.720  23.905  1.00  0.00     0.047 A 
ATOM     19  C   UNL A   1      34.138  21.886  24.625  1.00  0.00     0.014 A 
ATOM     20  C   UNL A   1      32.156  21.011  23.526  1.00  0.00     0.014 A 
BRANCH  16  21
ATOM     21  O   UNL A   1      34.024  18.256  25.049  1.00  0.00    -0.494 OA
BRANCH  21  22
ATOM     22  C   UNL A   1      34.792  17.524  24.085  1.00  0.00     0.226 C 
ATOM     23  C   UNL A   1      33.919  16.561  23.292  1.00  0.00     0.049 C 
ENDBRANCH  21  22
ENDBRANCH  16  21
ENDBRANCH   9  15
ENDBRANCH   7   8
ENDBRANCH   4   7
ENDBRANCH   2   3
ENDBRANCH   1   2
BRANCH   1  24
ATOM     24  C   UNL A   1      33.585  28.747  27.339  1.00  0.00     0.023 C 
BRANCH  24  25
ATOM     25  C   UNL A   1      34.104  30.062  26.768  1.00  0.00     0.116 C 
BRANCH  25  26
ATOM     26  N   UNL A   1      33.928  31.191  27.669  1.00  0.00    -0.352 N 
ATOM     27  C   UNL A   1      34.717  31.581  28.725  1.00  0.00     0.251 C 
ATOM     28  H   UNL A   1      33.136  31.753  27.498  1.00  0.00     0.163 HD
ATOM     29  O   UNL A   1      34.351  32.497  29.459  1.00  0.00    -0.269 OA
BRANCH  27  30
ATOM     30  C   UNL A   1      35.986  30.872  28.997  1.00  0.00     0.039 A 
ATOM     31  C   UNL A   1      37.159  31.329  28.391  1.00  0.00     0.014 A 
ATOM     32  C   UNL A   1      36.025  29.776  29.863  1.00  0.00     0.014 A 
ATOM     33  C   UNL A   1      38.383  30.733  28.713  1.00  0.00     0.010 A 
ATOM     34  C   UNL A   1      37.250  29.229  30.234  1.00  0.00     0.010 A 
ATOM     35  C   UNL A   1      38.443  29.703  29.665  1.00  0.00    -0.014 A 
BRANCH  35  36
ATOM     36  C   UNL A   1      39.741  29.127  30.104  1.00  0.00     0.031 A 
ATOM     37  C   UNL A   1      40.518  29.766  31.223  1.00  0.00     0.074 A 
ATOM     38  C   UNL A   1      40.274  28.094  29.419  1.00  0.00     0.049 A 
ATOM     39  N   UNL A   1      41.700  29.454  31.688  1.00  0.00    -0.248 NA
ATOM     40  C   UNL A   1      39.903  30.927  31.887  1.00  0.00     0.031 C 
ATOM     41  C   UNL A   1      39.665  27.445  28.256  1.00  0.00     0.029 A 
ATOM     42  N   UNL A   1      41.469  27.435  29.576  1.00  0.00    -0.354 N 
ATOM     43  C   UNL A   1      41.990  30.404  32.659  1.00  0.00     0.074 A 
ATOM     44  C   UNL A   1      40.869  31.315  32.708  1.00  0.00     0.031 C 
ATOM     45  C   UNL A   1      40.493  26.491  27.799  1.00  0.00     0.029 A 
ATOM     46  C   UNL A   1      41.701  26.476  28.617  1.00  0.00     0.049 A 
ATOM     47  H   UNL A   1      42.100  27.631  30.306  1.00  0.00     0.167 HD
ATOM     48  C   UNL A   1      43.081  30.494  33.459  1.00  0.00     0.034 A 
ATOM     49  C   UNL A   1      42.770  25.681  28.411  1.00  0.00     0.034 A 
ATOM     50  C   UNL A   1      44.164  29.550  33.453  1.00  0.00     0.049 A 
ATOM     51  C   UNL A   1      43.936  25.759  29.359  1.00  0.00     0.074 A 
ATOM     52  C   UNL A   1      45.250  29.483  34.310  1.00  0.00     0.029 A 
ATOM     53  N   UNL A   1      44.310  28.516  32.543  1.00  0.00    -0.354 N 
ATOM     54  N   UNL A   1      44.101  26.539  30.400  1.00  0.00    -0.248 NA
ATOM     55  C   UNL A   1      45.047  24.823  29.130  1.00  0.00     0.031 C 
ATOM     56  C   UNL A   1      46.063  28.422  33.904  1.00  0.00     0.029 A 
ATOM     57  C   UNL A   1      45.473  27.813  32.808  1.00  0.00     0.049 A 
ATOM     58  H   UNL A   1      43.679  28.311  31.815  1.00  0.00     0.167 HD
ATOM     59  C   UNL A   1      45.313  26.163  30.970  1.00  0.00     0.074 A 
ATOM     60  C   UNL A   1      45.830  25.072  30.171  1.00  0.00     0.031 C 
ATOM     61  C   UNL A   1      45.947  26.688  32.046  1.00  0.00     0.034 A 
BRANCH  48  62
ATOM     62  C   UNL A   1      43.137  31.623  34.452  1.00  0.00     0.023 A 
ATOM     63  C   UNL A   1      43.770  32.831  34.097  1.00  0.00     0.012 A 
ATOM     64  C   UNL A   1      42.492  31.520  35.701  1.00  0.00     0.148 A 
ATOM     65  C   UNL A   1      43.783  33.912  34.979  1.00  0.00     0.002 A 
ATOM     66  C   UNL A   1      42.472  32.616  36.556  1.00  0.00     0.091 A 
ATOM     67  F   UNL A   1      41.913  30.356  36.027  1.00  0.00    -0.205 F 
ATOM     68  C   UNL A   1      43.125  33.808  36.201  1.00  0.00     0.022 A 
BRANCH  66  69
ATOM     69  S   UNL A   1      41.584  32.611  38.118  1.00  0.00     0.127 S 
ATOM     70  O   UNL A   1      41.760  33.992  38.562  1.00  0.00    -0.237 OA
ATOM     71  O   UNL A   1      40.224  32.276  37.696  1.00  0.00    -0.237 OA
ATOM     72  O   UNL A   1      42.230  31.601  38.945  1.00  0.00    -0.744 OA
ENDBRANCH  66  69
ENDBRANCH  48  62
BRANCH  49  73
ATOM     73  C   UNL A   1      42.764  24.697  27.291  1.00  0.00     0.023 A 
ATOM     74  C   UNL A   1      43.366  25.041  26.065  1.00  0.00     0.012 A 
ATOM     75  C   UNL A   1      42.187  23.421  27.437  1.00  0.00     0.148 A 
ATOM     76  C   UNL A   1      43.359  24.148  24.993  1.00  0.00     0.002 A 
ATOM     77  C   UNL A   1      42.233  22.515  26.383  1.00  0.00     0.091 A 
ATOM     78  F   UNL A   1      41.605  23.116  28.605  1.00  0.00    -0.205 F 
ATOM     79  C   UNL A   1      42.802  22.883  25.154  1.00  0.00     0.022 A 
BRANCH  77  80
ATOM     80  S   UNL A   1      41.662  20.820  26.554  1.00  0.00     0.127 S 
ATOM     81  O   UNL A   1      40.217  20.974  26.411  1.00  0.00    -0.237 OA
ATOM     82  O   UNL A   1      42.326  20.159  25.429  1.00  0.00    -0.237 OA
ATOM     83  O   UNL A   1      42.133  20.384  27.862  1.00  0.00    -0.744 OA
ENDBRANCH  77  80
ENDBRANCH  49  73
BRANCH  61  84
ATOM     84  C   UNL A   1      47.259  26.072  32.458  1.00  0.00     0.023 A 
ATOM     85  C   UNL A   1      48.462  26.560  31.914  1.00  0.00     0.012 A 
ATOM     86  C   UNL A   1      47.302  25.070  33.447  1.00  0.00     0.148 A 
ATOM     87  C   UNL A   1      49.689  26.040  32.328  1.00  0.00     0.002 A 
ATOM     88  C   UNL A   1      48.529  24.590  33.889  1.00  0.00     0.091 A 
ATOM     89  F   UNL A   1      46.144  24.604  33.939  1.00  0.00    -0.205 F 
ATOM     90  C   UNL A   1      49.722  25.066  33.323  1.00  0.00     0.022 A 
BRANCH  88  91
ATOM     91  S   UNL A   1      48.671  23.408  35.234  1.00  0.00     0.127 S 
ATOM     92  O   UNL A   1      48.070  22.213  34.645  1.00  0.00    -0.237 OA
ATOM     93  O   UNL A   1      50.120  23.330  35.429  1.00  0.00    -0.237 OA
ATOM     94  O   UNL A   1      47.943  23.987  36.355  1.00  0.00    -0.744 OA
ENDBRANCH  88  91
ENDBRANCH  61  84
ENDBRANCH  35  36
ENDBRANCH  27  30
ENDBRANCH  25  26
ENDBRANCH  24  25
ENDBRANCH   1  24
TORSDOF 18
ENDMDL
