MODEL 1
REMARK VINA RESULT:     -12.1      0.000      0.000
REMARK SMILES [NH3+][C@@](Cc1ccc(F)cc1)(C(=O)NCCCCNC(=O)c1ccc(-c2c3nc(c(-c4cccc(S(=O)(=O)[O-])c4F)c4ccc([nH]4)c(-c4cccc(S(=O)(=O)[O-])c4F)c4nc(c(-c5cccc(S(=O)(=O)[O-])c5F)c5ccc2[nH]5)C=C4)C=C3)cc1)c1ccccc1
REMARK SMILES IDX 16 1 15 2 14 3 13 4 11 5 12 6 2 8 1 9 3 13 4 14 5 15 10 16
REMARK SMILES IDX 6 17 9 18 7 19 8 20 84 21 85 22 89 23 86 24 88 25 87 26
REMARK SMILES IDX 17 27 18 28 19 29 20 31 21 32 22 33 83 34 23 35 82 36 24 37
REMARK SMILES IDX 25 38 26 39 76 40 27 41 81 42 75 43 77 44 28 45 80 46 74 47
REMARK SMILES IDX 73 48 29 50 61 51 41 52 60 53 42 54 45 55 59 56 78 57 43 58
REMARK SMILES IDX 44 59 58 61 79 62 46 63 30 64 31 65 39 66 32 67 34 68 40 69
REMARK SMILES IDX 33 70 35 71 36 72 37 73 38 74 62 75 63 76 71 77 64 78 66 79
REMARK SMILES IDX 72 80 65 81 67 82 68 83 69 84 70 85 47 86 48 87 56 88 49 89
REMARK SMILES IDX 51 90 57 91 50 92 52 93 53 94 54 95 55 96
REMARK H PARENT 13 7 1 10 1 11 1 12 18 30 77 49 45 60
REMARK Flexibility Score: inf
ROOT
ATOM      1  C   UNL A   1      35.482  21.232  25.145  1.00  0.00     0.023 C 
ENDROOT
BRANCH   1   2
ATOM      2  C   UNL A   1      34.677  21.386  26.429  1.00  0.00     0.023 C 
BRANCH   2   3
ATOM      3  C   UNL A   1      34.406  22.816  26.863  1.00  0.00     0.116 C 
BRANCH   3   4
ATOM      4  N   UNL A   1      33.146  23.039  27.527  1.00  0.00    -0.350 N 
ATOM      5  C   UNL A   1      31.998  23.618  27.047  1.00  0.00     0.286 C 
ATOM      6  O   UNL A   1      30.952  23.223  27.581  1.00  0.00    -0.267 OA
ATOM      7  H   UNL A   1      33.103  22.730  28.461  1.00  0.00     0.163 HD
BRANCH   5   8
ATOM      8  C   UNL A   1      31.975  24.717  25.887  1.00  0.00     0.203 C 
BRANCH   8   9
ATOM      9  N   UNL A   1      30.587  25.205  25.650  1.00  0.00    -0.341 N 
ATOM     10  H   UNL A   1      30.027  24.455  25.246  1.00  0.00     0.345 HD
ATOM     11  H   UNL A   1      30.610  25.996  25.006  1.00  0.00     0.345 HD
ATOM     12  H   UNL A   1      30.175  25.499  26.535  1.00  0.00     0.345 HD
ENDBRANCH   8   9
BRANCH   8  13
ATOM     13  C   UNL A   1      32.985  25.889  26.188  1.00  0.00     0.120 C 
BRANCH  13  14
ATOM     14  C   UNL A   1      32.611  27.357  26.096  1.00  0.00    -0.041 A 
ATOM     15  C   UNL A   1      32.185  28.037  27.252  1.00  0.00     0.007 A 
ATOM     16  C   UNL A   1      32.718  28.080  24.895  1.00  0.00     0.007 A 
ATOM     17  C   UNL A   1      31.811  29.381  27.194  1.00  0.00     0.039 A 
ATOM     18  C   UNL A   1      32.298  29.412  24.828  1.00  0.00     0.039 A 
ATOM     19  C   UNL A   1      31.849  30.049  25.978  1.00  0.00     0.123 A 
ATOM     20  F   UNL A   1      31.456  31.327  25.914  1.00  0.00    -0.207 F 
ENDBRANCH  13  14
ENDBRANCH   8  13
BRANCH   8  21
ATOM     21  C   UNL A   1      32.375  23.994  24.548  1.00  0.00     0.022 A 
ATOM     22  C   UNL A   1      33.388  24.449  23.683  1.00  0.00     0.011 A 
ATOM     23  C   UNL A   1      31.704  22.806  24.182  1.00  0.00     0.011 A 
ATOM     24  C   UNL A   1      33.704  23.761  22.506  1.00  0.00     0.001 A 
ATOM     25  C   UNL A   1      32.022  22.119  23.008  1.00  0.00     0.001 A 
ATOM     26  C   UNL A   1      33.020  22.598  22.167  1.00  0.00     0.000 A 
ENDBRANCH   8  21
ENDBRANCH   5   8
ENDBRANCH   3   4
ENDBRANCH   2   3
ENDBRANCH   1   2
BRANCH   1  27
ATOM     27  C   UNL A   1      36.902  21.786  25.173  1.00  0.00     0.116 C 
BRANCH  27  28
ATOM     28  N   UNL A   1      37.949  20.779  25.336  1.00  0.00    -0.352 N 
ATOM     29  C   UNL A   1      39.170  20.918  25.961  1.00  0.00     0.251 C 
ATOM     30  H   UNL A   1      37.758  19.893  24.952  1.00  0.00     0.163 HD
ATOM     31  O   UNL A   1      39.981  19.997  25.965  1.00  0.00    -0.269 OA
BRANCH  29  32
ATOM     32  C   UNL A   1      39.509  22.215  26.582  1.00  0.00     0.039 A 
ATOM     33  C   UNL A   1      40.537  22.268  27.525  1.00  0.00     0.014 A 
ATOM     34  C   UNL A   1      38.892  23.388  26.138  1.00  0.00     0.014 A 
ATOM     35  C   UNL A   1      41.023  23.510  27.942  1.00  0.00     0.010 A 
ATOM     36  C   UNL A   1      39.436  24.618  26.486  1.00  0.00     0.010 A 
ATOM     37  C   UNL A   1      40.516  24.694  27.378  1.00  0.00    -0.014 A 
BRANCH  37  38
ATOM     38  C   UNL A   1      41.129  26.016  27.667  1.00  0.00     0.031 A 
ATOM     39  C   UNL A   1      42.539  26.309  27.236  1.00  0.00     0.074 A 
ATOM     40  C   UNL A   1      40.456  26.914  28.417  1.00  0.00     0.049 A 
ATOM     41  N   UNL A   1      43.268  27.369  27.469  1.00  0.00    -0.248 NA
ATOM     42  C   UNL A   1      43.236  25.260  26.471  1.00  0.00     0.031 C 
ATOM     43  C   UNL A   1      39.118  26.713  28.978  1.00  0.00     0.029 A 
ATOM     44  N   UNL A   1      40.813  28.165  28.856  1.00  0.00    -0.354 N 
ATOM     45  C   UNL A   1      44.514  27.101  26.917  1.00  0.00     0.074 A 
ATOM     46  C   UNL A   1      44.457  25.763  26.371  1.00  0.00     0.031 C 
ATOM     47  C   UNL A   1      38.761  27.806  29.672  1.00  0.00     0.029 A 
ATOM     48  C   UNL A   1      39.853  28.775  29.632  1.00  0.00     0.049 A 
ATOM     49  H   UNL A   1      41.675  28.587  28.637  1.00  0.00     0.167 HD
ATOM     50  C   UNL A   1      45.596  27.909  26.837  1.00  0.00     0.034 A 
ATOM     51  C   UNL A   1      39.848  29.978  30.241  1.00  0.00     0.034 A 
ATOM     52  C   UNL A   1      45.628  29.261  27.322  1.00  0.00     0.049 A 
ATOM     53  C   UNL A   1      41.038  30.885  30.080  1.00  0.00     0.074 A 
ATOM     54  C   UNL A   1      46.645  30.192  27.199  1.00  0.00     0.029 A 
ATOM     55  N   UNL A   1      44.599  29.880  28.015  1.00  0.00    -0.354 N 
ATOM     56  N   UNL A   1      42.150  30.671  29.420  1.00  0.00    -0.248 NA
ATOM     57  C   UNL A   1      40.963  32.208  30.716  1.00  0.00     0.031 C 
ATOM     58  C   UNL A   1      46.234  31.371  27.828  1.00  0.00     0.029 A 
ATOM     59  C   UNL A   1      44.956  31.180  28.328  1.00  0.00     0.049 A 
ATOM     60  H   UNL A   1      43.742  29.456  28.249  1.00  0.00     0.167 HD
ATOM     61  C   UNL A   1      42.893  31.840  29.535  1.00  0.00     0.074 A 
ATOM     62  C   UNL A   1      42.097  32.767  30.313  1.00  0.00     0.031 C 
ATOM     63  C   UNL A   1      44.131  32.112  29.054  1.00  0.00     0.034 A 
BRANCH  50  64
ATOM     64  C   UNL A   1      46.814  27.383  26.125  1.00  0.00     0.023 A 
ATOM     65  C   UNL A   1      46.964  27.632  24.745  1.00  0.00     0.012 A 
ATOM     66  C   UNL A   1      47.838  26.716  26.823  1.00  0.00     0.148 A 
ATOM     67  C   UNL A   1      48.101  27.200  24.065  1.00  0.00     0.002 A 
ATOM     68  C   UNL A   1      48.989  26.327  26.147  1.00  0.00     0.091 A 
ATOM     69  F   UNL A   1      47.667  26.469  28.130  1.00  0.00    -0.205 F 
ATOM     70  C   UNL A   1      49.117  26.559  24.768  1.00  0.00     0.022 A 
BRANCH  68  71
ATOM     71  S   UNL A   1      50.390  25.567  26.975  1.00  0.00     0.127 S 
ATOM     72  O   UNL A   1      51.313  25.357  25.861  1.00  0.00    -0.237 OA
ATOM     73  O   UNL A   1      50.797  26.612  27.915  1.00  0.00    -0.237 OA
ATOM     74  O   UNL A   1      49.878  24.355  27.599  1.00  0.00    -0.744 OA
ENDBRANCH  68  71
ENDBRANCH  50  64
BRANCH  51  75
ATOM     75  C   UNL A   1      38.630  30.423  30.977  1.00  0.00     0.023 A 
ATOM     76  C   UNL A   1      38.562  30.225  32.370  1.00  0.00     0.012 A 
ATOM     77  C   UNL A   1      37.580  31.102  30.328  1.00  0.00     0.148 A 
ATOM     78  C   UNL A   1      37.465  30.680  33.102  1.00  0.00     0.002 A 
ATOM     79  C   UNL A   1      36.515  31.600  31.070  1.00  0.00     0.091 A 
ATOM     80  F   UNL A   1      37.659  31.270  29.000  1.00  0.00    -0.205 F 
ATOM     81  C   UNL A   1      36.448  31.378  32.455  1.00  0.00     0.022 A 
BRANCH  79  82
ATOM     82  S   UNL A   1      35.232  32.632  30.349  1.00  0.00     0.127 S 
ATOM     83  O   UNL A   1      35.994  33.807  29.931  1.00  0.00    -0.237 OA
ATOM     84  O   UNL A   1      34.749  31.790  29.254  1.00  0.00    -0.237 OA
ATOM     85  O   UNL A   1      34.260  32.851  31.411  1.00  0.00    -0.744 OA
ENDBRANCH  79  82
ENDBRANCH  51  75
BRANCH  63  86
ATOM     86  C   UNL A   1      44.718  33.471  29.329  1.00  0.00     0.023 A 
ATOM     87  C   UNL A   1      45.448  33.683  30.514  1.00  0.00     0.012 A 
ATOM     88  C   UNL A   1      44.659  34.491  28.358  1.00  0.00     0.148 A 
ATOM     89  C   UNL A   1      46.101  34.896  30.735  1.00  0.00     0.002 A 
ATOM     90  C   UNL A   1      45.349  35.679  28.565  1.00  0.00     0.091 A 
ATOM     91  F   UNL A   1      43.944  34.273  27.244  1.00  0.00    -0.205 F 
ATOM     92  C   UNL A   1      46.064  35.885  29.756  1.00  0.00     0.022 A 
BRANCH  90  93
ATOM     93  S   UNL A   1      45.444  36.968  27.316  1.00  0.00     0.127 S 
ATOM     94  O   UNL A   1      44.034  37.315  27.140  1.00  0.00    -0.237 OA
ATOM     95  O   UNL A   1      46.245  37.993  27.988  1.00  0.00    -0.237 OA
ATOM     96  O   UNL A   1      46.087  36.360  26.160  1.00  0.00    -0.744 OA
ENDBRANCH  90  93
ENDBRANCH  63  86
ENDBRANCH  37  38
ENDBRANCH  29  32
ENDBRANCH  27  28
ENDBRANCH   1  27
TORSDOF 18
ENDMDL
MODEL 2
REMARK VINA RESULT:     -12.1      5.267     10.193
REMARK SMILES [NH3+][C@@](Cc1ccc(F)cc1)(C(=O)NCCCCNC(=O)c1ccc(-c2c3nc(c(-c4cccc(S(=O)(=O)[O-])c4F)c4ccc([nH]4)c(-c4cccc(S(=O)(=O)[O-])c4F)c4nc(c(-c5cccc(S(=O)(=O)[O-])c5F)c5ccc2[nH]5)C=C4)C=C3)cc1)c1ccccc1
REMARK SMILES IDX 16 1 15 2 14 3 13 4 11 5 12 6 2 8 1 9 3 13 4 14 5 15 10 16
REMARK SMILES IDX 6 17 9 18 7 19 8 20 84 21 85 22 89 23 86 24 88 25 87 26
REMARK SMILES IDX 17 27 18 28 19 29 20 31 21 32 22 33 83 34 23 35 82 36 24 37
REMARK SMILES IDX 25 38 26 39 76 40 27 41 81 42 75 43 77 44 28 45 80 46 74 47
REMARK SMILES IDX 73 48 29 50 61 51 41 52 60 53 42 54 45 55 59 56 78 57 43 58
REMARK SMILES IDX 44 59 58 61 79 62 46 63 30 64 31 65 39 66 32 67 34 68 40 69
REMARK SMILES IDX 33 70 35 71 36 72 37 73 38 74 62 75 63 76 71 77 64 78 66 79
REMARK SMILES IDX 72 80 65 81 67 82 68 83 69 84 70 85 47 86 48 87 56 88 49 89
REMARK SMILES IDX 51 90 57 91 50 92 52 93 53 94 54 95 55 96
REMARK H PARENT 13 7 1 10 1 11 1 12 18 30 77 49 45 60
REMARK Flexibility Score: inf
ROOT
ATOM      1  C   UNL A   1      31.537  29.803  25.418  1.00  0.00     0.023 C 
ENDROOT
BRANCH   1   2
ATOM      2  C   UNL A   1      31.994  29.088  24.153  1.00  0.00     0.023 C 
BRANCH   2   3
ATOM      3  C   UNL A   1      33.351  28.412  24.239  1.00  0.00     0.116 C 
BRANCH   3   4
ATOM      4  N   UNL A   1      33.846  27.846  23.008  1.00  0.00    -0.350 N 
ATOM      5  C   UNL A   1      33.633  26.600  22.475  1.00  0.00     0.286 C 
ATOM      6  O   UNL A   1      33.698  26.544  21.239  1.00  0.00    -0.267 OA
ATOM      7  H   UNL A   1      34.420  28.441  22.474  1.00  0.00     0.163 HD
BRANCH   5   8
ATOM      8  C   UNL A   1      33.319  25.299  23.350  1.00  0.00     0.203 C 
BRANCH   8   9
ATOM      9  N   UNL A   1      33.126  24.109  22.476  1.00  0.00    -0.341 N 
ATOM     10  H   UNL A   1      33.995  23.576  22.433  1.00  0.00     0.345 HD
ATOM     11  H   UNL A   1      32.868  24.414  21.538  1.00  0.00     0.345 HD
ATOM     12  H   UNL A   1      32.386  23.522  22.859  1.00  0.00     0.345 HD
ENDBRANCH   8   9
BRANCH   8  13
ATOM     13  C   UNL A   1      34.424  25.069  24.450  1.00  0.00     0.120 C 
BRANCH  13  14
ATOM     14  C   UNL A   1      35.166  23.757  24.626  1.00  0.00    -0.041 A 
ATOM     15  C   UNL A   1      34.834  22.914  25.703  1.00  0.00     0.007 A 
ATOM     16  C   UNL A   1      36.150  23.328  23.718  1.00  0.00     0.007 A 
ATOM     17  C   UNL A   1      35.515  21.712  25.905  1.00  0.00     0.039 A 
ATOM     18  C   UNL A   1      36.863  22.148  23.949  1.00  0.00     0.039 A 
ATOM     19  C   UNL A   1      36.538  21.352  25.040  1.00  0.00     0.123 A 
ATOM     20  F   UNL A   1      37.216  20.217  25.254  1.00  0.00    -0.207 F 
ENDBRANCH  13  14
ENDBRANCH   8  13
BRANCH   8  21
ATOM     21  C   UNL A   1      31.919  25.521  24.033  1.00  0.00     0.022 A 
ATOM     22  C   UNL A   1      30.737  25.813  23.325  1.00  0.00     0.011 A 
ATOM     23  C   UNL A   1      31.814  25.407  25.437  1.00  0.00     0.011 A 
ATOM     24  C   UNL A   1      29.518  25.996  23.988  1.00  0.00     0.001 A 
ATOM     25  C   UNL A   1      30.596  25.588  26.097  1.00  0.00     0.001 A 
ATOM     26  C   UNL A   1      29.447  25.886  25.372  1.00  0.00     0.000 A 
ENDBRANCH   8  21
ENDBRANCH   5   8
ENDBRANCH   3   4
ENDBRANCH   2   3
ENDBRANCH   1   2
BRANCH   1  27
ATOM     27  C   UNL A   1      32.639  30.232  26.381  1.00  0.00     0.116 C 
BRANCH  27  28
ATOM     28  N   UNL A   1      32.541  31.613  26.847  1.00  0.00    -0.352 N 
ATOM     29  C   UNL A   1      33.481  32.343  27.544  1.00  0.00     0.251 C 
ATOM     30  H   UNL A   1      31.701  32.080  26.637  1.00  0.00     0.163 HD
ATOM     31  O   UNL A   1      33.233  33.482  27.929  1.00  0.00    -0.269 OA
BRANCH  29  32
ATOM     32  C   UNL A   1      34.776  31.709  27.869  1.00  0.00     0.039 A 
ATOM     33  C   UNL A   1      35.914  32.511  27.987  1.00  0.00     0.014 A 
ATOM     34  C   UNL A   1      34.834  30.346  28.173  1.00  0.00     0.014 A 
ATOM     35  C   UNL A   1      37.085  31.966  28.519  1.00  0.00     0.010 A 
ATOM     36  C   UNL A   1      35.971  29.832  28.784  1.00  0.00     0.010 A 
ATOM     37  C   UNL A   1      37.103  30.638  28.979  1.00  0.00    -0.014 A 
BRANCH  37  38
ATOM     38  C   UNL A   1      38.273  30.085  29.708  1.00  0.00     0.031 A 
ATOM     39  C   UNL A   1      38.594  30.559  31.097  1.00  0.00     0.074 A 
ATOM     40  C   UNL A   1      39.113  29.237  29.076  1.00  0.00     0.049 A 
ATOM     41  N   UNL A   1      39.615  30.254  31.856  1.00  0.00    -0.248 NA
ATOM     42  C   UNL A   1      37.666  31.529  31.704  1.00  0.00     0.031 C 
ATOM     43  C   UNL A   1      38.966  28.775  27.694  1.00  0.00     0.029 A 
ATOM     44  N   UNL A   1      40.269  28.633  29.504  1.00  0.00    -0.354 N 
ATOM     45  C   UNL A   1      39.473  31.019  33.006  1.00  0.00     0.074 A 
ATOM     46  C   UNL A   1      38.291  31.832  32.832  1.00  0.00     0.031 C 
ATOM     47  C   UNL A   1      39.982  27.949  27.394  1.00  0.00     0.029 A 
ATOM     48  C   UNL A   1      40.869  27.844  28.549  1.00  0.00     0.049 A 
ATOM     49  H   UNL A   1      40.635  28.752  30.410  1.00  0.00     0.167 HD
ATOM     50  C   UNL A   1      40.237  31.018  34.124  1.00  0.00     0.034 A 
ATOM     51  C   UNL A   1      42.002  27.115  28.595  1.00  0.00     0.034 A 
ATOM     52  C   UNL A   1      41.373  30.160  34.320  1.00  0.00     0.049 A 
ATOM     53  C   UNL A   1      42.797  27.077  29.872  1.00  0.00     0.074 A 
ATOM     54  C   UNL A   1      42.151  30.015  35.455  1.00  0.00     0.029 A 
ATOM     55  N   UNL A   1      41.892  29.300  33.365  1.00  0.00    -0.354 N 
ATOM     56  N   UNL A   1      42.559  27.691  31.006  1.00  0.00    -0.248 NA
ATOM     57  C   UNL A   1      43.995  26.224  29.892  1.00  0.00     0.031 C 
ATOM     58  C   UNL A   1      43.147  29.073  35.183  1.00  0.00     0.029 A 
ATOM     59  C   UNL A   1      42.980  28.620  33.884  1.00  0.00     0.049 A 
ATOM     60  H   UNL A   1      41.537  29.188  32.454  1.00  0.00     0.167 HD
ATOM     61  C   UNL A   1      43.556  27.277  31.881  1.00  0.00     0.074 A 
ATOM     62  C   UNL A   1      44.392  26.345  31.153  1.00  0.00     0.031 C 
ATOM     63  C   UNL A   1      43.770  27.651  33.167  1.00  0.00     0.034 A 
BRANCH  50  64
ATOM     64  C   UNL A   1      39.820  31.913  35.260  1.00  0.00     0.023 A 
ATOM     65  C   UNL A   1      40.241  33.258  35.264  1.00  0.00     0.012 A 
ATOM     66  C   UNL A   1      38.957  31.454  36.273  1.00  0.00     0.148 A 
ATOM     67  C   UNL A   1      39.834  34.126  36.276  1.00  0.00     0.002 A 
ATOM     68  C   UNL A   1      38.520  32.337  37.254  1.00  0.00     0.091 A 
ATOM     69  F   UNL A   1      38.585  30.166  36.264  1.00  0.00    -0.205 F 
ATOM     70  C   UNL A   1      38.965  33.669  37.262  1.00  0.00     0.022 A 
BRANCH  68  71
ATOM     71  S   UNL A   1      37.337  31.869  38.523  1.00  0.00     0.127 S 
ATOM     72  O   UNL A   1      38.111  32.090  39.743  1.00  0.00    -0.237 OA
ATOM     73  O   UNL A   1      36.255  32.830  38.305  1.00  0.00    -0.237 OA
ATOM     74  O   UNL A   1      36.982  30.484  38.249  1.00  0.00    -0.744 OA
ENDBRANCH  68  71
ENDBRANCH  50  64
BRANCH  51  75
ATOM     75  C   UNL A   1      42.391  26.287  27.418  1.00  0.00     0.023 A 
ATOM     76  C   UNL A   1      43.213  26.854  26.424  1.00  0.00     0.012 A 
ATOM     77  C   UNL A   1      42.019  24.932  27.310  1.00  0.00     0.148 A 
ATOM     78  C   UNL A   1      43.646  26.094  25.337  1.00  0.00     0.002 A 
ATOM     79  C   UNL A   1      42.497  24.165  26.253  1.00  0.00     0.091 A 
ATOM     80  F   UNL A   1      41.228  24.415  28.260  1.00  0.00    -0.205 F 
ATOM     81  C   UNL A   1      43.299  24.748  25.258  1.00  0.00     0.022 A 
BRANCH  79  82
ATOM     82  S   UNL A   1      42.222  22.393  26.142  1.00  0.00     0.127 S 
ATOM     83  O   UNL A   1      42.953  22.052  24.924  1.00  0.00    -0.237 OA
ATOM     84  O   UNL A   1      42.834  21.915  27.382  1.00  0.00    -0.237 OA
ATOM     85  O   UNL A   1      40.776  22.223  26.082  1.00  0.00    -0.744 OA
ENDBRANCH  79  82
ENDBRANCH  51  75
BRANCH  63  86
ATOM     86  C   UNL A   1      44.941  27.050  33.897  1.00  0.00     0.023 A 
ATOM     87  C   UNL A   1      46.185  27.708  33.870  1.00  0.00     0.012 A 
ATOM     88  C   UNL A   1      44.774  25.914  34.713  1.00  0.00     0.148 A 
ATOM     89  C   UNL A   1      47.252  27.236  34.634  1.00  0.00     0.002 A 
ATOM     90  C   UNL A   1      45.828  25.476  35.507  1.00  0.00     0.091 A 
ATOM     91  F   UNL A   1      43.585  25.293  34.711  1.00  0.00    -0.205 F 
ATOM     92  C   UNL A   1      47.069  26.132  35.463  1.00  0.00     0.022 A 
BRANCH  90  93
ATOM     93  S   UNL A   1      45.654  24.126  36.681  1.00  0.00     0.127 S 
ATOM     94  O   UNL A   1      45.280  23.017  35.804  1.00  0.00    -0.237 OA
ATOM     95  O   UNL A   1      47.000  24.030  37.246  1.00  0.00    -0.237 OA
ATOM     96  O   UNL A   1      44.630  24.547  37.627  1.00  0.00    -0.744 OA
ENDBRANCH  90  93
ENDBRANCH  63  86
ENDBRANCH  37  38
ENDBRANCH  29  32
ENDBRANCH  27  28
ENDBRANCH   1  27
TORSDOF 18
ENDMDL
MODEL 3
REMARK VINA RESULT:     -12.0      4.940     10.113
REMARK SMILES [NH3+][C@@](Cc1ccc(F)cc1)(C(=O)NCCCCNC(=O)c1ccc(-c2c3nc(c(-c4cccc(S(=O)(=O)[O-])c4F)c4ccc([nH]4)c(-c4cccc(S(=O)(=O)[O-])c4F)c4nc(c(-c5cccc(S(=O)(=O)[O-])c5F)c5ccc2[nH]5)C=C4)C=C3)cc1)c1ccccc1
REMARK SMILES IDX 16 1 15 2 14 3 13 4 11 5 12 6 2 8 1 9 3 13 4 14 5 15 10 16
REMARK SMILES IDX 6 17 9 18 7 19 8 20 84 21 85 22 89 23 86 24 88 25 87 26
REMARK SMILES IDX 17 27 18 28 19 29 20 31 21 32 22 33 83 34 23 35 82 36 24 37
REMARK SMILES IDX 25 38 26 39 76 40 27 41 81 42 75 43 77 44 28 45 80 46 74 47
REMARK SMILES IDX 73 48 29 50 61 51 41 52 60 53 42 54 45 55 59 56 78 57 43 58
REMARK SMILES IDX 44 59 58 61 79 62 46 63 30 64 31 65 39 66 32 67 34 68 40 69
REMARK SMILES IDX 33 70 35 71 36 72 37 73 38 74 62 75 63 76 71 77 64 78 66 79
REMARK SMILES IDX 72 80 65 81 67 82 68 83 69 84 70 85 47 86 48 87 56 88 49 89
REMARK SMILES IDX 51 90 57 91 50 92 52 93 53 94 54 95 55 96
REMARK H PARENT 13 7 1 10 1 11 1 12 18 30 77 49 45 60
REMARK Flexibility Score: inf
ROOT
ATOM      1  C   UNL A   1      31.528  29.095  26.026  1.00  0.00     0.023 C 
ENDROOT
BRANCH   1   2
ATOM      2  C   UNL A   1      31.752  27.826  26.839  1.00  0.00     0.023 C 
BRANCH   2   3
ATOM      3  C   UNL A   1      31.608  26.524  26.070  1.00  0.00     0.116 C 
BRANCH   3   4
ATOM      4  N   UNL A   1      32.679  26.216  25.155  1.00  0.00    -0.350 N 
ATOM      5  C   UNL A   1      32.671  26.182  23.783  1.00  0.00     0.286 C 
ATOM      6  O   UNL A   1      33.763  26.422  23.250  1.00  0.00    -0.267 OA
ATOM      7  H   UNL A   1      33.542  25.997  25.577  1.00  0.00     0.163 HD
BRANCH   5   8
ATOM      8  C   UNL A   1      31.370  25.868  22.909  1.00  0.00     0.203 C 
BRANCH   8   9
ATOM      9  N   UNL A   1      31.735  25.639  21.484  1.00  0.00    -0.341 N 
ATOM     10  H   UNL A   1      30.977  25.144  21.014  1.00  0.00     0.345 HD
ATOM     11  H   UNL A   1      32.587  25.081  21.436  1.00  0.00     0.345 HD
ATOM     12  H   UNL A   1      31.890  26.536  21.024  1.00  0.00     0.345 HD
ENDBRANCH   8   9
BRANCH   8  13
ATOM     13  C   UNL A   1      30.545  24.673  23.521  1.00  0.00     0.120 C 
BRANCH  13  14
ATOM     14  C   UNL A   1      31.170  23.353  23.935  1.00  0.00    -0.041 A 
ATOM     15  C   UNL A   1      31.046  22.916  25.267  1.00  0.00     0.007 A 
ATOM     16  C   UNL A   1      31.837  22.522  23.017  1.00  0.00     0.007 A 
ATOM     17  C   UNL A   1      31.631  21.718  25.683  1.00  0.00     0.039 A 
ATOM     18  C   UNL A   1      32.462  21.348  23.446  1.00  0.00     0.039 A 
ATOM     19  C   UNL A   1      32.353  20.957  24.774  1.00  0.00     0.123 A 
ATOM     20  F   UNL A   1      32.945  19.828  25.181  1.00  0.00    -0.207 F 
ENDBRANCH  13  14
ENDBRANCH   8  13
BRANCH   8  21
ATOM     21  C   UNL A   1      30.491  27.173  22.890  1.00  0.00     0.022 A 
ATOM     22  C   UNL A   1      30.939  28.414  22.399  1.00  0.00     0.011 A 
ATOM     23  C   UNL A   1      29.165  27.115  23.373  1.00  0.00     0.011 A 
ATOM     24  C   UNL A   1      30.109  29.541  22.404  1.00  0.00     0.001 A 
ATOM     25  C   UNL A   1      28.337  28.240  23.374  1.00  0.00     0.001 A 
ATOM     26  C   UNL A   1      28.810  29.455  22.892  1.00  0.00     0.000 A 
ENDBRANCH   8  21
ENDBRANCH   5   8
ENDBRANCH   3   4
ENDBRANCH   2   3
ENDBRANCH   1   2
BRANCH   1  27
ATOM     27  C   UNL A   1      32.713  30.051  25.936  1.00  0.00     0.116 C 
BRANCH  27  28
ATOM     28  N   UNL A   1      32.481  31.370  26.520  1.00  0.00    -0.352 N 
ATOM     29  C   UNL A   1      33.307  32.083  27.363  1.00  0.00     0.251 C 
ATOM     30  H   UNL A   1      31.629  31.803  26.282  1.00  0.00     0.163 HD
ATOM     31  O   UNL A   1      32.949  33.160  27.830  1.00  0.00    -0.269 OA
BRANCH  29  32
ATOM     32  C   UNL A   1      34.612  31.501  27.739  1.00  0.00     0.039 A 
ATOM     33  C   UNL A   1      35.707  32.350  27.920  1.00  0.00     0.014 A 
ATOM     34  C   UNL A   1      34.716  30.138  28.029  1.00  0.00     0.014 A 
ATOM     35  C   UNL A   1      36.875  31.849  28.499  1.00  0.00     0.010 A 
ATOM     36  C   UNL A   1      35.846  29.664  28.685  1.00  0.00     0.010 A 
ATOM     37  C   UNL A   1      36.931  30.516  28.942  1.00  0.00    -0.014 A 
BRANCH  37  38
ATOM     38  C   UNL A   1      38.089  30.003  29.718  1.00  0.00     0.031 A 
ATOM     39  C   UNL A   1      38.335  30.484  31.121  1.00  0.00     0.074 A 
ATOM     40  C   UNL A   1      38.985  29.190  29.120  1.00  0.00     0.049 A 
ATOM     41  N   UNL A   1      39.334  30.214  31.920  1.00  0.00    -0.248 NA
ATOM     42  C   UNL A   1      37.348  31.417  31.690  1.00  0.00     0.031 C 
ATOM     43  C   UNL A   1      38.912  28.727  27.731  1.00  0.00     0.029 A 
ATOM     44  N   UNL A   1      40.144  28.627  29.594  1.00  0.00    -0.354 N 
ATOM     45  C   UNL A   1      39.118  30.969  33.065  1.00  0.00     0.074 A 
ATOM     46  C   UNL A   1      37.914  31.739  32.844  1.00  0.00     0.031 C 
ATOM     47  C   UNL A   1      39.969  27.940  27.473  1.00  0.00     0.029 A 
ATOM     48  C   UNL A   1      40.811  27.864  28.663  1.00  0.00     0.049 A 
ATOM     49  H   UNL A   1      40.468  28.756  30.515  1.00  0.00     0.167 HD
ATOM     50  C   UNL A   1      39.834  30.992  34.213  1.00  0.00     0.034 A 
ATOM     51  C   UNL A   1      41.968  27.176  28.754  1.00  0.00     0.034 A 
ATOM     52  C   UNL A   1      40.992  30.176  34.454  1.00  0.00     0.049 A 
ATOM     53  C   UNL A   1      42.710  27.163  30.063  1.00  0.00     0.074 A 
ATOM     54  C   UNL A   1      41.727  30.055  35.621  1.00  0.00     0.029 A 
ATOM     55  N   UNL A   1      41.581  29.339  33.520  1.00  0.00    -0.354 N 
ATOM     56  N   UNL A   1      42.403  27.764  31.187  1.00  0.00    -0.248 NA
ATOM     57  C   UNL A   1      43.937  26.355  30.130  1.00  0.00     0.031 C 
ATOM     58  C   UNL A   1      42.768  29.152  35.387  1.00  0.00     0.029 A 
ATOM     59  C   UNL A   1      42.671  28.697  34.082  1.00  0.00     0.049 A 
ATOM     60  H   UNL A   1      41.269  29.218  32.595  1.00  0.00     0.167 HD
ATOM     61  C   UNL A   1      43.378  27.384  32.102  1.00  0.00     0.074 A 
ATOM     62  C   UNL A   1      44.277  26.485  31.406  1.00  0.00     0.031 C 
ATOM     63  C   UNL A   1      43.525  27.761  33.396  1.00  0.00     0.034 A 
BRANCH  50  64
ATOM     64  C   UNL A   1      39.338  31.867  35.333  1.00  0.00     0.023 A 
ATOM     65  C   UNL A   1      38.458  31.324  36.291  1.00  0.00     0.012 A 
ATOM     66  C   UNL A   1      39.795  33.190  35.484  1.00  0.00     0.148 A 
ATOM     67  C   UNL A   1      38.017  32.093  37.366  1.00  0.00     0.002 A 
ATOM     68  C   UNL A   1      39.386  33.936  36.583  1.00  0.00     0.091 A 
ATOM     69  F   UNL A   1      40.614  33.696  34.550  1.00  0.00    -0.205 F 
ATOM     70  C   UNL A   1      38.490  33.393  37.519  1.00  0.00     0.022 A 
BRANCH  68  71
ATOM     71  S   UNL A   1      39.999  35.592  36.914  1.00  0.00     0.127 S 
ATOM     72  O   UNL A   1      41.443  35.366  36.968  1.00  0.00    -0.237 OA
ATOM     73  O   UNL A   1      39.542  36.331  35.737  1.00  0.00    -0.237 OA
ATOM     74  O   UNL A   1      39.384  36.005  38.167  1.00  0.00    -0.744 OA
ENDBRANCH  68  71
ENDBRANCH  50  64
BRANCH  51  75
ATOM     75  C   UNL A   1      42.435  26.367  27.592  1.00  0.00     0.023 A 
ATOM     76  C   UNL A   1      43.341  26.942  26.679  1.00  0.00     0.012 A 
ATOM     77  C   UNL A   1      42.052  25.022  27.425  1.00  0.00     0.148 A 
ATOM     78  C   UNL A   1      43.846  26.198  25.612  1.00  0.00     0.002 A 
ATOM     79  C   UNL A   1      42.600  24.270  26.391  1.00  0.00     0.091 A 
ATOM     80  F   UNL A   1      41.181  24.498  28.298  1.00  0.00    -0.205 F 
ATOM     81  C   UNL A   1      43.486  24.860  25.475  1.00  0.00     0.022 A 
BRANCH  79  82
ATOM     82  S   UNL A   1      42.307  22.506  26.218  1.00  0.00     0.127 S 
ATOM     83  O   UNL A   1      42.916  21.981  27.438  1.00  0.00    -0.237 OA
ATOM     84  O   UNL A   1      40.845  22.445  26.185  1.00  0.00    -0.237 OA
ATOM     85  O   UNL A   1      42.952  22.119  24.971  1.00  0.00    -0.744 OA
ENDBRANCH  79  82
ENDBRANCH  51  75
BRANCH  63  86
ATOM     86  C   UNL A   1      44.686  27.201  34.173  1.00  0.00     0.023 A 
ATOM     87  C   UNL A   1      45.880  27.941  34.264  1.00  0.00     0.012 A 
ATOM     88  C   UNL A   1      44.549  26.012  34.917  1.00  0.00     0.148 A 
ATOM     89  C   UNL A   1      46.926  27.501  35.074  1.00  0.00     0.002 A 
ATOM     90  C   UNL A   1      45.577  25.603  35.757  1.00  0.00     0.091 A 
ATOM     91  F   UNL A   1      43.409  25.314  34.802  1.00  0.00    -0.205 F 
ATOM     92  C   UNL A   1      46.769  26.342  35.831  1.00  0.00     0.022 A 
BRANCH  90  93
ATOM     93  S   UNL A   1      45.424  24.182  36.846  1.00  0.00     0.127 S 
ATOM     94  O   UNL A   1      44.633  23.264  36.027  1.00  0.00    -0.237 OA
ATOM     95  O   UNL A   1      46.820  23.782  37.034  1.00  0.00    -0.237 OA
ATOM     96  O   UNL A   1      44.768  24.668  38.051  1.00  0.00    -0.744 OA
ENDBRANCH  90  93
ENDBRANCH  63  86
ENDBRANCH  37  38
ENDBRANCH  29  32
ENDBRANCH  27  28
ENDBRANCH   1  27
TORSDOF 18
ENDMDL
