MODEL 1
REMARK VINA RESULT:     -12.5      0.000      0.000
REMARK SMILES O=C(NCCCCNC(=O)[C@@H]1CC=CC[C@@H]1C(=O)Nc1ccc(O)cc1)c1ccc(-c2c3nc(c(-c4cccc(S(=O)(=O)[O-])c4F)c4ccc([nH]4)c(-c4cccc(S(=O)(=O)[O-])c4F)c4nc(c(-c5cccc(S(=O)(=O)[O-])c5F)c5ccc2[nH]5)C=C4)C=C3)cc1
REMARK SMILES IDX 5 1 4 2 3 3 1 4 2 5 27 7 28 8 89 9 29 10 88 11 30 12 31 13
REMARK SMILES IDX 32 14 82 15 33 16 87 17 81 18 83 19 34 20 86 21 80 22 79 23
REMARK SMILES IDX 35 25 67 26 47 27 66 28 48 29 51 30 65 31 84 32 49 33 50 34
REMARK SMILES IDX 64 36 85 37 52 38 36 39 37 40 45 41 38 42 40 43 46 44 39 45
REMARK SMILES IDX 41 46 42 47 43 48 44 49 68 50 69 51 77 52 70 53 72 54 78 55
REMARK SMILES IDX 71 56 73 57 74 58 75 59 76 60 53 61 54 62 62 63 55 64 57 65
REMARK SMILES IDX 63 66 56 67 58 68 59 69 60 70 61 71 6 72 7 73 8 74 9 75
REMARK SMILES IDX 10 77 11 78 12 79 16 80 13 81 15 82 14 83 17 84 18 85 19 86
REMARK SMILES IDX 20 88 21 89 26 90 22 91 25 92 23 93 24 94
REMARK H PARENT 3 6 83 24 51 35 8 76 19 87 24 95
REMARK Flexibility Score: inf
ROOT
ATOM      1  C   UNL A   1      38.201  19.758  24.954  1.00  0.00     0.023 C 
ENDROOT
BRANCH   1   2
ATOM      2  C   UNL A   1      39.198  20.017  26.077  1.00  0.00     0.116 C 
BRANCH   2   3
ATOM      3  N   UNL A   1      40.361  19.149  25.991  1.00  0.00    -0.352 N 
ATOM      4  O   UNL A   1      42.536  18.633  25.748  1.00  0.00    -0.269 OA
ATOM      5  C   UNL A   1      41.693  19.480  26.037  1.00  0.00     0.251 C 
ATOM      6  H   UNL A   1      40.166  18.190  25.883  1.00  0.00     0.163 HD
BRANCH   5   7
ATOM      7  C   UNL A   1      42.105  20.851  26.409  1.00  0.00     0.039 A 
ATOM      8  C   UNL A   1      42.341  21.192  27.745  1.00  0.00     0.014 A 
ATOM      9  C   UNL A   1      42.277  21.805  25.403  1.00  0.00     0.014 A 
ATOM     10  C   UNL A   1      42.626  22.511  28.087  1.00  0.00     0.010 A 
ATOM     11  C   UNL A   1      42.637  23.111  25.741  1.00  0.00     0.010 A 
ATOM     12  C   UNL A   1      42.789  23.482  27.088  1.00  0.00    -0.014 A 
BRANCH  12  13
ATOM     13  C   UNL A   1      43.190  24.865  27.448  1.00  0.00     0.031 A 
ATOM     14  C   UNL A   1      42.210  25.820  28.069  1.00  0.00     0.074 A 
ATOM     15  C   UNL A   1      44.438  25.278  27.154  1.00  0.00     0.049 A 
ATOM     16  N   UNL A   1      42.373  27.081  28.379  1.00  0.00    -0.248 NA
ATOM     17  C   UNL A   1      40.869  25.296  28.370  1.00  0.00     0.031 C 
ATOM     18  C   UNL A   1      45.463  24.455  26.508  1.00  0.00     0.029 A 
ATOM     19  N   UNL A   1      45.045  26.497  27.323  1.00  0.00    -0.354 N 
ATOM     20  C   UNL A   1      41.146  27.516  28.867  1.00  0.00     0.074 A 
ATOM     21  C   UNL A   1      40.247  26.382  28.808  1.00  0.00     0.031 C 
ATOM     22  C   UNL A   1      46.564  25.195  26.319  1.00  0.00     0.029 A 
ATOM     23  C   UNL A   1      46.306  26.555  26.778  1.00  0.00     0.049 A 
ATOM     24  H   UNL A   1      44.620  27.254  27.787  1.00  0.00     0.167 HD
ATOM     25  C   UNL A   1      40.805  28.743  29.328  1.00  0.00     0.034 A 
ATOM     26  C   UNL A   1      47.150  27.594  26.622  1.00  0.00     0.034 A 
ATOM     27  C   UNL A   1      41.712  29.858  29.400  1.00  0.00     0.049 A 
ATOM     28  C   UNL A   1      46.755  28.943  27.147  1.00  0.00     0.074 A 
ATOM     29  C   UNL A   1      41.488  31.116  29.932  1.00  0.00     0.029 A 
ATOM     30  N   UNL A   1      43.009  29.859  28.906  1.00  0.00    -0.354 N 
ATOM     31  N   UNL A   1      45.642  29.299  27.739  1.00  0.00    -0.248 NA
ATOM     32  C   UNL A   1      47.739  30.025  27.014  1.00  0.00     0.031 C 
ATOM     33  C   UNL A   1      42.634  31.889  29.722  1.00  0.00     0.029 A 
ATOM     34  C   UNL A   1      43.588  31.102  29.098  1.00  0.00     0.049 A 
ATOM     35  H   UNL A   1      43.450  29.090  28.480  1.00  0.00     0.167 HD
ATOM     36  C   UNL A   1      45.801  30.638  28.077  1.00  0.00     0.074 A 
ATOM     37  C   UNL A   1      47.124  31.025  27.633  1.00  0.00     0.031 C 
ATOM     38  C   UNL A   1      44.924  31.467  28.694  1.00  0.00     0.034 A 
BRANCH  25  39
ATOM     39  C   UNL A   1      39.388  28.944  29.803  1.00  0.00     0.023 A 
ATOM     40  C   UNL A   1      39.037  28.615  31.128  1.00  0.00     0.012 A 
ATOM     41  C   UNL A   1      38.413  29.499  28.950  1.00  0.00     0.148 A 
ATOM     42  C   UNL A   1      37.729  28.790  31.581  1.00  0.00     0.002 A 
ATOM     43  C   UNL A   1      37.123  29.713  29.423  1.00  0.00     0.091 A 
ATOM     44  F   UNL A   1      38.756  29.791  27.687  1.00  0.00    -0.205 F 
ATOM     45  C   UNL A   1      36.776  29.346  30.734  1.00  0.00     0.022 A 
BRANCH  43  46
ATOM     46  S   UNL A   1      35.851  30.501  28.428  1.00  0.00     0.127 S 
ATOM     47  O   UNL A   1      35.335  29.369  27.660  1.00  0.00    -0.237 OA
ATOM     48  O   UNL A   1      34.934  31.015  29.446  1.00  0.00    -0.237 OA
ATOM     49  O   UNL A   1      36.532  31.530  27.656  1.00  0.00    -0.744 OA
ENDBRANCH  43  46
ENDBRANCH  25  39
BRANCH  26  50
ATOM     50  C   UNL A   1      48.458  27.365  25.949  1.00  0.00     0.023 A 
ATOM     51  C   UNL A   1      49.542  26.856  26.685  1.00  0.00     0.012 A 
ATOM     52  C   UNL A   1      48.597  27.563  24.560  1.00  0.00     0.148 A 
ATOM     53  C   UNL A   1      50.750  26.558  26.053  1.00  0.00     0.002 A 
ATOM     54  C   UNL A   1      49.782  27.210  23.928  1.00  0.00     0.091 A 
ATOM     55  F   UNL A   1      47.550  28.054  23.882  1.00  0.00    -0.205 F 
ATOM     56  C   UNL A   1      50.865  26.722  24.674  1.00  0.00     0.022 A 
BRANCH  54  57
ATOM     57  S   UNL A   1      49.971  27.245  22.142  1.00  0.00     0.127 S 
ATOM     58  O   UNL A   1      51.333  26.744  21.977  1.00  0.00    -0.237 OA
ATOM     59  O   UNL A   1      48.919  26.324  21.712  1.00  0.00    -0.237 OA
ATOM     60  O   UNL A   1      49.758  28.631  21.746  1.00  0.00    -0.744 OA
ENDBRANCH  54  57
ENDBRANCH  26  50
BRANCH  38  61
ATOM     61  C   UNL A   1      45.368  32.878  28.975  1.00  0.00     0.023 A 
ATOM     62  C   UNL A   1      46.076  33.172  30.156  1.00  0.00     0.012 A 
ATOM     63  C   UNL A   1      45.178  33.888  28.010  1.00  0.00     0.148 A 
ATOM     64  C   UNL A   1      46.574  34.456  30.381  1.00  0.00     0.002 A 
ATOM     65  C   UNL A   1      45.720  35.150  28.218  1.00  0.00     0.091 A 
ATOM     66  F   UNL A   1      44.486  33.589  26.902  1.00  0.00    -0.205 F 
ATOM     67  C   UNL A   1      46.410  35.439  29.406  1.00  0.00     0.022 A 
BRANCH  65  68
ATOM     68  S   UNL A   1      45.646  36.450  26.980  1.00  0.00     0.127 S 
ATOM     69  O   UNL A   1      44.205  36.676  26.872  1.00  0.00    -0.237 OA
ATOM     70  O   UNL A   1      46.387  37.533  27.626  1.00  0.00    -0.237 OA
ATOM     71  O   UNL A   1      46.279  35.908  25.785  1.00  0.00    -0.744 OA
ENDBRANCH  65  68
ENDBRANCH  38  61
ENDBRANCH  12  13
ENDBRANCH   5   7
ENDBRANCH   2   3
ENDBRANCH   1   2
BRANCH   1  72
ATOM     72  C   UNL A   1      37.242  20.915  24.659  1.00  0.00     0.023 C 
BRANCH  72  73
ATOM     73  C   UNL A   1      37.426  22.151  25.539  1.00  0.00     0.116 C 
BRANCH  73  74
ATOM     74  N   UNL A   1      36.304  22.328  26.444  1.00  0.00    -0.356 N 
ATOM     75  C   UNL A   1      35.145  23.030  26.330  1.00  0.00     0.224 C 
ATOM     76  H   UNL A   1      36.401  21.852  27.300  1.00  0.00     0.163 HD
ATOM     77  O   UNL A   1      34.438  23.085  27.334  1.00  0.00    -0.275 OA
BRANCH  75  78
ATOM     78  C   UNL A   1      34.758  23.662  25.003  1.00  0.00     0.095 C 
ATOM     79  C   UNL A   1      34.080  25.026  25.184  1.00  0.00     0.041 C 
ATOM     80  C   UNL A   1      33.942  22.696  24.112  1.00  0.00     0.095 C 
ATOM     81  C   UNL A   1      33.517  25.549  23.888  1.00  0.00    -0.030 C 
ATOM     82  C   UNL A   1      33.808  23.355  22.719  1.00  0.00     0.041 C 
ATOM     83  C   UNL A   1      33.422  24.807  22.775  1.00  0.00    -0.030 C 
BRANCH  80  84
ATOM     84  C   UNL A   1      32.560  22.310  24.666  1.00  0.00     0.228 C 
ATOM     85  O   UNL A   1      31.745  23.145  25.065  1.00  0.00    -0.274 OA
ATOM     86  N   UNL A   1      32.109  21.017  24.636  1.00  0.00    -0.326 N 
ATOM     87  H   UNL A   1      31.239  20.878  25.076  1.00  0.00     0.169 HD
BRANCH  86  88
ATOM     88  C   UNL A   1      32.673  19.860  24.086  1.00  0.00     0.041 A 
ATOM     89  C   UNL A   1      32.198  19.231  22.935  1.00  0.00     0.030 A 
ATOM     90  C   UNL A   1      33.735  19.290  24.795  1.00  0.00     0.030 A 
ATOM     91  C   UNL A   1      32.704  17.984  22.558  1.00  0.00     0.048 A 
ATOM     92  C   UNL A   1      34.228  18.038  24.432  1.00  0.00     0.048 A 
ATOM     93  C   UNL A   1      33.693  17.384  23.330  1.00  0.00     0.115 A 
BRANCH  93  94
ATOM     94  O   UNL A   1      34.166  16.139  23.040  1.00  0.00    -0.508 OA
ATOM     95  H   UNL A   1      34.982  15.854  23.399  1.00  0.00     0.293 HD
ENDBRANCH  93  94
ENDBRANCH  86  88
ENDBRANCH  80  84
ENDBRANCH  75  78
ENDBRANCH  73  74
ENDBRANCH  72  73
ENDBRANCH   1  72
TORSDOF 17
ENDMDL
MODEL 2
REMARK VINA RESULT:     -12.4      6.789     11.917
REMARK SMILES O=C(NCCCCNC(=O)[C@@H]1CC=CC[C@@H]1C(=O)Nc1ccc(O)cc1)c1ccc(-c2c3nc(c(-c4cccc(S(=O)(=O)[O-])c4F)c4ccc([nH]4)c(-c4cccc(S(=O)(=O)[O-])c4F)c4nc(c(-c5cccc(S(=O)(=O)[O-])c5F)c5ccc2[nH]5)C=C4)C=C3)cc1
REMARK SMILES IDX 5 1 4 2 3 3 1 4 2 5 27 7 28 8 89 9 29 10 88 11 30 12 31 13
REMARK SMILES IDX 32 14 82 15 33 16 87 17 81 18 83 19 34 20 86 21 80 22 79 23
REMARK SMILES IDX 35 25 67 26 47 27 66 28 48 29 51 30 65 31 84 32 49 33 50 34
REMARK SMILES IDX 64 36 85 37 52 38 36 39 37 40 45 41 38 42 40 43 46 44 39 45
REMARK SMILES IDX 41 46 42 47 43 48 44 49 68 50 69 51 77 52 70 53 72 54 78 55
REMARK SMILES IDX 71 56 73 57 74 58 75 59 76 60 53 61 54 62 62 63 55 64 57 65
REMARK SMILES IDX 63 66 56 67 58 68 59 69 60 70 61 71 6 72 7 73 8 74 9 75
REMARK SMILES IDX 10 77 11 78 12 79 16 80 13 81 15 82 14 83 17 84 18 85 19 86
REMARK SMILES IDX 20 88 21 89 26 90 22 91 25 92 23 93 24 94
REMARK H PARENT 3 6 83 24 51 35 8 76 19 87 24 95
REMARK Flexibility Score: inf
ROOT
ATOM      1  C   UNL A   1      31.474  32.212  26.725  1.00  0.00     0.023 C 
ENDROOT
BRANCH   1   2
ATOM      2  C   UNL A   1      32.748  32.835  27.281  1.00  0.00     0.116 C 
BRANCH   2   3
ATOM      3  N   UNL A   1      32.528  34.181  27.785  1.00  0.00    -0.352 N 
ATOM      4  O   UNL A   1      32.694  35.896  29.230  1.00  0.00    -0.269 OA
ATOM      5  C   UNL A   1      33.152  34.830  28.821  1.00  0.00     0.251 C 
ATOM      6  H   UNL A   1      31.833  34.699  27.318  1.00  0.00     0.163 HD
BRANCH   5   7
ATOM      7  C   UNL A   1      34.351  34.239  29.454  1.00  0.00     0.039 A 
ATOM      8  C   UNL A   1      35.634  34.568  29.008  1.00  0.00     0.014 A 
ATOM      9  C   UNL A   1      34.187  33.355  30.524  1.00  0.00     0.014 A 
ATOM     10  C   UNL A   1      36.745  33.923  29.545  1.00  0.00     0.010 A 
ATOM     11  C   UNL A   1      35.308  32.765  31.113  1.00  0.00     0.010 A 
ATOM     12  C   UNL A   1      36.594  33.023  30.612  1.00  0.00    -0.014 A 
BRANCH  12  13
ATOM     13  C   UNL A   1      37.789  32.412  31.248  1.00  0.00     0.031 A 
ATOM     14  C   UNL A   1      38.501  31.255  30.608  1.00  0.00     0.074 A 
ATOM     15  C   UNL A   1      38.193  32.872  32.447  1.00  0.00     0.049 A 
ATOM     16  N   UNL A   1      39.512  30.558  31.061  1.00  0.00    -0.248 NA
ATOM     17  C   UNL A   1      38.009  30.813  29.294  1.00  0.00     0.031 C 
ATOM     18  C   UNL A   1      37.551  33.961  33.189  1.00  0.00     0.029 A 
ATOM     19  N   UNL A   1      39.212  32.463  33.270  1.00  0.00    -0.354 N 
ATOM     20  C   UNL A   1      39.749  29.568  30.115  1.00  0.00     0.074 A 
ATOM     21  C   UNL A   1      38.771  29.753  29.062  1.00  0.00     0.031 C 
ATOM     22  C   UNL A   1      38.177  34.121  34.362  1.00  0.00     0.029 A 
ATOM     23  C   UNL A   1      39.228  33.115  34.481  1.00  0.00     0.049 A 
ATOM     24  H   UNL A   1      39.866  31.771  33.020  1.00  0.00     0.167 HD
ATOM     25  C   UNL A   1      40.697  28.601  30.120  1.00  0.00     0.034 A 
ATOM     26  C   UNL A   1      39.971  32.904  35.585  1.00  0.00     0.034 A 
ATOM     27  C   UNL A   1      41.677  28.438  31.162  1.00  0.00     0.049 A 
ATOM     28  C   UNL A   1      41.021  31.832  35.566  1.00  0.00     0.074 A 
ATOM     29  C   UNL A   1      42.733  27.546  31.217  1.00  0.00     0.029 A 
ATOM     30  N   UNL A   1      41.709  29.167  32.342  1.00  0.00    -0.354 N 
ATOM     31  N   UNL A   1      41.326  30.999  34.601  1.00  0.00    -0.248 NA
ATOM     32  C   UNL A   1      41.851  31.690  36.769  1.00  0.00     0.031 C 
ATOM     33  C   UNL A   1      43.377  27.707  32.447  1.00  0.00     0.029 A 
ATOM     34  C   UNL A   1      42.750  28.728  33.142  1.00  0.00     0.049 A 
ATOM     35  H   UNL A   1      41.082  29.888  32.576  1.00  0.00     0.167 HD
ATOM     36  C   UNL A   1      42.402  30.253  35.067  1.00  0.00     0.074 A 
ATOM     37  C   UNL A   1      42.703  30.742  36.398  1.00  0.00     0.031 C 
ATOM     38  C   UNL A   1      43.072  29.251  34.448  1.00  0.00     0.034 A 
BRANCH  25  39
ATOM     39  C   UNL A   1      40.729  27.645  28.954  1.00  0.00     0.023 A 
ATOM     40  C   UNL A   1      39.790  26.596  28.878  1.00  0.00     0.012 A 
ATOM     41  C   UNL A   1      41.661  27.811  27.910  1.00  0.00     0.148 A 
ATOM     42  C   UNL A   1      39.809  25.701  27.809  1.00  0.00     0.002 A 
ATOM     43  C   UNL A   1      41.644  26.943  26.825  1.00  0.00     0.091 A 
ATOM     44  F   UNL A   1      42.559  28.803  28.004  1.00  0.00    -0.205 F 
ATOM     45  C   UNL A   1      40.728  25.878  26.779  1.00  0.00     0.022 A 
BRANCH  43  46
ATOM     46  S   UNL A   1      42.737  27.145  25.413  1.00  0.00     0.127 S 
ATOM     47  O   UNL A   1      44.037  27.290  26.065  1.00  0.00    -0.237 OA
ATOM     48  O   UNL A   1      42.555  25.882  24.695  1.00  0.00    -0.237 OA
ATOM     49  O   UNL A   1      42.253  28.318  24.701  1.00  0.00    -0.744 OA
ENDBRANCH  43  46
ENDBRANCH  25  39
BRANCH  26  50
ATOM     50  C   UNL A   1      39.739  33.755  36.783  1.00  0.00     0.023 A 
ATOM     51  C   UNL A   1      40.070  35.121  36.744  1.00  0.00     0.012 A 
ATOM     52  C   UNL A   1      39.103  33.230  37.927  1.00  0.00     0.148 A 
ATOM     53  C   UNL A   1      39.783  35.950  37.829  1.00  0.00     0.002 A 
ATOM     54  C   UNL A   1      38.769  34.072  38.979  1.00  0.00     0.091 A 
ATOM     55  F   UNL A   1      38.803  31.924  37.941  1.00  0.00    -0.205 F 
ATOM     56  C   UNL A   1      39.121  35.430  38.938  1.00  0.00     0.022 A 
BRANCH  54  57
ATOM     57  S   UNL A   1      37.786  33.525  40.380  1.00  0.00     0.127 S 
ATOM     58  O   UNL A   1      36.578  33.036  39.723  1.00  0.00    -0.237 OA
ATOM     59  O   UNL A   1      38.640  32.486  40.955  1.00  0.00    -0.237 OA
ATOM     60  O   UNL A   1      37.612  34.699  41.225  1.00  0.00    -0.744 OA
ENDBRANCH  54  57
ENDBRANCH  26  50
BRANCH  38  61
ATOM     61  C   UNL A   1      44.235  28.628  35.173  1.00  0.00     0.023 A 
ATOM     62  C   UNL A   1      45.536  29.134  34.985  1.00  0.00     0.012 A 
ATOM     63  C   UNL A   1      44.017  27.612  36.125  1.00  0.00     0.148 A 
ATOM     64  C   UNL A   1      46.605  28.627  35.722  1.00  0.00     0.002 A 
ATOM     65  C   UNL A   1      45.078  27.147  36.892  1.00  0.00     0.091 A 
ATOM     66  F   UNL A   1      42.774  27.134  36.273  1.00  0.00    -0.205 F 
ATOM     67  C   UNL A   1      46.374  27.646  36.685  1.00  0.00     0.022 A 
BRANCH  65  68
ATOM     68  S   UNL A   1      44.861  25.959  38.222  1.00  0.00     0.127 S 
ATOM     69  O   UNL A   1      44.378  24.785  37.496  1.00  0.00    -0.237 OA
ATOM     70  O   UNL A   1      46.221  25.835  38.747  1.00  0.00    -0.237 OA
ATOM     71  O   UNL A   1      43.905  26.554  39.145  1.00  0.00    -0.744 OA
ENDBRANCH  65  68
ENDBRANCH  38  61
ENDBRANCH  12  13
ENDBRANCH   5   7
ENDBRANCH   2   3
ENDBRANCH   1   2
BRANCH   1  72
ATOM     72  C   UNL A   1      31.623  30.776  26.215  1.00  0.00     0.023 C 
BRANCH  72  73
ATOM     73  C   UNL A   1      32.993  30.141  26.454  1.00  0.00     0.116 C 
BRANCH  73  74
ATOM     74  N   UNL A   1      33.516  29.538  25.242  1.00  0.00    -0.356 N 
ATOM     75  C   UNL A   1      33.511  28.256  24.788  1.00  0.00     0.224 C 
ATOM     76  H   UNL A   1      33.957  30.176  24.634  1.00  0.00     0.163 HD
ATOM     77  O   UNL A   1      34.153  28.036  23.763  1.00  0.00    -0.275 OA
BRANCH  75  78
ATOM     78  C   UNL A   1      32.709  27.188  25.513  1.00  0.00     0.095 C 
ATOM     79  C   UNL A   1      33.423  25.831  25.524  1.00  0.00     0.041 C 
ATOM     80  C   UNL A   1      31.253  27.101  24.996  1.00  0.00     0.095 C 
ATOM     81  C   UNL A   1      32.537  24.736  26.059  1.00  0.00    -0.030 C 
ATOM     82  C   UNL A   1      30.481  26.159  25.950  1.00  0.00     0.041 C 
ATOM     83  C   UNL A   1      31.223  24.893  26.277  1.00  0.00    -0.030 C 
BRANCH  80  84
ATOM     84  C   UNL A   1      31.108  26.636  23.537  1.00  0.00     0.228 C 
ATOM     85  O   UNL A   1      31.553  25.559  23.133  1.00  0.00    -0.274 OA
ATOM     86  N   UNL A   1      30.367  27.343  22.627  1.00  0.00    -0.326 N 
ATOM     87  H   UNL A   1      30.397  26.986  21.710  1.00  0.00     0.169 HD
BRANCH  86  88
ATOM     88  C   UNL A   1      29.573  28.485  22.779  1.00  0.00     0.041 A 
ATOM     89  C   UNL A   1      30.081  29.770  22.970  1.00  0.00     0.030 A 
ATOM     90  C   UNL A   1      28.189  28.281  22.799  1.00  0.00     0.030 A 
ATOM     91  C   UNL A   1      29.221  30.823  23.293  1.00  0.00     0.048 A 
ATOM     92  C   UNL A   1      27.332  29.325  23.140  1.00  0.00     0.048 A 
ATOM     93  C   UNL A   1      27.856  30.583  23.407  1.00  0.00     0.115 A 
BRANCH  93  94
ATOM     94  O   UNL A   1      26.989  31.563  23.787  1.00  0.00    -0.508 OA
ATOM     95  H   UNL A   1      26.068  31.394  23.799  1.00  0.00     0.293 HD
ENDBRANCH  93  94
ENDBRANCH  86  88
ENDBRANCH  80  84
ENDBRANCH  75  78
ENDBRANCH  73  74
ENDBRANCH  72  73
ENDBRANCH   1  72
TORSDOF 17
ENDMDL
MODEL 3
REMARK VINA RESULT:     -12.1      6.990     10.638
REMARK SMILES O=C(NCCCCNC(=O)[C@@H]1CC=CC[C@@H]1C(=O)Nc1ccc(O)cc1)c1ccc(-c2c3nc(c(-c4cccc(S(=O)(=O)[O-])c4F)c4ccc([nH]4)c(-c4cccc(S(=O)(=O)[O-])c4F)c4nc(c(-c5cccc(S(=O)(=O)[O-])c5F)c5ccc2[nH]5)C=C4)C=C3)cc1
REMARK SMILES IDX 5 1 4 2 3 3 1 4 2 5 27 7 28 8 89 9 29 10 88 11 30 12 31 13
REMARK SMILES IDX 32 14 82 15 33 16 87 17 81 18 83 19 34 20 86 21 80 22 79 23
REMARK SMILES IDX 35 25 67 26 47 27 66 28 48 29 51 30 65 31 84 32 49 33 50 34
REMARK SMILES IDX 64 36 85 37 52 38 36 39 37 40 45 41 38 42 40 43 46 44 39 45
REMARK SMILES IDX 41 46 42 47 43 48 44 49 68 50 69 51 77 52 70 53 72 54 78 55
REMARK SMILES IDX 71 56 73 57 74 58 75 59 76 60 53 61 54 62 62 63 55 64 57 65
REMARK SMILES IDX 63 66 56 67 58 68 59 69 60 70 61 71 6 72 7 73 8 74 9 75
REMARK SMILES IDX 10 77 11 78 12 79 16 80 13 81 15 82 14 83 17 84 18 85 19 86
REMARK SMILES IDX 20 88 21 89 26 90 22 91 25 92 23 93 24 94
REMARK H PARENT 3 6 83 24 51 35 8 76 19 87 24 95
REMARK Flexibility Score: inf
ROOT
ATOM      1  C   UNL A   1      31.548  32.346  26.830  1.00  0.00     0.023 C 
ENDROOT
BRANCH   1   2
ATOM      2  C   UNL A   1      32.833  32.993  27.334  1.00  0.00     0.116 C 
BRANCH   2   3
ATOM      3  N   UNL A   1      32.602  34.317  27.887  1.00  0.00    -0.352 N 
ATOM      4  O   UNL A   1      32.675  35.950  29.432  1.00  0.00    -0.269 OA
ATOM      5  C   UNL A   1      33.141  34.892  29.011  1.00  0.00     0.251 C 
ATOM      6  H   UNL A   1      31.970  34.880  27.385  1.00  0.00     0.163 HD
BRANCH   5   7
ATOM      7  C   UNL A   1      34.257  34.230  29.722  1.00  0.00     0.039 A 
ATOM      8  C   UNL A   1      35.583  34.448  29.336  1.00  0.00     0.014 A 
ATOM      9  C   UNL A   1      33.971  33.392  30.803  1.00  0.00     0.014 A 
ATOM     10  C   UNL A   1      36.612  33.737  29.948  1.00  0.00     0.010 A 
ATOM     11  C   UNL A   1      35.012  32.737  31.465  1.00  0.00     0.010 A 
ATOM     12  C   UNL A   1      36.338  32.883  31.027  1.00  0.00    -0.014 A 
BRANCH  12  13
ATOM     13  C   UNL A   1      37.448  32.202  31.741  1.00  0.00     0.031 A 
ATOM     14  C   UNL A   1      37.939  32.703  33.069  1.00  0.00     0.074 A 
ATOM     15  C   UNL A   1      38.056  31.156  31.149  1.00  0.00     0.049 A 
ATOM     16  N   UNL A   1      38.941  32.272  33.792  1.00  0.00    -0.248 NA
ATOM     17  C   UNL A   1      37.220  33.843  33.658  1.00  0.00     0.031 C 
ATOM     18  C   UNL A   1      37.697  30.608  29.838  1.00  0.00     0.029 A 
ATOM     19  N   UNL A   1      39.122  30.390  31.550  1.00  0.00    -0.354 N 
ATOM     20  C   UNL A   1      39.005  33.113  34.896  1.00  0.00     0.074 A 
ATOM     21  C   UNL A   1      37.941  34.084  34.745  1.00  0.00     0.031 C 
ATOM     22  C   UNL A   1      38.538  29.610  29.535  1.00  0.00     0.029 A 
ATOM     23  C   UNL A   1      39.525  29.481  30.601  1.00  0.00     0.049 A 
ATOM     24  H   UNL A   1      39.554  30.483  32.429  1.00  0.00     0.167 HD
ATOM     25  C   UNL A   1      39.866  33.075  35.941  1.00  0.00     0.034 A 
ATOM     26  C   UNL A   1      40.595  28.663  30.565  1.00  0.00     0.034 A 
ATOM     27  C   UNL A   1      40.908  32.094  36.091  1.00  0.00     0.049 A 
ATOM     28  C   UNL A   1      41.532  28.631  31.737  1.00  0.00     0.074 A 
ATOM     29  C   UNL A   1      41.775  31.917  37.155  1.00  0.00     0.029 A 
ATOM     30  N   UNL A   1      41.242  31.139  35.142  1.00  0.00    -0.354 N 
ATOM     31  N   UNL A   1      41.490  29.337  32.840  1.00  0.00    -0.248 NA
ATOM     32  C   UNL A   1      42.642  27.672  31.678  1.00  0.00     0.031 C 
ATOM     33  C   UNL A   1      42.659  30.883  36.832  1.00  0.00     0.029 A 
ATOM     34  C   UNL A   1      42.316  30.386  35.584  1.00  0.00     0.049 A 
ATOM     35  H   UNL A   1      40.783  31.017  34.280  1.00  0.00     0.167 HD
ATOM     36  C   UNL A   1      42.548  28.888  33.620  1.00  0.00     0.074 A 
ATOM     37  C   UNL A   1      43.207  27.840  32.867  1.00  0.00     0.031 C 
ATOM     38  C   UNL A   1      42.939  29.313  34.847  1.00  0.00     0.034 A 
BRANCH  25  39
ATOM     39  C   UNL A   1      39.711  34.122  37.015  1.00  0.00     0.023 A 
ATOM     40  C   UNL A   1      40.048  35.464  36.743  1.00  0.00     0.012 A 
ATOM     41  C   UNL A   1      39.189  33.787  38.280  1.00  0.00     0.148 A 
ATOM     42  C   UNL A   1      39.915  36.444  37.727  1.00  0.00     0.002 A 
ATOM     43  C   UNL A   1      39.015  34.777  39.240  1.00  0.00     0.091 A 
ATOM     44  F   UNL A   1      38.889  32.504  38.530  1.00  0.00    -0.205 F 
ATOM     45  C   UNL A   1      39.391  36.103  38.971  1.00  0.00     0.022 A 
BRANCH  43  46
ATOM     46  S   UNL A   1      38.271  34.445  40.842  1.00  0.00     0.127 S 
ATOM     47  O   UNL A   1      38.006  35.797  41.330  1.00  0.00    -0.237 OA
ATOM     48  O   UNL A   1      37.075  33.684  40.477  1.00  0.00    -0.237 OA
ATOM     49  O   UNL A   1      39.263  33.686  41.590  1.00  0.00    -0.744 OA
ENDBRANCH  43  46
ENDBRANCH  25  39
BRANCH  26  50
ATOM     50  C   UNL A   1      40.804  27.801  29.369  1.00  0.00     0.023 A 
ATOM     51  C   UNL A   1      40.016  26.650  29.192  1.00  0.00     0.012 A 
ATOM     52  C   UNL A   1      41.717  28.176  28.363  1.00  0.00     0.148 A 
ATOM     53  C   UNL A   1      40.141  25.877  28.038  1.00  0.00     0.002 A 
ATOM     54  C   UNL A   1      41.795  27.435  27.190  1.00  0.00     0.091 A 
ATOM     55  F   UNL A   1      42.460  29.275  28.557  1.00  0.00    -0.205 F 
ATOM     56  C   UNL A   1      41.019  26.277  27.032  1.00  0.00     0.022 A 
BRANCH  54  57
ATOM     57  S   UNL A   1      42.783  27.954  25.783  1.00  0.00     0.127 S 
ATOM     58  O   UNL A   1      42.284  27.076  24.729  1.00  0.00    -0.237 OA
ATOM     59  O   UNL A   1      42.398  29.359  25.650  1.00  0.00    -0.237 OA
ATOM     60  O   UNL A   1      44.171  27.743  26.173  1.00  0.00    -0.744 OA
ENDBRANCH  54  57
ENDBRANCH  26  50
BRANCH  38  61
ATOM     61  C   UNL A   1      44.112  28.624  35.491  1.00  0.00     0.023 A 
ATOM     62  C   UNL A   1      45.423  29.060  35.218  1.00  0.00     0.012 A 
ATOM     63  C   UNL A   1      43.902  27.615  36.453  1.00  0.00     0.148 A 
ATOM     64  C   UNL A   1      46.509  28.490  35.881  1.00  0.00     0.002 A 
ATOM     65  C   UNL A   1      44.985  27.088  37.146  1.00  0.00     0.091 A 
ATOM     66  F   UNL A   1      42.648  27.204  36.683  1.00  0.00    -0.205 F 
ATOM     67  C   UNL A   1      46.290  27.517  36.854  1.00  0.00     0.022 A 
BRANCH  65  68
ATOM     68  S   UNL A   1      44.793  25.904  38.484  1.00  0.00     0.127 S 
ATOM     69  O   UNL A   1      43.982  26.661  39.436  1.00  0.00    -0.237 OA
ATOM     70  O   UNL A   1      44.091  24.804  37.823  1.00  0.00    -0.237 OA
ATOM     71  O   UNL A   1      46.140  25.582  38.936  1.00  0.00    -0.744 OA
ENDBRANCH  65  68
ENDBRANCH  38  61
ENDBRANCH  12  13
ENDBRANCH   5   7
ENDBRANCH   2   3
ENDBRANCH   1   2
BRANCH   1  72
ATOM     72  C   UNL A   1      31.673  30.869  26.447  1.00  0.00     0.023 C 
BRANCH  72  73
ATOM     73  C   UNL A   1      33.075  30.278  26.586  1.00  0.00     0.116 C 
BRANCH  73  74
ATOM     74  N   UNL A   1      33.546  29.730  25.327  1.00  0.00    -0.356 N 
ATOM     75  C   UNL A   1      33.541  28.466  24.826  1.00  0.00     0.224 C 
ATOM     76  H   UNL A   1      33.944  30.398  24.723  1.00  0.00     0.163 HD
ATOM     77  O   UNL A   1      34.133  28.296  23.762  1.00  0.00    -0.275 OA
BRANCH  75  78
ATOM     78  C   UNL A   1      32.795  27.357  25.548  1.00  0.00     0.095 C 
ATOM     79  C   UNL A   1      33.564  26.030  25.532  1.00  0.00     0.041 C 
ATOM     80  C   UNL A   1      31.336  27.215  25.052  1.00  0.00     0.095 C 
ATOM     81  C   UNL A   1      32.733  24.893  26.066  1.00  0.00    -0.030 C 
ATOM     82  C   UNL A   1      30.618  26.230  26.006  1.00  0.00     0.041 C 
ATOM     83  C   UNL A   1      31.417  24.993  26.306  1.00  0.00    -0.030 C 
BRANCH  80  84
ATOM     84  C   UNL A   1      31.187  26.762  23.590  1.00  0.00     0.228 C 
ATOM     85  O   UNL A   1      31.648  25.697  23.172  1.00  0.00    -0.274 OA
ATOM     86  N   UNL A   1      30.428  27.465  22.693  1.00  0.00    -0.326 N 
ATOM     87  H   UNL A   1      30.458  27.118  21.772  1.00  0.00     0.169 HD
BRANCH  86  88
ATOM     88  C   UNL A   1      29.616  28.593  22.862  1.00  0.00     0.041 A 
ATOM     89  C   UNL A   1      30.099  29.863  23.177  1.00  0.00     0.030 A 
ATOM     90  C   UNL A   1      28.237  28.384  22.763  1.00  0.00     0.030 A 
ATOM     91  C   UNL A   1      29.210  30.889  23.505  1.00  0.00     0.048 A 
ATOM     92  C   UNL A   1      27.348  29.401  23.108  1.00  0.00     0.048 A 
ATOM     93  C   UNL A   1      27.842  30.638  23.499  1.00  0.00     0.115 A 
BRANCH  93  94
ATOM     94  O   UNL A   1      26.942  31.588  23.879  1.00  0.00    -0.508 OA
ATOM     95  H   UNL A   1      26.928  32.419  23.447  1.00  0.00     0.293 HD
ENDBRANCH  93  94
ENDBRANCH  86  88
ENDBRANCH  80  84
ENDBRANCH  75  78
ENDBRANCH  73  74
ENDBRANCH  72  73
ENDBRANCH   1  72
TORSDOF 17
ENDMDL
