MODEL 1
REMARK VINA RESULT:     -12.5      0.000      0.000
REMARK SMILES CCSc1ccc(-c2cc(Cl)cc3c2O[C@H](C(F)(F)F)C(C(=O)NCCCCNC(=O)c2ccc(-c4c5nc(c(-c6cccc(S(=O)(=O)[O-])c6F)c6ccc([nH]6)c(-c6cccc(S(=O)(=O)[O-])c6F)c6nc(c(-c7cccc(S(=O)(=O)[O-])c7F)c7ccc4[nH]7)C=C6)C=C5)cc2)=C3)cc1
REMARK SMILES IDX 26 1 25 2 24 3 22 4 23 5 21 7 8 8 9 9 14 10 10 11 13 12
REMARK SMILES IDX 15 13 11 14 12 15 95 16 16 17 7 18 4 19 5 20 97 21 6 22
REMARK SMILES IDX 96 23 3 24 2 25 1 26 17 27 18 28 19 29 20 30 27 31 28 32
REMARK SMILES IDX 29 33 30 34 31 36 32 37 33 38 94 39 34 40 93 41 35 42 36 43
REMARK SMILES IDX 37 44 87 45 38 46 92 47 86 48 88 49 39 50 91 51 85 52 84 53
REMARK SMILES IDX 40 55 72 56 52 57 71 58 53 59 56 60 70 61 89 62 54 63 55 64
REMARK SMILES IDX 69 66 90 67 57 68 41 69 42 70 50 71 43 72 45 73 51 74 44 75
REMARK SMILES IDX 46 76 47 77 48 78 49 79 73 80 74 81 82 82 75 83 77 84 83 85
REMARK SMILES IDX 76 86 78 87 79 88 80 89 81 90 58 91 59 92 67 93 60 94 62 95
REMARK SMILES IDX 68 96 61 97 63 98 64 99 65 100 66 101
REMARK H PARENT 24 6 29 35 88 54 56 65
REMARK Flexibility Score: inf
ROOT
ATOM      1  C   UNL A   1      31.867  30.127  25.789  1.00  0.00     0.023 C 
ENDROOT
BRANCH   1   2
ATOM      2  C   UNL A   1      33.014  29.297  25.202  1.00  0.00     0.116 C 
BRANCH   2   3
ATOM      3  N   UNL A   1      33.202  28.098  25.990  1.00  0.00    -0.352 N 
ATOM      4  C   UNL A   1      32.573  26.906  25.884  1.00  0.00     0.251 C 
ATOM      5  O   UNL A   1      32.415  26.224  26.891  1.00  0.00    -0.270 OA
ATOM      6  H   UNL A   1      33.881  28.158  26.700  1.00  0.00     0.163 HD
BRANCH   4   7
ATOM      7  C   UNL A   1      32.156  26.437  24.525  1.00  0.00     0.067 C 
ATOM      8  C   UNL A   1      33.385  22.592  24.944  1.00  0.00     0.026 A 
ATOM      9  C   UNL A   1      34.719  22.605  25.431  1.00  0.00     0.033 A 
ATOM     10  C   UNL A   1      32.891  23.804  24.442  1.00  0.00     0.135 A 
ATOM     11  C   UNL A   1      35.554  23.713  25.304  1.00  0.00     0.042 A 
ATOM     12  C   UNL A   1      33.781  24.887  24.228  1.00  0.00     0.019 A 
ATOM     13  O   UNL A   1      31.544  24.008  24.186  1.00  0.00    -0.475 OA
ATOM     14  Cl  UNL A   1      37.146  23.655  25.946  1.00  0.00    -0.084 Cl
ATOM     15  C   UNL A   1      35.110  24.843  24.644  1.00  0.00     0.032 A 
ATOM     16  C   UNL A   1      33.210  26.158  23.732  1.00  0.00     0.025 C 
ATOM     17  C   UNL A   1      31.069  25.366  24.567  1.00  0.00     0.314 C 
BRANCH   8  18
ATOM     18  C   UNL A   1      32.763  21.248  24.851  1.00  0.00    -0.015 A 
ATOM     19  C   UNL A   1      32.832  18.461  24.318  1.00  0.00     0.007 A 
ATOM     20  C   UNL A   1      33.014  18.937  25.615  1.00  0.00     0.015 A 
ATOM     21  C   UNL A   1      32.467  19.373  23.321  1.00  0.00     0.015 A 
ATOM     22  C   UNL A   1      32.946  20.312  25.886  1.00  0.00     0.010 A 
ATOM     23  C   UNL A   1      32.415  20.750  23.586  1.00  0.00     0.010 A 
BRANCH  19  24
ATOM     24  S   UNL A   1      33.320  16.814  23.812  1.00  0.00    -0.126 SA
BRANCH  24  25
ATOM     25  C   UNL A   1      33.956  16.063  25.342  1.00  0.00     0.071 C 
ATOM     26  C   UNL A   1      35.460  15.842  25.329  1.00  0.00     0.016 C 
ENDBRANCH  24  25
ENDBRANCH  19  24
ENDBRANCH   8  18
BRANCH  17  27
ATOM     27  C   UNL A   1      29.889  25.813  23.678  1.00  0.00     0.429 C 
ATOM     28  F   UNL A   1      30.223  26.817  22.835  1.00  0.00    -0.167 F 
ATOM     29  F   UNL A   1      29.426  24.787  22.923  1.00  0.00    -0.167 F 
ATOM     30  F   UNL A   1      28.828  26.257  24.402  1.00  0.00    -0.167 F 
ENDBRANCH  17  27
ENDBRANCH   4   7
ENDBRANCH   2   3
ENDBRANCH   1   2
BRANCH   1  31
ATOM     31  C   UNL A   1      32.152  30.758  27.160  1.00  0.00     0.023 C 
BRANCH  31  32
ATOM     32  C   UNL A   1      33.301  31.761  27.178  1.00  0.00     0.116 C 
BRANCH  32  33
ATOM     33  N   UNL A   1      32.837  33.113  27.456  1.00  0.00    -0.352 N 
ATOM     34  C   UNL A   1      33.240  33.981  28.441  1.00  0.00     0.251 C 
ATOM     35  H   UNL A   1      32.136  33.452  26.853  1.00  0.00     0.163 HD
ATOM     36  O   UNL A   1      32.602  35.012  28.650  1.00  0.00    -0.269 OA
BRANCH  34  37
ATOM     37  C   UNL A   1      34.423  33.659  29.267  1.00  0.00     0.039 A 
ATOM     38  C   UNL A   1      34.266  32.839  30.387  1.00  0.00     0.014 A 
ATOM     39  C   UNL A   1      35.688  34.144  28.921  1.00  0.00     0.014 A 
ATOM     40  C   UNL A   1      35.391  32.432  31.109  1.00  0.00     0.010 A 
ATOM     41  C   UNL A   1      36.812  33.686  29.604  1.00  0.00     0.010 A 
ATOM     42  C   UNL A   1      36.678  32.813  30.695  1.00  0.00    -0.014 A 
BRANCH  42  43
ATOM     43  C   UNL A   1      37.896  32.254  31.337  1.00  0.00     0.031 A 
ATOM     44  C   UNL A   1      38.640  31.108  30.707  1.00  0.00     0.074 A 
ATOM     45  C   UNL A   1      38.258  32.699  32.559  1.00  0.00     0.049 A 
ATOM     46  N   UNL A   1      39.660  30.435  31.173  1.00  0.00    -0.248 NA
ATOM     47  C   UNL A   1      38.163  30.641  29.395  1.00  0.00     0.031 C 
ATOM     48  C   UNL A   1      37.564  33.743  33.316  1.00  0.00     0.029 A 
ATOM     49  N   UNL A   1      39.268  32.298  33.400  1.00  0.00    -0.354 N 
ATOM     50  C   UNL A   1      39.919  29.439  30.240  1.00  0.00     0.074 A 
ATOM     51  C   UNL A   1      38.943  29.588  29.183  1.00  0.00     0.031 C 
ATOM     52  C   UNL A   1      38.155  33.887  34.512  1.00  0.00     0.029 A 
ATOM     53  C   UNL A   1      39.246  32.925  34.625  1.00  0.00     0.049 A 
ATOM     54  H   UNL A   1      39.943  31.627  33.150  1.00  0.00     0.167 HD
ATOM     55  C   UNL A   1      40.894  28.498  30.255  1.00  0.00     0.034 A 
ATOM     56  C   UNL A   1      39.997  32.731  35.727  1.00  0.00     0.034 A 
ATOM     57  C   UNL A   1      41.894  28.386  31.281  1.00  0.00     0.049 A 
ATOM     58  C   UNL A   1      41.094  31.701  35.697  1.00  0.00     0.074 A 
ATOM     59  C   UNL A   1      43.003  27.558  31.310  1.00  0.00     0.029 A 
ATOM     60  N   UNL A   1      41.898  29.102  32.467  1.00  0.00    -0.354 N 
ATOM     61  N   UNL A   1      41.455  30.912  34.715  1.00  0.00    -0.248 NA
ATOM     62  C   UNL A   1      41.905  31.553  36.915  1.00  0.00     0.031 C 
ATOM     63  C   UNL A   1      43.656  27.745  32.532  1.00  0.00     0.029 A 
ATOM     64  C   UNL A   1      42.970  28.709  33.251  1.00  0.00     0.049 A 
ATOM     65  H   UNL A   1      41.236  29.787  32.716  1.00  0.00     0.167 HD
ATOM     66  C   UNL A   1      42.545  30.190  35.188  1.00  0.00     0.074 A 
ATOM     67  C   UNL A   1      42.806  30.659  36.532  1.00  0.00     0.031 C 
ATOM     68  C   UNL A   1      43.251  29.212  34.571  1.00  0.00     0.034 A 
BRANCH  55  69
ATOM     69  C   UNL A   1      40.966  27.532  29.103  1.00  0.00     0.023 A 
ATOM     70  C   UNL A   1      40.094  26.426  29.064  1.00  0.00     0.012 A 
ATOM     71  C   UNL A   1      41.822  27.779  28.011  1.00  0.00     0.148 A 
ATOM     72  C   UNL A   1      40.086  25.568  27.965  1.00  0.00     0.002 A 
ATOM     73  C   UNL A   1      41.779  26.943  26.901  1.00  0.00     0.091 A 
ATOM     74  F   UNL A   1      42.656  28.827  28.077  1.00  0.00    -0.205 F 
ATOM     75  C   UNL A   1      40.919  25.833  26.880  1.00  0.00     0.022 A 
BRANCH  73  76
ATOM     76  S   UNL A   1      42.753  27.242  25.421  1.00  0.00     0.127 S 
ATOM     77  O   UNL A   1      44.091  27.425  25.981  1.00  0.00    -0.237 OA
ATOM     78  O   UNL A   1      42.570  25.995  24.677  1.00  0.00    -0.237 OA
ATOM     79  O   UNL A   1      42.176  28.419  24.790  1.00  0.00    -0.744 OA
ENDBRANCH  73  76
ENDBRANCH  55  69
BRANCH  56  80
ATOM     80  C   UNL A   1      39.753  33.547  36.951  1.00  0.00     0.023 A 
ATOM     81  C   UNL A   1      40.280  34.850  37.035  1.00  0.00     0.012 A 
ATOM     82  C   UNL A   1      38.992  33.044  38.024  1.00  0.00     0.148 A 
ATOM     83  C   UNL A   1      40.082  35.624  38.180  1.00  0.00     0.002 A 
ATOM     84  C   UNL A   1      38.749  33.842  39.136  1.00  0.00     0.091 A 
ATOM     85  F   UNL A   1      38.513  31.795  37.935  1.00  0.00    -0.205 F 
ATOM     86  C   UNL A   1      39.309  35.125  39.224  1.00  0.00     0.022 A 
BRANCH  84  87
ATOM     87  S   UNL A   1      37.648  33.328  40.459  1.00  0.00     0.127 S 
ATOM     88  O   UNL A   1      38.407  32.244  41.077  1.00  0.00    -0.237 OA
ATOM     89  O   UNL A   1      37.547  34.548  41.262  1.00  0.00    -0.237 OA
ATOM     90  O   UNL A   1      36.405  32.945  39.802  1.00  0.00    -0.744 OA
ENDBRANCH  84  87
ENDBRANCH  56  80
BRANCH  68  91
ATOM     91  C   UNL A   1      44.386  28.578  35.331  1.00  0.00     0.023 A 
ATOM     92  C   UNL A   1      45.697  29.061  35.154  1.00  0.00     0.012 A 
ATOM     93  C   UNL A   1      44.143  27.568  36.284  1.00  0.00     0.148 A 
ATOM     94  C   UNL A   1      46.754  28.534  35.894  1.00  0.00     0.002 A 
ATOM     95  C   UNL A   1      45.194  27.081  37.053  1.00  0.00     0.091 A 
ATOM     96  F   UNL A   1      42.890  27.112  36.426  1.00  0.00    -0.205 F 
ATOM     97  C   UNL A   1      46.500  27.555  36.852  1.00  0.00     0.022 A 
BRANCH  95  98
ATOM     98  S   UNL A   1      44.953  25.887  38.373  1.00  0.00     0.127 S 
ATOM     99  O   UNL A   1      46.290  25.820  38.962  1.00  0.00    -0.237 OA
ATOM    100  O   UNL A   1      43.951  26.549  39.209  1.00  0.00    -0.237 OA
ATOM    101  O   UNL A   1      44.496  24.661  37.733  1.00  0.00    -0.744 OA
ENDBRANCH  95  98
ENDBRANCH  68  91
ENDBRANCH  42  43
ENDBRANCH  34  37
ENDBRANCH  32  33
ENDBRANCH  31  32
ENDBRANCH   1  31
TORSDOF 18
ENDMDL
MODEL 2
REMARK VINA RESULT:     -12.1      2.392      3.038
REMARK SMILES CCSc1ccc(-c2cc(Cl)cc3c2O[C@H](C(F)(F)F)C(C(=O)NCCCCNC(=O)c2ccc(-c4c5nc(c(-c6cccc(S(=O)(=O)[O-])c6F)c6ccc([nH]6)c(-c6cccc(S(=O)(=O)[O-])c6F)c6nc(c(-c7cccc(S(=O)(=O)[O-])c7F)c7ccc4[nH]7)C=C6)C=C5)cc2)=C3)cc1
REMARK SMILES IDX 26 1 25 2 24 3 22 4 23 5 21 7 8 8 9 9 14 10 10 11 13 12
REMARK SMILES IDX 15 13 11 14 12 15 95 16 16 17 7 18 4 19 5 20 97 21 6 22
REMARK SMILES IDX 96 23 3 24 2 25 1 26 17 27 18 28 19 29 20 30 27 31 28 32
REMARK SMILES IDX 29 33 30 34 31 36 32 37 33 38 94 39 34 40 93 41 35 42 36 43
REMARK SMILES IDX 37 44 87 45 38 46 92 47 86 48 88 49 39 50 91 51 85 52 84 53
REMARK SMILES IDX 40 55 72 56 52 57 71 58 53 59 56 60 70 61 89 62 54 63 55 64
REMARK SMILES IDX 69 66 90 67 57 68 41 69 42 70 50 71 43 72 45 73 51 74 44 75
REMARK SMILES IDX 46 76 47 77 48 78 49 79 73 80 74 81 82 82 75 83 77 84 83 85
REMARK SMILES IDX 76 86 78 87 79 88 80 89 81 90 58 91 59 92 67 93 60 94 62 95
REMARK SMILES IDX 68 96 61 97 63 98 64 99 65 100 66 101
REMARK H PARENT 24 6 29 35 88 54 56 65
REMARK Flexibility Score: inf
ROOT
ATOM      1  C   UNL A   1      31.167  29.597  24.688  1.00  0.00     0.023 C 
ENDROOT
BRANCH   1   2
ATOM      2  C   UNL A   1      30.055  29.168  23.724  1.00  0.00     0.116 C 
BRANCH   2   3
ATOM      3  N   UNL A   1      29.535  27.878  24.120  1.00  0.00    -0.352 N 
ATOM      4  C   UNL A   1      30.152  26.675  24.112  1.00  0.00     0.251 C 
ATOM      5  O   UNL A   1      29.484  25.663  23.930  1.00  0.00    -0.270 OA
ATOM      6  H   UNL A   1      28.604  27.875  24.440  1.00  0.00     0.163 HD
BRANCH   4   7
ATOM      7  C   UNL A   1      31.620  26.625  24.396  1.00  0.00     0.067 C 
ATOM      8  C   UNL A   1      31.899  22.594  24.775  1.00  0.00     0.026 A 
ATOM      9  C   UNL A   1      30.880  22.161  25.663  1.00  0.00     0.033 A 
ATOM     10  C   UNL A   1      32.169  23.969  24.754  1.00  0.00     0.135 A 
ATOM     11  C   UNL A   1      30.260  23.019  26.569  1.00  0.00     0.042 A 
ATOM     12  C   UNL A   1      31.605  24.807  25.749  1.00  0.00     0.019 A 
ATOM     13  O   UNL A   1      32.936  24.561  23.762  1.00  0.00    -0.475 OA
ATOM     14  Cl  UNL A   1      29.014  22.421  27.590  1.00  0.00    -0.084 Cl
ATOM     15  C   UNL A   1      30.663  24.337  26.662  1.00  0.00     0.032 A 
ATOM     16  C   UNL A   1      31.885  26.257  25.667  1.00  0.00     0.025 C 
ATOM     17  C   UNL A   1      32.414  25.884  23.323  1.00  0.00     0.314 C 
BRANCH   8  18
ATOM     18  C   UNL A   1      32.678  21.505  24.134  1.00  0.00    -0.015 A 
ATOM     19  C   UNL A   1      33.428  18.787  23.807  1.00  0.00     0.007 A 
ATOM     20  C   UNL A   1      32.430  19.345  23.011  1.00  0.00     0.015 A 
ATOM     21  C   UNL A   1      34.149  19.632  24.659  1.00  0.00     0.015 A 
ATOM     22  C   UNL A   1      32.082  20.697  23.147  1.00  0.00     0.010 A 
ATOM     23  C   UNL A   1      33.791  20.981  24.809  1.00  0.00     0.010 A 
BRANCH  19  24
ATOM     24  S   UNL A   1      33.634  17.020  24.007  1.00  0.00    -0.126 SA
BRANCH  24  25
ATOM     25  C   UNL A   1      33.016  16.700  25.689  1.00  0.00     0.071 C 
ATOM     26  C   UNL A   1      32.162  15.448  25.793  1.00  0.00     0.016 C 
ENDBRANCH  24  25
ENDBRANCH  19  24
ENDBRANCH   8  18
BRANCH  17  27
ATOM     27  C   UNL A   1      33.557  26.796  22.827  1.00  0.00     0.429 C 
ATOM     28  F   UNL A   1      33.125  28.027  22.471  1.00  0.00    -0.167 F 
ATOM     29  F   UNL A   1      34.506  26.958  23.781  1.00  0.00    -0.167 F 
ATOM     30  F   UNL A   1      34.197  26.286  21.741  1.00  0.00    -0.167 F 
ENDBRANCH  17  27
ENDBRANCH   4   7
ENDBRANCH   2   3
ENDBRANCH   1   2
BRANCH   1  31
ATOM     31  C   UNL A   1      30.930  30.934  25.405  1.00  0.00     0.023 C 
BRANCH  31  32
ATOM     32  C   UNL A   1      31.955  31.277  26.481  1.00  0.00     0.116 C 
BRANCH  32  33
ATOM     33  N   UNL A   1      31.916  32.687  26.838  1.00  0.00    -0.352 N 
ATOM     34  C   UNL A   1      32.788  33.407  27.619  1.00  0.00     0.251 C 
ATOM     35  H   UNL A   1      31.159  33.198  26.469  1.00  0.00     0.163 HD
ATOM     36  O   UNL A   1      32.496  34.547  27.976  1.00  0.00    -0.269 OA
BRANCH  34  37
ATOM     37  C   UNL A   1      34.064  32.796  28.050  1.00  0.00     0.039 A 
ATOM     38  C   UNL A   1      35.232  33.562  28.003  1.00  0.00     0.014 A 
ATOM     39  C   UNL A   1      34.102  31.482  28.523  1.00  0.00     0.014 A 
ATOM     40  C   UNL A   1      36.422  33.038  28.514  1.00  0.00     0.010 A 
ATOM     41  C   UNL A   1      35.275  30.987  29.090  1.00  0.00     0.010 A 
ATOM     42  C   UNL A   1      36.442  31.764  29.107  1.00  0.00    -0.014 A 
BRANCH  42  43
ATOM     43  C   UNL A   1      37.648  31.257  29.814  1.00  0.00     0.031 A 
ATOM     44  C   UNL A   1      38.502  30.180  29.201  1.00  0.00     0.074 A 
ATOM     45  C   UNL A   1      37.898  31.679  31.071  1.00  0.00     0.049 A 
ATOM     46  N   UNL A   1      39.528  29.555  29.715  1.00  0.00    -0.248 NA
ATOM     47  C   UNL A   1      38.144  29.732  27.846  1.00  0.00     0.031 C 
ATOM     48  C   UNL A   1      37.091  32.652  31.811  1.00  0.00     0.029 A 
ATOM     49  N   UNL A   1      38.873  31.311  31.967  1.00  0.00    -0.354 N 
ATOM     50  C   UNL A   1      39.911  28.609  28.772  1.00  0.00     0.074 A 
ATOM     51  C   UNL A   1      39.000  28.737  27.655  1.00  0.00     0.031 C 
ATOM     52  C   UNL A   1      37.591  32.790  33.049  1.00  0.00     0.029 A 
ATOM     53  C   UNL A   1      38.730  31.892  33.206  1.00  0.00     0.049 A 
ATOM     54  H   UNL A   1      39.604  30.690  31.743  1.00  0.00     0.167 HD
ATOM     55  C   UNL A   1      40.939  27.730  28.824  1.00  0.00     0.034 A 
ATOM     56  C   UNL A   1      39.416  31.704  34.351  1.00  0.00     0.034 A 
ATOM     57  C   UNL A   1      41.874  27.642  29.913  1.00  0.00     0.049 A 
ATOM     58  C   UNL A   1      40.575  30.744  34.364  1.00  0.00     0.074 A 
ATOM     59  C   UNL A   1      43.028  26.881  29.992  1.00  0.00     0.029 A 
ATOM     60  N   UNL A   1      41.754  28.314  31.118  1.00  0.00    -0.354 N 
ATOM     61  N   UNL A   1      41.049  30.014  33.385  1.00  0.00    -0.248 NA
ATOM     62  C   UNL A   1      41.310  30.602  35.630  1.00  0.00     0.031 C 
ATOM     63  C   UNL A   1      43.585  27.064  31.262  1.00  0.00     0.029 A 
ATOM     64  C   UNL A   1      42.793  27.959  31.961  1.00  0.00     0.049 A 
ATOM     65  H   UNL A   1      41.036  28.948  31.343  1.00  0.00     0.167 HD
ATOM     66  C   UNL A   1      42.149  29.342  33.910  1.00  0.00     0.074 A 
ATOM     67  C   UNL A   1      42.290  29.778  35.283  1.00  0.00     0.031 C 
ATOM     68  C   UNL A   1      42.954  28.431  33.313  1.00  0.00     0.034 A 
BRANCH  55  69
ATOM     69  C   UNL A   1      41.149  26.811  27.650  1.00  0.00     0.023 A 
ATOM     70  C   UNL A   1      41.871  27.266  26.529  1.00  0.00     0.012 A 
ATOM     71  C   UNL A   1      40.725  25.468  27.703  1.00  0.00     0.148 A 
ATOM     72  C   UNL A   1      42.151  26.405  25.469  1.00  0.00     0.002 A 
ATOM     73  C   UNL A   1      41.043  24.605  26.662  1.00  0.00     0.091 A 
ATOM     74  F   UNL A   1      40.024  25.062  28.773  1.00  0.00    -0.205 F 
ATOM     75  C   UNL A   1      41.748  25.073  25.541  1.00  0.00     0.022 A 
BRANCH  73  76
ATOM     76  S   UNL A   1      40.640  22.854  26.693  1.00  0.00     0.127 S 
ATOM     77  O   UNL A   1      39.246  22.866  26.252  1.00  0.00    -0.237 OA
ATOM     78  O   UNL A   1      41.583  22.306  25.717  1.00  0.00    -0.237 OA
ATOM     79  O   UNL A   1      40.855  22.415  28.063  1.00  0.00    -0.744 OA
ENDBRANCH  73  76
ENDBRANCH  55  69
BRANCH  56  80
ATOM     80  C   UNL A   1      39.040  32.460  35.581  1.00  0.00     0.023 A 
ATOM     81  C   UNL A   1      38.163  31.876  36.515  1.00  0.00     0.012 A 
ATOM     82  C   UNL A   1      39.558  33.744  35.835  1.00  0.00     0.148 A 
ATOM     83  C   UNL A   1      37.781  32.573  37.662  1.00  0.00     0.002 A 
ATOM     84  C   UNL A   1      39.220  34.409  37.008  1.00  0.00     0.091 A 
ATOM     85  F   UNL A   1      40.377  34.292  34.926  1.00  0.00    -0.205 F 
ATOM     86  C   UNL A   1      38.317  33.833  37.914  1.00  0.00     0.022 A 
BRANCH  84  87
ATOM     87  S   UNL A   1      39.975  35.970  37.474  1.00  0.00     0.127 S 
ATOM     88  O   UNL A   1      39.785  36.767  36.265  1.00  0.00    -0.237 OA
ATOM     89  O   UNL A   1      39.156  36.376  38.617  1.00  0.00    -0.237 OA
ATOM     90  O   UNL A   1      41.354  35.647  37.817  1.00  0.00    -0.744 OA
ENDBRANCH  84  87
ENDBRANCH  56  80
BRANCH  68  91
ATOM     91  C   UNL A   1      44.073  27.840  34.129  1.00  0.00     0.023 A 
ATOM     92  C   UNL A   1      45.319  28.495  34.178  1.00  0.00     0.012 A 
ATOM     93  C   UNL A   1      43.865  26.689  34.915  1.00  0.00     0.148 A 
ATOM     94  C   UNL A   1      46.349  28.003  34.978  1.00  0.00     0.002 A 
ATOM     95  C   UNL A   1      44.880  26.231  35.747  1.00  0.00     0.091 A 
ATOM     96  F   UNL A   1      42.676  26.072  34.843  1.00  0.00    -0.205 F 
ATOM     97  C   UNL A   1      46.125  26.880  35.772  1.00  0.00     0.022 A 
BRANCH  95  98
ATOM     98  S   UNL A   1      44.658  24.850  36.875  1.00  0.00     0.127 S 
ATOM     99  O   UNL A   1      43.465  25.258  37.615  1.00  0.00    -0.237 OA
ATOM    100  O   UNL A   1      44.452  23.731  35.954  1.00  0.00    -0.237 OA
ATOM    101  O   UNL A   1      45.880  24.771  37.663  1.00  0.00    -0.744 OA
ENDBRANCH  95  98
ENDBRANCH  68  91
ENDBRANCH  42  43
ENDBRANCH  34  37
ENDBRANCH  32  33
ENDBRANCH  31  32
ENDBRANCH   1  31
TORSDOF 18
ENDMDL
MODEL 3
REMARK VINA RESULT:     -12.0      6.453     11.443
REMARK SMILES CCSc1ccc(-c2cc(Cl)cc3c2O[C@H](C(F)(F)F)C(C(=O)NCCCCNC(=O)c2ccc(-c4c5nc(c(-c6cccc(S(=O)(=O)[O-])c6F)c6ccc([nH]6)c(-c6cccc(S(=O)(=O)[O-])c6F)c6nc(c(-c7cccc(S(=O)(=O)[O-])c7F)c7ccc4[nH]7)C=C6)C=C5)cc2)=C3)cc1
REMARK SMILES IDX 26 1 25 2 24 3 22 4 23 5 21 7 8 8 9 9 14 10 10 11 13 12
REMARK SMILES IDX 15 13 11 14 12 15 95 16 16 17 7 18 4 19 5 20 97 21 6 22
REMARK SMILES IDX 96 23 3 24 2 25 1 26 17 27 18 28 19 29 20 30 27 31 28 32
REMARK SMILES IDX 29 33 30 34 31 36 32 37 33 38 94 39 34 40 93 41 35 42 36 43
REMARK SMILES IDX 37 44 87 45 38 46 92 47 86 48 88 49 39 50 91 51 85 52 84 53
REMARK SMILES IDX 40 55 72 56 52 57 71 58 53 59 56 60 70 61 89 62 54 63 55 64
REMARK SMILES IDX 69 66 90 67 57 68 41 69 42 70 50 71 43 72 45 73 51 74 44 75
REMARK SMILES IDX 46 76 47 77 48 78 49 79 73 80 74 81 82 82 75 83 77 84 83 85
REMARK SMILES IDX 76 86 78 87 79 88 80 89 81 90 58 91 59 92 67 93 60 94 62 95
REMARK SMILES IDX 68 96 61 97 63 98 64 99 65 100 66 101
REMARK H PARENT 24 6 29 35 88 54 56 65
REMARK Flexibility Score: inf
ROOT
ATOM      1  C   UNL A   1      36.455  20.962  25.478  1.00  0.00     0.023 C 
ENDROOT
BRANCH   1   2
ATOM      2  C   UNL A   1      35.821  21.910  24.453  1.00  0.00     0.116 C 
BRANCH   2   3
ATOM      3  N   UNL A   1      35.631  23.215  25.048  1.00  0.00    -0.352 N 
ATOM      4  C   UNL A   1      34.581  24.058  24.928  1.00  0.00     0.251 C 
ATOM      5  O   UNL A   1      34.776  25.267  24.997  1.00  0.00    -0.270 OA
ATOM      6  H   UNL A   1      36.368  23.533  25.619  1.00  0.00     0.163 HD
BRANCH   4   7
ATOM      7  C   UNL A   1      33.211  23.474  24.786  1.00  0.00     0.067 C 
ATOM      8  C   UNL A   1      31.231  26.992  24.362  1.00  0.00     0.026 A 
ATOM      9  C   UNL A   1      31.645  27.861  25.406  1.00  0.00     0.033 A 
ATOM     10  C   UNL A   1      31.559  25.637  24.509  1.00  0.00     0.135 A 
ATOM     11  C   UNL A   1      32.228  27.397  26.583  1.00  0.00     0.042 A 
ATOM     12  C   UNL A   1      32.058  25.170  25.751  1.00  0.00     0.019 A 
ATOM     13  O   UNL A   1      31.459  24.731  23.465  1.00  0.00    -0.475 OA
ATOM     14  Cl  UNL A   1      32.727  28.518  27.785  1.00  0.00    -0.084 Cl
ATOM     15  C   UNL A   1      32.382  26.039  26.791  1.00  0.00     0.032 A 
ATOM     16  C   UNL A   1      32.426  23.740  25.851  1.00  0.00     0.025 C 
ATOM     17  C   UNL A   1      32.579  23.751  23.424  1.00  0.00     0.314 C 
BRANCH   8  18
ATOM     18  C   UNL A   1      30.333  27.606  23.352  1.00  0.00    -0.015 A 
ATOM     19  C   UNL A   1      28.547  29.617  22.447  1.00  0.00     0.007 A 
ATOM     20  C   UNL A   1      29.907  29.694  22.151  1.00  0.00     0.015 A 
ATOM     21  C   UNL A   1      28.066  28.457  23.066  1.00  0.00     0.015 A 
ATOM     22  C   UNL A   1      30.786  28.684  22.568  1.00  0.00     0.010 A 
ATOM     23  C   UNL A   1      28.946  27.453  23.499  1.00  0.00     0.010 A 
BRANCH  19  24
ATOM     24  S   UNL A   1      27.450  31.029  22.342  1.00  0.00    -0.126 SA
BRANCH  24  25
ATOM     25  C   UNL A   1      28.395  32.239  21.366  1.00  0.00     0.071 C 
ATOM     26  C   UNL A   1      28.039  32.235  19.888  1.00  0.00     0.016 C 
ENDBRANCH  24  25
ENDBRANCH  19  24
ENDBRANCH   8  18
BRANCH  17  27
ATOM     27  C   UNL A   1      32.125  22.414  22.801  1.00  0.00     0.429 C 
ATOM     28  F   UNL A   1      32.488  21.342  23.543  1.00  0.00    -0.167 F 
ATOM     29  F   UNL A   1      30.778  22.370  22.657  1.00  0.00    -0.167 F 
ATOM     30  F   UNL A   1      32.643  22.213  21.560  1.00  0.00    -0.167 F 
ENDBRANCH  17  27
ENDBRANCH   4   7
ENDBRANCH   2   3
ENDBRANCH   1   2
BRANCH   1  31
ATOM     31  C   UNL A   1      37.708  20.220  24.992  1.00  0.00     0.023 C 
BRANCH  31  32
ATOM     32  C   UNL A   1      39.001  20.610  25.701  1.00  0.00     0.116 C 
BRANCH  32  33
ATOM     33  N   UNL A   1      39.918  19.485  25.818  1.00  0.00    -0.352 N 
ATOM     34  C   UNL A   1      41.272  19.492  26.049  1.00  0.00     0.251 C 
ATOM     35  H   UNL A   1      39.510  18.594  25.717  1.00  0.00     0.163 HD
ATOM     36  O   UNL A   1      41.922  18.456  25.923  1.00  0.00    -0.269 OA
BRANCH  34  37
ATOM     37  C   UNL A   1      41.947  20.754  26.421  1.00  0.00     0.039 A 
ATOM     38  C   UNL A   1      42.339  21.637  25.412  1.00  0.00     0.014 A 
ATOM     39  C   UNL A   1      42.171  21.074  27.763  1.00  0.00     0.014 A 
ATOM     40  C   UNL A   1      42.874  22.882  25.752  1.00  0.00     0.010 A 
ATOM     41  C   UNL A   1      42.645  22.341  28.100  1.00  0.00     0.010 A 
ATOM     42  C   UNL A   1      42.986  23.264  27.100  1.00  0.00    -0.014 A 
BRANCH  42  43
ATOM     43  C   UNL A   1      43.384  24.643  27.484  1.00  0.00     0.031 A 
ATOM     44  C   UNL A   1      42.375  25.607  28.046  1.00  0.00     0.074 A 
ATOM     45  C   UNL A   1      44.635  25.067  27.204  1.00  0.00     0.049 A 
ATOM     46  N   UNL A   1      42.523  26.871  28.343  1.00  0.00    -0.248 NA
ATOM     47  C   UNL A   1      41.016  25.091  28.281  1.00  0.00     0.031 C 
ATOM     48  C   UNL A   1      45.681  24.256  26.576  1.00  0.00     0.029 A 
ATOM     49  N   UNL A   1      45.225  26.297  27.368  1.00  0.00    -0.354 N 
ATOM     50  C   UNL A   1      41.274  27.316  28.755  1.00  0.00     0.074 A 
ATOM     51  C   UNL A   1      40.373  26.188  28.662  1.00  0.00     0.031 C 
ATOM     52  C   UNL A   1      46.774  25.013  26.392  1.00  0.00     0.029 A 
ATOM     53  C   UNL A   1      46.500  26.369  26.853  1.00  0.00     0.049 A 
ATOM     54  H   UNL A   1      44.780  27.055  27.811  1.00  0.00     0.167 HD
ATOM     55  C   UNL A   1      40.915  28.547  29.191  1.00  0.00     0.034 A 
ATOM     56  C   UNL A   1      47.345  27.413  26.736  1.00  0.00     0.034 A 
ATOM     57  C   UNL A   1      41.824  29.652  29.332  1.00  0.00     0.049 A 
ATOM     58  C   UNL A   1      46.927  28.759  27.262  1.00  0.00     0.074 A 
ATOM     59  C   UNL A   1      41.583  30.893  29.897  1.00  0.00     0.029 A 
ATOM     60  N   UNL A   1      43.135  29.663  28.887  1.00  0.00    -0.354 N 
ATOM     61  N   UNL A   1      45.804  29.102  27.845  1.00  0.00    -0.248 NA
ATOM     62  C   UNL A   1      47.899  29.856  27.139  1.00  0.00     0.031 C 
ATOM     63  C   UNL A   1      42.739  31.668  29.758  1.00  0.00     0.029 A 
ATOM     64  C   UNL A   1      43.707  30.900  29.132  1.00  0.00     0.049 A 
ATOM     65  H   UNL A   1      43.593  28.903  28.459  1.00  0.00     0.167 HD
ATOM     66  C   UNL A   1      45.944  30.446  28.177  1.00  0.00     0.074 A 
ATOM     67  C   UNL A   1      47.271  30.845  27.759  1.00  0.00     0.031 C 
ATOM     68  C   UNL A   1      45.044  31.278  28.755  1.00  0.00     0.034 A 
BRANCH  55  69
ATOM     69  C   UNL A   1      39.482  28.768  29.596  1.00  0.00     0.023 A 
ATOM     70  C   UNL A   1      39.052  28.379  30.880  1.00  0.00     0.012 A 
ATOM     71  C   UNL A   1      38.592  29.456  28.746  1.00  0.00     0.148 A 
ATOM     72  C   UNL A   1      37.753  28.652  31.306  1.00  0.00     0.002 A 
ATOM     73  C   UNL A   1      37.312  29.762  29.193  1.00  0.00     0.091 A 
ATOM     74  F   UNL A   1      39.017  29.801  27.522  1.00  0.00    -0.205 F 
ATOM     75  C   UNL A   1      36.889  29.353  30.468  1.00  0.00     0.022 A 
BRANCH  73  76
ATOM     76  S   UNL A   1      36.149  30.728  28.223  1.00  0.00     0.127 S 
ATOM     77  O   UNL A   1      35.804  29.789  27.157  1.00  0.00    -0.237 OA
ATOM     78  O   UNL A   1      35.077  30.975  29.188  1.00  0.00    -0.237 OA
ATOM     79  O   UNL A   1      36.871  31.917  27.795  1.00  0.00    -0.744 OA
ENDBRANCH  73  76
ENDBRANCH  55  69
BRANCH  56  80
ATOM     80  C   UNL A   1      48.686  27.223  26.112  1.00  0.00     0.023 A 
ATOM     81  C   UNL A   1      49.758  26.756  26.897  1.00  0.00     0.012 A 
ATOM     82  C   UNL A   1      48.900  27.487  24.746  1.00  0.00     0.148 A 
ATOM     83  C   UNL A   1      51.027  26.591  26.340  1.00  0.00     0.002 A 
ATOM     84  C   UNL A   1      50.152  27.263  24.184  1.00  0.00     0.091 A 
ATOM     85  F   UNL A   1      47.873  27.947  24.018  1.00  0.00    -0.205 F 
ATOM     86  C   UNL A   1      51.222  26.834  24.983  1.00  0.00     0.022 A 
BRANCH  84  87
ATOM     87  S   UNL A   1      50.448  27.416  22.420  1.00  0.00     0.127 S 
ATOM     88  O   UNL A   1      49.404  26.559  21.865  1.00  0.00    -0.237 OA
ATOM     89  O   UNL A   1      50.251  28.850  22.201  1.00  0.00    -0.237 OA
ATOM     90  O   UNL A   1      51.819  26.967  22.216  1.00  0.00    -0.744 OA
ENDBRANCH  84  87
ENDBRANCH  56  80
BRANCH  68  91
ATOM     91  C   UNL A   1      45.455  32.708  28.985  1.00  0.00     0.023 A 
ATOM     92  C   UNL A   1      46.137  33.053  30.169  1.00  0.00     0.012 A 
ATOM     93  C   UNL A   1      45.248  33.689  27.994  1.00  0.00     0.148 A 
ATOM     94  C   UNL A   1      46.585  34.357  30.375  1.00  0.00     0.002 A 
ATOM     95  C   UNL A   1      45.740  34.974  28.185  1.00  0.00     0.091 A 
ATOM     96  F   UNL A   1      44.585  33.342  26.882  1.00  0.00    -0.205 F 
ATOM     97  C   UNL A   1      46.399  35.313  29.379  1.00  0.00     0.022 A 
BRANCH  95  98
ATOM     98  S   UNL A   1      45.632  36.249  26.924  1.00  0.00     0.127 S 
ATOM     99  O   UNL A   1      44.186  36.432  26.809  1.00  0.00    -0.237 OA
ATOM    100  O   UNL A   1      46.340  37.365  27.553  1.00  0.00    -0.237 OA
ATOM    101  O   UNL A   1      46.285  35.705  25.741  1.00  0.00    -0.744 OA
ENDBRANCH  95  98
ENDBRANCH  68  91
ENDBRANCH  42  43
ENDBRANCH  34  37
ENDBRANCH  32  33
ENDBRANCH  31  32
ENDBRANCH   1  31
TORSDOF 18
ENDMDL
