MODEL 1
REMARK VINA RESULT:     -12.5      0.000      0.000
REMARK SMILES CC(C)Nc1ncc(C(=O)N2CCC[C@H](c3cccc(C(=O)NCCCCNC(=O)c4ccc(-c5c6nc(c(-c7cccc(S(=O)(=O)[O-])c7F)c7ccc([nH]7)c(-c7cccc(S(=O)(=O)[O-])c7F)c7nc(c(-c8cccc(S(=O)(=O)[O-])c8F)c8ccc5[nH]8)C=C7)C=C6)cc4)c3)C2)cn1
REMARK SMILES IDX 24 1 23 2 21 3 22 4 20 6 16 7 17 8 94 9 18 10 19 11 15 12
REMARK SMILES IDX 11 13 12 14 95 15 13 16 14 17 9 18 10 19 8 20 5 21 6 22
REMARK SMILES IDX 97 23 7 24 96 25 4 26 2 28 1 29 3 30 25 31 26 32 27 33 28 34
REMARK SMILES IDX 29 35 30 37 31 38 32 39 93 40 33 41 92 42 34 43 35 44 36 45
REMARK SMILES IDX 86 46 37 47 91 48 85 49 87 50 38 51 90 52 84 53 83 54 39 56
REMARK SMILES IDX 71 57 51 58 70 59 52 60 55 61 69 62 88 63 53 64 54 65 68 67
REMARK SMILES IDX 89 68 56 69 40 70 41 71 49 72 42 73 44 74 50 75 43 76 45 77
REMARK SMILES IDX 46 78 47 79 48 80 72 81 73 82 81 83 74 84 76 85 82 86 75 87
REMARK SMILES IDX 77 88 78 89 79 90 80 91 57 92 58 93 66 94 59 95 61 96 67 97
REMARK SMILES IDX 60 98 62 99 63 100 64 101 65 102
REMARK H PARENT 23 5 4 27 28 36 87 55 55 66
REMARK Flexibility Score: inf
ROOT
ATOM      1  C   UNL A   1      34.341  29.199  27.181  1.00  0.00     0.116 C 
ENDROOT
BRANCH   1   2
ATOM      2  N   UNL A   1      34.237  29.041  25.738  1.00  0.00    -0.352 N 
ATOM      3  C   UNL A   1      33.853  27.958  24.972  1.00  0.00     0.251 C 
ATOM      4  O   UNL A   1      33.835  28.060  23.748  1.00  0.00    -0.269 OA
ATOM      5  H   UNL A   1      34.481  29.842  25.220  1.00  0.00     0.163 HD
BRANCH   3   6
ATOM      6  C   UNL A   1      33.524  26.647  25.592  1.00  0.00     0.040 A 
ATOM      7  C   UNL A   1      34.038  24.272  25.908  1.00  0.00    -0.042 A 
ATOM      8  C   UNL A   1      32.740  24.102  26.415  1.00  0.00     0.004 A 
ATOM      9  C   UNL A   1      34.432  25.585  25.599  1.00  0.00     0.018 A 
ATOM     10  C   UNL A   1      31.873  25.192  26.568  1.00  0.00     0.001 A 
ATOM     11  C   UNL A   1      32.253  26.459  26.131  1.00  0.00     0.014 A 
BRANCH   7  12
ATOM     12  C   UNL A   1      34.937  23.096  25.502  1.00  0.00     0.039 C 
ATOM     13  N   UNL A   1      33.489  21.785  23.955  1.00  0.00    -0.338 N 
ATOM     14  C   UNL A   1      33.288  20.716  24.931  1.00  0.00     0.120 C 
ATOM     15  C   UNL A   1      34.737  22.549  24.070  1.00  0.00     0.128 C 
ATOM     16  C   UNL A   1      33.558  21.159  26.363  1.00  0.00     0.022 C 
ATOM     17  C   UNL A   1      34.898  21.883  26.461  1.00  0.00     0.012 C 
BRANCH  13  18
ATOM     18  C   UNL A   1      32.512  22.009  22.995  1.00  0.00     0.257 C 
ATOM     19  O   UNL A   1      31.971  21.115  22.350  1.00  0.00    -0.269 OA
BRANCH  18  20
ATOM     20  C   UNL A   1      32.179  23.390  22.631  1.00  0.00     0.076 A 
ATOM     21  C   UNL A   1      31.706  26.039  22.228  1.00  0.00     0.222 A 
ATOM     22  N   UNL A   1      30.837  25.349  22.983  1.00  0.00    -0.221 NA
ATOM     23  N   UNL A   1      32.791  25.496  21.654  1.00  0.00    -0.221 NA
ATOM     24  C   UNL A   1      31.095  24.039  23.173  1.00  0.00     0.130 A 
ATOM     25  C   UNL A   1      33.022  24.181  21.891  1.00  0.00     0.130 A 
BRANCH  21  26
ATOM     26  N   UNL A   1      31.416  27.363  22.089  1.00  0.00    -0.352 N 
ATOM     27  H   UNL A   1      32.077  27.934  21.636  1.00  0.00     0.163 HD
BRANCH  26  28
ATOM     28  C   UNL A   1      30.203  27.981  22.563  1.00  0.00     0.076 C 
ATOM     29  C   UNL A   1      30.251  27.997  24.091  1.00  0.00     0.030 C 
ATOM     30  C   UNL A   1      30.096  29.403  22.019  1.00  0.00     0.030 C 
ENDBRANCH  26  28
ENDBRANCH  21  26
ENDBRANCH  18  20
ENDBRANCH  13  18
ENDBRANCH   7  12
ENDBRANCH   3   6
ENDBRANCH   1   2
BRANCH   1  31
ATOM     31  C   UNL A   1      35.284  30.298  27.647  1.00  0.00     0.023 C 
BRANCH  31  32
ATOM     32  C   UNL A   1      34.762  31.724  27.553  1.00  0.00     0.023 C 
BRANCH  32  33
ATOM     33  C   UNL A   1      33.262  31.905  27.748  1.00  0.00     0.116 C 
BRANCH  33  34
ATOM     34  N   UNL A   1      32.827  33.295  27.794  1.00  0.00    -0.352 N 
ATOM     35  C   UNL A   1      33.327  34.336  28.548  1.00  0.00     0.251 C 
ATOM     36  H   UNL A   1      32.071  33.523  27.204  1.00  0.00     0.163 HD
ATOM     37  O   UNL A   1      32.808  35.444  28.499  1.00  0.00    -0.269 OA
BRANCH  35  38
ATOM     38  C   UNL A   1      34.466  34.082  29.457  1.00  0.00     0.039 A 
ATOM     39  C   UNL A   1      34.248  33.343  30.623  1.00  0.00     0.014 A 
ATOM     40  C   UNL A   1      35.755  34.485  29.105  1.00  0.00     0.014 A 
ATOM     41  C   UNL A   1      35.341  32.912  31.380  1.00  0.00     0.010 A 
ATOM     42  C   UNL A   1      36.843  33.987  29.814  1.00  0.00     0.010 A 
ATOM     43  C   UNL A   1      36.649  33.181  30.946  1.00  0.00    -0.014 A 
BRANCH  43  44
ATOM     44  C   UNL A   1      37.835  32.590  31.620  1.00  0.00     0.031 A 
ATOM     45  C   UNL A   1      38.579  31.452  30.977  1.00  0.00     0.074 A 
ATOM     46  C   UNL A   1      38.153  32.980  32.872  1.00  0.00     0.049 A 
ATOM     47  N   UNL A   1      39.547  30.721  31.464  1.00  0.00    -0.248 NA
ATOM     48  C   UNL A   1      38.152  31.061  29.624  1.00  0.00     0.031 C 
ATOM     49  C   UNL A   1      37.447  34.004  33.646  1.00  0.00     0.029 A 
ATOM     50  N   UNL A   1      39.126  32.530  33.731  1.00  0.00    -0.354 N 
ATOM     51  C   UNL A   1      39.807  29.752  30.504  1.00  0.00     0.074 A 
ATOM     52  C   UNL A   1      38.880  29.973  29.416  1.00  0.00     0.031 C 
ATOM     53  C   UNL A   1      38.004  34.100  34.864  1.00  0.00     0.029 A 
ATOM     54  C   UNL A   1      39.087  33.129  34.970  1.00  0.00     0.049 A 
ATOM     55  H   UNL A   1      39.788  31.845  33.484  1.00  0.00     0.167 HD
ATOM     56  C   UNL A   1      40.751  28.780  30.513  1.00  0.00     0.034 A 
ATOM     57  C   UNL A   1      39.834  32.913  36.072  1.00  0.00     0.034 A 
ATOM     58  C   UNL A   1      41.719  28.608  31.561  1.00  0.00     0.049 A 
ATOM     59  C   UNL A   1      40.936  31.890  36.022  1.00  0.00     0.074 A 
ATOM     60  C   UNL A   1      42.789  27.734  31.609  1.00  0.00     0.029 A 
ATOM     61  N   UNL A   1      41.736  29.326  32.747  1.00  0.00    -0.354 N 
ATOM     62  N   UNL A   1      41.282  31.102  35.033  1.00  0.00    -0.248 NA
ATOM     63  C   UNL A   1      41.775  31.753  37.221  1.00  0.00     0.031 C 
ATOM     64  C   UNL A   1      43.452  27.920  32.826  1.00  0.00     0.029 A 
ATOM     65  C   UNL A   1      42.798  28.916  33.534  1.00  0.00     0.049 A 
ATOM     66  H   UNL A   1      41.088  30.026  32.993  1.00  0.00     0.167 HD
ATOM     67  C   UNL A   1      42.397  30.400  35.477  1.00  0.00     0.074 A 
ATOM     68  C   UNL A   1      42.680  30.870  36.818  1.00  0.00     0.031 C 
ATOM     69  C   UNL A   1      43.109  29.440  34.838  1.00  0.00     0.034 A 
BRANCH  56  70
ATOM     70  C   UNL A   1      40.829  27.874  29.314  1.00  0.00     0.023 A 
ATOM     71  C   UNL A   1      40.034  26.709  29.277  1.00  0.00     0.012 A 
ATOM     72  C   UNL A   1      41.642  28.191  28.211  1.00  0.00     0.148 A 
ATOM     73  C   UNL A   1      40.075  25.856  28.176  1.00  0.00     0.002 A 
ATOM     74  C   UNL A   1      41.648  27.356  27.099  1.00  0.00     0.091 A 
ATOM     75  F   UNL A   1      42.412  29.287  28.274  1.00  0.00    -0.205 F 
ATOM     76  C   UNL A   1      40.873  26.184  27.084  1.00  0.00     0.022 A 
BRANCH  74  77
ATOM     77  S   UNL A   1      42.588  27.737  25.616  1.00  0.00     0.127 S 
ATOM     78  O   UNL A   1      42.326  26.560  24.790  1.00  0.00    -0.237 OA
ATOM     79  O   UNL A   1      41.946  28.966  25.146  1.00  0.00    -0.237 OA
ATOM     80  O   UNL A   1      43.966  27.908  26.054  1.00  0.00    -0.744 OA
ENDBRANCH  74  77
ENDBRANCH  56  70
BRANCH  57  81
ATOM     81  C   UNL A   1      39.615  33.747  37.288  1.00  0.00     0.023 A 
ATOM     82  C   UNL A   1      40.100  35.069  37.309  1.00  0.00     0.012 A 
ATOM     83  C   UNL A   1      38.893  33.263  38.397  1.00  0.00     0.148 A 
ATOM     84  C   UNL A   1      39.894  35.886  38.420  1.00  0.00     0.002 A 
ATOM     85  C   UNL A   1      38.648  34.100  39.480  1.00  0.00     0.091 A 
ATOM     86  F   UNL A   1      38.451  31.999  38.364  1.00  0.00    -0.205 F 
ATOM     87  C   UNL A   1      39.160  35.406  39.500  1.00  0.00     0.022 A 
BRANCH  85  88
ATOM     88  S   UNL A   1      37.596  33.609  40.853  1.00  0.00     0.127 S 
ATOM     89  O   UNL A   1      38.449  32.658  41.558  1.00  0.00    -0.237 OA
ATOM     90  O   UNL A   1      37.386  34.881  41.547  1.00  0.00    -0.237 OA
ATOM     91  O   UNL A   1      36.393  33.058  40.242  1.00  0.00    -0.744 OA
ENDBRANCH  85  88
ENDBRANCH  57  81
BRANCH  69  92
ATOM     92  C   UNL A   1      44.291  28.848  35.558  1.00  0.00     0.023 A 
ATOM     93  C   UNL A   1      45.568  29.415  35.381  1.00  0.00     0.012 A 
ATOM     94  C   UNL A   1      44.122  27.794  36.476  1.00  0.00     0.148 A 
ATOM     95  C   UNL A   1      46.664  28.929  36.094  1.00  0.00     0.002 A 
ATOM     96  C   UNL A   1      45.209  27.343  37.214  1.00  0.00     0.091 A 
ATOM     97  F   UNL A   1      42.902  27.253  36.613  1.00  0.00    -0.205 F 
ATOM     98  C   UNL A   1      46.482  27.903  37.019  1.00  0.00     0.022 A 
BRANCH  96  99
ATOM     99  S   UNL A   1      45.044  26.090  38.491  1.00  0.00     0.127 S 
ATOM    100  O   UNL A   1      44.128  26.736  39.428  1.00  0.00    -0.237 OA
ATOM    101  O   UNL A   1      44.466  24.964  37.754  1.00  0.00    -0.237 OA
ATOM    102  O   UNL A   1      46.392  25.851  38.991  1.00  0.00    -0.744 OA
ENDBRANCH  96  99
ENDBRANCH  69  92
ENDBRANCH  43  44
ENDBRANCH  35  38
ENDBRANCH  33  34
ENDBRANCH  32  33
ENDBRANCH  31  32
ENDBRANCH   1  31
TORSDOF 19
ENDMDL
MODEL 2
REMARK VINA RESULT:     -12.3      1.506      3.357
REMARK SMILES CC(C)Nc1ncc(C(=O)N2CCC[C@H](c3cccc(C(=O)NCCCCNC(=O)c4ccc(-c5c6nc(c(-c7cccc(S(=O)(=O)[O-])c7F)c7ccc([nH]7)c(-c7cccc(S(=O)(=O)[O-])c7F)c7nc(c(-c8cccc(S(=O)(=O)[O-])c8F)c8ccc5[nH]8)C=C7)C=C6)cc4)c3)C2)cn1
REMARK SMILES IDX 24 1 23 2 21 3 22 4 20 6 16 7 17 8 94 9 18 10 19 11 15 12
REMARK SMILES IDX 11 13 12 14 95 15 13 16 14 17 9 18 10 19 8 20 5 21 6 22
REMARK SMILES IDX 97 23 7 24 96 25 4 26 2 28 1 29 3 30 25 31 26 32 27 33 28 34
REMARK SMILES IDX 29 35 30 37 31 38 32 39 93 40 33 41 92 42 34 43 35 44 36 45
REMARK SMILES IDX 86 46 37 47 91 48 85 49 87 50 38 51 90 52 84 53 83 54 39 56
REMARK SMILES IDX 71 57 51 58 70 59 52 60 55 61 69 62 88 63 53 64 54 65 68 67
REMARK SMILES IDX 89 68 56 69 40 70 41 71 49 72 42 73 44 74 50 75 43 76 45 77
REMARK SMILES IDX 46 78 47 79 48 80 72 81 73 82 81 83 74 84 76 85 82 86 75 87
REMARK SMILES IDX 77 88 78 89 79 90 80 91 57 92 58 93 66 94 59 95 61 96 67 97
REMARK SMILES IDX 60 98 62 99 63 100 64 101 65 102
REMARK H PARENT 23 5 4 27 28 36 87 55 55 66
REMARK Flexibility Score: inf
ROOT
ATOM      1  C   UNL A   1      33.987  29.264  26.745  1.00  0.00     0.116 C 
ENDROOT
BRANCH   1   2
ATOM      2  N   UNL A   1      34.262  28.794  25.395  1.00  0.00    -0.352 N 
ATOM      3  C   UNL A   1      33.588  27.892  24.596  1.00  0.00     0.251 C 
ATOM      4  O   UNL A   1      34.010  27.652  23.468  1.00  0.00    -0.269 OA
ATOM      5  H   UNL A   1      35.065  29.186  24.981  1.00  0.00     0.163 HD
BRANCH   3   6
ATOM      6  C   UNL A   1      32.398  27.153  25.095  1.00  0.00     0.040 A 
ATOM      7  C   UNL A   1      31.449  25.197  26.225  1.00  0.00    -0.042 A 
ATOM      8  C   UNL A   1      30.196  25.557  25.703  1.00  0.00     0.004 A 
ATOM      9  C   UNL A   1      32.515  26.079  25.981  1.00  0.00     0.018 A 
ATOM     10  C   UNL A   1      30.033  26.726  24.947  1.00  0.00     0.001 A 
ATOM     11  C   UNL A   1      31.138  27.508  24.618  1.00  0.00     0.014 A 
BRANCH   7  12
ATOM     12  C   UNL A   1      31.728  23.824  26.852  1.00  0.00     0.039 C 
ATOM     13  N   UNL A   1      33.583  22.928  25.451  1.00  0.00    -0.338 N 
ATOM     14  C   UNL A   1      32.714  21.954  24.793  1.00  0.00     0.120 C 
ATOM     15  C   UNL A   1      33.195  23.340  26.805  1.00  0.00     0.128 C 
ATOM     16  C   UNL A   1      31.238  22.319  24.880  1.00  0.00     0.022 C 
ATOM     17  C   UNL A   1      30.852  22.670  26.314  1.00  0.00     0.012 C 
BRANCH  13  18
ATOM     18  C   UNL A   1      34.701  23.394  24.773  1.00  0.00     0.257 C 
ATOM     19  O   UNL A   1      34.646  24.104  23.772  1.00  0.00    -0.269 OA
BRANCH  18  20
ATOM     20  C   UNL A   1      36.028  22.925  25.186  1.00  0.00     0.076 A 
ATOM     21  C   UNL A   1      38.589  22.139  25.661  1.00  0.00     0.222 A 
ATOM     22  N   UNL A   1      37.765  21.274  25.052  1.00  0.00    -0.221 NA
ATOM     23  N   UNL A   1      38.221  23.369  26.056  1.00  0.00    -0.221 NA
ATOM     24  C   UNL A   1      36.501  21.687  24.822  1.00  0.00     0.130 A 
ATOM     25  C   UNL A   1      36.948  23.749  25.785  1.00  0.00     0.130 A 
BRANCH  21  26
ATOM     26  N   UNL A   1      39.860  21.685  25.845  1.00  0.00    -0.352 N 
ATOM     27  H   UNL A   1      40.195  20.993  25.229  1.00  0.00     0.163 HD
BRANCH  26  28
ATOM     28  C   UNL A   1      40.746  22.151  26.882  1.00  0.00     0.076 C 
ATOM     29  C   UNL A   1      41.147  20.947  27.733  1.00  0.00     0.030 C 
ATOM     30  C   UNL A   1      41.979  22.799  26.260  1.00  0.00     0.030 C 
ENDBRANCH  26  28
ENDBRANCH  21  26
ENDBRANCH  18  20
ENDBRANCH  13  18
ENDBRANCH   7  12
ENDBRANCH   3   6
ENDBRANCH   1   2
BRANCH   1  31
ATOM     31  C   UNL A   1      35.028  30.206  27.329  1.00  0.00     0.023 C 
BRANCH  31  32
ATOM     32  C   UNL A   1      34.593  31.647  27.549  1.00  0.00     0.023 C 
BRANCH  32  33
ATOM     33  C   UNL A   1      33.103  31.872  27.769  1.00  0.00     0.116 C 
BRANCH  33  34
ATOM     34  N   UNL A   1      32.703  33.274  27.779  1.00  0.00    -0.352 N 
ATOM     35  C   UNL A   1      33.237  34.323  28.498  1.00  0.00     0.251 C 
ATOM     36  H   UNL A   1      31.947  33.504  27.190  1.00  0.00     0.163 HD
ATOM     37  O   UNL A   1      32.746  35.442  28.422  1.00  0.00    -0.269 OA
BRANCH  35  38
ATOM     38  C   UNL A   1      34.378  34.066  29.403  1.00  0.00     0.039 A 
ATOM     39  C   UNL A   1      34.159  33.341  30.578  1.00  0.00     0.014 A 
ATOM     40  C   UNL A   1      35.669  34.453  29.040  1.00  0.00     0.014 A 
ATOM     41  C   UNL A   1      35.252  32.906  31.332  1.00  0.00     0.010 A 
ATOM     42  C   UNL A   1      36.756  33.950  29.748  1.00  0.00     0.010 A 
ATOM     43  C   UNL A   1      36.560  33.157  30.890  1.00  0.00    -0.014 A 
BRANCH  43  44
ATOM     44  C   UNL A   1      37.744  32.561  31.563  1.00  0.00     0.031 A 
ATOM     45  C   UNL A   1      38.483  31.421  30.918  1.00  0.00     0.074 A 
ATOM     46  C   UNL A   1      38.064  32.949  32.815  1.00  0.00     0.049 A 
ATOM     47  N   UNL A   1      39.448  30.685  31.405  1.00  0.00    -0.248 NA
ATOM     48  C   UNL A   1      38.054  31.032  29.565  1.00  0.00     0.031 C 
ATOM     49  C   UNL A   1      37.362  33.975  33.590  1.00  0.00     0.029 A 
ATOM     50  N   UNL A   1      39.035  32.494  33.673  1.00  0.00    -0.354 N 
ATOM     51  C   UNL A   1      39.704  29.715  30.444  1.00  0.00     0.074 A 
ATOM     52  C   UNL A   1      38.778  29.941  29.356  1.00  0.00     0.031 C 
ATOM     53  C   UNL A   1      37.919  34.068  34.807  1.00  0.00     0.029 A 
ATOM     54  C   UNL A   1      38.999  33.091  34.913  1.00  0.00     0.049 A 
ATOM     55  H   UNL A   1      39.694  31.806  33.425  1.00  0.00     0.167 HD
ATOM     56  C   UNL A   1      40.644  28.740  30.451  1.00  0.00     0.034 A 
ATOM     57  C   UNL A   1      39.745  32.872  36.014  1.00  0.00     0.034 A 
ATOM     58  C   UNL A   1      41.611  28.563  31.500  1.00  0.00     0.049 A 
ATOM     59  C   UNL A   1      40.842  31.845  35.963  1.00  0.00     0.074 A 
ATOM     60  C   UNL A   1      42.678  27.684  31.547  1.00  0.00     0.029 A 
ATOM     61  N   UNL A   1      41.631  29.280  32.686  1.00  0.00    -0.354 N 
ATOM     62  N   UNL A   1      41.185  31.056  34.973  1.00  0.00    -0.248 NA
ATOM     63  C   UNL A   1      41.682  31.702  37.162  1.00  0.00     0.031 C 
ATOM     64  C   UNL A   1      43.341  27.867  32.764  1.00  0.00     0.029 A 
ATOM     65  C   UNL A   1      42.692  28.865  33.472  1.00  0.00     0.049 A 
ATOM     66  H   UNL A   1      40.987  29.983  32.933  1.00  0.00     0.167 HD
ATOM     67  C   UNL A   1      42.297  30.349  35.417  1.00  0.00     0.074 A 
ATOM     68  C   UNL A   1      42.583  30.816  36.758  1.00  0.00     0.031 C 
ATOM     69  C   UNL A   1      43.005  29.387  34.777  1.00  0.00     0.034 A 
BRANCH  56  70
ATOM     70  C   UNL A   1      40.718  27.834  29.252  1.00  0.00     0.023 A 
ATOM     71  C   UNL A   1      39.870  26.709  29.184  1.00  0.00     0.012 A 
ATOM     72  C   UNL A   1      41.581  28.115  28.177  1.00  0.00     0.148 A 
ATOM     73  C   UNL A   1      39.906  25.858  28.081  1.00  0.00     0.002 A 
ATOM     74  C   UNL A   1      41.584  27.284  27.063  1.00  0.00     0.091 A 
ATOM     75  F   UNL A   1      42.400  29.173  28.271  1.00  0.00    -0.205 F 
ATOM     76  C   UNL A   1      40.755  26.151  27.017  1.00  0.00     0.022 A 
BRANCH  74  77
ATOM     77  S   UNL A   1      42.589  27.624  25.613  1.00  0.00     0.127 S 
ATOM     78  O   UNL A   1      42.351  26.431  24.802  1.00  0.00    -0.237 OA
ATOM     79  O   UNL A   1      41.979  28.847  25.089  1.00  0.00    -0.237 OA
ATOM     80  O   UNL A   1      43.949  27.793  26.105  1.00  0.00    -0.744 OA
ENDBRANCH  74  77
ENDBRANCH  56  70
BRANCH  57  81
ATOM     81  C   UNL A   1      39.530  33.706  37.231  1.00  0.00     0.023 A 
ATOM     82  C   UNL A   1      40.010  35.029  37.249  1.00  0.00     0.012 A 
ATOM     83  C   UNL A   1      38.816  33.220  38.344  1.00  0.00     0.148 A 
ATOM     84  C   UNL A   1      39.807  35.847  38.361  1.00  0.00     0.002 A 
ATOM     85  C   UNL A   1      38.573  34.056  39.429  1.00  0.00     0.091 A 
ATOM     86  F   UNL A   1      38.378  31.954  38.314  1.00  0.00    -0.205 F 
ATOM     87  C   UNL A   1      39.080  35.364  39.445  1.00  0.00     0.022 A 
BRANCH  85  88
ATOM     88  S   UNL A   1      37.531  33.562  40.807  1.00  0.00     0.127 S 
ATOM     89  O   UNL A   1      38.355  32.548  41.457  1.00  0.00    -0.237 OA
ATOM     90  O   UNL A   1      37.395  34.816  41.551  1.00  0.00    -0.237 OA
ATOM     91  O   UNL A   1      36.291  33.088  40.206  1.00  0.00    -0.744 OA
ENDBRANCH  85  88
ENDBRANCH  57  81
BRANCH  69  92
ATOM     92  C   UNL A   1      44.185  28.788  35.496  1.00  0.00     0.023 A 
ATOM     93  C   UNL A   1      45.461  29.362  35.333  1.00  0.00     0.012 A 
ATOM     94  C   UNL A   1      44.013  27.723  36.400  1.00  0.00     0.148 A 
ATOM     95  C   UNL A   1      46.554  28.870  36.047  1.00  0.00     0.002 A 
ATOM     96  C   UNL A   1      45.098  27.266  37.139  1.00  0.00     0.091 A 
ATOM     97  F   UNL A   1      42.795  27.177  36.523  1.00  0.00    -0.205 F 
ATOM     98  C   UNL A   1      46.370  27.832  36.958  1.00  0.00     0.022 A 
BRANCH  96  99
ATOM     99  S   UNL A   1      44.929  25.996  38.399  1.00  0.00     0.127 S 
ATOM    100  O   UNL A   1      46.321  25.627  38.641  1.00  0.00    -0.237 OA
ATOM    101  O   UNL A   1      44.293  26.726  39.498  1.00  0.00    -0.237 OA
ATOM    102  O   UNL A   1      44.095  24.958  37.807  1.00  0.00    -0.744 OA
ENDBRANCH  96  99
ENDBRANCH  69  92
ENDBRANCH  43  44
ENDBRANCH  35  38
ENDBRANCH  33  34
ENDBRANCH  32  33
ENDBRANCH  31  32
ENDBRANCH   1  31
TORSDOF 19
ENDMDL
MODEL 3
REMARK VINA RESULT:     -11.9      5.802      9.884
REMARK SMILES CC(C)Nc1ncc(C(=O)N2CCC[C@H](c3cccc(C(=O)NCCCCNC(=O)c4ccc(-c5c6nc(c(-c7cccc(S(=O)(=O)[O-])c7F)c7ccc([nH]7)c(-c7cccc(S(=O)(=O)[O-])c7F)c7nc(c(-c8cccc(S(=O)(=O)[O-])c8F)c8ccc5[nH]8)C=C7)C=C6)cc4)c3)C2)cn1
REMARK SMILES IDX 24 1 23 2 21 3 22 4 20 6 16 7 17 8 94 9 18 10 19 11 15 12
REMARK SMILES IDX 11 13 12 14 95 15 13 16 14 17 9 18 10 19 8 20 5 21 6 22
REMARK SMILES IDX 97 23 7 24 96 25 4 26 2 28 1 29 3 30 25 31 26 32 27 33 28 34
REMARK SMILES IDX 29 35 30 37 31 38 32 39 93 40 33 41 92 42 34 43 35 44 36 45
REMARK SMILES IDX 86 46 37 47 91 48 85 49 87 50 38 51 90 52 84 53 83 54 39 56
REMARK SMILES IDX 71 57 51 58 70 59 52 60 55 61 69 62 88 63 53 64 54 65 68 67
REMARK SMILES IDX 89 68 56 69 40 70 41 71 49 72 42 73 44 74 50 75 43 76 45 77
REMARK SMILES IDX 46 78 47 79 48 80 72 81 73 82 81 83 74 84 76 85 82 86 75 87
REMARK SMILES IDX 77 88 78 89 79 90 80 91 57 92 58 93 66 94 59 95 61 96 67 97
REMARK SMILES IDX 60 98 62 99 63 100 64 101 65 102
REMARK H PARENT 23 5 4 27 28 36 87 55 55 66
REMARK Flexibility Score: inf
ROOT
ATOM      1  C   UNL A   1      37.819  22.622  25.530  1.00  0.00     0.116 C 
ENDROOT
BRANCH   1   2
ATOM      2  N   UNL A   1      36.682  22.542  26.436  1.00  0.00    -0.352 N 
ATOM      3  C   UNL A   1      35.407  23.060  26.335  1.00  0.00     0.251 C 
ATOM      4  O   UNL A   1      34.598  22.855  27.236  1.00  0.00    -0.269 OA
ATOM      5  H   UNL A   1      36.851  22.031  27.260  1.00  0.00     0.163 HD
BRANCH   3   6
ATOM      6  C   UNL A   1      35.008  23.920  25.189  1.00  0.00     0.040 A 
ATOM      7  C   UNL A   1      34.024  26.003  24.355  1.00  0.00    -0.042 A 
ATOM      8  C   UNL A   1      33.902  25.392  23.096  1.00  0.00     0.004 A 
ATOM      9  C   UNL A   1      34.677  25.267  25.357  1.00  0.00     0.018 A 
ATOM     10  C   UNL A   1      34.381  24.094  22.871  1.00  0.00     0.001 A 
ATOM     11  C   UNL A   1      34.908  23.348  23.922  1.00  0.00     0.014 A 
BRANCH   7  12
ATOM     12  C   UNL A   1      33.313  27.315  24.717  1.00  0.00     0.039 C 
ATOM     13  N   UNL A   1      30.994  26.576  25.245  1.00  0.00    -0.338 N 
ATOM     14  C   UNL A   1      30.453  27.144  24.011  1.00  0.00     0.120 C 
ATOM     15  C   UNL A   1      32.200  27.214  25.785  1.00  0.00     0.128 C 
ATOM     16  C   UNL A   1      31.515  27.360  22.941  1.00  0.00     0.022 C 
ATOM     17  C   UNL A   1      32.724  28.092  23.518  1.00  0.00     0.012 C 
BRANCH  13  18
ATOM     18  C   UNL A   1      30.347  25.492  25.823  1.00  0.00     0.257 C 
ATOM     19  O   UNL A   1      29.344  25.591  26.526  1.00  0.00    -0.269 OA
BRANCH  18  20
ATOM     20  C   UNL A   1      30.948  24.160  25.700  1.00  0.00     0.076 A 
ATOM     21  C   UNL A   1      31.764  21.573  25.490  1.00  0.00     0.222 A 
ATOM     22  N   UNL A   1      31.566  22.076  26.718  1.00  0.00    -0.221 NA
ATOM     23  N   UNL A   1      31.589  22.275  24.359  1.00  0.00    -0.221 NA
ATOM     24  C   UNL A   1      31.157  23.359  26.797  1.00  0.00     0.130 A 
ATOM     25  C   UNL A   1      31.156  23.554  24.487  1.00  0.00     0.130 A 
BRANCH  21  26
ATOM     26  N   UNL A   1      32.150  20.267  25.463  1.00  0.00    -0.352 N 
ATOM     27  H   UNL A   1      31.881  19.692  26.215  1.00  0.00     0.163 HD
BRANCH  26  28
ATOM     28  C   UNL A   1      32.927  19.673  24.404  1.00  0.00     0.076 C 
ATOM     29  C   UNL A   1      34.403  19.795  24.779  1.00  0.00     0.030 C 
ATOM     30  C   UNL A   1      32.540  18.207  24.234  1.00  0.00     0.030 C 
ENDBRANCH  26  28
ENDBRANCH  21  26
ENDBRANCH  18  20
ENDBRANCH  13  18
ENDBRANCH   7  12
ENDBRANCH   3   6
ENDBRANCH   1   2
BRANCH   1  31
ATOM     31  C   UNL A   1      38.898  21.573  25.749  1.00  0.00     0.023 C 
BRANCH  31  32
ATOM     32  C   UNL A   1      40.037  21.955  26.682  1.00  0.00     0.023 C 
BRANCH  32  33
ATOM     33  C   UNL A   1      40.772  20.801  27.353  1.00  0.00     0.116 C 
BRANCH  33  34
ATOM     34  N   UNL A   1      41.538  19.965  26.437  1.00  0.00    -0.352 N 
ATOM     35  C   UNL A   1      42.687  20.272  25.737  1.00  0.00     0.251 C 
ATOM     36  H   UNL A   1      41.188  19.054  26.298  1.00  0.00     0.163 HD
ATOM     37  O   UNL A   1      43.181  19.460  24.966  1.00  0.00    -0.269 OA
BRANCH  35  38
ATOM     38  C   UNL A   1      43.283  21.617  25.891  1.00  0.00     0.039 A 
ATOM     39  C   UNL A   1      43.067  22.571  24.894  1.00  0.00     0.014 A 
ATOM     40  C   UNL A   1      43.965  21.958  27.061  1.00  0.00     0.014 A 
ATOM     41  C   UNL A   1      43.437  23.899  25.118  1.00  0.00     0.010 A 
ATOM     42  C   UNL A   1      44.257  23.294  27.315  1.00  0.00     0.010 A 
ATOM     43  C   UNL A   1      43.980  24.281  26.356  1.00  0.00    -0.014 A 
BRANCH  43  44
ATOM     44  C   UNL A   1      44.220  25.707  26.701  1.00  0.00     0.031 A 
ATOM     45  C   UNL A   1      45.606  26.284  26.599  1.00  0.00     0.074 A 
ATOM     46  C   UNL A   1      43.225  26.437  27.244  1.00  0.00     0.049 A 
ATOM     47  N   UNL A   1      46.039  27.457  26.980  1.00  0.00    -0.248 NA
ATOM     48  C   UNL A   1      46.647  25.414  26.028  1.00  0.00     0.031 C 
ATOM     49  C   UNL A   1      41.861  25.961  27.490  1.00  0.00     0.029 A 
ATOM     50  N   UNL A   1      43.217  27.723  27.727  1.00  0.00    -0.354 N 
ATOM     51  C   UNL A   1      47.408  27.447  26.748  1.00  0.00     0.074 A 
ATOM     52  C   UNL A   1      47.738  26.144  26.214  1.00  0.00     0.031 C 
ATOM     53  C   UNL A   1      41.153  26.936  28.082  1.00  0.00     0.029 A 
ATOM     54  C   UNL A   1      42.015  28.096  28.283  1.00  0.00     0.049 A 
ATOM     55  H   UNL A   1      43.998  28.321  27.679  1.00  0.00     0.167 HD
ATOM     56  C   UNL A   1      48.308  28.442  26.934  1.00  0.00     0.034 A 
ATOM     57  C   UNL A   1      41.649  29.241  28.894  1.00  0.00     0.034 A 
ATOM     58  C   UNL A   1      47.967  29.760  27.395  1.00  0.00     0.049 A 
ATOM     59  C   UNL A   1      42.644  30.363  29.006  1.00  0.00     0.074 A 
ATOM     60  C   UNL A   1      48.782  30.872  27.503  1.00  0.00     0.029 A 
ATOM     61  N   UNL A   1      46.705  30.146  27.821  1.00  0.00    -0.354 N 
ATOM     62  N   UNL A   1      43.896  30.394  28.614  1.00  0.00    -0.248 NA
ATOM     63  C   UNL A   1      42.172  31.620  29.605  1.00  0.00     0.031 C 
ATOM     64  C   UNL A   1      48.015  31.930  28.000  1.00  0.00     0.029 A 
ATOM     65  C   UNL A   1      46.719  31.479  28.194  1.00  0.00     0.049 A 
ATOM     66  H   UNL A   1      45.915  29.559  27.854  1.00  0.00     0.167 HD
ATOM     67  C   UNL A   1      44.349  31.680  28.889  1.00  0.00     0.074 A 
ATOM     68  C   UNL A   1      43.233  32.403  29.463  1.00  0.00     0.031 C 
ATOM     69  C   UNL A   1      45.584  32.205  28.700  1.00  0.00     0.034 A 
BRANCH  56  70
ATOM     70  C   UNL A   1      49.741  28.163  26.568  1.00  0.00     0.023 A 
ATOM     71  C   UNL A   1      50.123  28.180  25.211  1.00  0.00     0.012 A 
ATOM     72  C   UNL A   1      50.714  27.932  27.558  1.00  0.00     0.148 A 
ATOM     73  C   UNL A   1      51.444  27.937  24.842  1.00  0.00     0.002 A 
ATOM     74  C   UNL A   1      52.038  27.730  27.184  1.00  0.00     0.091 A 
ATOM     75  F   UNL A   1      50.329  27.891  28.841  1.00  0.00    -0.205 F 
ATOM     76  C   UNL A   1      52.403  27.722  25.828  1.00  0.00     0.022 A 
BRANCH  74  77
ATOM     77  S   UNL A   1      53.355  27.519  28.389  1.00  0.00     0.127 S 
ATOM     78  O   UNL A   1      53.196  28.716  29.213  1.00  0.00    -0.237 OA
ATOM     79  O   UNL A   1      52.976  26.270  29.051  1.00  0.00    -0.237 OA
ATOM     80  O   UNL A   1      54.588  27.441  27.618  1.00  0.00    -0.744 OA
ENDBRANCH  74  77
ENDBRANCH  56  70
BRANCH  57  81
ATOM     81  C   UNL A   1      40.246  29.409  29.371  1.00  0.00     0.023 A 
ATOM     82  C   UNL A   1      39.243  29.746  28.442  1.00  0.00     0.012 A 
ATOM     83  C   UNL A   1      39.891  29.192  30.717  1.00  0.00     0.148 A 
ATOM     84  C   UNL A   1      37.916  29.889  28.847  1.00  0.00     0.002 A 
ATOM     85  C   UNL A   1      38.559  29.286  31.104  1.00  0.00     0.091 A 
ATOM     86  F   UNL A   1      40.862  28.885  31.588  1.00  0.00    -0.205 F 
ATOM     87  C   UNL A   1      37.572  29.649  30.174  1.00  0.00     0.022 A 
BRANCH  85  88
ATOM     88  S   UNL A   1      38.009  28.861  32.761  1.00  0.00     0.127 S 
ATOM     89  O   UNL A   1      38.138  27.407  32.755  1.00  0.00    -0.237 OA
ATOM     90  O   UNL A   1      38.986  29.563  33.597  1.00  0.00    -0.237 OA
ATOM     91  O   UNL A   1      36.652  29.381  32.866  1.00  0.00    -0.744 OA
ENDBRANCH  85  88
ENDBRANCH  57  81
BRANCH  69  92
ATOM     92  C   UNL A   1      45.799  33.646  29.081  1.00  0.00     0.023 A 
ATOM     93  C   UNL A   1      46.340  33.957  30.344  1.00  0.00     0.012 A 
ATOM     94  C   UNL A   1      45.554  34.680  28.157  1.00  0.00     0.148 A 
ATOM     95  C   UNL A   1      46.616  35.280  30.689  1.00  0.00     0.002 A 
ATOM     96  C   UNL A   1      45.871  35.991  28.493  1.00  0.00     0.091 A 
ATOM     97  F   UNL A   1      45.018  34.365  26.969  1.00  0.00    -0.205 F 
ATOM     98  C   UNL A   1      46.394  36.294  29.760  1.00  0.00     0.022 A 
BRANCH  96  99
ATOM     99  S   UNL A   1      45.703  37.344  27.322  1.00  0.00     0.127 S 
ATOM    100  O   UNL A   1      46.576  36.909  26.234  1.00  0.00    -0.237 OA
ATOM    101  O   UNL A   1      44.274  37.311  27.005  1.00  0.00    -0.237 OA
ATOM    102  O   UNL A   1      46.132  38.541  28.034  1.00  0.00    -0.744 OA
ENDBRANCH  96  99
ENDBRANCH  69  92
ENDBRANCH  43  44
ENDBRANCH  35  38
ENDBRANCH  33  34
ENDBRANCH  32  33
ENDBRANCH  31  32
ENDBRANCH   1  31
TORSDOF 19
ENDMDL
