MODEL 1
REMARK VINA RESULT:     -12.9      0.000      0.000
REMARK SMILES O=Cc1c(OCc2ccc(C(=O)NCCCCNC(=O)c3ccc(-c4c5nc(c(-c6cccc(S(=O)(=O)[O-])c6F)c6ccc([nH]6)c(-c6cccc(S(=O)(=O)[O-])c6F)c6nc(c(-c7cccc(S(=O)(=O)[O-])c7F)c7ccc4[nH]7)C=C6)C=C5)cc3)cc2)ccc2ccccc12
REMARK SMILES IDX 15 1 14 2 13 3 11 4 12 5 10 7 7 8 8 9 85 10 9 11 84 12 6 13
REMARK SMILES IDX 5 14 4 15 3 16 93 17 86 18 88 19 92 20 87 21 89 22 91 23
REMARK SMILES IDX 90 24 2 25 1 26 16 27 17 28 18 29 19 30 20 32 21 33 22 34
REMARK SMILES IDX 83 35 23 36 82 37 24 38 25 39 26 40 76 41 27 42 81 43 75 44
REMARK SMILES IDX 77 45 28 46 80 47 74 48 73 49 29 51 61 52 41 53 60 54 42 55
REMARK SMILES IDX 45 56 59 57 78 58 43 59 44 60 58 62 79 63 46 64 30 65 31 66
REMARK SMILES IDX 39 67 32 68 34 69 40 70 33 71 35 72 36 73 37 74 38 75 62 76
REMARK SMILES IDX 63 77 71 78 64 79 66 80 72 81 65 82 67 83 68 84 69 85 70 86
REMARK SMILES IDX 47 87 48 88 56 89 49 90 51 91 57 92 50 93 52 94 53 95 54 96
REMARK SMILES IDX 55 97
REMARK H PARENT 13 6 18 31 77 50 45 61
REMARK Flexibility Score: inf
ROOT
ATOM      1  C   UNL A   1      32.129  30.238  26.829  1.00  0.00     0.023 C 
ENDROOT
BRANCH   1   2
ATOM      2  C   UNL A   1      32.691  29.780  25.480  1.00  0.00     0.116 C 
BRANCH   2   3
ATOM      3  N   UNL A   1      31.647  29.711  24.478  1.00  0.00    -0.352 N 
ATOM      4  C   UNL A   1      31.245  28.722  23.617  1.00  0.00     0.251 C 
ATOM      5  O   UNL A   1      30.271  28.962  22.900  1.00  0.00    -0.269 OA
ATOM      6  H   UNL A   1      31.120  30.540  24.400  1.00  0.00     0.163 HD
BRANCH   4   7
ATOM      7  C   UNL A   1      31.899  27.382  23.504  1.00  0.00     0.039 A 
ATOM      8  C   UNL A   1      33.376  24.967  23.269  1.00  0.00    -0.011 A 
ATOM      9  C   UNL A   1      33.695  26.077  22.478  1.00  0.00     0.008 A 
ATOM     10  C   UNL A   1      32.267  25.059  24.112  1.00  0.00     0.008 A 
ATOM     11  C   UNL A   1      32.957  27.263  22.588  1.00  0.00     0.014 A 
ATOM     12  C   UNL A   1      31.582  26.265  24.273  1.00  0.00     0.014 A 
BRANCH   8  13
ATOM     13  C   UNL A   1      34.272  23.740  23.233  1.00  0.00     0.265 C 
BRANCH  13  14
ATOM     14  O   UNL A   1      34.240  22.883  24.383  1.00  0.00    -0.488 OA
BRANCH  14  15
ATOM     15  C   UNL A   1      33.742  21.608  24.288  1.00  0.00     0.130 A 
ATOM     16  C   UNL A   1      34.592  20.562  24.693  1.00  0.00     0.064 A 
ATOM     17  C   UNL A   1      34.286  19.199  24.414  1.00  0.00    -0.004 A 
ATOM     18  C   UNL A   1      32.521  21.293  23.695  1.00  0.00     0.048 A 
ATOM     19  C   UNL A   1      33.081  18.920  23.728  1.00  0.00    -0.017 A 
ATOM     20  C   UNL A   1      35.107  18.097  24.767  1.00  0.00     0.009 A 
ATOM     21  C   UNL A   1      32.207  19.966  23.400  1.00  0.00     0.012 A 
ATOM     22  C   UNL A   1      32.760  17.600  23.374  1.00  0.00     0.009 A 
ATOM     23  C   UNL A   1      34.770  16.787  24.416  1.00  0.00     0.001 A 
ATOM     24  C   UNL A   1      33.601  16.541  23.709  1.00  0.00     0.001 A 
BRANCH  16  25
ATOM     25  C   UNL A   1      35.884  20.895  25.339  1.00  0.00     0.264 C 
ATOM     26  O   UNL A   1      36.917  21.091  24.713  1.00  0.00    -0.298 OA
ENDBRANCH  16  25
ENDBRANCH  14  15
ENDBRANCH  13  14
ENDBRANCH   8  13
ENDBRANCH   4   7
ENDBRANCH   2   3
ENDBRANCH   1   2
BRANCH   1  27
ATOM     27  C   UNL A   1      31.814  31.736  26.899  1.00  0.00     0.023 C 
BRANCH  27  28
ATOM     28  C   UNL A   1      32.938  32.599  27.463  1.00  0.00     0.116 C 
BRANCH  28  29
ATOM     29  N   UNL A   1      32.534  33.974  27.722  1.00  0.00    -0.352 N 
ATOM     30  C   UNL A   1      33.075  34.859  28.627  1.00  0.00     0.251 C 
ATOM     31  H   UNL A   1      31.782  34.312  27.184  1.00  0.00     0.163 HD
ATOM     32  O   UNL A   1      32.564  35.954  28.804  1.00  0.00    -0.269 OA
BRANCH  30  33
ATOM     33  C   UNL A   1      34.255  34.441  29.414  1.00  0.00     0.039 A 
ATOM     34  C   UNL A   1      34.057  33.934  30.700  1.00  0.00     0.014 A 
ATOM     35  C   UNL A   1      35.536  34.496  28.862  1.00  0.00     0.014 A 
ATOM     36  C   UNL A   1      35.141  33.413  31.408  1.00  0.00     0.010 A 
ATOM     37  C   UNL A   1      36.604  33.917  29.543  1.00  0.00     0.010 A 
ATOM     38  C   UNL A   1      36.416  33.366  30.819  1.00  0.00    -0.014 A 
BRANCH  38  39
ATOM     39  C   UNL A   1      37.559  32.715  31.506  1.00  0.00     0.031 A 
ATOM     40  C   UNL A   1      38.265  31.552  30.868  1.00  0.00     0.074 A 
ATOM     41  C   UNL A   1      37.897  33.113  32.750  1.00  0.00     0.049 A 
ATOM     42  N   UNL A   1      39.240  30.821  31.341  1.00  0.00    -0.248 NA
ATOM     43  C   UNL A   1      37.796  31.136  29.535  1.00  0.00     0.031 C 
ATOM     44  C   UNL A   1      37.229  34.173  33.510  1.00  0.00     0.029 A 
ATOM     45  N   UNL A   1      38.867  32.654  33.605  1.00  0.00    -0.354 N 
ATOM     46  C   UNL A   1      39.482  29.844  30.383  1.00  0.00     0.074 A 
ATOM     47  C   UNL A   1      38.529  30.053  29.316  1.00  0.00     0.031 C 
ATOM     48  C   UNL A   1      37.806  34.280  34.717  1.00  0.00     0.029 A 
ATOM     49  C   UNL A   1      38.869  33.285  34.828  1.00  0.00     0.049 A 
ATOM     50  H   UNL A   1      39.501  31.940  33.366  1.00  0.00     0.167 HD
ATOM     51  C   UNL A   1      40.434  28.881  30.377  1.00  0.00     0.034 A 
ATOM     52  C   UNL A   1      39.639  33.083  35.915  1.00  0.00     0.034 A 
ATOM     53  C   UNL A   1      41.411  28.707  31.418  1.00  0.00     0.049 A 
ATOM     54  C   UNL A   1      40.721  32.040  35.859  1.00  0.00     0.074 A 
ATOM     55  C   UNL A   1      42.471  27.818  31.462  1.00  0.00     0.029 A 
ATOM     56  N   UNL A   1      41.448  29.434  32.597  1.00  0.00    -0.354 N 
ATOM     57  N   UNL A   1      41.045  31.239  34.873  1.00  0.00    -0.248 NA
ATOM     58  C   UNL A   1      41.572  31.898  37.050  1.00  0.00     0.031 C 
ATOM     59  C   UNL A   1      43.143  28.001  32.675  1.00  0.00     0.029 A 
ATOM     60  C   UNL A   1      42.511  29.013  33.378  1.00  0.00     0.049 A 
ATOM     61  H   UNL A   1      40.814  30.145  32.842  1.00  0.00     0.167 HD
ATOM     62  C   UNL A   1      42.153  30.524  35.310  1.00  0.00     0.074 A 
ATOM     63  C   UNL A   1      42.462  31.004  36.641  1.00  0.00     0.031 C 
ATOM     64  C   UNL A   1      42.842  29.543  34.675  1.00  0.00     0.034 A 
BRANCH  51  65
ATOM     65  C   UNL A   1      40.514  27.983  29.171  1.00  0.00     0.023 A 
ATOM     66  C   UNL A   1      39.586  26.929  29.036  1.00  0.00     0.012 A 
ATOM     67  C   UNL A   1      41.448  28.218  28.144  1.00  0.00     0.148 A 
ATOM     68  C   UNL A   1      39.605  26.106  27.912  1.00  0.00     0.002 A 
ATOM     69  C   UNL A   1      41.433  27.418  27.007  1.00  0.00     0.091 A 
ATOM     70  F   UNL A   1      42.334  29.211  28.301  1.00  0.00    -0.205 F 
ATOM     71  C   UNL A   1      40.519  26.358  26.894  1.00  0.00     0.022 A 
BRANCH  69  72
ATOM     72  S   UNL A   1      42.521  27.703  25.605  1.00  0.00     0.127 S 
ATOM     73  O   UNL A   1      43.823  27.817  26.261  1.00  0.00    -0.237 OA
ATOM     74  O   UNL A   1      42.338  26.481  24.821  1.00  0.00    -0.237 OA
ATOM     75  O   UNL A   1      42.037  28.917  24.962  1.00  0.00    -0.744 OA
ENDBRANCH  69  72
ENDBRANCH  51  65
BRANCH  52  76
ATOM     76  C   UNL A   1      39.460  33.935  37.124  1.00  0.00     0.023 A 
ATOM     77  C   UNL A   1      39.896  35.275  37.093  1.00  0.00     0.012 A 
ATOM     78  C   UNL A   1      38.847  33.441  38.291  1.00  0.00     0.148 A 
ATOM     79  C   UNL A   1      39.756  36.095  38.213  1.00  0.00     0.002 A 
ATOM     80  C   UNL A   1      38.660  34.280  39.384  1.00  0.00     0.091 A 
ATOM     81  F   UNL A   1      38.453  32.160  38.309  1.00  0.00    -0.205 F 
ATOM     82  C   UNL A   1      39.130  35.602  39.354  1.00  0.00     0.022 A 
BRANCH  80  83
ATOM     83  S   UNL A   1      37.742  33.761  40.840  1.00  0.00     0.127 S 
ATOM     84  O   UNL A   1      38.700  32.879  41.500  1.00  0.00    -0.237 OA
ATOM     85  O   UNL A   1      37.504  35.033  41.523  1.00  0.00    -0.237 OA
ATOM     86  O   UNL A   1      36.535  33.127  40.327  1.00  0.00    -0.744 OA
ENDBRANCH  80  83
ENDBRANCH  52  76
BRANCH  64  87
ATOM     87  C   UNL A   1      44.018  28.938  35.394  1.00  0.00     0.023 A 
ATOM     88  C   UNL A   1      45.295  29.514  35.248  1.00  0.00     0.012 A 
ATOM     89  C   UNL A   1      43.844  27.852  36.273  1.00  0.00     0.148 A 
ATOM     90  C   UNL A   1      46.388  28.998  35.943  1.00  0.00     0.002 A 
ATOM     91  C   UNL A   1      44.930  27.373  36.998  1.00  0.00     0.091 A 
ATOM     92  F   UNL A   1      42.624  27.305  36.384  1.00  0.00    -0.205 F 
ATOM     93  C   UNL A   1      46.203  27.938  36.826  1.00  0.00     0.022 A 
BRANCH  91  94
ATOM     94  S   UNL A   1      44.764  26.072  38.227  1.00  0.00     0.127 S 
ATOM     95  O   UNL A   1      43.932  26.721  39.238  1.00  0.00    -0.237 OA
ATOM     96  O   UNL A   1      44.091  25.014  37.472  1.00  0.00    -0.237 OA
ATOM     97  O   UNL A   1      46.120  25.743  38.646  1.00  0.00    -0.744 OA
ENDBRANCH  91  94
ENDBRANCH  64  87
ENDBRANCH  38  39
ENDBRANCH  30  33
ENDBRANCH  28  29
ENDBRANCH  27  28
ENDBRANCH   1  27
TORSDOF 18
ENDMDL
MODEL 2
REMARK VINA RESULT:     -12.6      1.891      7.827
REMARK SMILES O=Cc1c(OCc2ccc(C(=O)NCCCCNC(=O)c3ccc(-c4c5nc(c(-c6cccc(S(=O)(=O)[O-])c6F)c6ccc([nH]6)c(-c6cccc(S(=O)(=O)[O-])c6F)c6nc(c(-c7cccc(S(=O)(=O)[O-])c7F)c7ccc4[nH]7)C=C6)C=C5)cc3)cc2)ccc2ccccc12
REMARK SMILES IDX 15 1 14 2 13 3 11 4 12 5 10 7 7 8 8 9 85 10 9 11 84 12 6 13
REMARK SMILES IDX 5 14 4 15 3 16 93 17 86 18 88 19 92 20 87 21 89 22 91 23
REMARK SMILES IDX 90 24 2 25 1 26 16 27 17 28 18 29 19 30 20 32 21 33 22 34
REMARK SMILES IDX 83 35 23 36 82 37 24 38 25 39 26 40 76 41 27 42 81 43 75 44
REMARK SMILES IDX 77 45 28 46 80 47 74 48 73 49 29 51 61 52 41 53 60 54 42 55
REMARK SMILES IDX 45 56 59 57 78 58 43 59 44 60 58 62 79 63 46 64 30 65 31 66
REMARK SMILES IDX 39 67 32 68 34 69 40 70 33 71 35 72 36 73 37 74 38 75 62 76
REMARK SMILES IDX 63 77 71 78 64 79 66 80 72 81 65 82 67 83 68 84 69 85 70 86
REMARK SMILES IDX 47 87 48 88 56 89 49 90 51 91 57 92 50 93 52 94 53 95 54 96
REMARK SMILES IDX 55 97
REMARK H PARENT 13 6 18 31 77 50 45 61
REMARK Flexibility Score: inf
ROOT
ATOM      1  C   UNL A   1      31.399  30.371  26.500  1.00  0.00     0.023 C 
ENDROOT
BRANCH   1   2
ATOM      2  C   UNL A   1      31.812  29.839  25.123  1.00  0.00     0.116 C 
BRANCH   2   3
ATOM      3  N   UNL A   1      30.778  30.087  24.139  1.00  0.00    -0.352 N 
ATOM      4  C   UNL A   1      30.025  29.255  23.348  1.00  0.00     0.251 C 
ATOM      5  O   UNL A   1      29.176  29.783  22.627  1.00  0.00    -0.269 OA
ATOM      6  H   UNL A   1      30.575  31.042  24.012  1.00  0.00     0.163 HD
BRANCH   4   7
ATOM      7  C   UNL A   1      30.161  27.767  23.316  1.00  0.00     0.039 A 
ATOM      8  C   UNL A   1      30.686  24.976  23.244  1.00  0.00    -0.011 A 
ATOM      9  C   UNL A   1      31.412  25.859  22.436  1.00  0.00     0.008 A 
ATOM     10  C   UNL A   1      29.649  25.499  24.020  1.00  0.00     0.008 A 
ATOM     11  C   UNL A   1      31.144  27.234  22.466  1.00  0.00     0.014 A 
ATOM     12  C   UNL A   1      29.434  26.876  24.102  1.00  0.00     0.014 A 
BRANCH   8  13
ATOM     13  C   UNL A   1      31.084  23.511  23.298  1.00  0.00     0.265 C 
BRANCH  13  14
ATOM     14  O   UNL A   1      31.854  23.093  24.434  1.00  0.00    -0.488 OA
BRANCH  14  15
ATOM     15  C   UNL A   1      33.218  22.973  24.346  1.00  0.00     0.130 A 
ATOM     16  C   UNL A   1      33.753  21.679  24.489  1.00  0.00     0.064 A 
ATOM     17  C   UNL A   1      35.150  21.461  24.661  1.00  0.00    -0.004 A 
ATOM     18  C   UNL A   1      34.090  24.057  24.266  1.00  0.00     0.048 A 
ATOM     19  C   UNL A   1      35.998  22.594  24.667  1.00  0.00    -0.017 A 
ATOM     20  C   UNL A   1      35.756  20.190  24.837  1.00  0.00     0.009 A 
ATOM     21  C   UNL A   1      35.461  23.869  24.447  1.00  0.00     0.012 A 
ATOM     22  C   UNL A   1      37.375  22.442  24.896  1.00  0.00     0.009 A 
ATOM     23  C   UNL A   1      37.129  20.055  25.054  1.00  0.00     0.001 A 
ATOM     24  C   UNL A   1      37.937  21.182  25.095  1.00  0.00     0.001 A 
BRANCH  16  25
ATOM     25  C   UNL A   1      32.828  20.522  24.556  1.00  0.00     0.264 C 
ATOM     26  O   UNL A   1      32.422  19.929  23.565  1.00  0.00    -0.298 OA
ENDBRANCH  16  25
ENDBRANCH  14  15
ENDBRANCH  13  14
ENDBRANCH   8  13
ENDBRANCH   4   7
ENDBRANCH   2   3
ENDBRANCH   1   2
BRANCH   1  27
ATOM     27  C   UNL A   1      31.398  31.899  26.604  1.00  0.00     0.023 C 
BRANCH  27  28
ATOM     28  C   UNL A   1      32.769  32.523  26.844  1.00  0.00     0.116 C 
BRANCH  28  29
ATOM     29  N   UNL A   1      32.705  33.812  27.518  1.00  0.00    -0.352 N 
ATOM     30  C   UNL A   1      33.533  34.292  28.508  1.00  0.00     0.251 C 
ATOM     31  H   UNL A   1      31.981  34.414  27.231  1.00  0.00     0.163 HD
ATOM     32  O   UNL A   1      33.295  35.360  29.052  1.00  0.00    -0.269 OA
BRANCH  30  33
ATOM     33  C   UNL A   1      34.686  33.470  28.933  1.00  0.00     0.039 A 
ATOM     34  C   UNL A   1      35.975  33.969  28.733  1.00  0.00     0.014 A 
ATOM     35  C   UNL A   1      34.491  32.245  29.575  1.00  0.00     0.014 A 
ATOM     36  C   UNL A   1      37.070  33.270  29.244  1.00  0.00     0.010 A 
ATOM     37  C   UNL A   1      35.577  31.583  30.139  1.00  0.00     0.010 A 
ATOM     38  C   UNL A   1      36.876  32.091  29.983  1.00  0.00    -0.014 A 
BRANCH  38  39
ATOM     39  C   UNL A   1      38.014  31.393  30.632  1.00  0.00     0.031 A 
ATOM     40  C   UNL A   1      38.393  31.717  32.050  1.00  0.00     0.074 A 
ATOM     41  C   UNL A   1      38.763  30.536  29.909  1.00  0.00     0.049 A 
ATOM     42  N   UNL A   1      39.389  31.256  32.761  1.00  0.00    -0.248 NA
ATOM     43  C   UNL A   1      37.564  32.710  32.753  1.00  0.00     0.031 C 
ATOM     44  C   UNL A   1      38.547  30.207  28.497  1.00  0.00     0.029 A 
ATOM     45  N   UNL A   1      39.875  29.808  30.252  1.00  0.00    -0.354 N 
ATOM     46  C   UNL A   1      39.326  31.920  33.979  1.00  0.00     0.074 A 
ATOM     47  C   UNL A   1      38.214  32.842  33.901  1.00  0.00     0.031 C 
ATOM     48  C   UNL A   1      39.496  29.347  28.096  1.00  0.00     0.029 A 
ATOM     49  C   UNL A   1      40.400  29.079  29.210  1.00  0.00     0.049 A 
ATOM     50  H   UNL A   1      40.260  29.808  31.158  1.00  0.00     0.167 HD
ATOM     51  C   UNL A   1      40.101  31.752  35.077  1.00  0.00     0.034 A 
ATOM     52  C   UNL A   1      41.489  28.286  29.159  1.00  0.00     0.034 A 
ATOM     53  C   UNL A   1      41.175  30.800  35.168  1.00  0.00     0.049 A 
ATOM     54  C   UNL A   1      42.301  28.081  30.409  1.00  0.00     0.074 A 
ATOM     55  C   UNL A   1      41.962  30.493  36.263  1.00  0.00     0.029 A 
ATOM     56  N   UNL A   1      41.613  30.001  34.123  1.00  0.00    -0.354 N 
ATOM     57  N   UNL A   1      42.120  28.591  31.603  1.00  0.00    -0.248 NA
ATOM     58  C   UNL A   1      43.444  27.161  30.316  1.00  0.00     0.031 C 
ATOM     59  C   UNL A   1      42.884  29.515  35.878  1.00  0.00     0.029 A 
ATOM     60  C   UNL A   1      42.662  29.203  34.547  1.00  0.00     0.049 A 
ATOM     61  H   UNL A   1      41.234  30.001  33.215  1.00  0.00     0.167 HD
ATOM     62  C   UNL A   1      43.103  28.029  32.410  1.00  0.00     0.074 A 
ATOM     63  C   UNL A   1      43.861  27.121  31.574  1.00  0.00     0.031 C 
ATOM     64  C   UNL A   1      43.368  28.259  33.720  1.00  0.00     0.034 A 
BRANCH  51  65
ATOM     65  C   UNL A   1      39.771  32.569  36.298  1.00  0.00     0.023 A 
ATOM     66  C   UNL A   1      40.419  33.807  36.494  1.00  0.00     0.012 A 
ATOM     67  C   UNL A   1      38.780  32.155  37.209  1.00  0.00     0.148 A 
ATOM     68  C   UNL A   1      40.106  34.606  37.591  1.00  0.00     0.002 A 
ATOM     69  C   UNL A   1      38.444  32.978  38.278  1.00  0.00     0.091 A 
ATOM     70  F   UNL A   1      38.192  30.967  37.017  1.00  0.00    -0.205 F 
ATOM     71  C   UNL A   1      39.112  34.198  38.475  1.00  0.00     0.022 A 
BRANCH  69  72
ATOM     72  S   UNL A   1      37.128  32.579  39.434  1.00  0.00     0.127 S 
ATOM     73  O   UNL A   1      37.505  31.231  39.856  1.00  0.00    -0.237 OA
ATOM     74  O   UNL A   1      37.297  33.609  40.460  1.00  0.00    -0.237 OA
ATOM     75  O   UNL A   1      35.887  32.673  38.677  1.00  0.00    -0.744 OA
ENDBRANCH  69  72
ENDBRANCH  51  65
BRANCH  52  76
ATOM     76  C   UNL A   1      41.832  27.570  27.898  1.00  0.00     0.023 A 
ATOM     77  C   UNL A   1      42.377  28.295  26.819  1.00  0.00     0.012 A 
ATOM     78  C   UNL A   1      41.643  26.181  27.764  1.00  0.00     0.148 A 
ATOM     79  C   UNL A   1      42.695  27.657  25.620  1.00  0.00     0.002 A 
ATOM     80  C   UNL A   1      42.015  25.542  26.587  1.00  0.00     0.091 A 
ATOM     81  F   UNL A   1      41.109  25.510  28.794  1.00  0.00    -0.205 F 
ATOM     82  C   UNL A   1      42.524  26.280  25.507  1.00  0.00     0.022 A 
BRANCH  80  83
ATOM     83  S   UNL A   1      41.953  23.755  26.410  1.00  0.00     0.127 S 
ATOM     84  O   UNL A   1      42.574  23.560  25.104  1.00  0.00    -0.237 OA
ATOM     85  O   UNL A   1      42.757  23.305  27.548  1.00  0.00    -0.237 OA
ATOM     86  O   UNL A   1      40.541  23.408  26.507  1.00  0.00    -0.744 OA
ENDBRANCH  80  83
ENDBRANCH  52  76
BRANCH  64  87
ATOM     87  C   UNL A   1      44.506  27.500  34.346  1.00  0.00     0.023 A 
ATOM     88  C   UNL A   1      45.818  28.001  34.242  1.00  0.00     0.012 A 
ATOM     89  C   UNL A   1      44.267  26.335  35.100  1.00  0.00     0.148 A 
ATOM     90  C   UNL A   1      46.880  27.338  34.856  1.00  0.00     0.002 A 
ATOM     91  C   UNL A   1      45.324  25.705  35.747  1.00  0.00     0.091 A 
ATOM     92  F   UNL A   1      43.014  25.862  35.170  1.00  0.00    -0.205 F 
ATOM     93  C   UNL A   1      46.632  26.200  35.617  1.00  0.00     0.022 A 
BRANCH  91  94
ATOM     94  S   UNL A   1      45.082  24.287  36.824  1.00  0.00     0.127 S 
ATOM     95  O   UNL A   1      44.540  23.297  35.895  1.00  0.00    -0.237 OA
ATOM     96  O   UNL A   1      46.444  24.009  37.284  1.00  0.00    -0.237 OA
ATOM     97  O   UNL A   1      44.172  24.731  37.870  1.00  0.00    -0.744 OA
ENDBRANCH  91  94
ENDBRANCH  64  87
ENDBRANCH  38  39
ENDBRANCH  30  33
ENDBRANCH  28  29
ENDBRANCH  27  28
ENDBRANCH   1  27
TORSDOF 18
ENDMDL
MODEL 3
REMARK VINA RESULT:     -12.6      6.249     11.883
REMARK SMILES O=Cc1c(OCc2ccc(C(=O)NCCCCNC(=O)c3ccc(-c4c5nc(c(-c6cccc(S(=O)(=O)[O-])c6F)c6ccc([nH]6)c(-c6cccc(S(=O)(=O)[O-])c6F)c6nc(c(-c7cccc(S(=O)(=O)[O-])c7F)c7ccc4[nH]7)C=C6)C=C5)cc3)cc2)ccc2ccccc12
REMARK SMILES IDX 15 1 14 2 13 3 11 4 12 5 10 7 7 8 8 9 85 10 9 11 84 12 6 13
REMARK SMILES IDX 5 14 4 15 3 16 93 17 86 18 88 19 92 20 87 21 89 22 91 23
REMARK SMILES IDX 90 24 2 25 1 26 16 27 17 28 18 29 19 30 20 32 21 33 22 34
REMARK SMILES IDX 83 35 23 36 82 37 24 38 25 39 26 40 76 41 27 42 81 43 75 44
REMARK SMILES IDX 77 45 28 46 80 47 74 48 73 49 29 51 61 52 41 53 60 54 42 55
REMARK SMILES IDX 45 56 59 57 78 58 43 59 44 60 58 62 79 63 46 64 30 65 31 66
REMARK SMILES IDX 39 67 32 68 34 69 40 70 33 71 35 72 36 73 37 74 38 75 62 76
REMARK SMILES IDX 63 77 71 78 64 79 66 80 72 81 65 82 67 83 68 84 69 85 70 86
REMARK SMILES IDX 47 87 48 88 56 89 49 90 51 91 57 92 50 93 52 94 53 95 54 96
REMARK SMILES IDX 55 97
REMARK H PARENT 13 6 18 31 77 50 45 61
REMARK Flexibility Score: inf
ROOT
ATOM      1  C   UNL A   1      37.703  21.120  24.673  1.00  0.00     0.023 C 
ENDROOT
BRANCH   1   2
ATOM      2  C   UNL A   1      36.718  21.595  25.747  1.00  0.00     0.116 C 
BRANCH   2   3
ATOM      3  N   UNL A   1      35.513  20.791  25.738  1.00  0.00    -0.352 N 
ATOM      4  C   UNL A   1      34.343  20.873  25.025  1.00  0.00     0.251 C 
ATOM      5  O   UNL A   1      33.504  19.991  25.219  1.00  0.00    -0.269 OA
ATOM      6  H   UNL A   1      35.538  20.035  26.369  1.00  0.00     0.163 HD
BRANCH   4   7
ATOM      7  C   UNL A   1      34.032  21.945  24.031  1.00  0.00     0.039 A 
ATOM      8  C   UNL A   1      33.181  23.949  22.206  1.00  0.00    -0.011 A 
ATOM      9  C   UNL A   1      32.462  22.756  22.340  1.00  0.00     0.008 A 
ATOM     10  C   UNL A   1      34.365  24.087  22.934  1.00  0.00     0.008 A 
ATOM     11  C   UNL A   1      32.890  21.765  23.233  1.00  0.00     0.014 A 
ATOM     12  C   UNL A   1      34.748  23.130  23.876  1.00  0.00     0.014 A 
BRANCH   8  13
ATOM     13  C   UNL A   1      32.626  25.065  21.336  1.00  0.00     0.265 C 
BRANCH  13  14
ATOM     14  O   UNL A   1      31.696  25.964  21.956  1.00  0.00    -0.488 OA
BRANCH  14  15
ATOM     15  C   UNL A   1      32.110  26.831  22.934  1.00  0.00     0.130 A 
ATOM     16  C   UNL A   1      31.662  26.574  24.244  1.00  0.00     0.064 A 
ATOM     17  C   UNL A   1      31.818  27.528  25.290  1.00  0.00    -0.004 A 
ATOM     18  C   UNL A   1      32.819  28.004  22.683  1.00  0.00     0.048 A 
ATOM     19  C   UNL A   1      32.462  28.749  24.978  1.00  0.00    -0.017 A 
ATOM     20  C   UNL A   1      31.368  27.349  26.623  1.00  0.00     0.009 A 
ATOM     21  C   UNL A   1      32.972  28.960  23.689  1.00  0.00     0.012 A 
ATOM     22  C   UNL A   1      32.588  29.749  25.955  1.00  0.00     0.009 A 
ATOM     23  C   UNL A   1      31.510  28.350  27.587  1.00  0.00     0.001 A 
ATOM     24  C   UNL A   1      32.109  29.555  27.249  1.00  0.00     0.001 A 
BRANCH  16  25
ATOM     25  C   UNL A   1      30.923  25.318  24.516  1.00  0.00     0.264 C 
ATOM     26  O   UNL A   1      31.341  24.442  25.263  1.00  0.00    -0.298 OA
ENDBRANCH  16  25
ENDBRANCH  14  15
ENDBRANCH  13  14
ENDBRANCH   8  13
ENDBRANCH   4   7
ENDBRANCH   2   3
ENDBRANCH   1   2
BRANCH   1  27
ATOM     27  C   UNL A   1      38.332  19.754  24.962  1.00  0.00     0.023 C 
BRANCH  27  28
ATOM     28  C   UNL A   1      39.161  19.692  26.242  1.00  0.00     0.116 C 
BRANCH  28  29
ATOM     29  N   UNL A   1      40.407  18.955  26.085  1.00  0.00    -0.352 N 
ATOM     30  C   UNL A   1      41.693  19.447  26.130  1.00  0.00     0.251 C 
ATOM     31  H   UNL A   1      40.320  17.988  25.928  1.00  0.00     0.163 HD
ATOM     32  O   UNL A   1      42.643  18.720  25.881  1.00  0.00    -0.269 OA
BRANCH  30  33
ATOM     33  C   UNL A   1      41.897  20.879  26.437  1.00  0.00     0.039 A 
ATOM     34  C   UNL A   1      42.165  21.249  27.756  1.00  0.00     0.014 A 
ATOM     35  C   UNL A   1      41.882  21.835  25.420  1.00  0.00     0.014 A 
ATOM     36  C   UNL A   1      42.490  22.575  28.045  1.00  0.00     0.010 A 
ATOM     37  C   UNL A   1      42.269  23.143  25.700  1.00  0.00     0.010 A 
ATOM     38  C   UNL A   1      42.582  23.524  27.013  1.00  0.00    -0.014 A 
BRANCH  38  39
ATOM     39  C   UNL A   1      43.036  24.912  27.280  1.00  0.00     0.031 A 
ATOM     40  C   UNL A   1      42.116  25.896  27.947  1.00  0.00     0.074 A 
ATOM     41  C   UNL A   1      44.246  25.309  26.834  1.00  0.00     0.049 A 
ATOM     42  N   UNL A   1      42.315  27.161  28.208  1.00  0.00    -0.248 NA
ATOM     43  C   UNL A   1      40.789  25.402  28.350  1.00  0.00     0.031 C 
ATOM     44  C   UNL A   1      45.192  24.470  26.095  1.00  0.00     0.029 A 
ATOM     45  N   UNL A   1      44.873  26.527  26.910  1.00  0.00    -0.354 N 
ATOM     46  C   UNL A   1      41.134  27.623  28.774  1.00  0.00     0.074 A 
ATOM     47  C   UNL A   1      40.209  26.510  28.789  1.00  0.00     0.031 C 
ATOM     48  C   UNL A   1      46.276  25.198  25.784  1.00  0.00     0.029 A 
ATOM     49  C   UNL A   1      46.095  26.559  26.279  1.00  0.00     0.049 A 
ATOM     50  H   UNL A   1      44.484  27.305  27.371  1.00  0.00     0.167 HD
ATOM     51  C   UNL A   1      40.855  28.852  29.269  1.00  0.00     0.034 A 
ATOM     52  C   UNL A   1      46.969  27.571  26.117  1.00  0.00     0.034 A 
ATOM     53  C   UNL A   1      41.793  29.942  29.296  1.00  0.00     0.049 A 
ATOM     54  C   UNL A   1      46.653  28.912  26.722  1.00  0.00     0.074 A 
ATOM     55  C   UNL A   1      41.636  31.198  29.855  1.00  0.00     0.029 A 
ATOM     56  N   UNL A   1      43.062  29.906  28.741  1.00  0.00    -0.354 N 
ATOM     57  N   UNL A   1      45.597  29.280  27.406  1.00  0.00    -0.248 NA
ATOM     58  C   UNL A   1      47.666  29.967  26.568  1.00  0.00     0.031 C 
ATOM     59  C   UNL A   1      42.808  31.926  29.627  1.00  0.00     0.029 A 
ATOM     60  C   UNL A   1      43.699  31.119  28.941  1.00  0.00     0.049 A 
ATOM     61  H   UNL A   1      43.453  29.133  28.275  1.00  0.00     0.167 HD
ATOM     62  C   UNL A   1      45.832  30.595  27.792  1.00  0.00     0.074 A 
ATOM     63  C   UNL A   1      47.141  30.951  27.287  1.00  0.00     0.031 C 
ATOM     64  C   UNL A   1      45.027  31.439  28.485  1.00  0.00     0.034 A 
BRANCH  51  65
ATOM     65  C   UNL A   1      39.500  29.066  29.889  1.00  0.00     0.023 A 
ATOM     66  C   UNL A   1      39.256  28.587  31.193  1.00  0.00     0.012 A 
ATOM     67  C   UNL A   1      38.497  29.796  29.221  1.00  0.00     0.148 A 
ATOM     68  C   UNL A   1      38.028  28.806  31.813  1.00  0.00     0.002 A 
ATOM     69  C   UNL A   1      37.288  30.045  29.862  1.00  0.00     0.091 A 
ATOM     70  F   UNL A   1      38.740  30.224  27.976  1.00  0.00    -0.205 F 
ATOM     71  C   UNL A   1      37.050  29.543  31.153  1.00  0.00     0.022 A 
BRANCH  69  72
ATOM     72  S   UNL A   1      35.989  31.046  29.129  1.00  0.00     0.127 S 
ATOM     73  O   UNL A   1      35.355  30.089  28.224  1.00  0.00    -0.237 OA
ATOM     74  O   UNL A   1      35.183  31.407  30.296  1.00  0.00    -0.237 OA
ATOM     75  O   UNL A   1      36.661  32.166  28.485  1.00  0.00    -0.744 OA
ENDBRANCH  69  72
ENDBRANCH  51  65
BRANCH  52  76
ATOM     76  C   UNL A   1      48.260  27.336  25.411  1.00  0.00     0.023 A 
ATOM     77  C   UNL A   1      49.372  26.875  26.143  1.00  0.00     0.012 A 
ATOM     78  C   UNL A   1      48.391  27.543  24.025  1.00  0.00     0.148 A 
ATOM     79  C   UNL A   1      50.599  26.658  25.515  1.00  0.00     0.002 A 
ATOM     80  C   UNL A   1      49.600  27.272  23.395  1.00  0.00     0.091 A 
ATOM     81  F   UNL A   1      47.328  27.997  23.346  1.00  0.00    -0.205 F 
ATOM     82  C   UNL A   1      50.711  26.846  24.140  1.00  0.00     0.022 A 
BRANCH  80  83
ATOM     83  S   UNL A   1      49.787  27.359  21.609  1.00  0.00     0.127 S 
ATOM     84  O   UNL A   1      51.166  26.911  21.430  1.00  0.00    -0.237 OA
ATOM     85  O   UNL A   1      48.768  26.416  21.147  1.00  0.00    -0.237 OA
ATOM     86  O   UNL A   1      49.514  28.747  21.262  1.00  0.00    -0.744 OA
ENDBRANCH  80  83
ENDBRANCH  52  76
BRANCH  64  87
ATOM     87  C   UNL A   1      45.545  32.823  28.766  1.00  0.00     0.023 A 
ATOM     88  C   UNL A   1      46.317  33.056  29.921  1.00  0.00     0.012 A 
ATOM     89  C   UNL A   1      45.333  33.872  27.851  1.00  0.00     0.148 A 
ATOM     90  C   UNL A   1      46.847  34.321  30.175  1.00  0.00     0.002 A 
ATOM     91  C   UNL A   1      45.903  35.118  28.088  1.00  0.00     0.091 A 
ATOM     92  F   UNL A   1      44.579  33.635  26.767  1.00  0.00    -0.205 F 
ATOM     93  C   UNL A   1      46.651  35.346  29.254  1.00  0.00     0.022 A 
BRANCH  91  94
ATOM     94  S   UNL A   1      45.780  36.469  26.910  1.00  0.00     0.127 S 
ATOM     95  O   UNL A   1      44.332  36.643  26.806  1.00  0.00    -0.237 OA
ATOM     96  O   UNL A   1      46.476  37.554  27.605  1.00  0.00    -0.237 OA
ATOM     97  O   UNL A   1      46.445  36.006  25.700  1.00  0.00    -0.744 OA
ENDBRANCH  91  94
ENDBRANCH  64  87
ENDBRANCH  38  39
ENDBRANCH  30  33
ENDBRANCH  28  29
ENDBRANCH  27  28
ENDBRANCH   1  27
TORSDOF 18
ENDMDL
