MODEL 1
REMARK VINA RESULT:     -12.3      0.000      0.000
REMARK SMILES C[C@H]1CC[C@@H]([C@H](C(=O)NCCCCNC(=O)c2ccc(-c3c4nc(c(-c5cccc(S(=O)(=O)[O-])c5F)c5ccc([nH]5)c(-c5cccc(S(=O)(=O)[O-])c5F)c5nc(c(-c6cccc(S(=O)(=O)[O-])c6F)c6ccc3[nH]6)C=C5)C=C4)cc2)[C@@H]2CCS(=O)(=O)C2)C[C@@H]1C
REMARK SMILES IDX 12 1 11 2 10 3 9 4 7 5 8 6 6 8 5 9 1 10 2 11 3 12 88 13 4 14
REMARK SMILES IDX 87 15 89 16 80 17 81 18 86 19 82 20 83 21 84 22 85 23 13 24
REMARK SMILES IDX 14 25 15 26 16 28 17 29 18 30 79 31 19 32 78 33 20 34 21 35
REMARK SMILES IDX 22 36 72 37 23 38 77 39 71 40 73 41 24 42 76 43 70 44 69 45
REMARK SMILES IDX 25 47 57 48 37 49 56 50 38 51 41 52 55 53 74 54 39 55 40 56
REMARK SMILES IDX 54 58 75 59 42 60 26 61 27 62 35 63 28 64 30 65 36 66 29 67
REMARK SMILES IDX 31 68 32 69 33 70 34 71 58 72 59 73 67 74 60 75 62 76 68 77
REMARK SMILES IDX 61 78 63 79 64 80 65 81 66 82 43 83 44 84 52 85 45 86 47 87
REMARK SMILES IDX 53 88 46 89 48 90 49 91 50 92 51 93
REMARK H PARENT 9 7 14 27 73 46 41 57
REMARK Flexibility Score: inf
ROOT
ATOM      1  C   UNL A   1      31.813  28.805  27.118  1.00  0.00     0.023 C 
ENDROOT
BRANCH   1   2
ATOM      2  C   UNL A   1      31.913  27.358  26.716  1.00  0.00     0.023 C 
BRANCH   2   3
ATOM      3  C   UNL A   1      31.110  26.932  25.477  1.00  0.00     0.116 C 
BRANCH   3   4
ATOM      4  N   UNL A   1      30.677  25.565  25.640  1.00  0.00    -0.356 N 
ATOM      5  C   UNL A   1      31.204  24.336  25.451  1.00  0.00     0.223 C 
ATOM      6  O   UNL A   1      30.343  23.455  25.530  1.00  0.00    -0.275 OA
ATOM      7  H   UNL A   1      29.753  25.515  25.980  1.00  0.00     0.163 HD
BRANCH   5   8
ATOM      8  C   UNL A   1      32.725  23.985  25.327  1.00  0.00     0.085 C 
BRANCH   8   9
ATOM      9  C   UNL A   1      33.045  22.877  26.469  1.00  0.00     0.002 C 
ATOM     10  C   UNL A   1      36.600  21.109  24.705  1.00  0.00     0.008 C 
ATOM     11  C   UNL A   1      35.434  21.214  25.709  1.00  0.00    -0.011 C 
ATOM     12  C   UNL A   1      35.599  22.536  26.507  1.00  0.00     0.004 C 
ATOM     13  C   UNL A   1      34.018  21.000  25.097  1.00  0.00    -0.011 C 
ATOM     14  C   UNL A   1      34.363  23.068  27.233  1.00  0.00     0.005 C 
ATOM     15  C   UNL A   1      32.969  21.364  26.129  1.00  0.00     0.008 C 
ATOM     16  C   UNL A   1      33.790  19.614  24.495  1.00  0.00     0.008 C 
ENDBRANCH   8   9
BRANCH   8  17
ATOM     17  C   UNL A   1      33.541  23.901  23.945  1.00  0.00     0.018 C 
ATOM     18  C   UNL A   1      34.528  25.050  23.662  1.00  0.00     0.021 C 
ATOM     19  C   UNL A   1      32.930  23.777  22.529  1.00  0.00     0.141 C 
ATOM     20  C   UNL A   1      33.707  26.148  23.004  1.00  0.00     0.137 C 
ATOM     21  S   UNL A   1      32.553  25.386  21.926  1.00  0.00     0.150 S 
ATOM     22  O   UNL A   1      31.209  25.737  22.351  1.00  0.00    -0.229 OA
ATOM     23  O   UNL A   1      33.003  25.509  20.563  1.00  0.00    -0.229 OA
ENDBRANCH   8  17
ENDBRANCH   5   8
ENDBRANCH   3   4
ENDBRANCH   2   3
ENDBRANCH   1   2
BRANCH   1  24
ATOM     24  C   UNL A   1      32.978  29.615  26.619  1.00  0.00     0.116 C 
BRANCH  24  25
ATOM     25  N   UNL A   1      32.857  31.038  26.947  1.00  0.00    -0.352 N 
ATOM     26  C   UNL A   1      33.731  31.857  27.632  1.00  0.00     0.251 C 
ATOM     27  H   UNL A   1      32.032  31.473  26.632  1.00  0.00     0.163 HD
ATOM     28  O   UNL A   1      33.393  32.982  27.981  1.00  0.00    -0.269 OA
BRANCH  26  29
ATOM     29  C   UNL A   1      35.066  31.324  27.957  1.00  0.00     0.039 A 
ATOM     30  C   UNL A   1      36.170  32.171  28.033  1.00  0.00     0.014 A 
ATOM     31  C   UNL A   1      35.167  29.992  28.342  1.00  0.00     0.014 A 
ATOM     32  C   UNL A   1      37.348  31.691  28.608  1.00  0.00     0.010 A 
ATOM     33  C   UNL A   1      36.242  29.604  29.114  1.00  0.00     0.010 A 
ATOM     34  C   UNL A   1      37.373  30.422  29.209  1.00  0.00    -0.014 A 
BRANCH  34  35
ATOM     35  C   UNL A   1      38.572  29.876  29.890  1.00  0.00     0.031 A 
ATOM     36  C   UNL A   1      38.914  30.372  31.277  1.00  0.00     0.074 A 
ATOM     37  C   UNL A   1      39.400  29.032  29.243  1.00  0.00     0.049 A 
ATOM     38  N   UNL A   1      39.965  30.115  32.008  1.00  0.00    -0.248 NA
ATOM     39  C   UNL A   1      37.983  31.333  31.902  1.00  0.00     0.031 C 
ATOM     40  C   UNL A   1      39.239  28.566  27.863  1.00  0.00     0.029 A 
ATOM     41  N   UNL A   1      40.559  28.426  29.660  1.00  0.00    -0.354 N 
ATOM     42  C   UNL A   1      39.845  30.923  33.134  1.00  0.00     0.074 A 
ATOM     43  C   UNL A   1      38.671  31.738  32.956  1.00  0.00     0.031 C 
ATOM     44  C   UNL A   1      40.239  27.721  27.561  1.00  0.00     0.029 A 
ATOM     45  C   UNL A   1      41.134  27.617  28.708  1.00  0.00     0.049 A 
ATOM     46  H   UNL A   1      40.942  28.559  30.556  1.00  0.00     0.167 HD
ATOM     47  C   UNL A   1      40.608  30.946  34.249  1.00  0.00     0.034 A 
ATOM     48  C   UNL A   1      42.258  26.877  28.759  1.00  0.00     0.034 A 
ATOM     49  C   UNL A   1      41.724  30.071  34.456  1.00  0.00     0.049 A 
ATOM     50  C   UNL A   1      43.057  26.867  30.036  1.00  0.00     0.074 A 
ATOM     51  C   UNL A   1      42.503  29.926  35.588  1.00  0.00     0.029 A 
ATOM     52  N   UNL A   1      42.217  29.191  33.507  1.00  0.00    -0.354 N 
ATOM     53  N   UNL A   1      42.835  27.519  31.152  1.00  0.00    -0.248 NA
ATOM     54  C   UNL A   1      44.238  25.995  30.073  1.00  0.00     0.031 C 
ATOM     55  C   UNL A   1      43.493  28.978  35.309  1.00  0.00     0.029 A 
ATOM     56  C   UNL A   1      43.301  28.505  34.020  1.00  0.00     0.049 A 
ATOM     57  H   UNL A   1      41.850  29.072  32.601  1.00  0.00     0.167 HD
ATOM     58  C   UNL A   1      43.825  27.106  32.037  1.00  0.00     0.074 A 
ATOM     59  C   UNL A   1      44.634  26.133  31.331  1.00  0.00     0.031 C 
ATOM     60  C   UNL A   1      44.055  27.504  33.312  1.00  0.00     0.034 A 
BRANCH  47  61
ATOM     61  C   UNL A   1      40.218  31.903  35.345  1.00  0.00     0.023 A 
ATOM     62  C   UNL A   1      40.868  33.151  35.457  1.00  0.00     0.012 A 
ATOM     63  C   UNL A   1      39.187  31.581  36.247  1.00  0.00     0.148 A 
ATOM     64  C   UNL A   1      40.529  34.042  36.474  1.00  0.00     0.002 A 
ATOM     65  C   UNL A   1      38.816  32.497  37.224  1.00  0.00     0.091 A 
ATOM     66  F   UNL A   1      38.598  30.381  36.143  1.00  0.00    -0.205 F 
ATOM     67  C   UNL A   1      39.496  33.720  37.348  1.00  0.00     0.022 A 
BRANCH  65  68
ATOM     68  S   UNL A   1      37.442  32.217  38.344  1.00  0.00     0.127 S 
ATOM     69  O   UNL A   1      37.952  32.799  39.585  1.00  0.00    -0.237 OA
ATOM     70  O   UNL A   1      36.370  32.981  37.708  1.00  0.00    -0.237 OA
ATOM     71  O   UNL A   1      37.232  30.777  38.373  1.00  0.00    -0.744 OA
ENDBRANCH  65  68
ENDBRANCH  47  61
BRANCH  48  72
ATOM     72  C   UNL A   1      42.659  26.034  27.596  1.00  0.00     0.023 A 
ATOM     73  C   UNL A   1      43.526  26.565  26.619  1.00  0.00     0.012 A 
ATOM     74  C   UNL A   1      42.203  24.709  27.460  1.00  0.00     0.148 A 
ATOM     75  C   UNL A   1      43.900  25.806  25.509  1.00  0.00     0.002 A 
ATOM     76  C   UNL A   1      42.624  23.940  26.381  1.00  0.00     0.091 A 
ATOM     77  F   UNL A   1      41.375  24.225  28.396  1.00  0.00    -0.205 F 
ATOM     78  C   UNL A   1      43.456  24.492  25.394  1.00  0.00     0.022 A 
BRANCH  76  79
ATOM     79  S   UNL A   1      42.205  22.202  26.214  1.00  0.00     0.127 S 
ATOM     80  O   UNL A   1      40.749  22.254  26.105  1.00  0.00    -0.237 OA
ATOM     81  O   UNL A   1      42.904  21.843  24.980  1.00  0.00    -0.237 OA
ATOM     82  O   UNL A   1      42.726  21.556  27.411  1.00  0.00    -0.744 OA
ENDBRANCH  76  79
ENDBRANCH  48  72
BRANCH  60  83
ATOM     83  C   UNL A   1      45.194  26.856  34.050  1.00  0.00     0.023 A 
ATOM     84  C   UNL A   1      46.493  27.393  33.955  1.00  0.00     0.012 A 
ATOM     85  C   UNL A   1      44.954  25.763  34.907  1.00  0.00     0.148 A 
ATOM     86  C   UNL A   1      47.545  26.828  34.674  1.00  0.00     0.002 A 
ATOM     87  C   UNL A   1      45.995  25.243  35.664  1.00  0.00     0.091 A 
ATOM     88  F   UNL A   1      43.713  25.262  34.970  1.00  0.00    -0.205 F 
ATOM     89  C   UNL A   1      47.293  25.764  35.537  1.00  0.00     0.022 A 
BRANCH  87  90
ATOM     90  S   UNL A   1      45.744  23.945  36.878  1.00  0.00     0.127 S 
ATOM     91  O   UNL A   1      45.354  22.818  36.033  1.00  0.00    -0.237 OA
ATOM     92  O   UNL A   1      47.072  23.827  37.481  1.00  0.00    -0.237 OA
ATOM     93  O   UNL A   1      44.711  24.432  37.782  1.00  0.00    -0.744 OA
ENDBRANCH  87  90
ENDBRANCH  60  83
ENDBRANCH  34  35
ENDBRANCH  26  29
ENDBRANCH  24  25
ENDBRANCH   1  24
TORSDOF 16
ENDMDL
MODEL 2
REMARK VINA RESULT:     -12.3      5.088     10.246
REMARK SMILES C[C@H]1CC[C@@H]([C@H](C(=O)NCCCCNC(=O)c2ccc(-c3c4nc(c(-c5cccc(S(=O)(=O)[O-])c5F)c5ccc([nH]5)c(-c5cccc(S(=O)(=O)[O-])c5F)c5nc(c(-c6cccc(S(=O)(=O)[O-])c6F)c6ccc3[nH]6)C=C5)C=C4)cc2)[C@@H]2CCS(=O)(=O)C2)C[C@@H]1C
REMARK SMILES IDX 12 1 11 2 10 3 9 4 7 5 8 6 6 8 5 9 1 10 2 11 3 12 88 13 4 14
REMARK SMILES IDX 87 15 89 16 80 17 81 18 86 19 82 20 83 21 84 22 85 23 13 24
REMARK SMILES IDX 14 25 15 26 16 28 17 29 18 30 79 31 19 32 78 33 20 34 21 35
REMARK SMILES IDX 22 36 72 37 23 38 77 39 71 40 73 41 24 42 76 43 70 44 69 45
REMARK SMILES IDX 25 47 57 48 37 49 56 50 38 51 41 52 55 53 74 54 39 55 40 56
REMARK SMILES IDX 54 58 75 59 42 60 26 61 27 62 35 63 28 64 30 65 36 66 29 67
REMARK SMILES IDX 31 68 32 69 33 70 34 71 58 72 59 73 67 74 60 75 62 76 68 77
REMARK SMILES IDX 61 78 63 79 64 80 65 81 66 82 43 83 44 84 52 85 45 86 47 87
REMARK SMILES IDX 53 88 46 89 48 90 49 91 50 92 51 93
REMARK H PARENT 9 7 14 27 73 46 41 57
REMARK Flexibility Score: inf
ROOT
ATOM      1  C   UNL A   1      36.530  22.561  23.843  1.00  0.00     0.023 C 
ENDROOT
BRANCH   1   2
ATOM      2  C   UNL A   1      35.395  23.534  23.671  1.00  0.00     0.023 C 
BRANCH   2   3
ATOM      3  C   UNL A   1      33.986  22.932  23.549  1.00  0.00     0.116 C 
BRANCH   3   4
ATOM      4  N   UNL A   1      33.189  23.764  22.680  1.00  0.00    -0.356 N 
ATOM      5  C   UNL A   1      32.483  24.910  22.790  1.00  0.00     0.223 C 
ATOM      6  O   UNL A   1      31.780  25.108  21.795  1.00  0.00    -0.275 OA
ATOM      7  H   UNL A   1      33.150  23.400  21.765  1.00  0.00     0.163 HD
BRANCH   5   8
ATOM      8  C   UNL A   1      32.626  25.986  23.918  1.00  0.00     0.085 C 
BRANCH   8   9
ATOM      9  C   UNL A   1      33.023  27.380  23.188  1.00  0.00     0.002 C 
ATOM     10  C   UNL A   1      31.788  30.141  26.308  1.00  0.00     0.008 C 
ATOM     11  C   UNL A   1      32.270  29.737  24.899  1.00  0.00    -0.011 C 
ATOM     12  C   UNL A   1      33.659  29.056  25.039  1.00  0.00     0.004 C 
ATOM     13  C   UNL A   1      31.237  28.933  24.055  1.00  0.00    -0.011 C 
ATOM     14  C   UNL A   1      34.132  28.196  23.867  1.00  0.00     0.005 C 
ATOM     15  C   UNL A   1      31.917  28.402  22.809  1.00  0.00     0.008 C 
ATOM     16  C   UNL A   1      29.949  29.692  23.740  1.00  0.00     0.008 C 
ENDBRANCH   8   9
BRANCH   8  17
ATOM     17  C   UNL A   1      31.716  26.060  25.241  1.00  0.00     0.018 C 
ATOM     18  C   UNL A   1      32.414  25.716  26.572  1.00  0.00     0.021 C 
ATOM     19  C   UNL A   1      30.390  25.300  25.482  1.00  0.00     0.141 C 
ATOM     20  C   UNL A   1      32.326  24.205  26.707  1.00  0.00     0.137 C 
ATOM     21  S   UNL A   1      30.755  23.700  26.117  1.00  0.00     0.150 S 
ATOM     22  O   UNL A   1      30.941  22.790  25.001  1.00  0.00    -0.229 OA
ATOM     23  O   UNL A   1      29.886  23.412  27.229  1.00  0.00    -0.229 OA
ENDBRANCH   8  17
ENDBRANCH   5   8
ENDBRANCH   3   4
ENDBRANCH   2   3
ENDBRANCH   1   2
BRANCH   1  24
ATOM     24  C   UNL A   1      36.971  22.451  25.277  1.00  0.00     0.116 C 
BRANCH  24  25
ATOM     25  N   UNL A   1      37.970  21.398  25.480  1.00  0.00    -0.352 N 
ATOM     26  C   UNL A   1      39.218  21.474  26.061  1.00  0.00     0.251 C 
ATOM     27  H   UNL A   1      37.711  20.505  25.155  1.00  0.00     0.163 HD
ATOM     28  O   UNL A   1      40.003  20.536  25.986  1.00  0.00    -0.269 OA
BRANCH  26  29
ATOM     29  C   UNL A   1      39.587  22.728  26.743  1.00  0.00     0.039 A 
ATOM     30  C   UNL A   1      40.583  22.739  27.718  1.00  0.00     0.014 A 
ATOM     31  C   UNL A   1      39.035  23.916  26.279  1.00  0.00     0.014 A 
ATOM     32  C   UNL A   1      41.097  23.967  28.140  1.00  0.00     0.010 A 
ATOM     33  C   UNL A   1      39.705  25.098  26.522  1.00  0.00     0.010 A 
ATOM     34  C   UNL A   1      40.704  25.154  27.499  1.00  0.00    -0.014 A 
BRANCH  34  35
ATOM     35  C   UNL A   1      41.256  26.484  27.855  1.00  0.00     0.031 A 
ATOM     36  C   UNL A   1      42.697  26.792  27.515  1.00  0.00     0.074 A 
ATOM     37  C   UNL A   1      40.518  27.362  28.563  1.00  0.00     0.049 A 
ATOM     38  N   UNL A   1      43.411  27.839  27.827  1.00  0.00    -0.248 NA
ATOM     39  C   UNL A   1      43.455  25.760  26.780  1.00  0.00     0.031 C 
ATOM     40  C   UNL A   1      39.154  27.137  29.049  1.00  0.00     0.029 A 
ATOM     41  N   UNL A   1      40.823  28.621  29.015  1.00  0.00    -0.354 N 
ATOM     42  C   UNL A   1      44.699  27.561  27.383  1.00  0.00     0.074 A 
ATOM     43  C   UNL A   1      44.692  26.219  26.857  1.00  0.00     0.031 C 
ATOM     44  C   UNL A   1      38.728  28.234  29.697  1.00  0.00     0.029 A 
ATOM     45  C   UNL A   1      39.800  29.223  29.711  1.00  0.00     0.049 A 
ATOM     46  H   UNL A   1      41.692  29.053  28.856  1.00  0.00     0.167 HD
ATOM     47  C   UNL A   1      45.783  28.368  27.356  1.00  0.00     0.034 A 
ATOM     48  C   UNL A   1      39.739  30.435  30.294  1.00  0.00     0.034 A 
ATOM     49  C   UNL A   1      45.759  29.730  27.802  1.00  0.00     0.049 A 
ATOM     50  C   UNL A   1      40.937  31.343  30.194  1.00  0.00     0.074 A 
ATOM     51  C   UNL A   1      46.762  30.677  27.722  1.00  0.00     0.029 A 
ATOM     52  N   UNL A   1      44.673  30.337  28.410  1.00  0.00    -0.354 N 
ATOM     53  N   UNL A   1      42.097  31.119  29.625  1.00  0.00    -0.248 NA
ATOM     54  C   UNL A   1      40.806  32.682  30.784  1.00  0.00     0.031 C 
ATOM     55  C   UNL A   1      46.291  31.853  28.316  1.00  0.00     0.029 A 
ATOM     56  C   UNL A   1      44.982  31.647  28.724  1.00  0.00     0.049 A 
ATOM     57  H   UNL A   1      43.809  29.902  28.590  1.00  0.00     0.167 HD
ATOM     58  C   UNL A   1      42.819  32.299  29.754  1.00  0.00     0.074 A 
ATOM     59  C   UNL A   1      41.956  33.242  30.437  1.00  0.00     0.031 C 
ATOM     60  C   UNL A   1      44.085  32.578  29.357  1.00  0.00     0.034 A 
BRANCH  47  61
ATOM     61  C   UNL A   1      47.055  27.813  26.772  1.00  0.00     0.023 A 
ATOM     62  C   UNL A   1      48.022  27.225  27.616  1.00  0.00     0.012 A 
ATOM     63  C   UNL A   1      47.282  27.845  25.383  1.00  0.00     0.148 A 
ATOM     64  C   UNL A   1      49.211  26.721  27.093  1.00  0.00     0.002 A 
ATOM     65  C   UNL A   1      48.445  27.289  24.864  1.00  0.00     0.091 A 
ATOM     66  F   UNL A   1      46.366  28.430  24.599  1.00  0.00    -0.205 F 
ATOM     67  C   UNL A   1      49.416  26.742  25.718  1.00  0.00     0.022 A 
BRANCH  65  68
ATOM     68  S   UNL A   1      48.766  27.188  23.101  1.00  0.00     0.127 S 
ATOM     69  O   UNL A   1      48.232  25.865  22.780  1.00  0.00    -0.237 OA
ATOM     70  O   UNL A   1      47.978  28.306  22.583  1.00  0.00    -0.237 OA
ATOM     71  O   UNL A   1      50.206  27.332  22.944  1.00  0.00    -0.744 OA
ENDBRANCH  65  68
ENDBRANCH  47  61
BRANCH  48  72
ATOM     72  C   UNL A   1      38.485  30.889  30.962  1.00  0.00     0.023 A 
ATOM     73  C   UNL A   1      38.321  30.680  32.346  1.00  0.00     0.012 A 
ATOM     74  C   UNL A   1      37.465  31.538  30.241  1.00  0.00     0.148 A 
ATOM     75  C   UNL A   1      37.149  31.073  32.993  1.00  0.00     0.002 A 
ATOM     76  C   UNL A   1      36.324  31.978  30.902  1.00  0.00     0.091 A 
ATOM     77  F   UNL A   1      37.638  31.722  28.925  1.00  0.00    -0.205 F 
ATOM     78  C   UNL A   1      36.154  31.730  32.273  1.00  0.00     0.022 A 
BRANCH  76  79
ATOM     79  S   UNL A   1      35.047  32.940  30.084  1.00  0.00     0.127 S 
ATOM     80  O   UNL A   1      34.188  33.311  31.206  1.00  0.00    -0.237 OA
ATOM     81  O   UNL A   1      35.823  34.040  29.511  1.00  0.00    -0.237 OA
ATOM     82  O   UNL A   1      34.451  32.046  29.101  1.00  0.00    -0.744 OA
ENDBRANCH  76  79
ENDBRANCH  48  72
BRANCH  60  83
ATOM     83  C   UNL A   1      44.602  33.968  29.603  1.00  0.00     0.023 A 
ATOM     84  C   UNL A   1      45.205  34.290  30.834  1.00  0.00     0.012 A 
ATOM     85  C   UNL A   1      44.566  34.931  28.574  1.00  0.00     0.148 A 
ATOM     86  C   UNL A   1      45.732  35.562  31.052  1.00  0.00     0.002 A 
ATOM     87  C   UNL A   1      45.144  36.176  28.778  1.00  0.00     0.091 A 
ATOM     88  F   UNL A   1      43.976  34.605  27.415  1.00  0.00    -0.205 F 
ATOM     89  C   UNL A   1      45.713  36.498  30.020  1.00  0.00     0.022 A 
BRANCH  87  90
ATOM     90  S   UNL A   1      45.262  37.406  27.475  1.00  0.00     0.127 S 
ATOM     91  O   UNL A   1      43.854  37.638  27.156  1.00  0.00    -0.237 OA
ATOM     92  O   UNL A   1      45.925  38.516  28.159  1.00  0.00    -0.237 OA
ATOM     93  O   UNL A   1      46.048  36.794  26.413  1.00  0.00    -0.744 OA
ENDBRANCH  87  90
ENDBRANCH  60  83
ENDBRANCH  34  35
ENDBRANCH  26  29
ENDBRANCH  24  25
ENDBRANCH   1  24
TORSDOF 16
ENDMDL
MODEL 3
REMARK VINA RESULT:     -12.2      2.519      8.264
REMARK SMILES C[C@H]1CC[C@@H]([C@H](C(=O)NCCCCNC(=O)c2ccc(-c3c4nc(c(-c5cccc(S(=O)(=O)[O-])c5F)c5ccc([nH]5)c(-c5cccc(S(=O)(=O)[O-])c5F)c5nc(c(-c6cccc(S(=O)(=O)[O-])c6F)c6ccc3[nH]6)C=C5)C=C4)cc2)[C@@H]2CCS(=O)(=O)C2)C[C@@H]1C
REMARK SMILES IDX 12 1 11 2 10 3 9 4 7 5 8 6 6 8 5 9 1 10 2 11 3 12 88 13 4 14
REMARK SMILES IDX 87 15 89 16 80 17 81 18 86 19 82 20 83 21 84 22 85 23 13 24
REMARK SMILES IDX 14 25 15 26 16 28 17 29 18 30 79 31 19 32 78 33 20 34 21 35
REMARK SMILES IDX 22 36 72 37 23 38 77 39 71 40 73 41 24 42 76 43 70 44 69 45
REMARK SMILES IDX 25 47 57 48 37 49 56 50 38 51 41 52 55 53 74 54 39 55 40 56
REMARK SMILES IDX 54 58 75 59 42 60 26 61 27 62 35 63 28 64 30 65 36 66 29 67
REMARK SMILES IDX 31 68 32 69 33 70 34 71 58 72 59 73 67 74 60 75 62 76 68 77
REMARK SMILES IDX 61 78 63 79 64 80 65 81 66 82 43 83 44 84 52 85 45 86 47 87
REMARK SMILES IDX 53 88 46 89 48 90 49 91 50 92 51 93
REMARK H PARENT 9 7 14 27 73 46 41 57
REMARK Flexibility Score: inf
ROOT
ATOM      1  C   UNL A   1      32.244  31.498  26.957  1.00  0.00     0.023 C 
ENDROOT
BRANCH   1   2
ATOM      2  C   UNL A   1      32.838  30.261  26.341  1.00  0.00     0.023 C 
BRANCH   2   3
ATOM      3  C   UNL A   1      33.314  29.169  27.313  1.00  0.00     0.116 C 
BRANCH   3   4
ATOM      4  N   UNL A   1      32.350  28.094  27.325  1.00  0.00    -0.356 N 
ATOM      5  C   UNL A   1      31.965  27.108  26.487  1.00  0.00     0.223 C 
ATOM      6  O   UNL A   1      30.926  26.564  26.873  1.00  0.00    -0.275 OA
ATOM      7  H   UNL A   1      31.839  28.075  28.168  1.00  0.00     0.163 HD
BRANCH   5   8
ATOM      8  C   UNL A   1      32.777  26.551  25.271  1.00  0.00     0.085 C 
BRANCH   8   9
ATOM      9  C   UNL A   1      33.635  25.285  25.819  1.00  0.00     0.002 C 
ATOM     10  C   UNL A   1      32.564  22.382  22.769  1.00  0.00     0.008 C 
ATOM     11  C   UNL A   1      33.184  22.859  24.099  1.00  0.00    -0.011 C 
ATOM     12  C   UNL A   1      34.311  23.877  23.770  1.00  0.00     0.004 C 
ATOM     13  C   UNL A   1      32.159  23.350  25.164  1.00  0.00    -0.011 C 
ATOM     14  C   UNL A   1      34.765  24.799  24.903  1.00  0.00     0.005 C 
ATOM     15  C   UNL A   1      32.906  24.005  26.309  1.00  0.00     0.008 C 
ATOM     16  C   UNL A   1      31.179  22.280  25.641  1.00  0.00     0.008 C 
ENDBRANCH   8   9
BRANCH   8  17
ATOM     17  C   UNL A   1      32.248  26.501  23.754  1.00  0.00     0.018 C 
ATOM     18  C   UNL A   1      33.046  27.323  22.723  1.00  0.00     0.021 C 
ATOM     19  C   UNL A   1      30.823  26.862  23.271  1.00  0.00     0.141 C 
ATOM     20  C   UNL A   1      32.473  28.729  22.781  1.00  0.00     0.137 C 
ATOM     21  S   UNL A   1      30.738  28.597  22.988  1.00  0.00     0.150 S 
ATOM     22  O   UNL A   1      30.360  29.252  24.228  1.00  0.00    -0.229 OA
ATOM     23  O   UNL A   1      30.076  28.850  21.734  1.00  0.00    -0.229 OA
ENDBRANCH   8  17
ENDBRANCH   5   8
ENDBRANCH   3   4
ENDBRANCH   2   3
ENDBRANCH   1   2
BRANCH   1  24
ATOM     24  C   UNL A   1      33.293  32.396  27.554  1.00  0.00     0.116 C 
BRANCH  24  25
ATOM     25  N   UNL A   1      32.840  33.783  27.685  1.00  0.00    -0.352 N 
ATOM     26  C   UNL A   1      33.177  34.730  28.629  1.00  0.00     0.251 C 
ATOM     27  H   UNL A   1      32.203  34.084  26.997  1.00  0.00     0.163 HD
ATOM     28  O   UNL A   1      32.566  35.789  28.701  1.00  0.00    -0.269 OA
BRANCH  26  29
ATOM     29  C   UNL A   1      34.270  34.412  29.565  1.00  0.00     0.039 A 
ATOM     30  C   UNL A   1      33.999  33.842  30.808  1.00  0.00     0.014 A 
ATOM     31  C   UNL A   1      35.579  34.544  29.117  1.00  0.00     0.014 A 
ATOM     32  C   UNL A   1      35.054  33.303  31.547  1.00  0.00     0.010 A 
ATOM     33  C   UNL A   1      36.570  33.807  29.734  1.00  0.00     0.010 A 
ATOM     34  C   UNL A   1      36.340  33.227  30.986  1.00  0.00    -0.014 A 
BRANCH  34  35
ATOM     35  C   UNL A   1      37.491  32.612  31.691  1.00  0.00     0.031 A 
ATOM     36  C   UNL A   1      38.246  31.489  31.016  1.00  0.00     0.074 A 
ATOM     37  C   UNL A   1      37.793  32.976  32.953  1.00  0.00     0.049 A 
ATOM     38  N   UNL A   1      39.206  30.740  31.488  1.00  0.00    -0.248 NA
ATOM     39  C   UNL A   1      37.825  31.114  29.651  1.00  0.00     0.031 C 
ATOM     40  C   UNL A   1      37.069  33.968  33.753  1.00  0.00     0.029 A 
ATOM     41  N   UNL A   1      38.783  32.536  33.794  1.00  0.00    -0.354 N 
ATOM     42  C   UNL A   1      39.452  29.784  30.510  1.00  0.00     0.074 A 
ATOM     43  C   UNL A   1      38.491  29.988  29.456  1.00  0.00     0.031 C 
ATOM     44  C   UNL A   1      37.662  34.087  34.952  1.00  0.00     0.029 A 
ATOM     45  C   UNL A   1      38.780  33.153  35.024  1.00  0.00     0.049 A 
ATOM     46  H   UNL A   1      39.436  31.845  33.541  1.00  0.00     0.167 HD
ATOM     47  C   UNL A   1      40.430  28.852  30.458  1.00  0.00     0.034 A 
ATOM     48  C   UNL A   1      39.588  32.979  36.087  1.00  0.00     0.034 A 
ATOM     49  C   UNL A   1      41.436  28.711  31.470  1.00  0.00     0.049 A 
ATOM     50  C   UNL A   1      40.711  31.981  35.982  1.00  0.00     0.074 A 
ATOM     51  C   UNL A   1      42.538  27.879  31.474  1.00  0.00     0.029 A 
ATOM     52  N   UNL A   1      41.458  29.424  32.657  1.00  0.00    -0.354 N 
ATOM     53  N   UNL A   1      41.026  31.197  34.980  1.00  0.00    -0.248 NA
ATOM     54  C   UNL A   1      41.611  31.870  37.138  1.00  0.00     0.031 C 
ATOM     55  C   UNL A   1      43.212  28.066  32.686  1.00  0.00     0.029 A 
ATOM     56  C   UNL A   1      42.551  29.044  33.412  1.00  0.00     0.049 A 
ATOM     57  H   UNL A   1      40.795  30.101  32.924  1.00  0.00     0.167 HD
ATOM     58  C   UNL A   1      42.182  30.528  35.368  1.00  0.00     0.074 A 
ATOM     59  C   UNL A   1      42.520  31.017  36.690  1.00  0.00     0.031 C 
ATOM     60  C   UNL A   1      42.893  29.585  34.702  1.00  0.00     0.034 A 
BRANCH  47  61
ATOM     61  C   UNL A   1      40.488  27.964  29.243  1.00  0.00     0.023 A 
ATOM     62  C   UNL A   1      39.609  26.865  29.129  1.00  0.00     0.012 A 
ATOM     63  C   UNL A   1      41.391  28.235  28.198  1.00  0.00     0.148 A 
ATOM     64  C   UNL A   1      39.660  26.025  28.018  1.00  0.00     0.002 A 
ATOM     65  C   UNL A   1      41.397  27.426  27.068  1.00  0.00     0.091 A 
ATOM     66  F   UNL A   1      42.236  29.267  28.334  1.00  0.00    -0.205 F 
ATOM     67  C   UNL A   1      40.544  26.313  26.983  1.00  0.00     0.022 A 
BRANCH  65  68
ATOM     68  S   UNL A   1      42.437  27.760  25.643  1.00  0.00     0.127 S 
ATOM     69  O   UNL A   1      42.212  26.566  24.829  1.00  0.00    -0.237 OA
ATOM     70  O   UNL A   1      41.838  28.984  25.110  1.00  0.00    -0.237 OA
ATOM     71  O   UNL A   1      43.789  27.917  26.158  1.00  0.00    -0.744 OA
ENDBRANCH  65  68
ENDBRANCH  47  61
BRANCH  48  72
ATOM     72  C   UNL A   1      39.411  33.809  37.313  1.00  0.00     0.023 A 
ATOM     73  C   UNL A   1      39.929  35.120  37.345  1.00  0.00     0.012 A 
ATOM     74  C   UNL A   1      38.720  33.318  38.437  1.00  0.00     0.148 A 
ATOM     75  C   UNL A   1      39.797  35.911  38.487  1.00  0.00     0.002 A 
ATOM     76  C   UNL A   1      38.543  34.131  39.551  1.00  0.00     0.091 A 
ATOM     77  F   UNL A   1      38.240  32.068  38.389  1.00  0.00    -0.205 F 
ATOM     78  C   UNL A   1      39.097  35.420  39.586  1.00  0.00     0.022 A 
BRANCH  76  79
ATOM     79  S   UNL A   1      37.551  33.632  40.962  1.00  0.00     0.127 S 
ATOM     80  O   UNL A   1      36.363  33.083  40.313  1.00  0.00    -0.237 OA
ATOM     81  O   UNL A   1      38.418  32.641  41.600  1.00  0.00    -0.237 OA
ATOM     82  O   UNL A   1      37.342  34.843  41.743  1.00  0.00    -0.744 OA
ENDBRANCH  76  79
ENDBRANCH  48  72
BRANCH  60  83
ATOM     83  C   UNL A   1      44.134  29.053  35.361  1.00  0.00     0.023 A 
ATOM     84  C   UNL A   1      45.381  29.663  35.117  1.00  0.00     0.012 A 
ATOM     85  C   UNL A   1      44.046  27.999  36.292  1.00  0.00     0.148 A 
ATOM     86  C   UNL A   1      46.528  29.206  35.763  1.00  0.00     0.002 A 
ATOM     87  C   UNL A   1      45.184  27.588  36.974  1.00  0.00     0.091 A 
ATOM     88  F   UNL A   1      42.852  27.426  36.498  1.00  0.00    -0.205 F 
ATOM     89  C   UNL A   1      46.427  28.180  36.699  1.00  0.00     0.022 A 
BRANCH  87  90
ATOM     90  S   UNL A   1      45.131  26.349  38.272  1.00  0.00     0.127 S 
ATOM     91  O   UNL A   1      44.601  25.190  37.556  1.00  0.00    -0.237 OA
ATOM     92  O   UNL A   1      46.540  26.241  38.652  1.00  0.00    -0.237 OA
ATOM     93  O   UNL A   1      44.264  26.889  39.310  1.00  0.00    -0.744 OA
ENDBRANCH  87  90
ENDBRANCH  60  83
ENDBRANCH  34  35
ENDBRANCH  26  29
ENDBRANCH  24  25
ENDBRANCH   1  24
TORSDOF 16
ENDMDL
