MODEL 1
REMARK VINA RESULT:     -12.1      0.000      0.000
REMARK SMILES Cc1cccc(C[C@H](C(=O)NCCCCNC(=O)c2ccc(-c3c4nc(c(-c5cccc(S(=O)(=O)[O-])c5F)c5ccc([nH]5)c(-c5cccc(S(=O)(=O)[O-])c5F)c5nc(c(-c6cccc(S(=O)(=O)[O-])c6F)c6ccc3[nH]6)C=C5)C=C4)cc2)[C@@H]2CCCC[C@@H]2O)c1
REMARK SMILES IDX 14 1 13 2 12 3 11 4 9 5 10 6 8 8 7 9 6 10 1 11 2 12 3 13
REMARK SMILES IDX 89 14 4 15 5 16 82 17 83 18 87 19 84 20 86 21 85 22 88 23
REMARK SMILES IDX 15 25 16 26 17 27 18 29 19 30 20 31 81 32 21 33 80 34 22 35
REMARK SMILES IDX 23 36 24 37 74 38 25 39 79 40 73 41 75 42 26 43 78 44 72 45
REMARK SMILES IDX 71 46 27 48 59 49 39 50 58 51 40 52 43 53 57 54 76 55 41 56
REMARK SMILES IDX 42 57 56 59 77 60 44 61 28 62 29 63 37 64 30 65 32 66 38 67
REMARK SMILES IDX 31 68 33 69 34 70 35 71 36 72 60 73 61 74 69 75 62 76 64 77
REMARK SMILES IDX 70 78 63 79 65 80 66 81 67 82 68 83 45 84 46 85 54 86 47 87
REMARK SMILES IDX 49 88 55 89 48 90 50 91 51 92 52 93 53 94
REMARK H PARENT 11 7 88 24 16 28 75 47 43 58
REMARK Flexibility Score: inf
ROOT
ATOM      1  C   UNL A   1      36.766  23.689  26.040  1.00  0.00     0.023 C 
ENDROOT
BRANCH   1   2
ATOM      2  C   UNL A   1      35.605  22.842  26.577  1.00  0.00     0.023 C 
BRANCH   2   3
ATOM      3  C   UNL A   1      34.360  22.661  25.673  1.00  0.00     0.116 C 
BRANCH   3   4
ATOM      4  N   UNL A   1      34.544  23.091  24.289  1.00  0.00    -0.356 N 
ATOM      5  C   UNL A   1      34.063  24.138  23.550  1.00  0.00     0.223 C 
ATOM      6  O   UNL A   1      34.436  24.175  22.372  1.00  0.00    -0.275 OA
ATOM      7  H   UNL A   1      35.143  22.501  23.777  1.00  0.00     0.163 HD
BRANCH   5   8
ATOM      8  C   UNL A   1      33.128  25.251  24.134  1.00  0.00     0.088 C 
BRANCH   8   9
ATOM      9  C   UNL A   1      33.980  26.095  25.155  1.00  0.00     0.049 C 
BRANCH   9  10
ATOM     10  C   UNL A   1      33.321  27.163  26.010  1.00  0.00    -0.047 A 
ATOM     11  C   UNL A   1      33.987  30.716  27.302  1.00  0.00     0.044 C 
ATOM     12  C   UNL A   1      33.303  29.429  26.948  1.00  0.00    -0.051 A 
ATOM     13  C   UNL A   1      31.987  29.241  27.381  1.00  0.00     0.003 A 
ATOM     14  C   UNL A   1      33.950  28.403  26.230  1.00  0.00     0.007 A 
ATOM     15  C   UNL A   1      31.384  28.006  27.222  1.00  0.00     0.001 A 
ATOM     16  C   UNL A   1      32.080  26.970  26.604  1.00  0.00     0.004 A 
ENDBRANCH   9  10
ENDBRANCH   8   9
BRANCH   8  17
ATOM     17  C   UNL A   1      32.453  26.045  22.970  1.00  0.00     0.030 C 
ATOM     18  C   UNL A   1      33.239  27.150  22.270  1.00  0.00     0.007 C 
ATOM     19  C   UNL A   1      30.934  26.329  22.963  1.00  0.00     0.118 C 
ATOM     20  C   UNL A   1      32.929  28.534  22.795  1.00  0.00     0.001 C 
ATOM     21  C   UNL A   1      30.501  27.754  23.295  1.00  0.00     0.032 C 
ATOM     22  C   UNL A   1      31.438  28.855  22.803  1.00  0.00     0.003 C 
BRANCH  19  23
ATOM     23  O   UNL A   1      30.169  25.368  23.682  1.00  0.00    -0.393 OA
ATOM     24  H   UNL A   1      29.819  25.774  24.490  1.00  0.00     0.210 HD
ENDBRANCH  19  23
ENDBRANCH   8  17
ENDBRANCH   5   8
ENDBRANCH   3   4
ENDBRANCH   2   3
ENDBRANCH   1   2
BRANCH   1  25
ATOM     25  C   UNL A   1      37.965  22.908  25.527  1.00  0.00     0.116 C 
BRANCH  25  26
ATOM     26  N   UNL A   1      38.875  22.548  26.620  1.00  0.00    -0.352 N 
ATOM     27  C   UNL A   1      39.875  23.269  27.233  1.00  0.00     0.251 C 
ATOM     28  H   UNL A   1      38.751  21.638  26.973  1.00  0.00     0.163 HD
ATOM     29  O   UNL A   1      40.824  22.643  27.725  1.00  0.00    -0.269 OA
BRANCH  27  30
ATOM     30  C   UNL A   1      39.763  24.728  27.371  1.00  0.00     0.039 A 
ATOM     31  C   UNL A   1      40.359  25.643  26.496  1.00  0.00     0.014 A 
ATOM     32  C   UNL A   1      39.175  25.193  28.536  1.00  0.00     0.014 A 
ATOM     33  C   UNL A   1      40.457  26.978  26.891  1.00  0.00     0.010 A 
ATOM     34  C   UNL A   1      38.954  26.507  28.742  1.00  0.00     0.010 A 
ATOM     35  C   UNL A   1      39.802  27.359  28.057  1.00  0.00    -0.014 A 
BRANCH  35  36
ATOM     36  C   UNL A   1      40.002  28.567  28.822  1.00  0.00     0.031 A 
ATOM     37  C   UNL A   1      39.108  29.690  28.595  1.00  0.00     0.074 A 
ATOM     38  C   UNL A   1      40.745  28.407  29.944  1.00  0.00     0.049 A 
ATOM     39  N   UNL A   1      39.351  30.879  29.004  1.00  0.00    -0.248 NA
ATOM     40  C   UNL A   1      37.844  29.548  27.878  1.00  0.00     0.031 C 
ATOM     41  C   UNL A   1      40.671  29.108  31.216  1.00  0.00     0.029 A 
ATOM     42  N   UNL A   1      41.744  27.474  30.176  1.00  0.00    -0.354 N 
ATOM     43  C   UNL A   1      38.158  31.557  28.922  1.00  0.00     0.074 A 
ATOM     44  C   UNL A   1      37.303  30.752  28.081  1.00  0.00     0.031 C 
ATOM     45  C   UNL A   1      41.734  28.762  31.971  1.00  0.00     0.029 A 
ATOM     46  C   UNL A   1      42.616  27.956  31.142  1.00  0.00     0.049 A 
ATOM     47  H   UNL A   1      41.823  26.603  29.724  1.00  0.00     0.167 HD
ATOM     48  C   UNL A   1      37.943  32.594  29.774  1.00  0.00     0.034 A 
ATOM     49  C   UNL A   1      43.881  28.312  30.746  1.00  0.00     0.034 A 
ATOM     50  C   UNL A   1      39.081  32.732  30.702  1.00  0.00     0.049 A 
ATOM     51  C   UNL A   1      44.072  29.822  30.749  1.00  0.00     0.074 A 
ATOM     52  C   UNL A   1      39.288  32.297  32.003  1.00  0.00     0.029 A 
ATOM     53  N   UNL A   1      40.341  33.040  30.199  1.00  0.00    -0.354 N 
ATOM     54  N   UNL A   1      43.111  30.688  30.924  1.00  0.00    -0.248 NA
ATOM     55  C   UNL A   1      45.366  30.473  30.595  1.00  0.00     0.031 C 
ATOM     56  C   UNL A   1      40.688  32.312  32.263  1.00  0.00     0.029 A 
ATOM     57  C   UNL A   1      41.337  32.770  31.129  1.00  0.00     0.049 A 
ATOM     58  H   UNL A   1      40.506  33.404  29.299  1.00  0.00     0.167 HD
ATOM     59  C   UNL A   1      43.583  31.968  30.811  1.00  0.00     0.074 A 
ATOM     60  C   UNL A   1      45.021  31.771  30.678  1.00  0.00     0.031 C 
ATOM     61  C   UNL A   1      42.738  33.054  30.806  1.00  0.00     0.034 A 
BRANCH  48  62
ATOM     62  C   UNL A   1      36.578  33.203  30.008  1.00  0.00     0.023 A 
ATOM     63  C   UNL A   1      35.946  33.823  28.908  1.00  0.00     0.012 A 
ATOM     64  C   UNL A   1      35.872  33.232  31.235  1.00  0.00     0.148 A 
ATOM     65  C   UNL A   1      34.735  34.508  29.026  1.00  0.00     0.002 A 
ATOM     66  C   UNL A   1      34.693  33.973  31.370  1.00  0.00     0.091 A 
ATOM     67  F   UNL A   1      36.298  32.486  32.262  1.00  0.00    -0.205 F 
ATOM     68  C   UNL A   1      34.122  34.610  30.265  1.00  0.00     0.022 A 
BRANCH  66  69
ATOM     69  S   UNL A   1      33.883  34.234  32.959  1.00  0.00     0.127 S 
ATOM     70  O   UNL A   1      35.010  34.584  33.829  1.00  0.00    -0.237 OA
ATOM     71  O   UNL A   1      32.974  35.341  32.674  1.00  0.00    -0.237 OA
ATOM     72  O   UNL A   1      33.251  32.965  33.298  1.00  0.00    -0.744 OA
ENDBRANCH  66  69
ENDBRANCH  48  62
BRANCH  49  73
ATOM     73  C   UNL A   1      44.424  27.345  29.723  1.00  0.00     0.023 A 
ATOM     74  C   UNL A   1      44.410  25.974  30.093  1.00  0.00     0.012 A 
ATOM     75  C   UNL A   1      44.455  27.666  28.354  1.00  0.00     0.148 A 
ATOM     76  C   UNL A   1      44.195  24.975  29.139  1.00  0.00     0.002 A 
ATOM     77  C   UNL A   1      44.268  26.657  27.405  1.00  0.00     0.091 A 
ATOM     78  F   UNL A   1      44.604  28.948  27.995  1.00  0.00    -0.205 F 
ATOM     79  C   UNL A   1      44.071  25.323  27.799  1.00  0.00     0.022 A 
BRANCH  77  80
ATOM     80  S   UNL A   1      44.184  27.049  25.650  1.00  0.00     0.127 S 
ATOM     81  O   UNL A   1      43.334  28.237  25.657  1.00  0.00    -0.237 OA
ATOM     82  O   UNL A   1      45.579  27.307  25.295  1.00  0.00    -0.237 OA
ATOM     83  O   UNL A   1      43.624  25.857  25.030  1.00  0.00    -0.744 OA
ENDBRANCH  77  80
ENDBRANCH  49  73
BRANCH  61  84
ATOM     84  C   UNL A   1      43.110  34.504  30.499  1.00  0.00     0.023 A 
ATOM     85  C   UNL A   1      43.512  35.418  31.486  1.00  0.00     0.012 A 
ATOM     86  C   UNL A   1      43.164  34.982  29.156  1.00  0.00     0.148 A 
ATOM     87  C   UNL A   1      43.909  36.726  31.180  1.00  0.00     0.002 A 
ATOM     88  C   UNL A   1      43.682  36.235  28.847  1.00  0.00     0.091 A 
ATOM     89  F   UNL A   1      42.664  34.247  28.154  1.00  0.00    -0.205 F 
ATOM     90  C   UNL A   1      44.026  37.125  29.859  1.00  0.00     0.022 A 
BRANCH  88  91
ATOM     91  S   UNL A   1      44.051  36.711  27.152  1.00  0.00     0.127 S 
ATOM     92  O   UNL A   1      44.638  38.037  27.335  1.00  0.00    -0.237 OA
ATOM     93  O   UNL A   1      45.002  35.675  26.744  1.00  0.00    -0.237 OA
ATOM     94  O   UNL A   1      42.779  36.667  26.444  1.00  0.00    -0.744 OA
ENDBRANCH  88  91
ENDBRANCH  61  84
ENDBRANCH  35  36
ENDBRANCH  27  30
ENDBRANCH  25  26
ENDBRANCH   1  25
TORSDOF 18
ENDMDL
MODEL 2
REMARK VINA RESULT:     -12.0      3.878      9.377
REMARK SMILES Cc1cccc(C[C@H](C(=O)NCCCCNC(=O)c2ccc(-c3c4nc(c(-c5cccc(S(=O)(=O)[O-])c5F)c5ccc([nH]5)c(-c5cccc(S(=O)(=O)[O-])c5F)c5nc(c(-c6cccc(S(=O)(=O)[O-])c6F)c6ccc3[nH]6)C=C5)C=C4)cc2)[C@@H]2CCCC[C@@H]2O)c1
REMARK SMILES IDX 14 1 13 2 12 3 11 4 9 5 10 6 8 8 7 9 6 10 1 11 2 12 3 13
REMARK SMILES IDX 89 14 4 15 5 16 82 17 83 18 87 19 84 20 86 21 85 22 88 23
REMARK SMILES IDX 15 25 16 26 17 27 18 29 19 30 20 31 81 32 21 33 80 34 22 35
REMARK SMILES IDX 23 36 24 37 74 38 25 39 79 40 73 41 75 42 26 43 78 44 72 45
REMARK SMILES IDX 71 46 27 48 59 49 39 50 58 51 40 52 43 53 57 54 76 55 41 56
REMARK SMILES IDX 42 57 56 59 77 60 44 61 28 62 29 63 37 64 30 65 32 66 38 67
REMARK SMILES IDX 31 68 33 69 34 70 35 71 36 72 60 73 61 74 69 75 62 76 64 77
REMARK SMILES IDX 70 78 63 79 65 80 66 81 67 82 68 83 45 84 46 85 54 86 47 87
REMARK SMILES IDX 49 88 55 89 48 90 50 91 51 92 52 93 53 94
REMARK H PARENT 11 7 88 24 16 28 75 47 43 58
REMARK Flexibility Score: inf
ROOT
ATOM      1  C   UNL A   1      33.030  29.608  27.614  1.00  0.00     0.023 C 
ENDROOT
BRANCH   1   2
ATOM      2  C   UNL A   1      31.799  29.118  26.839  1.00  0.00     0.023 C 
BRANCH   2   3
ATOM      3  C   UNL A   1      31.738  29.404  25.318  1.00  0.00     0.116 C 
BRANCH   3   4
ATOM      4  N   UNL A   1      30.692  28.677  24.602  1.00  0.00    -0.356 N 
ATOM      5  C   UNL A   1      30.641  27.460  23.978  1.00  0.00     0.223 C 
ATOM      6  O   UNL A   1      29.558  27.173  23.455  1.00  0.00    -0.275 OA
ATOM      7  H   UNL A   1      29.840  29.168  24.560  1.00  0.00     0.163 HD
BRANCH   5   8
ATOM      8  C   UNL A   1      31.844  26.458  23.939  1.00  0.00     0.088 C 
BRANCH   8   9
ATOM      9  C   UNL A   1      32.074  25.938  25.408  1.00  0.00     0.049 C 
BRANCH   9  10
ATOM     10  C   UNL A   1      33.227  25.000  25.722  1.00  0.00    -0.047 A 
ATOM     11  C   UNL A   1      33.927  21.742  27.627  1.00  0.00     0.044 C 
ATOM     12  C   UNL A   1      34.073  22.923  26.714  1.00  0.00    -0.051 A 
ATOM     13  C   UNL A   1      35.307  23.126  26.089  1.00  0.00     0.003 A 
ATOM     14  C   UNL A   1      33.026  23.841  26.495  1.00  0.00     0.007 A 
ATOM     15  C   UNL A   1      35.531  24.291  25.378  1.00  0.00     0.001 A 
ATOM     16  C   UNL A   1      34.516  25.238  25.263  1.00  0.00     0.004 A 
ENDBRANCH   9  10
ENDBRANCH   8   9
BRANCH   8  17
ATOM     17  C   UNL A   1      31.594  25.367  22.848  1.00  0.00     0.030 C 
ATOM     18  C   UNL A   1      30.653  24.207  23.159  1.00  0.00     0.007 C 
ATOM     19  C   UNL A   1      32.701  24.957  21.851  1.00  0.00     0.118 C 
ATOM     20  C   UNL A   1      31.371  22.954  23.608  1.00  0.00     0.001 C 
ATOM     21  C   UNL A   1      33.376  23.610  22.092  1.00  0.00     0.032 C 
ATOM     22  C   UNL A   1      32.471  22.514  22.648  1.00  0.00     0.003 C 
BRANCH  19  23
ATOM     23  O   UNL A   1      33.654  25.983  21.599  1.00  0.00    -0.393 OA
ATOM     24  H   UNL A   1      33.239  26.690  21.082  1.00  0.00     0.210 HD
ENDBRANCH  19  23
ENDBRANCH   8  17
ENDBRANCH   5   8
ENDBRANCH   3   4
ENDBRANCH   2   3
ENDBRANCH   1   2
BRANCH   1  25
ATOM     25  C   UNL A   1      34.292  29.795  26.790  1.00  0.00     0.116 C 
BRANCH  25  26
ATOM     26  N   UNL A   1      35.040  30.981  27.220  1.00  0.00    -0.352 N 
ATOM     27  C   UNL A   1      36.040  31.125  28.155  1.00  0.00     0.251 C 
ATOM     28  H   UNL A   1      34.783  31.815  26.763  1.00  0.00     0.163 HD
ATOM     29  O   UNL A   1      36.151  32.221  28.722  1.00  0.00    -0.269 OA
BRANCH  27  30
ATOM     30  C   UNL A   1      36.994  30.034  28.398  1.00  0.00     0.039 A 
ATOM     31  C   UNL A   1      36.980  29.225  29.540  1.00  0.00     0.014 A 
ATOM     32  C   UNL A   1      38.056  29.937  27.515  1.00  0.00     0.014 A 
ATOM     33  C   UNL A   1      38.103  28.444  29.817  1.00  0.00     0.010 A 
ATOM     34  C   UNL A   1      38.955  28.935  27.596  1.00  0.00     0.010 A 
ATOM     35  C   UNL A   1      39.103  28.380  28.853  1.00  0.00    -0.014 A 
BRANCH  35  36
ATOM     36  C   UNL A   1      40.458  27.910  29.023  1.00  0.00     0.031 A 
ATOM     37  C   UNL A   1      40.757  26.522  28.718  1.00  0.00     0.074 A 
ATOM     38  C   UNL A   1      41.392  28.892  29.073  1.00  0.00     0.049 A 
ATOM     39  N   UNL A   1      41.835  25.935  29.084  1.00  0.00    -0.248 NA
ATOM     40  C   UNL A   1      39.842  25.677  27.955  1.00  0.00     0.031 C 
ATOM     41  C   UNL A   1      42.776  28.881  28.628  1.00  0.00     0.029 A 
ATOM     42  N   UNL A   1      41.233  30.194  29.520  1.00  0.00    -0.354 N 
ATOM     43  C   UNL A   1      41.915  24.789  28.329  1.00  0.00     0.074 A 
ATOM     44  C   UNL A   1      40.598  24.592  27.768  1.00  0.00     0.031 C 
ATOM     45  C   UNL A   1      43.385  30.005  29.059  1.00  0.00     0.029 A 
ATOM     46  C   UNL A   1      42.456  30.695  29.941  1.00  0.00     0.049 A 
ATOM     47  H   UNL A   1      40.381  30.688  29.537  1.00  0.00     0.167 HD
ATOM     48  C   UNL A   1      43.145  24.275  28.061  1.00  0.00     0.034 A 
ATOM     49  C   UNL A   1      42.640  30.899  31.285  1.00  0.00     0.034 A 
ATOM     50  C   UNL A   1      44.192  25.151  28.619  1.00  0.00     0.049 A 
ATOM     51  C   UNL A   1      43.584  29.872  31.892  1.00  0.00     0.074 A 
ATOM     52  C   UNL A   1      44.983  26.142  28.056  1.00  0.00     0.029 A 
ATOM     53  N   UNL A   1      44.263  25.342  29.995  1.00  0.00    -0.354 N 
ATOM     54  N   UNL A   1      44.027  28.814  31.268  1.00  0.00    -0.248 NA
ATOM     55  C   UNL A   1      44.136  29.976  33.236  1.00  0.00     0.031 C 
ATOM     56  C   UNL A   1      45.499  26.953  29.107  1.00  0.00     0.029 A 
ATOM     57  C   UNL A   1      45.038  26.451  30.312  1.00  0.00     0.049 A 
ATOM     58  H   UNL A   1      43.821  24.765  30.660  1.00  0.00     0.167 HD
ATOM     59  C   UNL A   1      44.806  28.050  32.094  1.00  0.00     0.074 A 
ATOM     60  C   UNL A   1      44.899  28.869  33.296  1.00  0.00     0.031 C 
ATOM     61  C   UNL A   1      45.264  26.810  31.715  1.00  0.00     0.034 A 
BRANCH  48  62
ATOM     62  C   UNL A   1      43.390  23.229  26.996  1.00  0.00     0.023 A 
ATOM     63  C   UNL A   1      44.068  23.639  25.827  1.00  0.00     0.012 A 
ATOM     64  C   UNL A   1      42.989  21.872  27.045  1.00  0.00     0.148 A 
ATOM     65  C   UNL A   1      44.260  22.791  24.734  1.00  0.00     0.002 A 
ATOM     66  C   UNL A   1      43.122  21.041  25.927  1.00  0.00     0.091 A 
ATOM     67  F   UNL A   1      42.540  21.355  28.196  1.00  0.00    -0.205 F 
ATOM     68  C   UNL A   1      43.759  21.500  24.771  1.00  0.00     0.022 A 
BRANCH  66  69
ATOM     69  S   UNL A   1      42.419  19.383  25.857  1.00  0.00     0.127 S 
ATOM     70  O   UNL A   1      43.031  18.836  24.642  1.00  0.00    -0.237 OA
ATOM     71  O   UNL A   1      42.901  18.782  27.098  1.00  0.00    -0.237 OA
ATOM     72  O   UNL A   1      40.976  19.564  25.758  1.00  0.00    -0.744 OA
ENDBRANCH  66  69
ENDBRANCH  48  62
BRANCH  49  73
ATOM     73  C   UNL A   1      41.392  31.454  31.927  1.00  0.00     0.023 A 
ATOM     74  C   UNL A   1      40.887  32.658  31.367  1.00  0.00     0.012 A 
ATOM     75  C   UNL A   1      40.507  30.629  32.644  1.00  0.00     0.148 A 
ATOM     76  C   UNL A   1      39.512  32.907  31.323  1.00  0.00     0.002 A 
ATOM     77  C   UNL A   1      39.136  30.901  32.618  1.00  0.00     0.091 A 
ATOM     78  F   UNL A   1      40.998  29.562  33.289  1.00  0.00    -0.205 F 
ATOM     79  C   UNL A   1      38.632  32.000  31.903  1.00  0.00     0.022 A 
BRANCH  77  80
ATOM     80  S   UNL A   1      37.964  29.800  33.426  1.00  0.00     0.127 S 
ATOM     81  O   UNL A   1      38.153  30.152  34.831  1.00  0.00    -0.237 OA
ATOM     82  O   UNL A   1      36.676  30.213  32.869  1.00  0.00    -0.237 OA
ATOM     83  O   UNL A   1      38.380  28.462  33.033  1.00  0.00    -0.744 OA
ENDBRANCH  77  80
ENDBRANCH  49  73
BRANCH  61  84
ATOM     84  C   UNL A   1      45.973  25.785  32.599  1.00  0.00     0.023 A 
ATOM     85  C   UNL A   1      47.366  25.748  32.765  1.00  0.00     0.012 A 
ATOM     86  C   UNL A   1      45.232  24.859  33.393  1.00  0.00     0.148 A 
ATOM     87  C   UNL A   1      47.996  24.842  33.627  1.00  0.00     0.002 A 
ATOM     88  C   UNL A   1      45.850  24.053  34.342  1.00  0.00     0.091 A 
ATOM     89  F   UNL A   1      43.915  24.707  33.205  1.00  0.00    -0.205 F 
ATOM     90  C   UNL A   1      47.238  24.016  34.441  1.00  0.00     0.022 A 
BRANCH  88  91
ATOM     91  S   UNL A   1      44.899  23.131  35.559  1.00  0.00     0.127 S 
ATOM     92  O   UNL A   1      44.221  22.144  34.722  1.00  0.00    -0.237 OA
ATOM     93  O   UNL A   1      45.952  22.583  36.417  1.00  0.00    -0.237 OA
ATOM     94  O   UNL A   1      44.044  24.110  36.215  1.00  0.00    -0.744 OA
ENDBRANCH  88  91
ENDBRANCH  61  84
ENDBRANCH  35  36
ENDBRANCH  27  30
ENDBRANCH  25  26
ENDBRANCH   1  25
TORSDOF 18
ENDMDL
MODEL 3
REMARK VINA RESULT:     -12.0      3.823      9.304
REMARK SMILES Cc1cccc(C[C@H](C(=O)NCCCCNC(=O)c2ccc(-c3c4nc(c(-c5cccc(S(=O)(=O)[O-])c5F)c5ccc([nH]5)c(-c5cccc(S(=O)(=O)[O-])c5F)c5nc(c(-c6cccc(S(=O)(=O)[O-])c6F)c6ccc3[nH]6)C=C5)C=C4)cc2)[C@@H]2CCCC[C@@H]2O)c1
REMARK SMILES IDX 14 1 13 2 12 3 11 4 9 5 10 6 8 8 7 9 6 10 1 11 2 12 3 13
REMARK SMILES IDX 89 14 4 15 5 16 82 17 83 18 87 19 84 20 86 21 85 22 88 23
REMARK SMILES IDX 15 25 16 26 17 27 18 29 19 30 20 31 81 32 21 33 80 34 22 35
REMARK SMILES IDX 23 36 24 37 74 38 25 39 79 40 73 41 75 42 26 43 78 44 72 45
REMARK SMILES IDX 71 46 27 48 59 49 39 50 58 51 40 52 43 53 57 54 76 55 41 56
REMARK SMILES IDX 42 57 56 59 77 60 44 61 28 62 29 63 37 64 30 65 32 66 38 67
REMARK SMILES IDX 31 68 33 69 34 70 35 71 36 72 60 73 61 74 69 75 62 76 64 77
REMARK SMILES IDX 70 78 63 79 65 80 66 81 67 82 68 83 45 84 46 85 54 86 47 87
REMARK SMILES IDX 49 88 55 89 48 90 50 91 51 92 52 93 53 94
REMARK H PARENT 11 7 88 24 16 28 75 47 43 58
REMARK Flexibility Score: inf
ROOT
ATOM      1  C   UNL A   1      32.641  30.169  27.231  1.00  0.00     0.023 C 
ENDROOT
BRANCH   1   2
ATOM      2  C   UNL A   1      31.736  29.934  26.014  1.00  0.00     0.023 C 
BRANCH   2   3
ATOM      3  C   UNL A   1      32.373  29.316  24.744  1.00  0.00     0.116 C 
BRANCH   3   4
ATOM      4  N   UNL A   1      31.465  29.191  23.606  1.00  0.00    -0.356 N 
ATOM      5  C   UNL A   1      31.062  28.141  22.826  1.00  0.00     0.223 C 
ATOM      6  O   UNL A   1      30.269  28.424  21.920  1.00  0.00    -0.275 OA
ATOM      7  H   UNL A   1      31.055  30.047  23.343  1.00  0.00     0.163 HD
BRANCH   5   8
ATOM      8  C   UNL A   1      31.526  26.664  23.058  1.00  0.00     0.088 C 
BRANCH   8   9
ATOM      9  C   UNL A   1      33.076  26.693  23.332  1.00  0.00     0.049 C 
BRANCH   9  10
ATOM     10  C   UNL A   1      33.842  25.403  23.568  1.00  0.00    -0.047 A 
ATOM     11  C   UNL A   1      36.192  23.810  26.151  1.00  0.00     0.044 C 
ATOM     12  C   UNL A   1      35.260  23.997  24.990  1.00  0.00    -0.051 A 
ATOM     13  C   UNL A   1      35.054  22.915  24.130  1.00  0.00     0.003 A 
ATOM     14  C   UNL A   1      34.621  25.225  24.726  1.00  0.00     0.007 A 
ATOM     15  C   UNL A   1      34.340  23.098  22.959  1.00  0.00     0.001 A 
ATOM     16  C   UNL A   1      33.805  24.349  22.662  1.00  0.00     0.004 A 
ENDBRANCH   9  10
ENDBRANCH   8   9
BRANCH   8  17
ATOM     17  C   UNL A   1      30.639  25.993  24.157  1.00  0.00     0.030 C 
ATOM     18  C   UNL A   1      30.667  26.551  25.577  1.00  0.00     0.007 C 
ATOM     19  C   UNL A   1      30.347  24.476  24.141  1.00  0.00     0.118 C 
ATOM     20  C   UNL A   1      31.596  25.796  26.501  1.00  0.00     0.001 C 
ATOM     21  C   UNL A   1      31.091  23.624  25.166  1.00  0.00     0.032 C 
ATOM     22  C   UNL A   1      31.339  24.292  26.517  1.00  0.00     0.003 C 
BRANCH  19  23
ATOM     23  O   UNL A   1      30.399  23.896  22.843  1.00  0.00    -0.393 OA
ATOM     24  H   UNL A   1      30.655  22.964  22.916  1.00  0.00     0.210 HD
ENDBRANCH  19  23
ENDBRANCH   8  17
ENDBRANCH   5   8
ENDBRANCH   3   4
ENDBRANCH   2   3
ENDBRANCH   1   2
BRANCH   1  25
ATOM     25  C   UNL A   1      34.121  29.913  27.006  1.00  0.00     0.116 C 
BRANCH  25  26
ATOM     26  N   UNL A   1      34.919  31.111  27.290  1.00  0.00    -0.352 N 
ATOM     27  C   UNL A   1      35.984  31.302  28.141  1.00  0.00     0.251 C 
ATOM     28  H   UNL A   1      34.648  31.913  26.787  1.00  0.00     0.163 HD
ATOM     29  O   UNL A   1      36.155  32.435  28.612  1.00  0.00    -0.269 OA
BRANCH  27  30
ATOM     30  C   UNL A   1      36.932  30.210  28.405  1.00  0.00     0.039 A 
ATOM     31  C   UNL A   1      36.923  29.433  29.568  1.00  0.00     0.014 A 
ATOM     32  C   UNL A   1      37.985  30.080  27.514  1.00  0.00     0.014 A 
ATOM     33  C   UNL A   1      38.042  28.650  29.856  1.00  0.00     0.010 A 
ATOM     34  C   UNL A   1      38.876  29.073  27.613  1.00  0.00     0.010 A 
ATOM     35  C   UNL A   1      39.032  28.551  28.884  1.00  0.00    -0.014 A 
BRANCH  35  36
ATOM     36  C   UNL A   1      40.385  28.076  29.052  1.00  0.00     0.031 A 
ATOM     37  C   UNL A   1      40.672  26.679  28.774  1.00  0.00     0.074 A 
ATOM     38  C   UNL A   1      41.326  29.051  29.075  1.00  0.00     0.049 A 
ATOM     39  N   UNL A   1      41.748  26.092  29.143  1.00  0.00    -0.248 NA
ATOM     40  C   UNL A   1      39.745  25.826  28.036  1.00  0.00     0.031 C 
ATOM     41  C   UNL A   1      42.706  29.021  28.620  1.00  0.00     0.029 A 
ATOM     42  N   UNL A   1      41.180  30.363  29.497  1.00  0.00    -0.354 N 
ATOM     43  C   UNL A   1      41.814  24.930  28.411  1.00  0.00     0.074 A 
ATOM     44  C   UNL A   1      40.492  24.732  27.865  1.00  0.00     0.031 C 
ATOM     45  C   UNL A   1      43.327  30.149  29.023  1.00  0.00     0.029 A 
ATOM     46  C   UNL A   1      42.411  30.864  29.898  1.00  0.00     0.049 A 
ATOM     47  H   UNL A   1      40.332  30.864  29.510  1.00  0.00     0.167 HD
ATOM     48  C   UNL A   1      43.038  24.402  28.145  1.00  0.00     0.034 A 
ATOM     49  C   UNL A   1      42.606  31.094  31.236  1.00  0.00     0.034 A 
ATOM     50  C   UNL A   1      44.096  25.281  28.677  1.00  0.00     0.049 A 
ATOM     51  C   UNL A   1      43.547  30.073  31.857  1.00  0.00     0.074 A 
ATOM     52  C   UNL A   1      44.890  26.255  28.087  1.00  0.00     0.029 A 
ATOM     53  N   UNL A   1      44.179  25.500  30.048  1.00  0.00    -0.354 N 
ATOM     54  N   UNL A   1      43.977  28.999  31.251  1.00  0.00    -0.248 NA
ATOM     55  C   UNL A   1      44.110  30.200  33.194  1.00  0.00     0.031 C 
ATOM     56  C   UNL A   1      45.419  27.083  29.118  1.00  0.00     0.029 A 
ATOM     57  C   UNL A   1      44.964  26.609  30.337  1.00  0.00     0.049 A 
ATOM     58  H   UNL A   1      43.738  24.940  30.728  1.00  0.00     0.167 HD
ATOM     59  C   UNL A   1      44.757  28.246  32.087  1.00  0.00     0.074 A 
ATOM     60  C   UNL A   1      44.866  29.089  33.271  1.00  0.00     0.031 C 
ATOM     61  C   UNL A   1      45.204  26.996  31.729  1.00  0.00     0.034 A 
BRANCH  48  62
ATOM     62  C   UNL A   1      43.268  23.333  27.100  1.00  0.00     0.023 A 
ATOM     63  C   UNL A   1      43.935  23.714  25.916  1.00  0.00     0.012 A 
ATOM     64  C   UNL A   1      42.861  21.979  27.182  1.00  0.00     0.148 A 
ATOM     65  C   UNL A   1      44.112  22.842  24.839  1.00  0.00     0.002 A 
ATOM     66  C   UNL A   1      42.979  21.124  26.080  1.00  0.00     0.091 A 
ATOM     67  F   UNL A   1      42.421  21.488  28.348  1.00  0.00    -0.205 F 
ATOM     68  C   UNL A   1      43.605  21.555  24.908  1.00  0.00     0.022 A 
BRANCH  66  69
ATOM     69  S   UNL A   1      42.268  19.468  26.053  1.00  0.00     0.127 S 
ATOM     70  O   UNL A   1      40.835  19.746  25.913  1.00  0.00    -0.237 OA
ATOM     71  O   UNL A   1      42.886  18.877  24.868  1.00  0.00    -0.237 OA
ATOM     72  O   UNL A   1      42.627  18.858  27.327  1.00  0.00    -0.744 OA
ENDBRANCH  66  69
ENDBRANCH  48  62
BRANCH  49  73
ATOM     73  C   UNL A   1      41.367  31.671  31.876  1.00  0.00     0.023 A 
ATOM     74  C   UNL A   1      40.856  32.857  31.285  1.00  0.00     0.012 A 
ATOM     75  C   UNL A   1      40.490  30.871  32.631  1.00  0.00     0.148 A 
ATOM     76  C   UNL A   1      39.481  33.107  31.250  1.00  0.00     0.002 A 
ATOM     77  C   UNL A   1      39.120  31.144  32.614  1.00  0.00     0.091 A 
ATOM     78  F   UNL A   1      40.989  29.825  33.303  1.00  0.00    -0.205 F 
ATOM     79  C   UNL A   1      38.608  32.220  31.870  1.00  0.00     0.022 A 
BRANCH  77  80
ATOM     80  S   UNL A   1      37.957  30.071  33.472  1.00  0.00     0.127 S 
ATOM     81  O   UNL A   1      36.683  30.515  32.912  1.00  0.00    -0.237 OA
ATOM     82  O   UNL A   1      38.365  28.730  33.054  1.00  0.00    -0.237 OA
ATOM     83  O   UNL A   1      38.173  30.344  34.885  1.00  0.00    -0.744 OA
ENDBRANCH  77  80
ENDBRANCH  49  73
BRANCH  61  84
ATOM     84  C   UNL A   1      45.912  25.983  32.629  1.00  0.00     0.023 A 
ATOM     85  C   UNL A   1      47.309  25.899  32.738  1.00  0.00     0.012 A 
ATOM     86  C   UNL A   1      45.173  25.124  33.495  1.00  0.00     0.148 A 
ATOM     87  C   UNL A   1      47.942  25.008  33.613  1.00  0.00     0.002 A 
ATOM     88  C   UNL A   1      45.802  24.336  34.454  1.00  0.00     0.091 A 
ATOM     89  F   UNL A   1      43.844  25.015  33.371  1.00  0.00    -0.205 F 
ATOM     90  C   UNL A   1      47.190  24.250  34.495  1.00  0.00     0.022 A 
BRANCH  88  91
ATOM     91  S   UNL A   1      44.872  23.507  35.751  1.00  0.00     0.127 S 
ATOM     92  O   UNL A   1      45.934  22.831  36.494  1.00  0.00    -0.237 OA
ATOM     93  O   UNL A   1      44.258  24.634  36.455  1.00  0.00    -0.237 OA
ATOM     94  O   UNL A   1      43.922  22.643  35.064  1.00  0.00    -0.744 OA
ENDBRANCH  88  91
ENDBRANCH  61  84
ENDBRANCH  35  36
ENDBRANCH  27  30
ENDBRANCH  25  26
ENDBRANCH   1  25
TORSDOF 18
ENDMDL
