MODEL 1
REMARK VINA RESULT:     -11.9      0.000      0.000
REMARK SMILES CC[C@]1(C(=O)NCCCCNC(=O)c2ccc(-c3c4nc(c(-c5cccc(S(=O)(=O)[O-])c5F)c5ccc([nH]5)c(-c5cccc(S(=O)(=O)[O-])c5F)c5nc(c(-c6cccc(S(=O)(=O)[O-])c6F)c6ccc3[nH]6)C=C5)C=C4)cc2)CCC[N@@H+]([C@@H]2CCC[C@H](S(C)(=O)=O)C2)C1
REMARK SMILES IDX 9 1 8 2 7 3 6 4 4 5 5 6 3 8 77 9 91 10 78 11 80 12 79 13
REMARK SMILES IDX 2 15 1 16 81 17 82 18 90 19 83 20 85 21 84 22 86 23 87 24
REMARK SMILES IDX 88 25 89 26 10 27 11 28 12 29 13 31 14 32 15 33 76 34 16 35
REMARK SMILES IDX 75 36 17 37 18 38 19 39 69 40 20 41 74 42 68 43 70 44 21 45
REMARK SMILES IDX 73 46 67 47 66 48 22 50 54 51 34 52 53 53 35 54 38 55 52 56
REMARK SMILES IDX 71 57 36 58 37 59 51 61 72 62 39 63 23 64 24 65 32 66 25 67
REMARK SMILES IDX 27 68 33 69 26 70 28 71 29 72 30 73 31 74 55 75 56 76 64 77
REMARK SMILES IDX 57 78 59 79 65 80 58 81 60 82 61 83 62 84 63 85 40 86 41 87
REMARK SMILES IDX 49 88 42 89 44 90 50 91 43 92 45 93 46 94 47 95 48 96
REMARK H PARENT 6 7 80 14 11 30 70 49 38 60
REMARK Flexibility Score: inf
ROOT
ATOM      1  C   UNL A   1      37.782  19.322  24.953  1.00  0.00     0.023 C 
ENDROOT
BRANCH   1   2
ATOM      2  C   UNL A   1      36.424  20.019  24.964  1.00  0.00     0.023 C 
BRANCH   2   3
ATOM      3  C   UNL A   1      36.469  21.487  25.376  1.00  0.00     0.116 C 
BRANCH   3   4
ATOM      4  N   UNL A   1      36.092  22.381  24.294  1.00  0.00    -0.355 N 
ATOM      5  C   UNL A   1      34.902  22.945  23.931  1.00  0.00     0.231 C 
ATOM      6  O   UNL A   1      34.959  23.741  22.989  1.00  0.00    -0.274 OA
ATOM      7  H   UNL A   1      36.841  22.629  23.705  1.00  0.00     0.163 HD
BRANCH   5   8
ATOM      8  C   UNL A   1      33.565  22.650  24.679  1.00  0.00     0.098 C 
ATOM      9  C   UNL A   1      33.874  22.367  26.169  1.00  0.00     0.028 C 
ATOM     10  C   UNL A   1      32.668  23.906  24.462  1.00  0.00     0.279 C 
ATOM     11  C   UNL A   1      32.723  22.687  27.116  1.00  0.00     0.063 C 
ATOM     12  N   UNL A   1      31.581  24.121  25.436  1.00  0.00    -0.332 N 
ATOM     13  C   UNL A   1      32.079  24.034  26.816  1.00  0.00     0.262 C 
ATOM     14  H   UNL A   1      30.899  23.370  25.339  1.00  0.00     0.348 HD
BRANCH   8  15
ATOM     15  C   UNL A   1      32.890  21.398  23.995  1.00  0.00     0.019 C 
ATOM     16  C   UNL A   1      32.183  21.583  22.658  1.00  0.00     0.005 C 
ENDBRANCH   8  15
BRANCH  12  17
ATOM     17  C   UNL A   1      30.850  25.389  25.144  1.00  0.00     0.185 C 
ATOM     18  C   UNL A   1      30.330  25.528  23.694  1.00  0.00     0.065 C 
ATOM     19  C   UNL A   1      31.702  26.606  25.553  1.00  0.00     0.084 C 
ATOM     20  C   UNL A   1      29.639  26.864  23.455  1.00  0.00     0.007 C 
ATOM     21  C   UNL A   1      31.047  27.959  25.231  1.00  0.00     0.114 C 
ATOM     22  C   UNL A   1      30.570  28.023  23.780  1.00  0.00     0.020 C 
BRANCH  21  23
ATOM     23  S   UNL A   1      32.227  29.281  25.601  1.00  0.00     0.150 S 
ATOM     24  C   UNL A   1      32.887  28.878  27.201  1.00  0.00     0.158 C 
ATOM     25  O   UNL A   1      33.324  29.172  24.660  1.00  0.00    -0.229 OA
ATOM     26  O   UNL A   1      31.498  30.528  25.744  1.00  0.00    -0.229 OA
ENDBRANCH  21  23
ENDBRANCH  12  17
ENDBRANCH   5   8
ENDBRANCH   3   4
ENDBRANCH   2   3
ENDBRANCH   1   2
BRANCH   1  27
ATOM     27  C   UNL A   1      38.889  20.060  25.696  1.00  0.00     0.116 C 
BRANCH  27  28
ATOM     28  N   UNL A   1      40.055  19.226  25.956  1.00  0.00    -0.352 N 
ATOM     29  C   UNL A   1      41.316  19.607  26.349  1.00  0.00     0.251 C 
ATOM     30  H   UNL A   1      39.921  18.258  25.835  1.00  0.00     0.163 HD
ATOM     31  O   UNL A   1      42.224  18.781  26.393  1.00  0.00    -0.269 OA
BRANCH  29  32
ATOM     32  C   UNL A   1      41.572  21.022  26.687  1.00  0.00     0.039 A 
ATOM     33  C   UNL A   1      41.967  21.348  27.985  1.00  0.00     0.014 A 
ATOM     34  C   UNL A   1      41.468  22.014  25.708  1.00  0.00     0.014 A 
ATOM     35  C   UNL A   1      42.326  22.663  28.284  1.00  0.00     0.010 A 
ATOM     36  C   UNL A   1      41.909  23.303  25.987  1.00  0.00     0.010 A 
ATOM     37  C   UNL A   1      42.338  23.644  27.278  1.00  0.00    -0.014 A 
BRANCH  37  38
ATOM     38  C   UNL A   1      42.808  25.027  27.553  1.00  0.00     0.031 A 
ATOM     39  C   UNL A   1      41.879  26.032  28.177  1.00  0.00     0.074 A 
ATOM     40  C   UNL A   1      44.042  25.403  27.158  1.00  0.00     0.049 A 
ATOM     41  N   UNL A   1      42.092  27.295  28.444  1.00  0.00    -0.248 NA
ATOM     42  C   UNL A   1      40.523  25.571  28.522  1.00  0.00     0.031 C 
ATOM     43  C   UNL A   1      45.008  24.547  26.465  1.00  0.00     0.029 A 
ATOM     44  N   UNL A   1      44.685  26.613  27.255  1.00  0.00    -0.354 N 
ATOM     45  C   UNL A   1      40.890  27.787  28.940  1.00  0.00     0.074 A 
ATOM     46  C   UNL A   1      39.944  26.695  28.918  1.00  0.00     0.031 C 
ATOM     47  C   UNL A   1      46.118  25.256  26.202  1.00  0.00     0.029 A 
ATOM     48  C   UNL A   1      45.933  26.624  26.672  1.00  0.00     0.049 A 
ATOM     49  H   UNL A   1      44.292  27.397  27.700  1.00  0.00     0.167 HD
ATOM     50  C   UNL A   1      40.607  29.031  29.392  1.00  0.00     0.034 A 
ATOM     51  C   UNL A   1      46.820  27.628  26.518  1.00  0.00     0.034 A 
ATOM     52  C   UNL A   1      41.564  30.102  29.460  1.00  0.00     0.049 A 
ATOM     53  C   UNL A   1      46.490  28.987  27.076  1.00  0.00     0.074 A 
ATOM     54  C   UNL A   1      41.405  31.360  30.013  1.00  0.00     0.029 A 
ATOM     55  N   UNL A   1      42.848  30.049  28.943  1.00  0.00    -0.354 N 
ATOM     56  N   UNL A   1      45.414  29.379  27.712  1.00  0.00    -0.248 NA
ATOM     57  C   UNL A   1      47.514  30.032  26.929  1.00  0.00     0.031 C 
ATOM     58  C   UNL A   1      42.579  32.085  29.789  1.00  0.00     0.029 A 
ATOM     59  C   UNL A   1      43.485  31.261  29.141  1.00  0.00     0.049 A 
ATOM     60  H   UNL A   1      43.249  29.266  28.500  1.00  0.00     0.167 HD
ATOM     61  C   UNL A   1      45.646  30.701  28.074  1.00  0.00     0.074 A 
ATOM     62  C   UNL A   1      46.975  31.036  27.608  1.00  0.00     0.031 C 
ATOM     63  C   UNL A   1      44.829  31.565  28.722  1.00  0.00     0.034 A 
BRANCH  50  64
ATOM     64  C   UNL A   1      39.211  29.307  29.886  1.00  0.00     0.023 A 
ATOM     65  C   UNL A   1      38.820  28.873  31.169  1.00  0.00     0.012 A 
ATOM     66  C   UNL A   1      38.321  30.079  29.114  1.00  0.00     0.148 A 
ATOM     67  C   UNL A   1      37.554  29.183  31.665  1.00  0.00     0.002 A 
ATOM     68  C   UNL A   1      37.080  30.423  29.635  1.00  0.00     0.091 A 
ATOM     69  F   UNL A   1      38.706  30.463  27.889  1.00  0.00    -0.205 F 
ATOM     70  C   UNL A   1      36.691  29.967  30.905  1.00  0.00     0.022 A 
BRANCH  68  71
ATOM     71  S   UNL A   1      35.932  31.501  28.772  1.00  0.00     0.127 S 
ATOM     72  O   UNL A   1      34.862  31.641  29.760  1.00  0.00    -0.237 OA
ATOM     73  O   UNL A   1      36.738  32.706  28.571  1.00  0.00    -0.237 OA
ATOM     74  O   UNL A   1      35.561  30.803  27.550  1.00  0.00    -0.744 OA
ENDBRANCH  68  71
ENDBRANCH  50  64
BRANCH  51  75
ATOM     75  C   UNL A   1      48.124  27.384  25.837  1.00  0.00     0.023 A 
ATOM     76  C   UNL A   1      49.251  27.013  26.599  1.00  0.00     0.012 A 
ATOM     77  C   UNL A   1      48.257  27.528  24.443  1.00  0.00     0.148 A 
ATOM     78  C   UNL A   1      50.495  26.840  25.991  1.00  0.00     0.002 A 
ATOM     79  C   UNL A   1      49.486  27.294  23.836  1.00  0.00     0.091 A 
ATOM     80  F   UNL A   1      47.178  27.892  23.737  1.00  0.00    -0.205 F 
ATOM     81  C   UNL A   1      50.610  26.972  24.610  1.00  0.00     0.022 A 
BRANCH  79  82
ATOM     82  S   UNL A   1      49.693  27.311  22.053  1.00  0.00     0.127 S 
ATOM     83  O   UNL A   1      49.403  28.707  21.731  1.00  0.00    -0.237 OA
ATOM     84  O   UNL A   1      51.096  26.923  21.908  1.00  0.00    -0.237 OA
ATOM     85  O   UNL A   1      48.745  26.332  21.539  1.00  0.00    -0.744 OA
ENDBRANCH  79  82
ENDBRANCH  51  75
BRANCH  63  86
ATOM     86  C   UNL A   1      45.357  32.944  29.022  1.00  0.00     0.023 A 
ATOM     87  C   UNL A   1      46.062  33.189  30.216  1.00  0.00     0.012 A 
ATOM     88  C   UNL A   1      45.216  33.980  28.077  1.00  0.00     0.148 A 
ATOM     89  C   UNL A   1      46.585  34.453  30.484  1.00  0.00     0.002 A 
ATOM     90  C   UNL A   1      45.789  35.221  28.324  1.00  0.00     0.091 A 
ATOM     91  F   UNL A   1      44.528  33.732  26.954  1.00  0.00    -0.205 F 
ATOM     92  C   UNL A   1      46.459  35.465  29.533  1.00  0.00     0.022 A 
BRANCH  90  93
ATOM     93  S   UNL A   1      45.767  36.550  27.116  1.00  0.00     0.127 S 
ATOM     94  O   UNL A   1      46.652  37.533  27.738  1.00  0.00    -0.237 OA
ATOM     95  O   UNL A   1      46.317  35.897  25.929  1.00  0.00    -0.237 OA
ATOM     96  O   UNL A   1      44.374  36.958  26.990  1.00  0.00    -0.744 OA
ENDBRANCH  90  93
ENDBRANCH  63  86
ENDBRANCH  37  38
ENDBRANCH  29  32
ENDBRANCH  27  28
ENDBRANCH   1  27
TORSDOF 17
ENDMDL
MODEL 2
REMARK VINA RESULT:     -11.8      1.572      2.198
REMARK SMILES CC[C@]1(C(=O)NCCCCNC(=O)c2ccc(-c3c4nc(c(-c5cccc(S(=O)(=O)[O-])c5F)c5ccc([nH]5)c(-c5cccc(S(=O)(=O)[O-])c5F)c5nc(c(-c6cccc(S(=O)(=O)[O-])c6F)c6ccc3[nH]6)C=C5)C=C4)cc2)CCC[N@@H+]([C@@H]2CCC[C@H](S(C)(=O)=O)C2)C1
REMARK SMILES IDX 9 1 8 2 7 3 6 4 4 5 5 6 3 8 77 9 91 10 78 11 80 12 79 13
REMARK SMILES IDX 2 15 1 16 81 17 82 18 90 19 83 20 85 21 84 22 86 23 87 24
REMARK SMILES IDX 88 25 89 26 10 27 11 28 12 29 13 31 14 32 15 33 76 34 16 35
REMARK SMILES IDX 75 36 17 37 18 38 19 39 69 40 20 41 74 42 68 43 70 44 21 45
REMARK SMILES IDX 73 46 67 47 66 48 22 50 54 51 34 52 53 53 35 54 38 55 52 56
REMARK SMILES IDX 71 57 36 58 37 59 51 61 72 62 39 63 23 64 24 65 32 66 25 67
REMARK SMILES IDX 27 68 33 69 26 70 28 71 29 72 30 73 31 74 55 75 56 76 64 77
REMARK SMILES IDX 57 78 59 79 65 80 58 81 60 82 61 83 62 84 63 85 40 86 41 87
REMARK SMILES IDX 49 88 42 89 44 90 50 91 43 92 45 93 46 94 47 95 48 96
REMARK H PARENT 6 7 80 14 11 30 70 49 38 60
REMARK Flexibility Score: inf
ROOT
ATOM      1  C   UNL A   1      36.104  20.256  24.799  1.00  0.00     0.023 C 
ENDROOT
BRANCH   1   2
ATOM      2  C   UNL A   1      35.015  20.680  25.780  1.00  0.00     0.023 C 
BRANCH   2   3
ATOM      3  C   UNL A   1      33.654  20.945  25.141  1.00  0.00     0.116 C 
BRANCH   3   4
ATOM      4  N   UNL A   1      32.922  22.006  25.812  1.00  0.00    -0.355 N 
ATOM      5  C   UNL A   1      32.749  23.332  25.531  1.00  0.00     0.231 C 
ATOM      6  O   UNL A   1      31.977  23.935  26.281  1.00  0.00    -0.274 OA
ATOM      7  H   UNL A   1      32.458  21.713  26.629  1.00  0.00     0.163 HD
BRANCH   5   8
ATOM      8  C   UNL A   1      33.437  24.034  24.320  1.00  0.00     0.098 C 
ATOM      9  C   UNL A   1      32.927  23.391  23.009  1.00  0.00     0.028 C 
ATOM     10  C   UNL A   1      33.081  25.547  24.446  1.00  0.00     0.279 C 
ATOM     11  C   UNL A   1      32.980  24.316  21.798  1.00  0.00     0.063 C 
ATOM     12  N   UNL A   1      33.166  26.353  23.213  1.00  0.00    -0.332 N 
ATOM     13  C   UNL A   1      32.446  25.709  22.105  1.00  0.00     0.262 C 
ATOM     14  H   UNL A   1      34.141  26.402  22.919  1.00  0.00     0.348 HD
BRANCH   8  15
ATOM     15  C   UNL A   1      34.997  23.849  24.471  1.00  0.00     0.019 C 
ATOM     16  C   UNL A   1      35.669  24.289  25.766  1.00  0.00     0.005 C 
ENDBRANCH   8  15
BRANCH  12  17
ATOM     17  C   UNL A   1      32.736  27.759  23.467  1.00  0.00     0.185 C 
ATOM     18  C   UNL A   1      32.846  28.223  24.939  1.00  0.00     0.065 C 
ATOM     19  C   UNL A   1      31.319  27.996  22.909  1.00  0.00     0.084 C 
ATOM     20  C   UNL A   1      32.344  29.648  25.134  1.00  0.00     0.007 C 
ATOM     21  C   UNL A   1      30.772  29.407  23.182  1.00  0.00     0.114 C 
ATOM     22  C   UNL A   1      30.906  29.788  24.657  1.00  0.00     0.020 C 
BRANCH  21  23
ATOM     23  S   UNL A   1      29.050  29.481  22.631  1.00  0.00     0.150 S 
ATOM     24  C   UNL A   1      28.351  30.876  23.480  1.00  0.00     0.158 C 
ATOM     25  O   UNL A   1      29.050  29.811  21.219  1.00  0.00    -0.229 OA
ATOM     26  O   UNL A   1      28.356  28.300  23.113  1.00  0.00    -0.229 OA
ENDBRANCH  21  23
ENDBRANCH  12  17
ENDBRANCH   5   8
ENDBRANCH   3   4
ENDBRANCH   2   3
ENDBRANCH   1   2
BRANCH   1  27
ATOM     27  C   UNL A   1      37.492  20.806  25.103  1.00  0.00     0.116 C 
BRANCH  27  28
ATOM     28  N   UNL A   1      38.472  19.762  25.372  1.00  0.00    -0.352 N 
ATOM     29  C   UNL A   1      39.743  19.884  25.881  1.00  0.00     0.251 C 
ATOM     30  H   UNL A   1      38.185  18.844  25.162  1.00  0.00     0.163 HD
ATOM     31  O   UNL A   1      40.489  18.910  25.918  1.00  0.00    -0.269 OA
BRANCH  29  32
ATOM     32  C   UNL A   1      40.210  21.204  26.352  1.00  0.00     0.039 A 
ATOM     33  C   UNL A   1      41.306  21.268  27.212  1.00  0.00     0.014 A 
ATOM     34  C   UNL A   1      39.592  22.375  25.904  1.00  0.00     0.014 A 
ATOM     35  C   UNL A   1      41.830  22.512  27.569  1.00  0.00     0.010 A 
ATOM     36  C   UNL A   1      40.168  23.609  26.191  1.00  0.00     0.010 A 
ATOM     37  C   UNL A   1      41.289  23.692  27.030  1.00  0.00    -0.014 A 
BRANCH  37  38
ATOM     38  C   UNL A   1      41.890  25.020  27.320  1.00  0.00     0.031 A 
ATOM     39  C   UNL A   1      41.091  26.069  28.046  1.00  0.00     0.074 A 
ATOM     40  C   UNL A   1      43.120  25.313  26.852  1.00  0.00     0.049 A 
ATOM     41  N   UNL A   1      41.426  27.299  28.342  1.00  0.00    -0.248 NA
ATOM     42  C   UNL A   1      39.729  25.704  28.471  1.00  0.00     0.031 C 
ATOM     43  C   UNL A   1      43.962  24.412  26.060  1.00  0.00     0.029 A 
ATOM     44  N   UNL A   1      43.866  26.462  26.946  1.00  0.00    -0.354 N 
ATOM     45  C   UNL A   1      40.306  27.864  28.941  1.00  0.00     0.074 A 
ATOM     46  C   UNL A   1      39.273  26.853  28.948  1.00  0.00     0.031 C 
ATOM     47  C   UNL A   1      45.106  25.041  25.743  1.00  0.00     0.029 A 
ATOM     48  C   UNL A   1      45.067  26.399  26.275  1.00  0.00     0.049 A 
ATOM     49  H   UNL A   1      43.570  27.256  27.447  1.00  0.00     0.167 HD
ATOM     50  C   UNL A   1      40.158  29.106  29.458  1.00  0.00     0.034 A 
ATOM     51  C   UNL A   1      46.021  27.334  26.095  1.00  0.00     0.034 A 
ATOM     52  C   UNL A   1      41.203  30.093  29.496  1.00  0.00     0.049 A 
ATOM     53  C   UNL A   1      45.844  28.690  26.724  1.00  0.00     0.074 A 
ATOM     54  C   UNL A   1      41.187  31.335  30.104  1.00  0.00     0.029 A 
ATOM     55  N   UNL A   1      42.440  29.960  28.886  1.00  0.00    -0.354 N 
ATOM     56  N   UNL A   1      44.850  29.140  27.450  1.00  0.00    -0.248 NA
ATOM     57  C   UNL A   1      46.938  29.656  26.542  1.00  0.00     0.031 C 
ATOM     58  C   UNL A   1      42.398  31.974  29.823  1.00  0.00     0.029 A 
ATOM     59  C   UNL A   1      43.187  31.108  29.082  1.00  0.00     0.049 A 
ATOM     60  H   UNL A   1      42.742  29.167  28.387  1.00  0.00     0.167 HD
ATOM     61  C   UNL A   1      45.215  30.423  27.841  1.00  0.00     0.074 A 
ATOM     62  C   UNL A   1      46.532  30.670  27.294  1.00  0.00     0.031 C 
ATOM     63  C   UNL A   1      44.518  31.321  28.579  1.00  0.00     0.034 A 
BRANCH  50  64
ATOM     64  C   UNL A   1      38.827  29.471  30.061  1.00  0.00     0.023 A 
ATOM     65  C   UNL A   1      38.557  29.162  31.409  1.00  0.00     0.012 A 
ATOM     66  C   UNL A   1      37.884  30.204  29.316  1.00  0.00     0.148 A 
ATOM     67  C   UNL A   1      37.356  29.557  31.999  1.00  0.00     0.002 A 
ATOM     68  C   UNL A   1      36.711  30.635  29.924  1.00  0.00     0.091 A 
ATOM     69  F   UNL A   1      38.153  30.470  28.029  1.00  0.00    -0.205 F 
ATOM     70  C   UNL A   1      36.441  30.303  31.262  1.00  0.00     0.022 A 
BRANCH  68  71
ATOM     71  S   UNL A   1      35.510  31.675  29.087  1.00  0.00     0.127 S 
ATOM     72  O   UNL A   1      34.685  32.130  30.206  1.00  0.00    -0.237 OA
ATOM     73  O   UNL A   1      36.361  32.709  28.497  1.00  0.00    -0.237 OA
ATOM     74  O   UNL A   1      34.833  30.818  28.125  1.00  0.00    -0.744 OA
ENDBRANCH  68  71
ENDBRANCH  50  64
BRANCH  51  75
ATOM     75  C   UNL A   1      47.251  27.015  25.313  1.00  0.00     0.023 A 
ATOM     76  C   UNL A   1      48.270  26.238  25.900  1.00  0.00     0.012 A 
ATOM     77  C   UNL A   1      47.421  27.488  23.998  1.00  0.00     0.148 A 
ATOM     78  C   UNL A   1      49.455  25.980  25.210  1.00  0.00     0.002 A 
ATOM     79  C   UNL A   1      48.578  27.175  23.293  1.00  0.00     0.091 A 
ATOM     80  F   UNL A   1      46.447  28.235  23.460  1.00  0.00    -0.205 F 
ATOM     81  C   UNL A   1      49.605  26.441  23.905  1.00  0.00     0.022 A 
BRANCH  79  82
ATOM     82  S   UNL A   1      48.798  27.613  21.567  1.00  0.00     0.127 S 
ATOM     83  O   UNL A   1      47.437  27.488  21.050  1.00  0.00    -0.237 OA
ATOM     84  O   UNL A   1      49.298  28.985  21.664  1.00  0.00    -0.237 OA
ATOM     85  O   UNL A   1      49.766  26.661  21.041  1.00  0.00    -0.744 OA
ENDBRANCH  79  82
ENDBRANCH  51  75
BRANCH  63  86
ATOM     86  C   UNL A   1      45.178  32.640  28.889  1.00  0.00     0.023 A 
ATOM     87  C   UNL A   1      45.968  32.781  30.047  1.00  0.00     0.012 A 
ATOM     88  C   UNL A   1      45.073  33.718  27.987  1.00  0.00     0.148 A 
ATOM     89  C   UNL A   1      46.611  33.987  30.322  1.00  0.00     0.002 A 
ATOM     90  C   UNL A   1      45.762  34.897  28.239  1.00  0.00     0.091 A 
ATOM     91  F   UNL A   1      44.304  33.567  26.899  1.00  0.00    -0.205 F 
ATOM     92  C   UNL A   1      46.518  35.040  29.413  1.00  0.00     0.022 A 
BRANCH  90  93
ATOM     93  S   UNL A   1      45.785  36.266  27.076  1.00  0.00     0.127 S 
ATOM     94  O   UNL A   1      44.380  36.666  27.058  1.00  0.00    -0.237 OA
ATOM     95  O   UNL A   1      46.682  37.215  27.736  1.00  0.00    -0.237 OA
ATOM     96  O   UNL A   1      46.296  35.723  25.824  1.00  0.00    -0.744 OA
ENDBRANCH  90  93
ENDBRANCH  63  86
ENDBRANCH  37  38
ENDBRANCH  29  32
ENDBRANCH  27  28
ENDBRANCH   1  27
TORSDOF 17
ENDMDL
MODEL 3
REMARK VINA RESULT:     -11.7      6.214     11.519
REMARK SMILES CC[C@]1(C(=O)NCCCCNC(=O)c2ccc(-c3c4nc(c(-c5cccc(S(=O)(=O)[O-])c5F)c5ccc([nH]5)c(-c5cccc(S(=O)(=O)[O-])c5F)c5nc(c(-c6cccc(S(=O)(=O)[O-])c6F)c6ccc3[nH]6)C=C5)C=C4)cc2)CCC[N@@H+]([C@@H]2CCC[C@H](S(C)(=O)=O)C2)C1
REMARK SMILES IDX 9 1 8 2 7 3 6 4 4 5 5 6 3 8 77 9 91 10 78 11 80 12 79 13
REMARK SMILES IDX 2 15 1 16 81 17 82 18 90 19 83 20 85 21 84 22 86 23 87 24
REMARK SMILES IDX 88 25 89 26 10 27 11 28 12 29 13 31 14 32 15 33 76 34 16 35
REMARK SMILES IDX 75 36 17 37 18 38 19 39 69 40 20 41 74 42 68 43 70 44 21 45
REMARK SMILES IDX 73 46 67 47 66 48 22 50 54 51 34 52 53 53 35 54 38 55 52 56
REMARK SMILES IDX 71 57 36 58 37 59 51 61 72 62 39 63 23 64 24 65 32 66 25 67
REMARK SMILES IDX 27 68 33 69 26 70 28 71 29 72 30 73 31 74 55 75 56 76 64 77
REMARK SMILES IDX 57 78 59 79 65 80 58 81 60 82 61 83 62 84 63 85 40 86 41 87
REMARK SMILES IDX 49 88 42 89 44 90 50 91 43 92 45 93 46 94 47 95 48 96
REMARK H PARENT 6 7 80 14 11 30 70 49 38 60
REMARK Flexibility Score: inf
ROOT
ATOM      1  C   UNL A   1      31.395  31.964  27.047  1.00  0.00     0.023 C 
ENDROOT
BRANCH   1   2
ATOM      2  C   UNL A   1      30.895  31.489  25.686  1.00  0.00     0.023 C 
BRANCH   2   3
ATOM      3  C   UNL A   1      31.469  30.150  25.232  1.00  0.00     0.116 C 
BRANCH   3   4
ATOM      4  N   UNL A   1      31.994  29.366  26.337  1.00  0.00    -0.355 N 
ATOM      5  C   UNL A   1      32.358  28.054  26.451  1.00  0.00     0.231 C 
ATOM      6  O   UNL A   1      32.856  27.736  27.534  1.00  0.00    -0.274 OA
ATOM      7  H   UNL A   1      32.112  29.881  27.168  1.00  0.00     0.163 HD
BRANCH   5   8
ATOM      8  C   UNL A   1      32.203  27.031  25.283  1.00  0.00     0.098 C 
ATOM      9  C   UNL A   1      32.927  27.583  24.032  1.00  0.00     0.028 C 
ATOM     10  C   UNL A   1      32.806  25.692  25.806  1.00  0.00     0.279 C 
ATOM     11  C   UNL A   1      33.411  26.507  23.067  1.00  0.00     0.063 C 
ATOM     12  N   UNL A   1      33.243  24.720  24.787  1.00  0.00    -0.332 N 
ATOM     13  C   UNL A   1      34.105  25.354  23.780  1.00  0.00     0.262 C 
ATOM     14  H   UNL A   1      32.424  24.384  24.280  1.00  0.00     0.348 HD
BRANCH   8  15
ATOM     15  C   UNL A   1      30.661  26.838  25.005  1.00  0.00     0.019 C 
ATOM     16  C   UNL A   1      29.919  25.718  25.723  1.00  0.00     0.005 C 
ENDBRANCH   8  15
BRANCH  12  17
ATOM     17  C   UNL A   1      33.858  23.520  25.427  1.00  0.00     0.185 C 
ATOM     18  C   UNL A   1      35.396  23.422  25.298  1.00  0.00     0.065 C 
ATOM     19  C   UNL A   1      33.171  22.234  24.929  1.00  0.00     0.084 C 
ATOM     20  C   UNL A   1      35.949  22.151  25.929  1.00  0.00     0.007 C 
ATOM     21  C   UNL A   1      33.785  20.943  25.495  1.00  0.00     0.114 C 
ATOM     22  C   UNL A   1      35.303  20.916  25.319  1.00  0.00     0.020 C 
BRANCH  21  23
ATOM     23  S   UNL A   1      32.998  19.524  24.692  1.00  0.00     0.150 S 
ATOM     24  C   UNL A   1      34.323  18.387  24.358  1.00  0.00     0.158 C 
ATOM     25  O   UNL A   1      32.137  18.883  25.666  1.00  0.00    -0.229 OA
ATOM     26  O   UNL A   1      32.471  19.950  23.408  1.00  0.00    -0.229 OA
ENDBRANCH  21  23
ENDBRANCH  12  17
ENDBRANCH   5   8
ENDBRANCH   3   4
ENDBRANCH   2   3
ENDBRANCH   1   2
BRANCH   1  27
ATOM     27  C   UNL A   1      32.649  32.830  27.005  1.00  0.00     0.116 C 
BRANCH  27  28
ATOM     28  N   UNL A   1      32.469  34.124  27.648  1.00  0.00    -0.352 N 
ATOM     29  C   UNL A   1      33.156  34.661  28.711  1.00  0.00     0.251 C 
ATOM     30  H   UNL A   1      31.760  34.693  27.270  1.00  0.00     0.163 HD
ATOM     31  O   UNL A   1      32.784  35.716  29.217  1.00  0.00    -0.269 OA
BRANCH  29  32
ATOM     32  C   UNL A   1      34.326  33.940  29.254  1.00  0.00     0.039 A 
ATOM     33  C   UNL A   1      35.607  34.368  28.906  1.00  0.00     0.014 A 
ATOM     34  C   UNL A   1      34.152  32.876  30.143  1.00  0.00     0.014 A 
ATOM     35  C   UNL A   1      36.719  33.772  29.506  1.00  0.00     0.010 A 
ATOM     36  C   UNL A   1      35.255  32.344  30.803  1.00  0.00     0.010 A 
ATOM     37  C   UNL A   1      36.550  32.782  30.489  1.00  0.00    -0.014 A 
BRANCH  37  38
ATOM     38  C   UNL A   1      37.714  32.202  31.208  1.00  0.00     0.031 A 
ATOM     39  C   UNL A   1      38.491  31.066  30.599  1.00  0.00     0.074 A 
ATOM     40  C   UNL A   1      38.017  32.637  32.449  1.00  0.00     0.049 A 
ATOM     41  N   UNL A   1      39.500  30.399  31.098  1.00  0.00    -0.248 NA
ATOM     42  C   UNL A   1      38.065  30.596  29.270  1.00  0.00     0.031 C 
ATOM     43  C   UNL A   1      37.287  33.673  33.185  1.00  0.00     0.029 A 
ATOM     44  N   UNL A   1      38.998  32.242  33.324  1.00  0.00    -0.354 N 
ATOM     45  C   UNL A   1      39.795  29.407  30.170  1.00  0.00     0.074 A 
ATOM     46  C   UNL A   1      38.847  29.542  29.088  1.00  0.00     0.031 C 
ATOM     47  C   UNL A   1      37.846  33.832  34.395  1.00  0.00     0.029 A 
ATOM     48  C   UNL A   1      38.948  32.887  34.539  1.00  0.00     0.049 A 
ATOM     49  H   UNL A   1      39.674  31.561  33.103  1.00  0.00     0.167 HD
ATOM     50  C   UNL A   1      40.781  28.480  30.206  1.00  0.00     0.034 A 
ATOM     51  C   UNL A   1      39.695  32.725  35.650  1.00  0.00     0.034 A 
ATOM     52  C   UNL A   1      41.754  28.379  31.260  1.00  0.00     0.049 A 
ATOM     53  C   UNL A   1      40.813  31.717  35.638  1.00  0.00     0.074 A 
ATOM     54  C   UNL A   1      42.861  27.552  31.328  1.00  0.00     0.029 A 
ATOM     55  N   UNL A   1      41.728  29.112  32.435  1.00  0.00    -0.354 N 
ATOM     56  N   UNL A   1      41.192  30.915  34.673  1.00  0.00    -0.248 NA
ATOM     57  C   UNL A   1      41.631  31.616  36.857  1.00  0.00     0.031 C 
ATOM     58  C   UNL A   1      43.479  27.752  32.566  1.00  0.00     0.029 A 
ATOM     59  C   UNL A   1      42.785  28.740  33.246  1.00  0.00     0.049 A 
ATOM     60  H   UNL A   1      41.056  29.797  32.660  1.00  0.00     0.167 HD
ATOM     61  C   UNL A   1      42.313  30.247  35.151  1.00  0.00     0.074 A 
ATOM     62  C   UNL A   1      42.566  30.753  36.483  1.00  0.00     0.031 C 
ATOM     63  C   UNL A   1      43.059  29.290  34.548  1.00  0.00     0.034 A 
BRANCH  50  64
ATOM     64  C   UNL A   1      40.888  27.511  29.058  1.00  0.00     0.023 A 
ATOM     65  C   UNL A   1      40.052  26.377  29.014  1.00  0.00     0.012 A 
ATOM     66  C   UNL A   1      41.752  27.778  27.978  1.00  0.00     0.148 A 
ATOM     67  C   UNL A   1      40.093  25.510  27.922  1.00  0.00     0.002 A 
ATOM     68  C   UNL A   1      41.752  26.936  26.873  1.00  0.00     0.091 A 
ATOM     69  F   UNL A   1      42.553  28.851  28.050  1.00  0.00    -0.205 F 
ATOM     70  C   UNL A   1      40.931  25.796  26.849  1.00  0.00     0.022 A 
BRANCH  68  71
ATOM     71  S   UNL A   1      42.730  27.265  25.404  1.00  0.00     0.127 S 
ATOM     72  O   UNL A   1      42.484  26.059  24.612  1.00  0.00    -0.237 OA
ATOM     73  O   UNL A   1      42.097  28.477  24.881  1.00  0.00    -0.237 OA
ATOM     74  O   UNL A   1      44.100  27.440  25.860  1.00  0.00    -0.744 OA
ENDBRANCH  68  71
ENDBRANCH  50  64
BRANCH  51  75
ATOM     75  C   UNL A   1      39.438  33.558  36.860  1.00  0.00     0.023 A 
ATOM     76  C   UNL A   1      39.903  34.888  36.903  1.00  0.00     0.012 A 
ATOM     77  C   UNL A   1      38.748  33.037  37.971  1.00  0.00     0.148 A 
ATOM     78  C   UNL A   1      39.730  35.666  38.048  1.00  0.00     0.002 A 
ATOM     79  C   UNL A   1      38.524  33.839  39.085  1.00  0.00     0.091 A 
ATOM     80  F   UNL A   1      38.324  31.768  37.918  1.00  0.00    -0.205 F 
ATOM     81  C   UNL A   1      39.033  35.145  39.135  1.00  0.00     0.022 A 
BRANCH  79  82
ATOM     82  S   UNL A   1      37.524  33.293  40.473  1.00  0.00     0.127 S 
ATOM     83  O   UNL A   1      38.363  32.248  41.054  1.00  0.00    -0.237 OA
ATOM     84  O   UNL A   1      37.420  34.516  41.269  1.00  0.00    -0.237 OA
ATOM     85  O   UNL A   1      36.264  32.847  39.895  1.00  0.00    -0.744 OA
ENDBRANCH  79  82
ENDBRANCH  51  75
BRANCH  63  86
ATOM     86  C   UNL A   1      44.257  28.759  35.291  1.00  0.00     0.023 A 
ATOM     87  C   UNL A   1      45.524  29.344  35.103  1.00  0.00     0.012 A 
ATOM     88  C   UNL A   1      44.106  27.723  36.235  1.00  0.00     0.148 A 
ATOM     89  C   UNL A   1      46.630  28.881  35.815  1.00  0.00     0.002 A 
ATOM     90  C   UNL A   1      45.200  27.305  36.981  1.00  0.00     0.091 A 
ATOM     91  F   UNL A   1      42.895  27.168  36.387  1.00  0.00    -0.205 F 
ATOM     92  C   UNL A   1      46.466  27.871  36.761  1.00  0.00     0.022 A 
BRANCH  90  93
ATOM     93  S   UNL A   1      45.063  26.085  38.292  1.00  0.00     0.127 S 
ATOM     94  O   UNL A   1      46.448  25.979  38.747  1.00  0.00    -0.237 OA
ATOM     95  O   UNL A   1      44.160  26.745  39.234  1.00  0.00    -0.237 OA
ATOM     96  O   UNL A   1      44.517  24.885  37.672  1.00  0.00    -0.744 OA
ENDBRANCH  90  93
ENDBRANCH  63  86
ENDBRANCH  37  38
ENDBRANCH  29  32
ENDBRANCH  27  28
ENDBRANCH   1  27
TORSDOF 17
ENDMDL
