MODEL 1
REMARK VINA RESULT:     -13.9      0.000      0.000
REMARK SMILES Cc1ccc([C@@H](C)Nc2ccc(N)cc2C(=O)NCCCCNC(=O)c2ccc(-c3c4nc(c(-c5cccc(S(=O)(=O)[O-])c5F)c5ccc([nH]5)c(-c5cccc(S(=O)(=O)[O-])c5F)c5nc(c(-c6cccc(S(=O)(=O)[O-])c6F)c6ccc3[nH]6)C=C5)C=C4)cc2)cc1F
REMARK SMILES IDX 20 1 19 2 18 3 16 4 17 5 15 7 9 8 10 9 11 10 14 11 12 12
REMARK SMILES IDX 8 13 6 15 7 16 5 17 1 18 2 19 3 20 90 21 4 22 89 23 91 24
REMARK SMILES IDX 13 25 21 28 22 29 23 30 24 31 25 33 26 34 27 35 88 36 28 37
REMARK SMILES IDX 87 38 29 39 30 40 31 41 81 42 32 43 86 44 80 45 82 46 33 47
REMARK SMILES IDX 85 48 79 49 78 50 34 52 66 53 46 54 65 55 47 56 50 57 64 58
REMARK SMILES IDX 83 59 48 60 49 61 63 63 84 64 51 65 35 66 36 67 44 68 37 69
REMARK SMILES IDX 39 70 45 71 38 72 40 73 41 74 42 75 43 76 67 77 68 78 76 79
REMARK SMILES IDX 69 80 71 81 77 82 70 83 72 84 73 85 74 86 75 87 52 88 53 89
REMARK SMILES IDX 61 90 54 91 56 92 62 93 55 94 57 95 58 96 59 97 60 98
REMARK H PARENT 18 6 8 14 13 26 13 27 23 32 82 51 50 62
REMARK Flexibility Score: inf
ROOT
ATOM      1  C   UNL A   1      32.267  29.171  24.526  1.00  0.00     0.023 C 
ENDROOT
BRANCH   1   2
ATOM      2  C   UNL A   1      32.908  28.903  22.950  1.00  0.00     0.116 C 
BRANCH   2   3
ATOM      3  N   UNL A   1      32.579  27.684  22.213  1.00  0.00    -0.352 N 
ATOM      4  C   UNL A   1      31.361  27.100  21.962  1.00  0.00     0.253 C 
ATOM      5  O   UNL A   1      31.280  26.183  21.146  1.00  0.00    -0.269 OA
ATOM      6  H   UNL A   1      33.354  27.205  21.836  1.00  0.00     0.163 HD
BRANCH   4   7
ATOM      7  C   UNL A   1      30.210  27.434  22.821  1.00  0.00     0.065 A 
ATOM      8  C   UNL A   1      29.549  26.533  23.662  1.00  0.00     0.048 A 
ATOM      9  C   UNL A   1      28.175  26.794  23.832  1.00  0.00     0.028 A 
ATOM     10  C   UNL A   1      27.560  27.959  23.334  1.00  0.00     0.027 A 
ATOM     11  C   UNL A   1      29.644  28.679  22.472  1.00  0.00     0.041 A 
ATOM     12  C   UNL A   1      28.318  28.965  22.751  1.00  0.00     0.032 A 
BRANCH   8  13
ATOM     13  N   UNL A   1      30.076  25.413  24.274  1.00  0.00    -0.378 N 
ATOM     14  H   UNL A   1      29.947  24.577  23.768  1.00  0.00     0.161 HD
BRANCH  13  15
ATOM     15  C   UNL A   1      30.797  25.240  25.547  1.00  0.00     0.106 C 
ATOM     16  C   UNL A   1      30.765  26.472  26.441  1.00  0.00     0.036 C 
BRANCH  15  17
ATOM     17  C   UNL A   1      32.077  24.432  25.325  1.00  0.00    -0.023 A 
ATOM     18  C   UNL A   1      35.891  21.078  24.945  1.00  0.00     0.047 C 
ATOM     19  C   UNL A   1      34.831  22.122  24.754  1.00  0.00    -0.015 A 
ATOM     20  C   UNL A   1      33.139  21.527  24.775  1.00  0.00     0.007 A 
ATOM     21  C   UNL A   1      35.158  23.887  25.051  1.00  0.00     0.126 A 
ATOM     22  C   UNL A   1      31.767  22.679  25.010  1.00  0.00     0.006 A 
ATOM     23  C   UNL A   1      33.788  25.049  25.313  1.00  0.00     0.045 A 
ATOM     24  F   UNL A   1      36.422  24.315  25.145  1.00  0.00    -0.207 F 
ENDBRANCH  15  17
ENDBRANCH  13  15
ENDBRANCH   8  13
BRANCH  12  25
ATOM     25  N   UNL A   1      27.739  30.124  22.257  1.00  0.00    -0.399 N 
ATOM     26  H   UNL A   1      27.263  30.735  22.865  1.00  0.00     0.156 HD
ATOM     27  H   UNL A   1      27.802  30.337  21.298  1.00  0.00     0.156 HD
ENDBRANCH  12  25
ENDBRANCH   4   7
ENDBRANCH   2   3
ENDBRANCH   1   2
BRANCH   1  28
ATOM     28  C   UNL A   1      33.029  29.197  26.580  1.00  0.00     0.023 C 
BRANCH  28  29
ATOM     29  C   UNL A   1      34.453  29.364  27.306  1.00  0.00     0.116 C 
BRANCH  29  30
ATOM     30  N   UNL A   1      34.814  30.739  27.712  1.00  0.00    -0.352 N 
ATOM     31  C   UNL A   1      35.567  31.082  28.816  1.00  0.00     0.251 C 
ATOM     32  H   UNL A   1      34.488  31.474  27.145  1.00  0.00     0.163 HD
ATOM     33  O   UNL A   1      35.343  32.056  29.520  1.00  0.00    -0.269 OA
BRANCH  31  34
ATOM     34  C   UNL A   1      36.753  30.241  29.030  1.00  0.00     0.039 A 
ATOM     35  C   UNL A   1      36.921  29.363  30.100  1.00  0.00     0.014 A 
ATOM     36  C   UNL A   1      37.775  30.432  28.109  1.00  0.00     0.014 A 
ATOM     37  C   UNL A   1      38.163  28.756  30.229  1.00  0.00     0.010 A 
ATOM     38  C   UNL A   1      38.728  29.512  27.976  1.00  0.00     0.010 A 
ATOM     39  C   UNL A   1      39.053  28.895  29.162  1.00  0.00    -0.014 A 
BRANCH  39  40
ATOM     40  C   UNL A   1      40.437  28.492  29.094  1.00  0.00     0.031 A 
ATOM     41  C   UNL A   1      40.558  27.068  28.795  1.00  0.00     0.074 A 
ATOM     42  C   UNL A   1      41.289  29.555  29.058  1.00  0.00     0.049 A 
ATOM     43  N   UNL A   1      41.194  26.182  29.478  1.00  0.00    -0.248 NA
ATOM     44  C   UNL A   1      39.691  26.450  27.765  1.00  0.00     0.031 C 
ATOM     45  C   UNL A   1      42.675  29.731  28.674  1.00  0.00     0.029 A 
ATOM     46  N   UNL A   1      40.947  30.847  29.499  1.00  0.00    -0.354 N 
ATOM     47  C   UNL A   1      41.318  25.140  28.580  1.00  0.00     0.074 A 
ATOM     48  C   UNL A   1      40.115  25.183  27.788  1.00  0.00     0.031 C 
ATOM     49  C   UNL A   1      43.153  30.855  29.258  1.00  0.00     0.029 A 
ATOM     50  C   UNL A   1      42.080  31.458  30.039  1.00  0.00     0.049 A 
ATOM     51  H   UNL A   1      40.052  31.254  29.438  1.00  0.00     0.167 HD
ATOM     52  C   UNL A   1      42.574  24.780  28.172  1.00  0.00     0.034 A 
ATOM     53  C   UNL A   1      42.051  31.690  31.387  1.00  0.00     0.034 A 
ATOM     54  C   UNL A   1      43.559  25.710  28.725  1.00  0.00     0.049 A 
ATOM     55  C   UNL A   1      42.825  30.567  32.042  1.00  0.00     0.074 A 
ATOM     56  C   UNL A   1      44.335  26.712  28.168  1.00  0.00     0.029 A 
ATOM     57  N   UNL A   1      43.590  25.916  30.093  1.00  0.00    -0.354 N 
ATOM     58  N   UNL A   1      42.926  29.366  31.534  1.00  0.00    -0.248 NA
ATOM     59  C   UNL A   1      43.658  30.755  33.222  1.00  0.00     0.031 C 
ATOM     60  C   UNL A   1      44.799  27.543  29.229  1.00  0.00     0.029 A 
ATOM     61  C   UNL A   1      44.238  27.087  30.410  1.00  0.00     0.049 A 
ATOM     62  H   UNL A   1      43.197  25.302  30.756  1.00  0.00     0.167 HD
ATOM     63  C   UNL A   1      43.903  28.681  32.199  1.00  0.00     0.074 A 
ATOM     64  C   UNL A   1      44.299  29.575  33.275  1.00  0.00     0.031 C 
ATOM     65  C   UNL A   1      44.368  27.459  31.809  1.00  0.00     0.034 A 
BRANCH  52  66
ATOM     66  C   UNL A   1      42.891  23.802  27.065  1.00  0.00     0.023 A 
ATOM     67  C   UNL A   1      43.573  24.162  25.881  1.00  0.00     0.012 A 
ATOM     68  C   UNL A   1      42.419  22.473  27.128  1.00  0.00     0.148 A 
ATOM     69  C   UNL A   1      43.813  23.250  24.844  1.00  0.00     0.002 A 
ATOM     70  C   UNL A   1      42.641  21.573  26.088  1.00  0.00     0.091 A 
ATOM     71  F   UNL A   1      41.713  22.056  28.185  1.00  0.00    -0.205 F 
ATOM     72  C   UNL A   1      43.341  21.951  24.943  1.00  0.00     0.022 A 
BRANCH  70  73
ATOM     73  S   UNL A   1      41.964  19.919  26.232  1.00  0.00     0.127 S 
ATOM     74  O   UNL A   1      40.525  20.154  26.146  1.00  0.00    -0.237 OA
ATOM     75  O   UNL A   1      42.583  19.208  25.119  1.00  0.00    -0.237 OA
ATOM     76  O   UNL A   1      42.425  19.483  27.551  1.00  0.00    -0.744 OA
ENDBRANCH  70  73
ENDBRANCH  52  66
BRANCH  53  77
ATOM     77  C   UNL A   1      40.692  32.237  31.779  1.00  0.00     0.023 A 
ATOM     78  C   UNL A   1      40.446  33.617  31.860  1.00  0.00     0.012 A 
ATOM     79  C   UNL A   1      39.889  31.369  32.572  1.00  0.00     0.148 A 
ATOM     80  C   UNL A   1      39.523  34.115  32.799  1.00  0.00     0.002 A 
ATOM     81  C   UNL A   1      39.081  31.879  33.589  1.00  0.00     0.091 A 
ATOM     82  F   UNL A   1      40.050  30.043  32.433  1.00  0.00    -0.205 F 
ATOM     83  C   UNL A   1      38.885  33.255  33.699  1.00  0.00     0.022 A 
BRANCH  81  84
ATOM     84  S   UNL A   1      38.619  30.811  34.973  1.00  0.00     0.127 S 
ATOM     85  O   UNL A   1      37.959  29.689  34.313  1.00  0.00    -0.237 OA
ATOM     86  O   UNL A   1      39.888  30.524  35.635  1.00  0.00    -0.237 OA
ATOM     87  O   UNL A   1      37.735  31.650  35.793  1.00  0.00    -0.744 OA
ENDBRANCH  81  84
ENDBRANCH  53  77
BRANCH  65  88
ATOM     88  C   UNL A   1      45.069  26.484  32.714  1.00  0.00     0.023 A 
ATOM     89  C   UNL A   1      46.444  26.206  32.493  1.00  0.00     0.012 A 
ATOM     90  C   UNL A   1      44.419  25.708  33.675  1.00  0.00     0.148 A 
ATOM     91  C   UNL A   1      47.122  25.197  33.172  1.00  0.00     0.002 A 
ATOM     92  C   UNL A   1      45.139  24.823  34.466  1.00  0.00     0.091 A 
ATOM     93  F   UNL A   1      43.087  25.759  33.809  1.00  0.00    -0.205 F 
ATOM     94  C   UNL A   1      46.476  24.526  34.195  1.00  0.00     0.022 A 
BRANCH  92  95
ATOM     95  S   UNL A   1      44.352  24.233  35.958  1.00  0.00     0.127 S 
ATOM     96  O   UNL A   1      45.459  23.576  36.650  1.00  0.00    -0.237 OA
ATOM     97  O   UNL A   1      43.832  25.446  36.579  1.00  0.00    -0.237 OA
ATOM     98  O   UNL A   1      43.325  23.319  35.458  1.00  0.00    -0.744 OA
ENDBRANCH  92  95
ENDBRANCH  65  88
ENDBRANCH  39  40
ENDBRANCH  31  34
ENDBRANCH  29  30
ENDBRANCH  28  29
ENDBRANCH   1  28
TORSDOF 18
ENDMDL
MODEL 2
REMARK VINA RESULT:     -13.8      2.147      3.030
REMARK SMILES Cc1ccc([C@@H](C)Nc2ccc(N)cc2C(=O)NCCCCNC(=O)c2ccc(-c3c4nc(c(-c5cccc(S(=O)(=O)[O-])c5F)c5ccc([nH]5)c(-c5cccc(S(=O)(=O)[O-])c5F)c5nc(c(-c6cccc(S(=O)(=O)[O-])c6F)c6ccc3[nH]6)C=C5)C=C4)cc2)cc1F
REMARK SMILES IDX 20 1 19 2 18 3 16 4 17 5 15 7 9 8 10 9 11 10 14 11 12 12
REMARK SMILES IDX 8 13 6 15 7 16 5 17 1 18 2 19 3 20 90 21 4 22 89 23 91 24
REMARK SMILES IDX 13 25 21 28 22 29 23 30 24 31 25 33 26 34 27 35 88 36 28 37
REMARK SMILES IDX 87 38 29 39 30 40 31 41 81 42 32 43 86 44 80 45 82 46 33 47
REMARK SMILES IDX 85 48 79 49 78 50 34 52 66 53 46 54 65 55 47 56 50 57 64 58
REMARK SMILES IDX 83 59 48 60 49 61 63 63 84 64 51 65 35 66 36 67 44 68 37 69
REMARK SMILES IDX 39 70 45 71 38 72 40 73 41 74 42 75 43 76 67 77 68 78 76 79
REMARK SMILES IDX 69 80 71 81 77 82 70 83 72 84 73 85 74 86 75 87 52 88 53 89
REMARK SMILES IDX 61 90 54 91 56 92 62 93 55 94 57 95 58 96 59 97 60 98
REMARK H PARENT 18 6 8 14 13 26 13 27 23 32 82 51 50 62
REMARK Flexibility Score: inf
ROOT
ATOM      1  C   UNL A   1      33.211  30.453  27.332  1.00  0.00     0.023 C 
ENDROOT
BRANCH   1   2
ATOM      2  C   UNL A   1      32.837  28.774  27.234  1.00  0.00     0.116 C 
BRANCH   2   3
ATOM      3  N   UNL A   1      33.487  27.927  26.234  1.00  0.00    -0.352 N 
ATOM      4  C   UNL A   1      33.130  27.655  24.936  1.00  0.00     0.253 C 
ATOM      5  O   UNL A   1      33.923  27.077  24.193  1.00  0.00    -0.269 OA
ATOM      6  H   UNL A   1      34.311  27.482  26.540  1.00  0.00     0.163 HD
BRANCH   4   7
ATOM      7  C   UNL A   1      31.734  27.868  24.510  1.00  0.00     0.065 A 
ATOM      8  C   UNL A   1      30.698  26.942  24.668  1.00  0.00     0.048 A 
ATOM      9  C   UNL A   1      29.712  26.994  23.663  1.00  0.00     0.028 A 
ATOM     10  C   UNL A   1      29.685  28.003  22.682  1.00  0.00     0.027 A 
ATOM     11  C   UNL A   1      31.618  28.975  23.643  1.00  0.00     0.041 A 
ATOM     12  C   UNL A   1      30.574  29.067  22.737  1.00  0.00     0.032 A 
BRANCH   8  13
ATOM     13  N   UNL A   1      30.579  25.972  25.644  1.00  0.00    -0.378 N 
ATOM     14  H   UNL A   1      30.279  26.314  26.518  1.00  0.00     0.161 HD
BRANCH  13  15
ATOM     15  C   UNL A   1      30.820  24.519  25.616  1.00  0.00     0.106 C 
ATOM     16  C   UNL A   1      30.143  23.764  26.751  1.00  0.00     0.036 C 
BRANCH  15  17
ATOM     17  C   UNL A   1      32.262  24.231  25.195  1.00  0.00    -0.023 A 
ATOM     18  C   UNL A   1      36.703  22.723  23.210  1.00  0.00     0.047 C 
ATOM     19  C   UNL A   1      35.512  23.456  23.752  1.00  0.00    -0.015 A 
ATOM     20  C   UNL A   1      34.033  23.394  22.739  1.00  0.00     0.007 A 
ATOM     21  C   UNL A   1      35.367  23.880  25.515  1.00  0.00     0.126 A 
ATOM     22  C   UNL A   1      32.425  23.825  23.441  1.00  0.00     0.006 A 
ATOM     23  C   UNL A   1      33.752  24.291  26.236  1.00  0.00     0.045 A 
ATOM     24  F   UNL A   1      36.450  23.820  26.298  1.00  0.00    -0.207 F 
ENDBRANCH  15  17
ENDBRANCH  13  15
ENDBRANCH   8  13
BRANCH  12  25
ATOM     25  N   UNL A   1      30.567  30.077  21.786  1.00  0.00    -0.399 N 
ATOM     26  H   UNL A   1      31.214  30.058  21.043  1.00  0.00     0.156 HD
ATOM     27  H   UNL A   1      29.917  30.813  21.853  1.00  0.00     0.156 HD
ENDBRANCH  12  25
ENDBRANCH   4   7
ENDBRANCH   2   3
ENDBRANCH   1   2
BRANCH   1  28
ATOM     28  C   UNL A   1      34.977  31.675  27.765  1.00  0.00     0.023 C 
BRANCH  28  29
ATOM     29  C   UNL A   1      35.344  33.240  27.813  1.00  0.00     0.116 C 
BRANCH  29  30
ATOM     30  N   UNL A   1      35.055  33.931  29.087  1.00  0.00    -0.352 N 
ATOM     31  C   UNL A   1      35.512  33.553  30.332  1.00  0.00     0.251 C 
ATOM     32  H   UNL A   1      34.485  34.732  29.044  1.00  0.00     0.163 HD
ATOM     33  O   UNL A   1      34.846  33.622  31.355  1.00  0.00    -0.269 OA
BRANCH  31  34
ATOM     34  C   UNL A   1      36.926  33.154  30.366  1.00  0.00     0.039 A 
ATOM     35  C   UNL A   1      37.963  33.853  29.749  1.00  0.00     0.014 A 
ATOM     36  C   UNL A   1      37.174  31.949  31.010  1.00  0.00     0.014 A 
ATOM     37  C   UNL A   1      39.217  33.257  29.756  1.00  0.00     0.010 A 
ATOM     38  C   UNL A   1      38.409  31.656  31.415  1.00  0.00     0.010 A 
ATOM     39  C   UNL A   1      39.383  32.132  30.568  1.00  0.00    -0.014 A 
BRANCH  39  40
ATOM     40  C   UNL A   1      40.522  31.252  30.653  1.00  0.00     0.031 A 
ATOM     41  C   UNL A   1      40.271  29.995  29.951  1.00  0.00     0.074 A 
ATOM     42  C   UNL A   1      41.635  31.881  31.122  1.00  0.00     0.049 A 
ATOM     43  N   UNL A   1      40.361  28.805  30.432  1.00  0.00    -0.248 NA
ATOM     44  C   UNL A   1      39.603  30.005  28.628  1.00  0.00     0.031 C 
ATOM     45  C   UNL A   1      43.054  31.587  31.096  1.00  0.00     0.029 A 
ATOM     46  N   UNL A   1      41.603  33.073  31.871  1.00  0.00    -0.354 N 
ATOM     47  C   UNL A   1      40.412  28.023  29.295  1.00  0.00     0.074 A 
ATOM     48  C   UNL A   1      39.580  28.702  28.336  1.00  0.00     0.031 C 
ATOM     49  C   UNL A   1      43.664  32.280  32.086  1.00  0.00     0.029 A 
ATOM     50  C   UNL A   1      42.655  33.063  32.789  1.00  0.00     0.049 A 
ATOM     51  H   UNL A   1      40.944  33.797  31.765  1.00  0.00     0.167 HD
ATOM     52  C   UNL A   1      41.552  27.305  29.052  1.00  0.00     0.034 A 
ATOM     53  C   UNL A   1      42.299  32.984  34.107  1.00  0.00     0.034 A 
ATOM     54  C   UNL A   1      42.567  27.635  30.053  1.00  0.00     0.049 A 
ATOM     55  C   UNL A   1      42.446  31.534  34.515  1.00  0.00     0.074 A 
ATOM     56  C   UNL A   1      43.748  28.355  30.005  1.00  0.00     0.029 A 
ATOM     57  N   UNL A   1      42.250  27.504  31.394  1.00  0.00    -0.354 N 
ATOM     58  N   UNL A   1      42.309  30.532  33.686  1.00  0.00    -0.248 NA
ATOM     59  C   UNL A   1      42.902  31.119  35.835  1.00  0.00     0.031 C 
ATOM     60  C   UNL A   1      44.111  28.685  31.343  1.00  0.00     0.029 A 
ATOM     61  C   UNL A   1      43.109  28.232  32.185  1.00  0.00     0.049 A 
ATOM     62  H   UNL A   1      41.505  26.960  31.739  1.00  0.00     0.167 HD
ATOM     63  C   UNL A   1      42.775  29.394  34.281  1.00  0.00     0.074 A 
ATOM     64  C   UNL A   1      43.092  29.803  35.639  1.00  0.00     0.031 C 
ATOM     65  C   UNL A   1      42.925  28.205  33.627  1.00  0.00     0.034 A 
BRANCH  52  66
ATOM     66  C   UNL A   1      41.860  26.552  27.779  1.00  0.00     0.023 A 
ATOM     67  C   UNL A   1      42.176  27.187  26.556  1.00  0.00     0.012 A 
ATOM     68  C   UNL A   1      41.748  25.145  27.735  1.00  0.00     0.148 A 
ATOM     69  C   UNL A   1      42.410  26.470  25.375  1.00  0.00     0.002 A 
ATOM     70  C   UNL A   1      41.961  24.435  26.556  1.00  0.00     0.091 A 
ATOM     71  F   UNL A   1      41.396  24.461  28.831  1.00  0.00    -0.205 F 
ATOM     72  C   UNL A   1      42.297  25.089  25.370  1.00  0.00     0.022 A 
BRANCH  70  73
ATOM     73  S   UNL A   1      41.749  22.655  26.581  1.00  0.00     0.127 S 
ATOM     74  O   UNL A   1      42.613  22.246  27.685  1.00  0.00    -0.237 OA
ATOM     75  O   UNL A   1      40.312  22.494  26.776  1.00  0.00    -0.237 OA
ATOM     76  O   UNL A   1      42.224  22.243  25.260  1.00  0.00    -0.744 OA
ENDBRANCH  70  73
ENDBRANCH  52  66
BRANCH  53  77
ATOM     77  C   UNL A   1      41.129  33.912  34.374  1.00  0.00     0.023 A 
ATOM     78  C   UNL A   1      41.320  35.257  34.732  1.00  0.00     0.012 A 
ATOM     79  C   UNL A   1      39.925  33.276  34.791  1.00  0.00     0.148 A 
ATOM     80  C   UNL A   1      40.403  35.896  35.586  1.00  0.00     0.002 A 
ATOM     81  C   UNL A   1      39.098  33.874  35.742  1.00  0.00     0.091 A 
ATOM     82  F   UNL A   1      39.688  32.021  34.376  1.00  0.00    -0.205 F 
ATOM     83  C   UNL A   1      39.327  35.192  36.135  1.00  0.00     0.022 A 
BRANCH  81  84
ATOM     84  S   UNL A   1      37.999  32.837  36.737  1.00  0.00     0.127 S 
ATOM     85  O   UNL A   1      37.002  32.397  35.768  1.00  0.00    -0.237 OA
ATOM     86  O   UNL A   1      38.882  31.807  37.278  1.00  0.00    -0.237 OA
ATOM     87  O   UNL A   1      37.493  33.745  37.774  1.00  0.00    -0.744 OA
ENDBRANCH  81  84
ENDBRANCH  53  77
BRANCH  65  88
ATOM     88  C   UNL A   1      42.978  26.862  34.299  1.00  0.00     0.023 A 
ATOM     89  C   UNL A   1      41.806  26.361  34.927  1.00  0.00     0.012 A 
ATOM     90  C   UNL A   1      44.151  26.129  34.483  1.00  0.00     0.148 A 
ATOM     91  C   UNL A   1      41.812  25.211  35.713  1.00  0.00     0.002 A 
ATOM     92  C   UNL A   1      44.115  24.898  35.123  1.00  0.00     0.091 A 
ATOM     93  F   UNL A   1      45.335  26.627  34.102  1.00  0.00    -0.205 F 
ATOM     94  C   UNL A   1      42.967  24.451  35.779  1.00  0.00     0.022 A 
BRANCH  92  95
ATOM     95  S   UNL A   1      45.526  23.822  34.906  1.00  0.00     0.127 S 
ATOM     96  O   UNL A   1      45.207  23.147  33.649  1.00  0.00    -0.237 OA
ATOM     97  O   UNL A   1      46.660  24.739  34.875  1.00  0.00    -0.237 OA
ATOM     98  O   UNL A   1      45.476  22.958  36.085  1.00  0.00    -0.744 OA
ENDBRANCH  92  95
ENDBRANCH  65  88
ENDBRANCH  39  40
ENDBRANCH  31  34
ENDBRANCH  29  30
ENDBRANCH  28  29
ENDBRANCH   1  28
TORSDOF 18
ENDMDL
MODEL 3
REMARK VINA RESULT:     -13.6      4.081      9.495
REMARK SMILES Cc1ccc([C@@H](C)Nc2ccc(N)cc2C(=O)NCCCCNC(=O)c2ccc(-c3c4nc(c(-c5cccc(S(=O)(=O)[O-])c5F)c5ccc([nH]5)c(-c5cccc(S(=O)(=O)[O-])c5F)c5nc(c(-c6cccc(S(=O)(=O)[O-])c6F)c6ccc3[nH]6)C=C5)C=C4)cc2)cc1F
REMARK SMILES IDX 20 1 19 2 18 3 16 4 17 5 15 7 9 8 10 9 11 10 14 11 12 12
REMARK SMILES IDX 8 13 6 15 7 16 5 17 1 18 2 19 3 20 90 21 4 22 89 23 91 24
REMARK SMILES IDX 13 25 21 28 22 29 23 30 24 31 25 33 26 34 27 35 88 36 28 37
REMARK SMILES IDX 87 38 29 39 30 40 31 41 81 42 32 43 86 44 80 45 82 46 33 47
REMARK SMILES IDX 85 48 79 49 78 50 34 52 66 53 46 54 65 55 47 56 50 57 64 58
REMARK SMILES IDX 83 59 48 60 49 61 63 63 84 64 51 65 35 66 36 67 44 68 37 69
REMARK SMILES IDX 39 70 45 71 38 72 40 73 41 74 42 75 43 76 67 77 68 78 76 79
REMARK SMILES IDX 69 80 71 81 77 82 70 83 72 84 73 85 74 86 75 87 52 88 53 89
REMARK SMILES IDX 61 90 54 91 56 92 62 93 55 94 57 95 58 96 59 97 60 98
REMARK H PARENT 18 6 8 14 13 26 13 27 23 32 82 51 50 62
REMARK Flexibility Score: inf
ROOT
ATOM      1  C   UNL A   1      38.050  23.601  26.214  1.00  0.00     0.023 C 
ENDROOT
BRANCH   1   2
ATOM      2  C   UNL A   1      36.397  23.528  25.734  1.00  0.00     0.116 C 
BRANCH   2   3
ATOM      3  N   UNL A   1      35.345  23.316  26.726  1.00  0.00    -0.352 N 
ATOM      4  C   UNL A   1      34.350  22.370  26.776  1.00  0.00     0.253 C 
ATOM      5  O   UNL A   1      33.688  22.234  27.804  1.00  0.00    -0.269 OA
ATOM      6  H   UNL A   1      35.351  23.952  27.479  1.00  0.00     0.163 HD
BRANCH   4   7
ATOM      7  C   UNL A   1      33.950  21.677  25.538  1.00  0.00     0.065 A 
ATOM      8  C   UNL A   1      32.898  22.069  24.703  1.00  0.00     0.048 A 
ATOM      9  C   UNL A   1      32.252  21.007  24.042  1.00  0.00     0.028 A 
ATOM     10  C   UNL A   1      32.732  19.684  24.086  1.00  0.00     0.027 A 
ATOM     11  C   UNL A   1      34.534  20.395  25.447  1.00  0.00     0.041 A 
ATOM     12  C   UNL A   1      33.944  19.392  24.695  1.00  0.00     0.032 A 
BRANCH   8  13
ATOM     13  N   UNL A   1      32.406  23.346  24.515  1.00  0.00    -0.378 N 
ATOM     14  H   UNL A   1      31.581  23.538  25.017  1.00  0.00     0.161 HD
BRANCH  13  15
ATOM     15  C   UNL A   1      32.891  24.472  23.699  1.00  0.00     0.106 C 
ATOM     16  C   UNL A   1      34.147  24.154  22.900  1.00  0.00     0.036 C 
BRANCH  15  17
ATOM     17  C   UNL A   1      32.728  25.788  24.464  1.00  0.00    -0.023 A 
ATOM     18  C   UNL A   1      31.891  30.485  26.243  1.00  0.00     0.047 C 
ATOM     19  C   UNL A   1      31.975  29.012  25.974  1.00  0.00    -0.015 A 
ATOM     20  C   UNL A   1      31.020  28.422  24.575  1.00  0.00     0.007 A 
ATOM     21  C   UNL A   1      33.343  27.996  26.611  1.00  0.00     0.126 A 
ATOM     22  C   UNL A   1      31.360  26.800  23.854  1.00  0.00     0.006 A 
ATOM     23  C   UNL A   1      33.709  26.376  25.878  1.00  0.00     0.045 A 
ATOM     24  F   UNL A   1      34.126  28.481  27.581  1.00  0.00    -0.207 F 
ENDBRANCH  15  17
ENDBRANCH  13  15
ENDBRANCH   8  13
BRANCH  12  25
ATOM     25  N   UNL A   1      34.443  18.099  24.750  1.00  0.00    -0.399 N 
ATOM     26  H   UNL A   1      35.415  17.948  24.806  1.00  0.00     0.156 HD
ATOM     27  H   UNL A   1      33.827  17.332  24.732  1.00  0.00     0.156 HD
ENDBRANCH  12  25
ENDBRANCH   4   7
ENDBRANCH   2   3
ENDBRANCH   1   2
BRANCH   1  28
ATOM     28  C   UNL A   1      39.754  22.226  26.293  1.00  0.00     0.023 C 
BRANCH  28  29
ATOM     29  C   UNL A   1      40.642  21.514  27.428  1.00  0.00     0.116 C 
BRANCH  29  30
ATOM     30  N   UNL A   1      41.994  21.082  27.014  1.00  0.00    -0.352 N 
ATOM     31  C   UNL A   1      43.036  21.916  26.667  1.00  0.00     0.251 C 
ATOM     32  H   UNL A   1      42.165  20.113  26.982  1.00  0.00     0.163 HD
ATOM     33  O   UNL A   1      43.827  21.683  25.764  1.00  0.00    -0.269 OA
BRANCH  31  34
ATOM     34  C   UNL A   1      43.204  23.080  27.548  1.00  0.00     0.039 A 
ATOM     35  C   UNL A   1      43.445  23.010  28.920  1.00  0.00     0.014 A 
ATOM     36  C   UNL A   1      43.024  24.309  26.927  1.00  0.00     0.014 A 
ATOM     37  C   UNL A   1      43.430  24.205  29.626  1.00  0.00     0.010 A 
ATOM     38  C   UNL A   1      43.484  25.417  27.506  1.00  0.00     0.010 A 
ATOM     39  C   UNL A   1      43.403  25.385  28.878  1.00  0.00    -0.014 A 
BRANCH  39  40
ATOM     40  C   UNL A   1      43.242  26.738  29.351  1.00  0.00     0.031 A 
ATOM     41  C   UNL A   1      41.901  27.242  29.063  1.00  0.00     0.074 A 
ATOM     42  C   UNL A   1      44.256  27.128  30.173  1.00  0.00     0.049 A 
ATOM     43  N   UNL A   1      41.596  28.312  28.417  1.00  0.00    -0.248 NA
ATOM     44  C   UNL A   1      40.720  26.374  29.281  1.00  0.00     0.031 C 
ATOM     45  C   UNL A   1      44.426  28.194  31.139  1.00  0.00     0.029 A 
ATOM     46  N   UNL A   1      45.523  26.513  30.198  1.00  0.00    -0.354 N 
ATOM     47  C   UNL A   1      40.276  28.512  28.771  1.00  0.00     0.074 A 
ATOM     48  C   UNL A   1      39.724  27.190  28.924  1.00  0.00     0.031 C 
ATOM     49  C   UNL A   1      45.749  28.412  31.325  1.00  0.00     0.029 A 
ATOM     50  C   UNL A   1      46.491  27.477  30.487  1.00  0.00     0.049 A 
ATOM     51  H   UNL A   1      45.698  25.558  30.037  1.00  0.00     0.167 HD
ATOM     52  C   UNL A   1      39.959  29.637  29.484  1.00  0.00     0.034 A 
ATOM     53  C   UNL A   1      47.366  27.768  29.478  1.00  0.00     0.034 A 
ATOM     54  C   UNL A   1      41.181  30.364  29.829  1.00  0.00     0.049 A 
ATOM     55  C   UNL A   1      46.867  29.033  28.814  1.00  0.00     0.074 A 
ATOM     56  C   UNL A   1      41.869  30.554  31.016  1.00  0.00     0.029 A 
ATOM     57  N   UNL A   1      42.054  30.723  28.818  1.00  0.00    -0.354 N 
ATOM     58  N   UNL A   1      45.607  29.382  28.778  1.00  0.00    -0.248 NA
ATOM     59  C   UNL A   1      47.754  30.060  28.285  1.00  0.00     0.031 C 
ATOM     60  C   UNL A   1      43.183  30.997  30.691  1.00  0.00     0.029 A 
ATOM     61  C   UNL A   1      43.309  30.998  29.312  1.00  0.00     0.049 A 
ATOM     62  H   UNL A   1      41.810  30.775  27.865  1.00  0.00     0.167 HD
ATOM     63  C   UNL A   1      45.516  30.683  28.371  1.00  0.00     0.074 A 
ATOM     64  C   UNL A   1      46.880  31.049  28.031  1.00  0.00     0.031 C 
ATOM     65  C   UNL A   1      44.354  31.399  28.384  1.00  0.00     0.034 A 
BRANCH  52  66
ATOM     66  C   UNL A   1      38.618  29.927  30.115  1.00  0.00     0.023 A 
ATOM     67  C   UNL A   1      38.081  29.172  31.182  1.00  0.00     0.012 A 
ATOM     68  C   UNL A   1      37.781  30.933  29.587  1.00  0.00     0.148 A 
ATOM     69  C   UNL A   1      36.812  29.427  31.721  1.00  0.00     0.002 A 
ATOM     70  C   UNL A   1      36.512  31.173  30.110  1.00  0.00     0.091 A 
ATOM     71  F   UNL A   1      38.181  31.663  28.538  1.00  0.00    -0.205 F 
ATOM     72  C   UNL A   1      36.020  30.427  31.181  1.00  0.00     0.022 A 
BRANCH  70  73
ATOM     73  S   UNL A   1      35.498  32.438  29.345  1.00  0.00     0.127 S 
ATOM     74  O   UNL A   1      35.282  31.906  28.002  1.00  0.00    -0.237 OA
ATOM     75  O   UNL A   1      34.334  32.506  30.221  1.00  0.00    -0.237 OA
ATOM     76  O   UNL A   1      36.353  33.625  29.391  1.00  0.00    -0.744 OA
ENDBRANCH  70  73
ENDBRANCH  52  66
BRANCH  53  77
ATOM     77  C   UNL A   1      47.817  26.483  28.810  1.00  0.00     0.023 A 
ATOM     78  C   UNL A   1      48.951  25.780  29.251  1.00  0.00     0.012 A 
ATOM     79  C   UNL A   1      47.425  26.329  27.450  1.00  0.00     0.148 A 
ATOM     80  C   UNL A   1      49.734  25.058  28.332  1.00  0.00     0.002 A 
ATOM     81  C   UNL A   1      48.281  25.727  26.527  1.00  0.00     0.091 A 
ATOM     82  F   UNL A   1      46.291  26.920  27.041  1.00  0.00    -0.205 F 
ATOM     83  C   UNL A   1      49.434  25.077  26.967  1.00  0.00     0.022 A 
BRANCH  81  84
ATOM     84  S   UNL A   1      48.107  26.120  24.771  1.00  0.00     0.127 S 
ATOM     85  O   UNL A   1      49.446  25.871  24.247  1.00  0.00    -0.237 OA
ATOM     86  O   UNL A   1      47.050  25.222  24.313  1.00  0.00    -0.237 OA
ATOM     87  O   UNL A   1      47.692  27.528  24.759  1.00  0.00    -0.744 OA
ENDBRANCH  81  84
ENDBRANCH  53  77
BRANCH  65  88
ATOM     88  C   UNL A   1      44.096  32.622  27.549  1.00  0.00     0.023 A 
ATOM     89  C   UNL A   1      44.183  32.519  26.134  1.00  0.00     0.012 A 
ATOM     90  C   UNL A   1      43.922  33.902  28.075  1.00  0.00     0.148 A 
ATOM     91  C   UNL A   1      44.126  33.631  25.299  1.00  0.00     0.002 A 
ATOM     92  C   UNL A   1      43.696  34.982  27.232  1.00  0.00     0.091 A 
ATOM     93  F   UNL A   1      44.030  34.121  29.393  1.00  0.00    -0.205 F 
ATOM     94  C   UNL A   1      43.841  34.868  25.849  1.00  0.00     0.022 A 
BRANCH  92  95
ATOM     95  S   UNL A   1      43.021  36.465  27.967  1.00  0.00     0.127 S 
ATOM     96  O   UNL A   1      42.792  37.310  26.796  1.00  0.00    -0.237 OA
ATOM     97  O   UNL A   1      41.831  35.995  28.666  1.00  0.00    -0.237 OA
ATOM     98  O   UNL A   1      44.097  36.927  28.843  1.00  0.00    -0.744 OA
ENDBRANCH  92  95
ENDBRANCH  65  88
ENDBRANCH  39  40
ENDBRANCH  31  34
ENDBRANCH  29  30
ENDBRANCH  28  29
ENDBRANCH   1  28
TORSDOF 18
ENDMDL
