MODEL 1
REMARK VINA RESULT:     -11.9      0.000      0.000
REMARK SMILES Nc1cc(-c2ccsc2)ccc1C(=O)NCCCCNC(=O)c1ccc(-c2c3nc(c(-c4cccc(S(=O)(=O)[O-])c4F)c4ccc([nH]4)c(-c4cccc(S(=O)(=O)[O-])c4F)c4nc(c(-c5cccc(S(=O)(=O)[O-])c5F)c5ccc2[nH]5)C=C4)C=C3)cc1
REMARK SMILES IDX 18 1 17 2 16 3 15 4 13 5 14 6 12 8 2 9 3 10 4 11 11 12 10 13
REMARK SMILES IDX 1 14 5 17 6 18 9 19 7 20 8 21 19 22 20 23 21 24 22 26 23 27
REMARK SMILES IDX 24 28 85 29 25 30 84 31 26 32 27 33 28 34 78 35 29 36 83 37
REMARK SMILES IDX 77 38 79 39 30 40 82 41 76 42 75 43 31 45 63 46 43 47 62 48
REMARK SMILES IDX 44 49 47 50 61 51 80 52 45 53 46 54 60 56 81 57 48 58 32 59
REMARK SMILES IDX 33 60 41 61 34 62 36 63 42 64 35 65 37 66 38 67 39 68 40 69
REMARK SMILES IDX 64 70 65 71 73 72 66 73 68 74 74 75 67 76 69 77 70 78 71 79
REMARK SMILES IDX 72 80 49 81 50 82 58 83 51 84 53 85 59 86 52 87 54 88 55 89
REMARK SMILES IDX 56 90 57 91
REMARK H PARENT 15 7 1 15 1 16 20 25 79 44 47 55
REMARK Flexibility Score: inf
ROOT
ATOM      1  C   UNL A   1      31.760  28.623  26.509  1.00  0.00     0.023 C 
ENDROOT
BRANCH   1   2
ATOM      2  C   UNL A   1      32.203  27.161  26.450  1.00  0.00     0.023 C 
BRANCH   2   3
ATOM      3  C   UNL A   1      31.096  26.120  26.306  1.00  0.00     0.116 C 
BRANCH   3   4
ATOM      4  N   UNL A   1      31.181  25.301  25.111  1.00  0.00    -0.352 N 
ATOM      5  C   UNL A   1      30.856  25.625  23.812  1.00  0.00     0.253 C 
ATOM      6  O   UNL A   1      31.015  24.788  22.925  1.00  0.00    -0.269 OA
ATOM      7  H   UNL A   1      31.518  24.386  25.247  1.00  0.00     0.163 HD
BRANCH   5   8
ATOM      8  C   UNL A   1      30.238  26.932  23.462  1.00  0.00     0.062 A 
ATOM      9  C   UNL A   1      28.865  27.220  23.558  1.00  0.00     0.045 A 
ATOM     10  C   UNL A   1      28.408  28.446  23.050  1.00  0.00     0.035 A 
ATOM     11  C   UNL A   1      29.292  29.436  22.590  1.00  0.00    -0.015 A 
ATOM     12  C   UNL A   1      31.132  27.933  23.045  1.00  0.00     0.016 A 
ATOM     13  C   UNL A   1      30.665  29.180  22.622  1.00  0.00     0.010 A 
BRANCH   9  14
ATOM     14  N   UNL A   1      27.922  26.332  24.065  1.00  0.00    -0.398 N 
ATOM     15  H   UNL A   1      27.521  25.651  23.478  1.00  0.00     0.156 HD
ATOM     16  H   UNL A   1      27.655  26.385  25.012  1.00  0.00     0.156 HD
ENDBRANCH   9  14
BRANCH  11  17
ATOM     17  C   UNL A   1      28.786  30.709  22.082  1.00  0.00    -0.008 A 
ATOM     18  C   UNL A   1      28.781  31.973  22.758  1.00  0.00     0.020 A 
ATOM     19  C   UNL A   1      28.233  30.826  20.819  1.00  0.00     0.073 A 
ATOM     20  C   UNL A   1      28.258  32.986  21.983  1.00  0.00     0.065 A 
ATOM     21  S   UNL A   1      27.752  32.427  20.451  1.00  0.00    -0.152 S 
ENDBRANCH  11  17
ENDBRANCH   5   8
ENDBRANCH   3   4
ENDBRANCH   2   3
ENDBRANCH   1   2
BRANCH   1  22
ATOM     22  C   UNL A   1      32.697  29.651  25.882  1.00  0.00     0.116 C 
BRANCH  22  23
ATOM     23  N   UNL A   1      32.506  31.007  26.379  1.00  0.00    -0.352 N 
ATOM     24  C   UNL A   1      33.281  31.761  27.231  1.00  0.00     0.251 C 
ATOM     25  H   UNL A   1      31.694  31.456  26.053  1.00  0.00     0.163 HD
ATOM     26  O   UNL A   1      32.887  32.872  27.585  1.00  0.00    -0.269 OA
BRANCH  24  27
ATOM     27  C   UNL A   1      34.560  31.233  27.757  1.00  0.00     0.039 A 
ATOM     28  C   UNL A   1      35.617  32.124  27.977  1.00  0.00     0.014 A 
ATOM     29  C   UNL A   1      34.722  29.879  28.051  1.00  0.00     0.014 A 
ATOM     30  C   UNL A   1      36.793  31.673  28.584  1.00  0.00     0.010 A 
ATOM     31  C   UNL A   1      35.859  29.449  28.733  1.00  0.00     0.010 A 
ATOM     32  C   UNL A   1      36.904  30.341  29.015  1.00  0.00    -0.014 A 
BRANCH  32  33
ATOM     33  C   UNL A   1      38.083  29.870  29.792  1.00  0.00     0.031 A 
ATOM     34  C   UNL A   1      38.329  30.375  31.189  1.00  0.00     0.074 A 
ATOM     35  C   UNL A   1      38.994  29.069  29.202  1.00  0.00     0.049 A 
ATOM     36  N   UNL A   1      39.340  30.141  31.985  1.00  0.00    -0.248 NA
ATOM     37  C   UNL A   1      37.323  31.288  31.756  1.00  0.00     0.031 C 
ATOM     38  C   UNL A   1      38.924  28.579  27.823  1.00  0.00     0.029 A 
ATOM     39  N   UNL A   1      40.176  28.551  29.675  1.00  0.00    -0.354 N 
ATOM     40  C   UNL A   1      39.116  30.906  33.123  1.00  0.00     0.074 A 
ATOM     41  C   UNL A   1      37.888  31.639  32.902  1.00  0.00     0.031 C 
ATOM     42  C   UNL A   1      40.008  27.830  27.564  1.00  0.00     0.029 A 
ATOM     43  C   UNL A   1      40.867  27.810  28.744  1.00  0.00     0.049 A 
ATOM     44  H   UNL A   1      40.497  28.696  30.594  1.00  0.00     0.167 HD
ATOM     45  C   UNL A   1      39.845  30.972  34.263  1.00  0.00     0.034 A 
ATOM     46  C   UNL A   1      42.060  27.189  28.825  1.00  0.00     0.034 A 
ATOM     47  C   UNL A   1      41.036  30.203  34.505  1.00  0.00     0.049 A 
ATOM     48  C   UNL A   1      42.824  27.234  30.120  1.00  0.00     0.074 A 
ATOM     49  C   UNL A   1      41.788  30.123  35.664  1.00  0.00     0.029 A 
ATOM     50  N   UNL A   1      41.653  29.384  33.572  1.00  0.00    -0.354 N 
ATOM     51  N   UNL A   1      42.507  27.828  31.246  1.00  0.00    -0.248 NA
ATOM     52  C   UNL A   1      44.093  26.493  30.172  1.00  0.00     0.031 C 
ATOM     53  C   UNL A   1      42.871  29.270  35.426  1.00  0.00     0.029 A 
ATOM     54  C   UNL A   1      42.780  28.801  34.125  1.00  0.00     0.049 A 
ATOM     55  H   UNL A   1      41.336  29.238  32.652  1.00  0.00     0.167 HD
ATOM     56  C   UNL A   1      43.515  27.505  32.146  1.00  0.00     0.074 A 
ATOM     57  C   UNL A   1      44.444  26.645  31.442  1.00  0.00     0.031 C 
ATOM     58  C   UNL A   1      43.667  27.900  33.433  1.00  0.00     0.034 A 
BRANCH  45  59
ATOM     59  C   UNL A   1      39.339  31.864  35.366  1.00  0.00     0.023 A 
ATOM     60  C   UNL A   1      38.413  31.356  36.300  1.00  0.00     0.012 A 
ATOM     61  C   UNL A   1      39.815  33.182  35.516  1.00  0.00     0.148 A 
ATOM     62  C   UNL A   1      37.938  32.152  37.340  1.00  0.00     0.002 A 
ATOM     63  C   UNL A   1      39.371  33.956  36.582  1.00  0.00     0.091 A 
ATOM     64  F   UNL A   1      40.679  33.657  34.608  1.00  0.00    -0.205 F 
ATOM     65  C   UNL A   1      38.425  33.448  37.488  1.00  0.00     0.022 A 
BRANCH  63  66
ATOM     66  S   UNL A   1      39.998  35.609  36.905  1.00  0.00     0.127 S 
ATOM     67  O   UNL A   1      41.434  35.362  37.021  1.00  0.00    -0.237 OA
ATOM     68  O   UNL A   1      39.599  36.332  35.696  1.00  0.00    -0.237 OA
ATOM     69  O   UNL A   1      39.338  36.057  38.123  1.00  0.00    -0.744 OA
ENDBRANCH  63  66
ENDBRANCH  45  59
BRANCH  46  70
ATOM     70  C   UNL A   1      42.573  26.405  27.664  1.00  0.00     0.023 A 
ATOM     71  C   UNL A   1      43.484  27.009  26.774  1.00  0.00     0.012 A 
ATOM     72  C   UNL A   1      42.193  25.066  27.452  1.00  0.00     0.148 A 
ATOM     73  C   UNL A   1      43.981  26.305  25.677  1.00  0.00     0.002 A 
ATOM     74  C   UNL A   1      42.734  24.353  26.389  1.00  0.00     0.091 A 
ATOM     75  F   UNL A   1      41.316  24.513  28.301  1.00  0.00    -0.205 F 
ATOM     76  C   UNL A   1      43.616  24.975  25.490  1.00  0.00     0.022 A 
BRANCH  74  77
ATOM     77  S   UNL A   1      42.423  22.600  26.147  1.00  0.00     0.127 S 
ATOM     78  O   UNL A   1      43.000  22.024  27.358  1.00  0.00    -0.237 OA
ATOM     79  O   UNL A   1      40.962  22.557  26.080  1.00  0.00    -0.237 OA
ATOM     80  O   UNL A   1      43.091  22.253  24.900  1.00  0.00    -0.744 OA
ENDBRANCH  74  77
ENDBRANCH  46  70
BRANCH  58  81
ATOM     81  C   UNL A   1      44.864  27.384  34.188  1.00  0.00     0.023 A 
ATOM     82  C   UNL A   1      46.078  28.098  34.148  1.00  0.00     0.012 A 
ATOM     83  C   UNL A   1      44.765  26.235  34.998  1.00  0.00     0.148 A 
ATOM     84  C   UNL A   1      47.182  27.661  34.878  1.00  0.00     0.002 A 
ATOM     85  C   UNL A   1      45.855  25.831  35.760  1.00  0.00     0.091 A 
ATOM     86  F   UNL A   1      43.607  25.557  35.007  1.00  0.00    -0.205 F 
ATOM     87  C   UNL A   1      47.068  26.536  35.693  1.00  0.00     0.022 A 
BRANCH  85  88
ATOM     88  S   UNL A   1      45.769  24.452  36.908  1.00  0.00     0.127 S 
ATOM     89  O   UNL A   1      45.554  23.325  36.004  1.00  0.00    -0.237 OA
ATOM     90  O   UNL A   1      47.089  24.487  37.536  1.00  0.00    -0.237 OA
ATOM     91  O   UNL A   1      44.664  24.752  37.811  1.00  0.00    -0.744 OA
ENDBRANCH  85  88
ENDBRANCH  58  81
ENDBRANCH  32  33
ENDBRANCH  24  27
ENDBRANCH  22  23
ENDBRANCH   1  22
TORSDOF 16
ENDMDL
MODEL 2
REMARK VINA RESULT:     -11.8      2.196      3.636
REMARK SMILES Nc1cc(-c2ccsc2)ccc1C(=O)NCCCCNC(=O)c1ccc(-c2c3nc(c(-c4cccc(S(=O)(=O)[O-])c4F)c4ccc([nH]4)c(-c4cccc(S(=O)(=O)[O-])c4F)c4nc(c(-c5cccc(S(=O)(=O)[O-])c5F)c5ccc2[nH]5)C=C4)C=C3)cc1
REMARK SMILES IDX 18 1 17 2 16 3 15 4 13 5 14 6 12 8 2 9 3 10 4 11 11 12 10 13
REMARK SMILES IDX 1 14 5 17 6 18 9 19 7 20 8 21 19 22 20 23 21 24 22 26 23 27
REMARK SMILES IDX 24 28 85 29 25 30 84 31 26 32 27 33 28 34 78 35 29 36 83 37
REMARK SMILES IDX 77 38 79 39 30 40 82 41 76 42 75 43 31 45 63 46 43 47 62 48
REMARK SMILES IDX 44 49 47 50 61 51 80 52 45 53 46 54 60 56 81 57 48 58 32 59
REMARK SMILES IDX 33 60 41 61 34 62 36 63 42 64 35 65 37 66 38 67 39 68 40 69
REMARK SMILES IDX 64 70 65 71 73 72 66 73 68 74 74 75 67 76 69 77 70 78 71 79
REMARK SMILES IDX 72 80 49 81 50 82 58 83 51 84 53 85 59 86 52 87 54 88 55 89
REMARK SMILES IDX 56 90 57 91
REMARK H PARENT 15 7 1 15 1 16 20 25 79 44 47 55
REMARK Flexibility Score: inf
ROOT
ATOM      1  C   UNL A   1      31.267  29.953  25.147  1.00  0.00     0.023 C 
ENDROOT
BRANCH   1   2
ATOM      2  C   UNL A   1      31.178  28.477  24.757  1.00  0.00     0.023 C 
BRANCH   2   3
ATOM      3  C   UNL A   1      31.181  28.167  23.263  1.00  0.00     0.116 C 
BRANCH   3   4
ATOM      4  N   UNL A   1      32.403  28.531  22.567  1.00  0.00    -0.352 N 
ATOM      5  C   UNL A   1      33.432  27.720  22.142  1.00  0.00     0.253 C 
ATOM      6  O   UNL A   1      34.386  28.221  21.548  1.00  0.00    -0.269 OA
ATOM      7  H   UNL A   1      32.511  29.490  22.373  1.00  0.00     0.163 HD
BRANCH   5   8
ATOM      8  C   UNL A   1      33.464  26.266  22.452  1.00  0.00     0.062 A 
ATOM      9  C   UNL A   1      32.983  25.255  21.603  1.00  0.00     0.045 A 
ATOM     10  C   UNL A   1      32.942  23.940  22.094  1.00  0.00     0.035 A 
ATOM     11  C   UNL A   1      33.497  23.594  23.337  1.00  0.00    -0.015 A 
ATOM     12  C   UNL A   1      34.061  25.921  23.678  1.00  0.00     0.016 A 
ATOM     13  C   UNL A   1      34.087  24.594  24.113  1.00  0.00     0.010 A 
BRANCH   9  14
ATOM     14  N   UNL A   1      32.481  25.490  20.327  1.00  0.00    -0.398 N 
ATOM     15  H   UNL A   1      31.512  25.594  20.191  1.00  0.00     0.156 HD
ATOM     16  H   UNL A   1      33.096  25.552  19.560  1.00  0.00     0.156 HD
ENDBRANCH   9  14
BRANCH  11  17
ATOM     17  C   UNL A   1      33.453  22.213  23.813  1.00  0.00    -0.008 A 
ATOM     18  C   UNL A   1      34.430  21.541  24.618  1.00  0.00     0.020 A 
ATOM     19  C   UNL A   1      32.396  21.369  23.520  1.00  0.00     0.073 A 
ATOM     20  C   UNL A   1      34.068  20.246  24.921  1.00  0.00     0.065 A 
ATOM     21  S   UNL A   1      32.567  19.820  24.225  1.00  0.00    -0.152 S 
ENDBRANCH  11  17
ENDBRANCH   5   8
ENDBRANCH   3   4
ENDBRANCH   2   3
ENDBRANCH   1   2
BRANCH   1  22
ATOM     22  C   UNL A   1      32.196  30.302  26.306  1.00  0.00     0.116 C 
BRANCH  22  23
ATOM     23  N   UNL A   1      32.192  31.715  26.663  1.00  0.00    -0.352 N 
ATOM     24  C   UNL A   1      33.105  32.456  27.377  1.00  0.00     0.251 C 
ATOM     25  H   UNL A   1      31.410  32.219  26.342  1.00  0.00     0.163 HD
ATOM     26  O   UNL A   1      32.862  33.635  27.631  1.00  0.00    -0.269 OA
BRANCH  24  27
ATOM     27  C   UNL A   1      34.355  31.840  27.875  1.00  0.00     0.039 A 
ATOM     28  C   UNL A   1      35.476  32.655  28.075  1.00  0.00     0.014 A 
ATOM     29  C   UNL A   1      34.430  30.476  28.163  1.00  0.00     0.014 A 
ATOM     30  C   UNL A   1      36.630  32.122  28.656  1.00  0.00     0.010 A 
ATOM     31  C   UNL A   1      35.548  29.967  28.822  1.00  0.00     0.010 A 
ATOM     32  C   UNL A   1      36.658  30.784  29.083  1.00  0.00    -0.014 A 
BRANCH  32  33
ATOM     33  C   UNL A   1      37.817  30.230  29.835  1.00  0.00     0.031 A 
ATOM     34  C   UNL A   1      38.098  30.678  31.245  1.00  0.00     0.074 A 
ATOM     35  C   UNL A   1      38.683  29.404  29.211  1.00  0.00     0.049 A 
ATOM     36  N   UNL A   1      39.102  30.368  32.024  1.00  0.00    -0.248 NA
ATOM     37  C   UNL A   1      37.142  31.621  31.849  1.00  0.00     0.031 C 
ATOM     38  C   UNL A   1      38.579  28.963  27.818  1.00  0.00     0.029 A 
ATOM     39  N   UNL A   1      39.840  28.813  29.657  1.00  0.00    -0.354 N 
ATOM     40  C   UNL A   1      38.924  31.107  33.187  1.00  0.00     0.074 A 
ATOM     41  C   UNL A   1      37.732  31.906  33.000  1.00  0.00     0.031 C 
ATOM     42  C   UNL A   1      39.622  28.170  27.526  1.00  0.00     0.029 A 
ATOM     43  C   UNL A   1      40.488  28.069  28.698  1.00  0.00     0.049 A 
ATOM     44  H   UNL A   1      40.176  28.913  30.578  1.00  0.00     0.167 HD
ATOM     45  C   UNL A   1      39.663  31.100  34.323  1.00  0.00     0.034 A 
ATOM     46  C   UNL A   1      41.649  27.388  28.748  1.00  0.00     0.034 A 
ATOM     47  C   UNL A   1      40.816  30.265  34.530  1.00  0.00     0.049 A 
ATOM     48  C   UNL A   1      42.423  27.353  30.038  1.00  0.00     0.074 A 
ATOM     49  C   UNL A   1      41.571  30.111  35.679  1.00  0.00     0.029 A 
ATOM     50  N   UNL A   1      41.385  29.447  33.567  1.00  0.00    -0.354 N 
ATOM     51  N   UNL A   1      42.143  27.925  31.184  1.00  0.00    -0.248 NA
ATOM     52  C   UNL A   1      43.654  26.549  30.055  1.00  0.00     0.031 C 
ATOM     53  C   UNL A   1      42.608  29.213  35.405  1.00  0.00     0.029 A 
ATOM     54  C   UNL A   1      42.485  28.791  34.091  1.00  0.00     0.049 A 
ATOM     55  H   UNL A   1      41.055  29.346  32.645  1.00  0.00     0.167 HD
ATOM     56  C   UNL A   1      43.141  27.525  32.065  1.00  0.00     0.074 A 
ATOM     57  C   UNL A   1      44.021  26.642  31.327  1.00  0.00     0.031 C 
ATOM     58  C   UNL A   1      43.322  27.870  33.363  1.00  0.00     0.034 A 
BRANCH  45  59
ATOM     59  C   UNL A   1      39.210  31.980  35.458  1.00  0.00     0.023 A 
ATOM     60  C   UNL A   1      38.308  31.470  36.414  1.00  0.00     0.012 A 
ATOM     61  C   UNL A   1      39.712  33.287  35.614  1.00  0.00     0.148 A 
ATOM     62  C   UNL A   1      37.883  32.255  37.484  1.00  0.00     0.002 A 
ATOM     63  C   UNL A   1      39.319  34.049  36.708  1.00  0.00     0.091 A 
ATOM     64  F   UNL A   1      40.553  33.765  34.685  1.00  0.00    -0.205 F 
ATOM     65  C   UNL A   1      38.395  33.540  37.637  1.00  0.00     0.022 A 
BRANCH  63  66
ATOM     66  S   UNL A   1      39.983  35.686  37.038  1.00  0.00     0.127 S 
ATOM     67  O   UNL A   1      39.272  36.052  38.262  1.00  0.00    -0.237 OA
ATOM     68  O   UNL A   1      41.409  35.409  37.221  1.00  0.00    -0.237 OA
ATOM     69  O   UNL A   1      39.668  36.490  35.865  1.00  0.00    -0.744 OA
ENDBRANCH  63  66
ENDBRANCH  45  59
BRANCH  46  70
ATOM     70  C   UNL A   1      42.114  26.617  27.559  1.00  0.00     0.023 A 
ATOM     71  C   UNL A   1      42.858  27.276  26.560  1.00  0.00     0.012 A 
ATOM     72  C   UNL A   1      41.853  25.240  27.424  1.00  0.00     0.148 A 
ATOM     73  C   UNL A   1      43.306  26.585  25.434  1.00  0.00     0.002 A 
ATOM     74  C   UNL A   1      42.349  24.546  26.327  1.00  0.00     0.091 A 
ATOM     75  F   UNL A   1      41.133  24.634  28.378  1.00  0.00    -0.205 F 
ATOM     76  C   UNL A   1      43.062  25.220  25.322  1.00  0.00     0.022 A 
BRANCH  74  77
ATOM     77  S   UNL A   1      42.197  22.763  26.165  1.00  0.00     0.127 S 
ATOM     78  O   UNL A   1      40.747  22.590  26.124  1.00  0.00    -0.237 OA
ATOM     79  O   UNL A   1      42.882  22.514  24.896  1.00  0.00    -0.237 OA
ATOM     80  O   UNL A   1      42.870  22.205  27.329  1.00  0.00    -0.744 OA
ENDBRANCH  74  77
ENDBRANCH  46  70
BRANCH  58  81
ATOM     81  C   UNL A   1      44.497  27.271  34.091  1.00  0.00     0.023 A 
ATOM     82  C   UNL A   1      45.712  27.981  34.161  1.00  0.00     0.012 A 
ATOM     83  C   UNL A   1      44.373  26.043  34.770  1.00  0.00     0.148 A 
ATOM     84  C   UNL A   1      46.795  27.463  34.870  1.00  0.00     0.002 A 
ATOM     85  C   UNL A   1      45.441  25.555  35.515  1.00  0.00     0.091 A 
ATOM     86  F   UNL A   1      43.215  25.372  34.675  1.00  0.00    -0.205 F 
ATOM     87  C   UNL A   1      46.657  26.258  35.556  1.00  0.00     0.022 A 
BRANCH  85  88
ATOM     88  S   UNL A   1      45.321  24.062  36.506  1.00  0.00     0.127 S 
ATOM     89  O   UNL A   1      44.595  24.540  37.680  1.00  0.00    -0.237 OA
ATOM     90  O   UNL A   1      44.554  23.171  35.635  1.00  0.00    -0.237 OA
ATOM     91  O   UNL A   1      46.693  23.633  36.749  1.00  0.00    -0.744 OA
ENDBRANCH  85  88
ENDBRANCH  58  81
ENDBRANCH  32  33
ENDBRANCH  24  27
ENDBRANCH  22  23
ENDBRANCH   1  22
TORSDOF 16
ENDMDL
MODEL 3
REMARK VINA RESULT:     -11.8      5.976      8.551
REMARK SMILES Nc1cc(-c2ccsc2)ccc1C(=O)NCCCCNC(=O)c1ccc(-c2c3nc(c(-c4cccc(S(=O)(=O)[O-])c4F)c4ccc([nH]4)c(-c4cccc(S(=O)(=O)[O-])c4F)c4nc(c(-c5cccc(S(=O)(=O)[O-])c5F)c5ccc2[nH]5)C=C4)C=C3)cc1
REMARK SMILES IDX 18 1 17 2 16 3 15 4 13 5 14 6 12 8 2 9 3 10 4 11 11 12 10 13
REMARK SMILES IDX 1 14 5 17 6 18 9 19 7 20 8 21 19 22 20 23 21 24 22 26 23 27
REMARK SMILES IDX 24 28 85 29 25 30 84 31 26 32 27 33 28 34 78 35 29 36 83 37
REMARK SMILES IDX 77 38 79 39 30 40 82 41 76 42 75 43 31 45 63 46 43 47 62 48
REMARK SMILES IDX 44 49 47 50 61 51 80 52 45 53 46 54 60 56 81 57 48 58 32 59
REMARK SMILES IDX 33 60 41 61 34 62 36 63 42 64 35 65 37 66 38 67 39 68 40 69
REMARK SMILES IDX 64 70 65 71 73 72 66 73 68 74 74 75 67 76 69 77 70 78 71 79
REMARK SMILES IDX 72 80 49 81 50 82 58 83 51 84 53 85 59 86 52 87 54 88 55 89
REMARK SMILES IDX 56 90 57 91
REMARK H PARENT 15 7 1 15 1 16 20 25 79 44 47 55
REMARK Flexibility Score: inf
ROOT
ATOM      1  C   UNL A   1      35.679  22.563  24.376  1.00  0.00     0.023 C 
ENDROOT
BRANCH   1   2
ATOM      2  C   UNL A   1      35.004  23.935  24.415  1.00  0.00     0.023 C 
BRANCH   2   3
ATOM      3  C   UNL A   1      34.184  24.324  23.189  1.00  0.00     0.116 C 
BRANCH   3   4
ATOM      4  N   UNL A   1      32.788  24.623  23.458  1.00  0.00    -0.352 N 
ATOM      5  C   UNL A   1      31.797  23.788  23.924  1.00  0.00     0.253 C 
ATOM      6  O   UNL A   1      30.667  24.238  24.105  1.00  0.00    -0.269 OA
ATOM      7  H   UNL A   1      32.513  25.552  23.282  1.00  0.00     0.163 HD
BRANCH   5   8
ATOM      8  C   UNL A   1      32.032  22.335  24.137  1.00  0.00     0.062 A 
ATOM      9  C   UNL A   1      32.102  21.711  25.395  1.00  0.00     0.045 A 
ATOM     10  C   UNL A   1      32.479  20.359  25.444  1.00  0.00     0.035 A 
ATOM     11  C   UNL A   1      32.643  19.591  24.281  1.00  0.00    -0.015 A 
ATOM     12  C   UNL A   1      32.152  21.562  22.969  1.00  0.00     0.016 A 
ATOM     13  C   UNL A   1      32.445  20.198  23.039  1.00  0.00     0.010 A 
BRANCH   9  14
ATOM     14  N   UNL A   1      31.884  22.372  26.600  1.00  0.00    -0.398 N 
ATOM     15  H   UNL A   1      31.145  22.094  27.187  1.00  0.00     0.156 HD
ATOM     16  H   UNL A   1      32.469  23.118  26.864  1.00  0.00     0.156 HD
ENDBRANCH   9  14
BRANCH  11  17
ATOM     17  C   UNL A   1      33.021  18.182  24.366  1.00  0.00    -0.008 A 
ATOM     18  C   UNL A   1      33.913  17.469  23.501  1.00  0.00     0.020 A 
ATOM     19  C   UNL A   1      32.528  17.349  25.355  1.00  0.00     0.073 A 
ATOM     20  C   UNL A   1      34.080  16.153  23.877  1.00  0.00     0.065 A 
ATOM     21  S   UNL A   1      33.152  15.759  25.256  1.00  0.00    -0.152 S 
ENDBRANCH  11  17
ENDBRANCH   5   8
ENDBRANCH   3   4
ENDBRANCH   2   3
ENDBRANCH   1   2
BRANCH   1  22
ATOM     22  C   UNL A   1      36.203  22.017  25.701  1.00  0.00     0.116 C 
BRANCH  22  23
ATOM     23  N   UNL A   1      37.253  21.018  25.555  1.00  0.00    -0.352 N 
ATOM     24  C   UNL A   1      38.600  21.094  25.829  1.00  0.00     0.251 C 
ATOM     25  H   UNL A   1      36.951  20.149  25.207  1.00  0.00     0.163 HD
ATOM     26  O   UNL A   1      39.328  20.142  25.554  1.00  0.00    -0.269 OA
BRANCH  24  27
ATOM     27  C   UNL A   1      39.185  22.324  26.409  1.00  0.00     0.039 A 
ATOM     28  C   UNL A   1      40.287  22.207  27.265  1.00  0.00     0.014 A 
ATOM     29  C   UNL A   1      38.673  23.586  26.106  1.00  0.00     0.014 A 
ATOM     30  C   UNL A   1      40.931  23.356  27.731  1.00  0.00     0.010 A 
ATOM     31  C   UNL A   1      39.368  24.729  26.500  1.00  0.00     0.010 A 
ATOM     32  C   UNL A   1      40.509  24.628  27.310  1.00  0.00    -0.014 A 
BRANCH  32  33
ATOM     33  C   UNL A   1      41.264  25.859  27.673  1.00  0.00     0.031 A 
ATOM     34  C   UNL A   1      40.601  26.959  28.458  1.00  0.00     0.074 A 
ATOM     35  C   UNL A   1      42.516  26.035  27.202  1.00  0.00     0.049 A 
ATOM     36  N   UNL A   1      41.072  28.132  28.795  1.00  0.00    -0.248 NA
ATOM     37  C   UNL A   1      39.215  26.724  28.898  1.00  0.00     0.031 C 
ATOM     38  C   UNL A   1      43.244  25.089  26.353  1.00  0.00     0.029 A 
ATOM     39  N   UNL A   1      43.388  27.088  27.342  1.00  0.00    -0.354 N 
ATOM     40  C   UNL A   1      40.034  28.788  29.444  1.00  0.00     0.074 A 
ATOM     41  C   UNL A   1      38.895  27.896  29.426  1.00  0.00     0.031 C 
ATOM     42  C   UNL A   1      44.449  25.599  26.054  1.00  0.00     0.029 A 
ATOM     43  C   UNL A   1      44.572  26.921  26.660  1.00  0.00     0.049 A 
ATOM     44  H   UNL A   1      43.186  27.887  27.880  1.00  0.00     0.167 HD
ATOM     45  C   UNL A   1      40.033  30.009  30.032  1.00  0.00     0.034 A 
ATOM     46  C   UNL A   1      45.635  27.739  26.530  1.00  0.00     0.034 A 
ATOM     47  C   UNL A   1      41.180  30.874  30.098  1.00  0.00     0.049 A 
ATOM     48  C   UNL A   1      45.629  29.067  27.237  1.00  0.00     0.074 A 
ATOM     49  C   UNL A   1      41.309  32.083  30.757  1.00  0.00     0.029 A 
ATOM     50  N   UNL A   1      42.396  30.626  29.480  1.00  0.00    -0.354 N 
ATOM     51  N   UNL A   1      44.696  29.597  27.991  1.00  0.00    -0.248 NA
ATOM     52  C   UNL A   1      46.836  29.896  27.107  1.00  0.00     0.031 C 
ATOM     53  C   UNL A   1      42.597  32.576  30.522  1.00  0.00     0.029 A 
ATOM     54  C   UNL A   1      43.278  31.661  29.735  1.00  0.00     0.049 A 
ATOM     55  H   UNL A   1      42.602  29.829  28.939  1.00  0.00     0.167 HD
ATOM     56  C   UNL A   1      45.214  30.801  28.452  1.00  0.00     0.074 A 
ATOM     57  C   UNL A   1      46.553  30.914  27.911  1.00  0.00     0.031 C 
ATOM     58  C   UNL A   1      44.628  31.737  29.238  1.00  0.00     0.034 A 
BRANCH  45  59
ATOM     59  C   UNL A   1      38.764  30.458  30.708  1.00  0.00     0.023 A 
ATOM     60  C   UNL A   1      38.596  30.230  32.089  1.00  0.00     0.012 A 
ATOM     61  C   UNL A   1      37.764  31.151  29.998  1.00  0.00     0.148 A 
ATOM     62  C   UNL A   1      37.440  30.649  32.745  1.00  0.00     0.002 A 
ATOM     63  C   UNL A   1      36.634  31.606  30.668  1.00  0.00     0.091 A 
ATOM     64  F   UNL A   1      37.930  31.342  28.681  1.00  0.00    -0.205 F 
ATOM     65  C   UNL A   1      36.464  31.345  32.038  1.00  0.00     0.022 A 
BRANCH  63  66
ATOM     66  S   UNL A   1      35.357  32.581  29.863  1.00  0.00     0.127 S 
ATOM     67  O   UNL A   1      34.404  32.777  30.955  1.00  0.00    -0.237 OA
ATOM     68  O   UNL A   1      36.091  33.786  29.471  1.00  0.00    -0.237 OA
ATOM     69  O   UNL A   1      34.878  31.774  28.750  1.00  0.00    -0.744 OA
ENDBRANCH  63  66
ENDBRANCH  45  59
BRANCH  46  70
ATOM     70  C   UNL A   1      46.829  27.292  25.756  1.00  0.00     0.023 A 
ATOM     71  C   UNL A   1      47.733  26.388  26.346  1.00  0.00     0.012 A 
ATOM     72  C   UNL A   1      47.058  27.730  24.437  1.00  0.00     0.148 A 
ATOM     73  C   UNL A   1      48.861  25.952  25.650  1.00  0.00     0.002 A 
ATOM     74  C   UNL A   1      48.154  27.249  23.730  1.00  0.00     0.091 A 
ATOM     75  F   UNL A   1      46.194  28.600  23.897  1.00  0.00    -0.205 F 
ATOM     76  C   UNL A   1      49.066  26.373  24.340  1.00  0.00     0.022 A 
BRANCH  74  77
ATOM     77  S   UNL A   1      48.426  27.634  21.996  1.00  0.00     0.127 S 
ATOM     78  O   UNL A   1      48.653  26.307  21.428  1.00  0.00    -0.237 OA
ATOM     79  O   UNL A   1      47.155  28.254  21.620  1.00  0.00    -0.237 OA
ATOM     80  O   UNL A   1      49.566  28.539  21.970  1.00  0.00    -0.744 OA
ENDBRANCH  74  77
ENDBRANCH  46  70
BRANCH  58  81
ATOM     81  C   UNL A   1      45.436  32.957  29.595  1.00  0.00     0.023 A 
ATOM     82  C   UNL A   1      46.259  32.941  30.739  1.00  0.00     0.012 A 
ATOM     83  C   UNL A   1      45.440  34.089  28.756  1.00  0.00     0.148 A 
ATOM     84  C   UNL A   1      47.050  34.044  31.058  1.00  0.00     0.002 A 
ATOM     85  C   UNL A   1      46.267  35.166  29.055  1.00  0.00     0.091 A 
ATOM     86  F   UNL A   1      44.635  34.094  27.683  1.00  0.00    -0.205 F 
ATOM     87  C   UNL A   1      47.063  35.151  30.211  1.00  0.00     0.022 A 
BRANCH  85  88
ATOM     88  S   UNL A   1      46.419  36.591  27.971  1.00  0.00     0.127 S 
ATOM     89  O   UNL A   1      47.173  37.522  28.808  1.00  0.00    -0.237 OA
ATOM     90  O   UNL A   1      47.169  36.044  26.841  1.00  0.00    -0.237 OA
ATOM     91  O   UNL A   1      45.057  36.998  27.651  1.00  0.00    -0.744 OA
ENDBRANCH  85  88
ENDBRANCH  58  81
ENDBRANCH  32  33
ENDBRANCH  24  27
ENDBRANCH  22  23
ENDBRANCH   1  22
TORSDOF 16
ENDMDL
