MODEL 1
REMARK VINA RESULT:     -11.8      0.000      0.000
REMARK SMILES O=C(NCCCCNC(=O)[C@H]1SC=C[C@@H]1S(=O)(=O)NCCC1=c2ccccc2=NC1)c1ccc(-c2c3nc(c(-c4cccc(S(=O)(=O)[O-])c4F)c4ccc([nH]4)c(-c4cccc(S(=O)(=O)[O-])c4F)c4nc(c(-c5cccc(S(=O)(=O)[O-])c5F)c5ccc2[nH]5)C=C4)C=C3)cc1
REMARK SMILES IDX 6 1 5 2 4 3 3 4 1 5 2 6 31 8 32 9 93 10 33 11 92 12 34 13
REMARK SMILES IDX 35 14 36 15 86 16 37 17 91 18 85 19 87 20 38 21 90 22 84 23
REMARK SMILES IDX 83 24 39 26 71 27 51 28 70 29 52 30 55 31 69 32 88 33 53 34
REMARK SMILES IDX 54 35 68 37 89 38 56 39 40 40 41 41 49 42 42 43 44 44 50 45
REMARK SMILES IDX 43 46 45 47 46 48 47 49 48 50 72 51 73 52 81 53 74 54 76 55
REMARK SMILES IDX 82 56 75 57 77 58 78 59 79 60 80 61 57 62 58 63 66 64 59 65
REMARK SMILES IDX 61 66 67 67 60 68 62 69 63 70 64 71 65 72 7 73 8 74 9 75
REMARK SMILES IDX 10 77 11 78 12 79 15 80 13 81 14 82 16 83 17 84 18 85 19 86
REMARK SMILES IDX 20 88 21 89 22 90 23 91 30 92 24 93 28 94 29 95 25 96 27 97
REMARK SMILES IDX 26 98
REMARK H PARENT 3 7 87 25 55 36 8 76 19 87
REMARK Flexibility Score: inf
ROOT
ATOM      1  C   UNL A   1      31.596  30.468  26.404  1.00  0.00     0.023 C 
ENDROOT
BRANCH   1   2
ATOM      2  C   UNL A   1      31.555  31.986  26.535  1.00  0.00     0.023 C 
BRANCH   2   3
ATOM      3  C   UNL A   1      32.757  32.592  27.248  1.00  0.00     0.116 C 
BRANCH   3   4
ATOM      4  N   UNL A   1      32.533  33.978  27.632  1.00  0.00    -0.352 N 
ATOM      5  O   UNL A   1      32.671  35.791  28.962  1.00  0.00    -0.269 OA
ATOM      6  C   UNL A   1      33.114  34.688  28.655  1.00  0.00     0.251 C 
ATOM      7  H   UNL A   1      31.880  34.472  27.087  1.00  0.00     0.163 HD
BRANCH   6   8
ATOM      8  C   UNL A   1      34.263  34.111  29.380  1.00  0.00     0.039 A 
ATOM      9  C   UNL A   1      34.028  33.255  30.460  1.00  0.00     0.014 A 
ATOM     10  C   UNL A   1      35.571  34.424  28.997  1.00  0.00     0.014 A 
ATOM     11  C   UNL A   1      35.110  32.683  31.132  1.00  0.00     0.010 A 
ATOM     12  C   UNL A   1      36.641  33.794  29.617  1.00  0.00     0.010 A 
ATOM     13  C   UNL A   1      36.423  32.936  30.706  1.00  0.00    -0.014 A 
BRANCH  13  14
ATOM     14  C   UNL A   1      37.599  32.373  31.413  1.00  0.00     0.031 A 
ATOM     15  C   UNL A   1      38.344  31.218  30.796  1.00  0.00     0.074 A 
ATOM     16  C   UNL A   1      37.955  32.844  32.624  1.00  0.00     0.049 A 
ATOM     17  N   UNL A   1      39.301  30.490  31.306  1.00  0.00    -0.248 NA
ATOM     18  C   UNL A   1      37.949  30.816  29.433  1.00  0.00     0.031 C 
ATOM     19  C   UNL A   1      37.306  33.950  33.332  1.00  0.00     0.029 A 
ATOM     20  N   UNL A   1      38.944  32.436  33.484  1.00  0.00    -0.354 N 
ATOM     21  C   UNL A   1      39.597  29.528  30.348  1.00  0.00     0.074 A 
ATOM     22  C   UNL A   1      38.708  29.747  29.231  1.00  0.00     0.031 C 
ATOM     23  C   UNL A   1      37.924  34.143  34.508  1.00  0.00     0.029 A 
ATOM     24  C   UNL A   1      38.982  33.149  34.659  1.00  0.00     0.049 A 
ATOM     25  H   UNL A   1      39.567  31.704  33.277  1.00  0.00     0.167 HD
ATOM     26  C   UNL A   1      40.546  28.567  30.386  1.00  0.00     0.034 A 
ATOM     27  C   UNL A   1      39.776  33.010  35.739  1.00  0.00     0.034 A 
ATOM     28  C   UNL A   1      41.468  28.386  31.471  1.00  0.00     0.049 A 
ATOM     29  C   UNL A   1      40.818  31.926  35.752  1.00  0.00     0.074 A 
ATOM     30  C   UNL A   1      42.489  27.459  31.578  1.00  0.00     0.029 A 
ATOM     31  N   UNL A   1      41.495  29.153  32.622  1.00  0.00    -0.354 N 
ATOM     32  N   UNL A   1      41.107  31.052  34.819  1.00  0.00    -0.248 NA
ATOM     33  C   UNL A   1      41.659  31.823  36.954  1.00  0.00     0.031 C 
ATOM     34  C   UNL A   1      43.132  27.660  32.801  1.00  0.00     0.029 A 
ATOM     35  C   UNL A   1      42.526  28.729  33.440  1.00  0.00     0.049 A 
ATOM     36  H   UNL A   1      40.874  29.888  32.828  1.00  0.00     0.167 HD
ATOM     37  C   UNL A   1      42.192  30.330  35.299  1.00  0.00     0.074 A 
ATOM     38  C   UNL A   1      42.508  30.864  36.608  1.00  0.00     0.031 C 
ATOM     39  C   UNL A   1      42.865  29.316  34.708  1.00  0.00     0.034 A 
BRANCH  26  40
ATOM     40  C   UNL A   1      40.702  27.664  29.195  1.00  0.00     0.023 A 
ATOM     41  C   UNL A   1      39.836  26.563  29.055  1.00  0.00     0.012 A 
ATOM     42  C   UNL A   1      41.585  27.997  28.151  1.00  0.00     0.148 A 
ATOM     43  C   UNL A   1      39.838  25.808  27.883  1.00  0.00     0.002 A 
ATOM     44  C   UNL A   1      41.561  27.259  26.974  1.00  0.00     0.091 A 
ATOM     45  F   UNL A   1      42.404  29.044  28.318  1.00  0.00    -0.205 F 
ATOM     46  C   UNL A   1      40.688  26.166  26.838  1.00  0.00     0.022 A 
BRANCH  44  47
ATOM     47  S   UNL A   1      42.572  27.668  25.548  1.00  0.00     0.127 S 
ATOM     48  O   UNL A   1      43.913  27.689  26.133  1.00  0.00    -0.237 OA
ATOM     49  O   UNL A   1      42.313  26.538  24.656  1.00  0.00    -0.237 OA
ATOM     50  O   UNL A   1      42.094  28.957  25.068  1.00  0.00    -0.744 OA
ENDBRANCH  44  47
ENDBRANCH  26  40
BRANCH  27  51
ATOM     51  C   UNL A   1      39.668  33.971  36.870  1.00  0.00     0.023 A 
ATOM     52  C   UNL A   1      40.113  35.295  36.681  1.00  0.00     0.012 A 
ATOM     53  C   UNL A   1      39.114  33.599  38.109  1.00  0.00     0.148 A 
ATOM     54  C   UNL A   1      40.025  36.228  37.715  1.00  0.00     0.002 A 
ATOM     55  C   UNL A   1      38.996  34.542  39.123  1.00  0.00     0.091 A 
ATOM     56  F   UNL A   1      38.704  32.332  38.264  1.00  0.00    -0.205 F 
ATOM     57  C   UNL A   1      39.460  35.854  38.932  1.00  0.00     0.022 A 
BRANCH  55  58
ATOM     58  S   UNL A   1      38.208  34.182  40.695  1.00  0.00     0.127 S 
ATOM     59  O   UNL A   1      37.016  33.450  40.271  1.00  0.00    -0.237 OA
ATOM     60  O   UNL A   1      39.226  33.369  41.361  1.00  0.00    -0.237 OA
ATOM     61  O   UNL A   1      37.961  35.474  41.320  1.00  0.00    -0.744 OA
ENDBRANCH  55  58
ENDBRANCH  27  51
BRANCH  39  62
ATOM     62  C   UNL A   1      44.060  28.746  35.420  1.00  0.00     0.023 A 
ATOM     63  C   UNL A   1      45.326  29.336  35.253  1.00  0.00     0.012 A 
ATOM     64  C   UNL A   1      43.892  27.702  36.352  1.00  0.00     0.148 A 
ATOM     65  C   UNL A   1      46.416  28.883  35.994  1.00  0.00     0.002 A 
ATOM     66  C   UNL A   1      44.974  27.280  37.113  1.00  0.00     0.091 A 
ATOM     67  F   UNL A   1      42.675  27.155  36.484  1.00  0.00    -0.205 F 
ATOM     68  C   UNL A   1      46.237  27.866  36.931  1.00  0.00     0.022 A 
BRANCH  66  69
ATOM     69  S   UNL A   1      44.825  26.030  38.393  1.00  0.00     0.127 S 
ATOM     70  O   UNL A   1      46.218  25.856  38.800  1.00  0.00    -0.237 OA
ATOM     71  O   UNL A   1      43.979  26.700  39.381  1.00  0.00    -0.237 OA
ATOM     72  O   UNL A   1      44.215  24.871  37.758  1.00  0.00    -0.744 OA
ENDBRANCH  66  69
ENDBRANCH  39  62
ENDBRANCH  13  14
ENDBRANCH   6   8
ENDBRANCH   3   4
ENDBRANCH   2   3
ENDBRANCH   1   2
BRANCH   1  73
ATOM     73  C   UNL A   1      31.379  29.960  24.988  1.00  0.00     0.116 C 
BRANCH  73  74
ATOM     74  N   UNL A   1      32.613  29.687  24.289  1.00  0.00    -0.355 N 
ATOM     75  C   UNL A   1      33.025  28.567  23.621  1.00  0.00     0.235 C 
ATOM     76  H   UNL A   1      33.262  30.427  24.294  1.00  0.00     0.163 HD
ATOM     77  O   UNL A   1      34.129  28.645  23.078  1.00  0.00    -0.274 OA
BRANCH  75  78
ATOM     78  C   UNL A   1      32.106  27.336  23.517  1.00  0.00     0.163 C 
ATOM     79  S   UNL A   1      32.399  26.482  21.896  1.00  0.00    -0.119 SA
ATOM     80  C   UNL A   1      32.410  26.281  24.576  1.00  0.00     0.170 C 
ATOM     81  C   UNL A   1      33.394  25.269  22.621  1.00  0.00     0.038 C 
ATOM     82  C   UNL A   1      33.318  25.245  23.953  1.00  0.00     0.002 C 
BRANCH  80  83
ATOM     83  S   UNL A   1      30.913  25.415  25.153  1.00  0.00     0.219 S 
ATOM     84  O   UNL A   1      30.578  25.795  26.503  1.00  0.00    -0.212 OA
ATOM     85  O   UNL A   1      29.919  25.541  24.103  1.00  0.00    -0.212 OA
BRANCH  83  86
ATOM     86  N   UNL A   1      31.258  23.781  25.136  1.00  0.00    -0.214 NA
ATOM     87  H   UNL A   1      32.203  23.720  24.759  1.00  0.00     0.141 HD
BRANCH  86  88
ATOM     88  C   UNL A   1      31.247  22.844  26.273  1.00  0.00     0.103 C 
BRANCH  88  89
ATOM     89  C   UNL A   1      32.558  22.630  27.018  1.00  0.00     0.050 C 
BRANCH  89  90
ATOM     90  C   UNL A   1      33.604  21.900  26.246  1.00  0.00    -0.038 C 
ATOM     91  C   UNL A   1      34.814  22.360  25.940  1.00  0.00     0.001 A 
ATOM     92  C   UNL A   1      33.416  20.515  25.712  1.00  0.00     0.174 C 
ATOM     93  C   UNL A   1      35.529  23.566  26.203  1.00  0.00     0.010 A 
ATOM     94  C   UNL A   1      35.404  21.251  25.178  1.00  0.00     0.065 A 
ATOM     95  N   UNL A   1      34.680  20.188  25.001  1.00  0.00    -0.280 NA
ATOM     96  C   UNL A   1      36.779  23.687  25.729  1.00  0.00     0.001 A 
ATOM     97  C   UNL A   1      36.780  21.464  24.681  1.00  0.00     0.028 A 
ATOM     98  C   UNL A   1      37.400  22.623  24.957  1.00  0.00     0.002 A 
ENDBRANCH  89  90
ENDBRANCH  88  89
ENDBRANCH  86  88
ENDBRANCH  83  86
ENDBRANCH  80  83
ENDBRANCH  75  78
ENDBRANCH  73  74
ENDBRANCH   1  73
TORSDOF 19
ENDMDL
MODEL 2
REMARK VINA RESULT:     -11.7      2.657      8.680
REMARK SMILES O=C(NCCCCNC(=O)[C@H]1SC=C[C@@H]1S(=O)(=O)NCCC1=c2ccccc2=NC1)c1ccc(-c2c3nc(c(-c4cccc(S(=O)(=O)[O-])c4F)c4ccc([nH]4)c(-c4cccc(S(=O)(=O)[O-])c4F)c4nc(c(-c5cccc(S(=O)(=O)[O-])c5F)c5ccc2[nH]5)C=C4)C=C3)cc1
REMARK SMILES IDX 6 1 5 2 4 3 3 4 1 5 2 6 31 8 32 9 93 10 33 11 92 12 34 13
REMARK SMILES IDX 35 14 36 15 86 16 37 17 91 18 85 19 87 20 38 21 90 22 84 23
REMARK SMILES IDX 83 24 39 26 71 27 51 28 70 29 52 30 55 31 69 32 88 33 53 34
REMARK SMILES IDX 54 35 68 37 89 38 56 39 40 40 41 41 49 42 42 43 44 44 50 45
REMARK SMILES IDX 43 46 45 47 46 48 47 49 48 50 72 51 73 52 81 53 74 54 76 55
REMARK SMILES IDX 82 56 75 57 77 58 78 59 79 60 80 61 57 62 58 63 66 64 59 65
REMARK SMILES IDX 61 66 67 67 60 68 62 69 63 70 64 71 65 72 7 73 8 74 9 75
REMARK SMILES IDX 10 77 11 78 12 79 15 80 13 81 14 82 16 83 17 84 18 85 19 86
REMARK SMILES IDX 20 88 21 89 22 90 23 91 30 92 24 93 28 94 29 95 25 96 27 97
REMARK SMILES IDX 26 98
REMARK H PARENT 3 7 87 25 55 36 8 76 19 87
REMARK Flexibility Score: inf
ROOT
ATOM      1  C   UNL A   1      31.171  27.638  26.430  1.00  0.00     0.023 C 
ENDROOT
BRANCH   1   2
ATOM      2  C   UNL A   1      31.793  28.821  27.161  1.00  0.00     0.023 C 
BRANCH   2   3
ATOM      3  C   UNL A   1      32.842  29.580  26.358  1.00  0.00     0.116 C 
BRANCH   3   4
ATOM      4  N   UNL A   1      32.705  31.023  26.491  1.00  0.00    -0.352 N 
ATOM      5  O   UNL A   1      33.075  33.048  27.405  1.00  0.00    -0.269 OA
ATOM      6  C   UNL A   1      33.445  31.887  27.260  1.00  0.00     0.251 C 
ATOM      7  H   UNL A   1      31.987  31.434  25.958  1.00  0.00     0.163 HD
BRANCH   6   8
ATOM      8  C   UNL A   1      34.679  31.404  27.913  1.00  0.00     0.039 A 
ATOM      9  C   UNL A   1      35.761  32.276  28.057  1.00  0.00     0.014 A 
ATOM     10  C   UNL A   1      34.765  30.087  28.376  1.00  0.00     0.014 A 
ATOM     11  C   UNL A   1      36.920  31.835  28.699  1.00  0.00     0.010 A 
ATOM     12  C   UNL A   1      35.888  29.676  29.082  1.00  0.00     0.010 A 
ATOM     13  C   UNL A   1      36.985  30.537  29.229  1.00  0.00    -0.014 A 
BRANCH  13  14
ATOM     14  C   UNL A   1      38.209  30.021  29.890  1.00  0.00     0.031 A 
ATOM     15  C   UNL A   1      38.577  30.534  31.258  1.00  0.00     0.074 A 
ATOM     16  C   UNL A   1      39.016  29.156  29.247  1.00  0.00     0.049 A 
ATOM     17  N   UNL A   1      39.667  30.326  31.948  1.00  0.00    -0.248 NA
ATOM     18  C   UNL A   1      37.601  31.410  31.932  1.00  0.00     0.031 C 
ATOM     19  C   UNL A   1      38.776  28.595  27.915  1.00  0.00     0.029 A 
ATOM     20  N   UNL A   1      40.218  28.610  29.623  1.00  0.00    -0.354 N 
ATOM     21  C   UNL A   1      39.524  31.068  33.114  1.00  0.00     0.074 A 
ATOM     22  C   UNL A   1      38.253  31.750  33.036  1.00  0.00     0.031 C 
ATOM     23  C   UNL A   1      39.788  27.773  27.594  1.00  0.00     0.029 A 
ATOM     24  C   UNL A   1      40.769  27.781  28.674  1.00  0.00     0.049 A 
ATOM     25  H   UNL A   1      40.644  28.793  30.491  1.00  0.00     0.167 HD
ATOM     26  C   UNL A   1      40.365  31.150  34.169  1.00  0.00     0.034 A 
ATOM     27  C   UNL A   1      41.939  27.112  28.672  1.00  0.00     0.034 A 
ATOM     28  C   UNL A   1      41.600  30.427  34.273  1.00  0.00     0.049 A 
ATOM     29  C   UNL A   1      42.856  27.229  29.858  1.00  0.00     0.074 A 
ATOM     30  C   UNL A   1      42.501  30.420  35.323  1.00  0.00     0.029 A 
ATOM     31  N   UNL A   1      42.100  29.572  33.306  1.00  0.00    -0.354 N 
ATOM     32  N   UNL A   1      42.683  27.906  30.967  1.00  0.00    -0.248 NA
ATOM     33  C   UNL A   1      44.116  26.472  29.805  1.00  0.00     0.031 C 
ATOM     34  C   UNL A   1      43.552  29.565  34.988  1.00  0.00     0.029 A 
ATOM     35  C   UNL A   1      43.290  29.021  33.742  1.00  0.00     0.049 A 
ATOM     36  H   UNL A   1      41.673  29.386  32.439  1.00  0.00     0.167 HD
ATOM     37  C   UNL A   1      43.785  27.618  31.762  1.00  0.00     0.074 A 
ATOM     38  C   UNL A   1      44.624  26.710  31.007  1.00  0.00     0.031 C 
ATOM     39  C   UNL A   1      44.076  28.068  33.005  1.00  0.00     0.034 A 
BRANCH  26  40
ATOM     40  C   UNL A   1      39.964  31.996  35.344  1.00  0.00     0.023 A 
ATOM     41  C   UNL A   1      40.331  33.355  35.363  1.00  0.00     0.012 A 
ATOM     42  C   UNL A   1      39.099  31.490  36.332  1.00  0.00     0.148 A 
ATOM     43  C   UNL A   1      39.832  34.206  36.348  1.00  0.00     0.002 A 
ATOM     44  C   UNL A   1      38.582  32.350  37.292  1.00  0.00     0.091 A 
ATOM     45  F   UNL A   1      38.776  30.190  36.292  1.00  0.00    -0.205 F 
ATOM     46  C   UNL A   1      38.946  33.708  37.302  1.00  0.00     0.022 A 
BRANCH  44  47
ATOM     47  S   UNL A   1      37.391  31.825  38.530  1.00  0.00     0.127 S 
ATOM     48  O   UNL A   1      38.168  31.963  39.763  1.00  0.00    -0.237 OA
ATOM     49  O   UNL A   1      36.326  32.813  38.367  1.00  0.00    -0.237 OA
ATOM     50  O   UNL A   1      37.027  30.458  38.187  1.00  0.00    -0.744 OA
ENDBRANCH  44  47
ENDBRANCH  26  40
BRANCH  27  51
ATOM     51  C   UNL A   1      42.276  26.206  27.540  1.00  0.00     0.023 A 
ATOM     52  C   UNL A   1      42.975  26.732  26.435  1.00  0.00     0.012 A 
ATOM     53  C   UNL A   1      41.938  24.841  27.557  1.00  0.00     0.148 A 
ATOM     54  C   UNL A   1      43.314  25.916  25.356  1.00  0.00     0.002 A 
ATOM     55  C   UNL A   1      42.310  24.025  26.496  1.00  0.00     0.091 A 
ATOM     56  F   UNL A   1      41.269  24.368  28.618  1.00  0.00    -0.205 F 
ATOM     57  C   UNL A   1      42.989  24.562  25.389  1.00  0.00     0.022 A 
BRANCH  55  58
ATOM     58  S   UNL A   1      42.012  22.254  26.483  1.00  0.00     0.127 S 
ATOM     59  O   UNL A   1      42.621  21.840  27.744  1.00  0.00    -0.237 OA
ATOM     60  O   UNL A   1      40.550  22.197  26.455  1.00  0.00    -0.237 OA
ATOM     61  O   UNL A   1      42.659  21.753  25.278  1.00  0.00    -0.744 OA
ENDBRANCH  55  58
ENDBRANCH  27  51
BRANCH  39  62
ATOM     62  C   UNL A   1      45.313  27.544  33.679  1.00  0.00     0.023 A 
ATOM     63  C   UNL A   1      46.518  28.264  33.594  1.00  0.00     0.012 A 
ATOM     64  C   UNL A   1      45.237  26.399  34.497  1.00  0.00     0.148 A 
ATOM     65  C   UNL A   1      47.640  27.841  34.307  1.00  0.00     0.002 A 
ATOM     66  C   UNL A   1      46.347  26.006  35.231  1.00  0.00     0.091 A 
ATOM     67  F   UNL A   1      44.077  25.730  34.552  1.00  0.00    -0.205 F 
ATOM     68  C   UNL A   1      47.551  26.722  35.132  1.00  0.00     0.022 A 
BRANCH  66  69
ATOM     69  S   UNL A   1      46.307  24.623  36.377  1.00  0.00     0.127 S 
ATOM     70  O   UNL A   1      45.137  24.948  37.191  1.00  0.00    -0.237 OA
ATOM     71  O   UNL A   1      46.128  23.483  35.478  1.00  0.00    -0.237 OA
ATOM     72  O   UNL A   1      47.580  24.645  37.084  1.00  0.00    -0.744 OA
ENDBRANCH  66  69
ENDBRANCH  39  62
ENDBRANCH  13  14
ENDBRANCH   6   8
ENDBRANCH   3   4
ENDBRANCH   2   3
ENDBRANCH   1   2
BRANCH   1  73
ATOM     73  C   UNL A   1      32.069  26.414  26.349  1.00  0.00     0.116 C 
BRANCH  73  74
ATOM     74  N   UNL A   1      31.518  25.260  27.020  1.00  0.00    -0.355 N 
ATOM     75  C   UNL A   1      31.725  23.925  26.806  1.00  0.00     0.235 C 
ATOM     76  H   UNL A   1      30.890  25.468  27.749  1.00  0.00     0.163 HD
ATOM     77  O   UNL A   1      31.139  23.164  27.577  1.00  0.00    -0.274 OA
BRANCH  75  78
ATOM     78  C   UNL A   1      32.695  23.451  25.708  1.00  0.00     0.163 C 
ATOM     79  S   UNL A   1      34.185  22.673  26.494  1.00  0.00    -0.119 SA
ATOM     80  C   UNL A   1      32.100  22.356  24.827  1.00  0.00     0.170 C 
ATOM     81  C   UNL A   1      33.600  21.072  26.211  1.00  0.00     0.038 C 
ATOM     82  C   UNL A   1      32.573  21.023  25.360  1.00  0.00     0.002 C 
BRANCH  80  83
ATOM     83  S   UNL A   1      32.651  22.475  23.093  1.00  0.00     0.219 S 
ATOM     84  O   UNL A   1      34.049  22.820  23.013  1.00  0.00    -0.212 OA
ATOM     85  O   UNL A   1      32.162  21.291  22.410  1.00  0.00    -0.212 OA
BRANCH  83  86
ATOM     86  N   UNL A   1      31.765  23.699  22.383  1.00  0.00    -0.214 NA
ATOM     87  H   UNL A   1      30.792  23.454  22.566  1.00  0.00     0.141 HD
BRANCH  86  88
ATOM     88  C   UNL A   1      31.844  25.146  22.652  1.00  0.00     0.103 C 
BRANCH  88  89
ATOM     89  C   UNL A   1      30.577  25.839  23.134  1.00  0.00     0.050 C 
BRANCH  89  90
ATOM     90  C   UNL A   1      30.573  27.321  22.969  1.00  0.00    -0.038 C 
ATOM     91  C   UNL A   1      29.501  28.107  22.987  1.00  0.00     0.001 A 
ATOM     92  C   UNL A   1      31.816  28.130  22.764  1.00  0.00     0.174 C 
ATOM     93  C   UNL A   1      28.102  27.897  23.168  1.00  0.00     0.010 A 
ATOM     94  C   UNL A   1      30.070  29.444  22.770  1.00  0.00     0.065 A 
ATOM     95  N   UNL A   1      31.357  29.536  22.628  1.00  0.00    -0.280 NA
ATOM     96  C   UNL A   1      27.283  28.960  23.130  1.00  0.00     0.001 A 
ATOM     97  C   UNL A   1      29.104  30.563  22.731  1.00  0.00     0.028 A 
ATOM     98  C   UNL A   1      27.797  30.301  22.904  1.00  0.00     0.002 A 
ENDBRANCH  89  90
ENDBRANCH  88  89
ENDBRANCH  86  88
ENDBRANCH  83  86
ENDBRANCH  80  83
ENDBRANCH  75  78
ENDBRANCH  73  74
ENDBRANCH   1  73
TORSDOF 19
ENDMDL
MODEL 3
REMARK VINA RESULT:     -11.6      1.730      7.627
REMARK SMILES O=C(NCCCCNC(=O)[C@H]1SC=C[C@@H]1S(=O)(=O)NCCC1=c2ccccc2=NC1)c1ccc(-c2c3nc(c(-c4cccc(S(=O)(=O)[O-])c4F)c4ccc([nH]4)c(-c4cccc(S(=O)(=O)[O-])c4F)c4nc(c(-c5cccc(S(=O)(=O)[O-])c5F)c5ccc2[nH]5)C=C4)C=C3)cc1
REMARK SMILES IDX 6 1 5 2 4 3 3 4 1 5 2 6 31 8 32 9 93 10 33 11 92 12 34 13
REMARK SMILES IDX 35 14 36 15 86 16 37 17 91 18 85 19 87 20 38 21 90 22 84 23
REMARK SMILES IDX 83 24 39 26 71 27 51 28 70 29 52 30 55 31 69 32 88 33 53 34
REMARK SMILES IDX 54 35 68 37 89 38 56 39 40 40 41 41 49 42 42 43 44 44 50 45
REMARK SMILES IDX 43 46 45 47 46 48 47 49 48 50 72 51 73 52 81 53 74 54 76 55
REMARK SMILES IDX 82 56 75 57 77 58 78 59 79 60 80 61 57 62 58 63 66 64 59 65
REMARK SMILES IDX 61 66 67 67 60 68 62 69 63 70 64 71 65 72 7 73 8 74 9 75
REMARK SMILES IDX 10 77 11 78 12 79 15 80 13 81 14 82 16 83 17 84 18 85 19 86
REMARK SMILES IDX 20 88 21 89 22 90 23 91 30 92 24 93 28 94 29 95 25 96 27 97
REMARK SMILES IDX 26 98
REMARK H PARENT 3 7 87 25 55 36 8 76 19 87
REMARK Flexibility Score: inf
ROOT
ATOM      1  C   UNL A   1      31.336  30.820  26.606  1.00  0.00     0.023 C 
ENDROOT
BRANCH   1   2
ATOM      2  C   UNL A   1      31.487  32.336  26.599  1.00  0.00     0.023 C 
BRANCH   2   3
ATOM      3  C   UNL A   1      32.839  32.840  27.088  1.00  0.00     0.116 C 
BRANCH   3   4
ATOM      4  N   UNL A   1      32.756  34.170  27.674  1.00  0.00    -0.352 N 
ATOM      5  O   UNL A   1      33.095  35.750  29.243  1.00  0.00    -0.269 OA
ATOM      6  C   UNL A   1      33.424  34.668  28.766  1.00  0.00     0.251 C 
ATOM      7  H   UNL A   1      32.140  34.795  27.228  1.00  0.00     0.163 HD
BRANCH   6   8
ATOM      8  C   UNL A   1      34.529  33.889  29.361  1.00  0.00     0.039 A 
ATOM      9  C   UNL A   1      34.237  32.899  30.302  1.00  0.00     0.014 A 
ATOM     10  C   UNL A   1      35.853  34.145  28.991  1.00  0.00     0.014 A 
ATOM     11  C   UNL A   1      35.274  32.139  30.846  1.00  0.00     0.010 A 
ATOM     12  C   UNL A   1      36.874  33.338  29.476  1.00  0.00     0.010 A 
ATOM     13  C   UNL A   1      36.598  32.343  30.425  1.00  0.00    -0.014 A 
BRANCH  13  14
ATOM     14  C   UNL A   1      37.730  31.579  31.003  1.00  0.00     0.031 A 
ATOM     15  C   UNL A   1      38.164  31.864  32.417  1.00  0.00     0.074 A 
ATOM     16  C   UNL A   1      38.405  30.689  30.249  1.00  0.00     0.049 A 
ATOM     17  N   UNL A   1      39.209  31.419  33.062  1.00  0.00    -0.248 NA
ATOM     18  C   UNL A   1      37.324  32.786  33.204  1.00  0.00     0.031 C 
ATOM     19  C   UNL A   1      38.090  30.334  28.863  1.00  0.00     0.029 A 
ATOM     20  N   UNL A   1      39.513  29.933  30.540  1.00  0.00    -0.354 N 
ATOM     21  C   UNL A   1      39.172  32.028  34.310  1.00  0.00     0.074 A 
ATOM     22  C   UNL A   1      38.015  32.892  34.331  1.00  0.00     0.031 C 
ATOM     23  C   UNL A   1      38.972  29.419  28.432  1.00  0.00     0.029 A 
ATOM     24  C   UNL A   1      39.941  29.154  29.492  1.00  0.00     0.049 A 
ATOM     25  H   UNL A   1      39.958  29.947  31.418  1.00  0.00     0.167 HD
ATOM     26  C   UNL A   1      40.012  31.859  35.355  1.00  0.00     0.034 A 
ATOM     27  C   UNL A   1      41.000  28.326  29.393  1.00  0.00     0.034 A 
ATOM     28  C   UNL A   1      41.128  30.956  35.354  1.00  0.00     0.049 A 
ATOM     29  C   UNL A   1      41.919  28.165  30.572  1.00  0.00     0.074 A 
ATOM     30  C   UNL A   1      42.014  30.693  36.384  1.00  0.00     0.029 A 
ATOM     31  N   UNL A   1      41.502  30.161  34.285  1.00  0.00    -0.354 N 
ATOM     32  N   UNL A   1      41.843  28.721  31.756  1.00  0.00    -0.248 NA
ATOM     33  C   UNL A   1      43.056  27.245  30.411  1.00  0.00     0.031 C 
ATOM     34  C   UNL A   1      42.931  29.740  35.934  1.00  0.00     0.029 A 
ATOM     35  C   UNL A   1      42.597  29.394  34.635  1.00  0.00     0.049 A 
ATOM     36  H   UNL A   1      41.055  30.144  33.408  1.00  0.00     0.167 HD
ATOM     37  C   UNL A   1      42.889  28.183  32.496  1.00  0.00     0.074 A 
ATOM     38  C   UNL A   1      43.588  27.260  31.626  1.00  0.00     0.031 C 
ATOM     39  C   UNL A   1      43.237  28.433  33.780  1.00  0.00     0.034 A 
BRANCH  26  40
ATOM     40  C   UNL A   1      39.735  32.606  36.628  1.00  0.00     0.023 A 
ATOM     41  C   UNL A   1      40.341  33.862  36.829  1.00  0.00     0.012 A 
ATOM     42  C   UNL A   1      38.763  32.145  37.535  1.00  0.00     0.148 A 
ATOM     43  C   UNL A   1      39.973  34.656  37.913  1.00  0.00     0.002 A 
ATOM     44  C   UNL A   1      38.380  32.956  38.597  1.00  0.00     0.091 A 
ATOM     45  F   UNL A   1      38.212  30.942  37.323  1.00  0.00    -0.205 F 
ATOM     46  C   UNL A   1      38.983  34.211  38.787  1.00  0.00     0.022 A 
BRANCH  44  47
ATOM     47  S   UNL A   1      37.077  32.503  39.747  1.00  0.00     0.127 S 
ATOM     48  O   UNL A   1      37.383  31.094  39.999  1.00  0.00    -0.237 OA
ATOM     49  O   UNL A   1      37.342  33.396  40.874  1.00  0.00    -0.237 OA
ATOM     50  O   UNL A   1      35.821  32.741  39.050  1.00  0.00    -0.744 OA
ENDBRANCH  44  47
ENDBRANCH  26  40
BRANCH  27  51
ATOM     51  C   UNL A   1      41.206  27.524  28.157  1.00  0.00     0.023 A 
ATOM     52  C   UNL A   1      41.745  28.157  27.019  1.00  0.00     0.012 A 
ATOM     53  C   UNL A   1      40.899  26.152  28.104  1.00  0.00     0.148 A 
ATOM     54  C   UNL A   1      41.958  27.440  25.841  1.00  0.00     0.002 A 
ATOM     55  C   UNL A   1      41.147  25.435  26.939  1.00  0.00     0.091 A 
ATOM     56  F   UNL A   1      40.383  25.576  29.198  1.00  0.00    -0.205 F 
ATOM     57  C   UNL A   1      41.667  26.078  25.804  1.00  0.00     0.022 A 
BRANCH  55  58
ATOM     58  S   UNL A   1      40.884  23.663  26.818  1.00  0.00     0.127 S 
ATOM     59  O   UNL A   1      41.718  23.316  25.669  1.00  0.00    -0.237 OA
ATOM     60  O   UNL A   1      41.389  23.196  28.109  1.00  0.00    -0.237 OA
ATOM     61  O   UNL A   1      39.451  23.486  26.629  1.00  0.00    -0.744 OA
ENDBRANCH  55  58
ENDBRANCH  27  51
BRANCH  39  62
ATOM     62  C   UNL A   1      44.382  27.657  34.368  1.00  0.00     0.023 A 
ATOM     63  C   UNL A   1      45.687  28.181  34.317  1.00  0.00     0.012 A 
ATOM     64  C   UNL A   1      44.133  26.466  35.080  1.00  0.00     0.148 A 
ATOM     65  C   UNL A   1      46.734  27.520  34.957  1.00  0.00     0.002 A 
ATOM     66  C   UNL A   1      45.174  25.833  35.744  1.00  0.00     0.091 A 
ATOM     67  F   UNL A   1      42.881  25.988  35.104  1.00  0.00    -0.205 F 
ATOM     68  C   UNL A   1      46.476  26.356  35.679  1.00  0.00     0.022 A 
BRANCH  66  69
ATOM     69  S   UNL A   1      44.926  24.372  36.759  1.00  0.00     0.127 S 
ATOM     70  O   UNL A   1      46.278  24.123  37.254  1.00  0.00    -0.237 OA
ATOM     71  O   UNL A   1      43.984  24.855  37.768  1.00  0.00    -0.237 OA
ATOM     72  O   UNL A   1      44.393  23.349  35.871  1.00  0.00    -0.744 OA
ENDBRANCH  66  69
ENDBRANCH  39  62
ENDBRANCH  13  14
ENDBRANCH   6   8
ENDBRANCH   3   4
ENDBRANCH   2   3
ENDBRANCH   1   2
BRANCH   1  73
ATOM     73  C   UNL A   1      32.641  30.066  26.814  1.00  0.00     0.116 C 
BRANCH  73  74
ATOM     74  N   UNL A   1      33.305  29.730  25.577  1.00  0.00    -0.355 N 
ATOM     75  C   UNL A   1      32.908  28.922  24.547  1.00  0.00     0.235 C 
ATOM     76  H   UNL A   1      34.187  30.149  25.456  1.00  0.00     0.163 HD
ATOM     77  O   UNL A   1      33.679  28.861  23.589  1.00  0.00    -0.274 OA
BRANCH  75  78
ATOM     78  C   UNL A   1      31.541  28.213  24.592  1.00  0.00     0.163 C 
ATOM     79  S   UNL A   1      30.477  28.832  23.205  1.00  0.00    -0.119 SA
ATOM     80  C   UNL A   1      31.649  26.708  24.362  1.00  0.00     0.170 C 
ATOM     81  C   UNL A   1      30.798  27.443  22.229  1.00  0.00     0.038 C 
ATOM     82  C   UNL A   1      31.370  26.441  22.900  1.00  0.00     0.002 C 
BRANCH  80  83
ATOM     83  S   UNL A   1      30.430  25.761  25.331  1.00  0.00     0.219 S 
ATOM     84  O   UNL A   1      30.707  25.845  26.743  1.00  0.00    -0.212 OA
ATOM     85  O   UNL A   1      29.116  26.126  24.833  1.00  0.00    -0.212 OA
BRANCH  83  86
ATOM     86  N   UNL A   1      30.569  24.164  24.861  1.00  0.00    -0.214 NA
ATOM     87  H   UNL A   1      30.890  24.206  23.894  1.00  0.00     0.141 HD
BRANCH  86  88
ATOM     88  C   UNL A   1      31.386  23.107  25.482  1.00  0.00     0.103 C 
BRANCH  88  89
ATOM     89  C   UNL A   1      32.020  22.078  24.557  1.00  0.00     0.050 C 
BRANCH  89  90
ATOM     90  C   UNL A   1      33.325  22.489  23.963  1.00  0.00    -0.038 C 
ATOM     91  C   UNL A   1      34.522  22.025  24.308  1.00  0.00     0.001 A 
ATOM     92  C   UNL A   1      33.447  23.501  22.867  1.00  0.00     0.174 C 
ATOM     93  C   UNL A   1      34.996  21.058  25.244  1.00  0.00     0.010 A 
ATOM     94  C   UNL A   1      35.430  22.770  23.426  1.00  0.00     0.065 A 
ATOM     95  N   UNL A   1      34.904  23.620  22.598  1.00  0.00    -0.280 NA
ATOM     96  C   UNL A   1      36.317  20.832  25.320  1.00  0.00     0.001 A 
ATOM     97  C   UNL A   1      36.871  22.474  23.576  1.00  0.00     0.028 A 
ATOM     98  C   UNL A   1      37.256  21.555  24.478  1.00  0.00     0.002 A 
ENDBRANCH  89  90
ENDBRANCH  88  89
ENDBRANCH  86  88
ENDBRANCH  83  86
ENDBRANCH  80  83
ENDBRANCH  75  78
ENDBRANCH  73  74
ENDBRANCH   1  73
TORSDOF 19
ENDMDL
