MODEL 1
REMARK VINA RESULT:     -12.6      0.000      0.000
REMARK SMILES Cc1nc2cc(C(=O)NCCCCNC(=O)c3ccc(-c4c5nc(c(-c6cccc(S(=O)(=O)[O-])c6F)c6ccc([nH]6)c(-c6cccc(S(=O)(=O)[O-])c6F)c6nc(c(-c7cccc(S(=O)(=O)[O-])c7F)c7ccc4[nH]7)C=C6)C=C5)cc3)ccc2n1CCC[NH+]1CCOCC1
REMARK SMILES IDX 11 1 10 2 9 3 7 4 8 5 6 7 1 8 2 9 3 10 83 11 4 12 82 13 5 14
REMARK SMILES IDX 81 15 80 16 84 17 85 18 86 19 87 20 88 21 92 22 89 24 91 25
REMARK SMILES IDX 90 26 12 27 13 28 14 29 15 30 16 32 17 33 18 34 79 35 19 36
REMARK SMILES IDX 78 37 20 38 21 39 22 40 72 41 23 42 77 43 71 44 73 45 24 46
REMARK SMILES IDX 76 47 70 48 69 49 25 51 57 52 37 53 56 54 38 55 41 56 55 57
REMARK SMILES IDX 74 58 39 59 40 60 54 62 75 63 42 64 26 65 27 66 35 67 28 68
REMARK SMILES IDX 30 69 36 70 29 71 31 72 32 73 33 74 34 75 58 76 59 77 67 78
REMARK SMILES IDX 60 79 62 80 68 81 61 82 63 83 64 84 65 85 66 86 43 87 44 88
REMARK SMILES IDX 52 89 45 90 47 91 53 92 46 93 48 94 49 95 50 96 51 97
REMARK H PARENT 9 6 87 23 14 31 73 50 41 61
REMARK Flexibility Score: inf
ROOT
ATOM      1  C   UNL A   1      32.343  29.971  25.821  1.00  0.00     0.023 C 
ENDROOT
BRANCH   1   2
ATOM      2  C   UNL A   1      33.539  29.061  25.536  1.00  0.00     0.116 C 
BRANCH   2   3
ATOM      3  N   UNL A   1      33.767  28.965  24.112  1.00  0.00    -0.352 N 
ATOM      4  C   UNL A   1      33.722  27.910  23.243  1.00  0.00     0.251 C 
ATOM      5  O   UNL A   1      33.947  28.149  22.056  1.00  0.00    -0.269 OA
ATOM      6  H   UNL A   1      34.000  29.821  23.687  1.00  0.00     0.163 HD
BRANCH   4   7
ATOM      7  C   UNL A   1      33.364  26.522  23.651  1.00  0.00     0.042 A 
ATOM      8  C   UNL A   1      33.573  22.129  27.603  1.00  0.00     0.088 C 
ATOM      9  C   UNL A   1      33.589  22.959  26.381  1.00  0.00     0.106 A 
ATOM     10  N   UNL A   1      34.320  24.047  26.259  1.00  0.00    -0.233 NA
ATOM     11  N   UNL A   1      32.816  22.762  25.257  1.00  0.00    -0.328 N 
ATOM     12  C   UNL A   1      33.816  24.702  25.173  1.00  0.00     0.090 A 
ATOM     13  C   UNL A   1      32.828  23.947  24.552  1.00  0.00     0.068 A 
ATOM     14  C   UNL A   1      34.126  25.978  24.697  1.00  0.00     0.044 A 
ATOM     15  C   UNL A   1      32.065  24.446  23.495  1.00  0.00     0.029 A 
ATOM     16  C   UNL A   1      32.309  25.772  23.114  1.00  0.00     0.016 A 
BRANCH  11  17
ATOM     17  C   UNL A   1      32.010  21.600  24.921  1.00  0.00     0.130 C 
BRANCH  17  18
ATOM     18  C   UNL A   1      32.771  20.494  24.175  1.00  0.00     0.083 C 
BRANCH  18  19
ATOM     19  C   UNL A   1      33.086  19.252  25.022  1.00  0.00     0.264 C 
BRANCH  19  20
ATOM     20  N   UNL A   1      32.356  18.067  24.552  1.00  0.00    -0.331 N 
ATOM     21  C   UNL A   1      32.530  16.898  25.440  1.00  0.00     0.291 C 
ATOM     22  C   UNL A   1      32.735  17.657  23.180  1.00  0.00     0.291 C 
ATOM     23  H   UNL A   1      31.379  18.360  24.557  1.00  0.00     0.348 HD
ATOM     24  C   UNL A   1      33.902  16.226  25.331  1.00  0.00     0.221 C 
ATOM     25  C   UNL A   1      34.099  16.944  23.095  1.00  0.00     0.221 C 
ATOM     26  O   UNL A   1      34.170  15.823  23.985  1.00  0.00    -0.370 OA
ENDBRANCH  19  20
ENDBRANCH  18  19
ENDBRANCH  17  18
ENDBRANCH  11  17
ENDBRANCH   4   7
ENDBRANCH   2   3
ENDBRANCH   1   2
BRANCH   1  27
ATOM     27  C   UNL A   1      32.607  30.992  26.940  1.00  0.00     0.023 C 
BRANCH  27  28
ATOM     28  C   UNL A   1      34.024  30.913  27.514  1.00  0.00     0.116 C 
BRANCH  28  29
ATOM     29  N   UNL A   1      34.199  31.781  28.664  1.00  0.00    -0.352 N 
ATOM     30  C   UNL A   1      35.206  32.010  29.558  1.00  0.00     0.251 C 
ATOM     31  H   UNL A   1      33.404  32.334  28.841  1.00  0.00     0.163 HD
ATOM     32  O   UNL A   1      34.973  32.868  30.415  1.00  0.00    -0.269 OA
BRANCH  30  33
ATOM     33  C   UNL A   1      36.508  31.294  29.584  1.00  0.00     0.039 A 
ATOM     34  C   UNL A   1      37.758  31.905  29.528  1.00  0.00     0.014 A 
ATOM     35  C   UNL A   1      36.449  29.886  29.626  1.00  0.00     0.014 A 
ATOM     36  C   UNL A   1      38.911  31.141  29.467  1.00  0.00     0.010 A 
ATOM     37  C   UNL A   1      37.606  29.112  29.575  1.00  0.00     0.010 A 
ATOM     38  C   UNL A   1      38.835  29.747  29.462  1.00  0.00    -0.014 A 
BRANCH  38  39
ATOM     39  C   UNL A   1      40.106  29.037  29.416  1.00  0.00     0.031 A 
ATOM     40  C   UNL A   1      40.746  28.844  30.743  1.00  0.00     0.074 A 
ATOM     41  C   UNL A   1      40.682  28.588  28.285  1.00  0.00     0.049 A 
ATOM     42  N   UNL A   1      41.795  29.443  31.206  1.00  0.00    -0.248 NA
ATOM     43  C   UNL A   1      40.051  27.997  31.724  1.00  0.00     0.031 C 
ATOM     44  C   UNL A   1      40.066  28.454  26.963  1.00  0.00     0.029 A 
ATOM     45  N   UNL A   1      41.923  28.048  28.108  1.00  0.00    -0.354 N 
ATOM     46  C   UNL A   1      42.030  28.862  32.448  1.00  0.00     0.074 A 
ATOM     47  C   UNL A   1      40.846  28.114  32.788  1.00  0.00     0.031 C 
ATOM     48  C   UNL A   1      40.831  27.641  26.201  1.00  0.00     0.029 A 
ATOM     49  C   UNL A   1      42.060  27.348  26.916  1.00  0.00     0.049 A 
ATOM     50  H   UNL A   1      42.651  28.144  28.764  1.00  0.00     0.167 HD
ATOM     51  C   UNL A   1      43.281  28.805  32.980  1.00  0.00     0.034 A 
ATOM     52  C   UNL A   1      43.091  26.538  26.585  1.00  0.00     0.034 A 
ATOM     53  C   UNL A   1      44.214  29.644  32.288  1.00  0.00     0.049 A 
ATOM     54  C   UNL A   1      44.277  26.992  27.347  1.00  0.00     0.074 A 
ATOM     55  C   UNL A   1      44.600  30.965  32.292  1.00  0.00     0.029 A 
ATOM     56  N   UNL A   1      44.705  29.074  31.148  1.00  0.00    -0.354 N 
ATOM     57  N   UNL A   1      44.844  28.155  27.178  1.00  0.00    -0.248 NA
ATOM     58  C   UNL A   1      44.724  26.235  28.512  1.00  0.00     0.031 C 
ATOM     59  C   UNL A   1      45.231  31.202  31.033  1.00  0.00     0.029 A 
ATOM     60  C   UNL A   1      45.226  30.016  30.304  1.00  0.00     0.049 A 
ATOM     61  H   UNL A   1      44.688  28.108  30.958  1.00  0.00     0.167 HD
ATOM     62  C   UNL A   1      45.383  28.441  28.416  1.00  0.00     0.074 A 
ATOM     63  C   UNL A   1      45.452  27.172  29.122  1.00  0.00     0.031 C 
ATOM     64  C   UNL A   1      45.399  29.711  28.903  1.00  0.00     0.034 A 
BRANCH  51  65
ATOM     65  C   UNL A   1      43.775  27.650  33.813  1.00  0.00     0.023 A 
ATOM     66  C   UNL A   1      44.268  26.504  33.157  1.00  0.00     0.012 A 
ATOM     67  C   UNL A   1      43.507  27.538  35.197  1.00  0.00     0.148 A 
ATOM     68  C   UNL A   1      44.506  25.312  33.852  1.00  0.00     0.002 A 
ATOM     69  C   UNL A   1      43.820  26.380  35.898  1.00  0.00     0.091 A 
ATOM     70  F   UNL A   1      42.816  28.505  35.814  1.00  0.00    -0.205 F 
ATOM     71  C   UNL A   1      44.302  25.256  35.227  1.00  0.00     0.022 A 
BRANCH  69  72
ATOM     72  S   UNL A   1      43.617  26.288  37.680  1.00  0.00     0.127 S 
ATOM     73  O   UNL A   1      44.276  27.523  38.110  1.00  0.00    -0.237 OA
ATOM     74  O   UNL A   1      42.156  26.293  37.812  1.00  0.00    -0.237 OA
ATOM     75  O   UNL A   1      44.247  25.045  38.074  1.00  0.00    -0.744 OA
ENDBRANCH  69  72
ENDBRANCH  51  65
BRANCH  52  76
ATOM     76  C   UNL A   1      43.095  25.243  25.862  1.00  0.00     0.023 A 
ATOM     77  C   UNL A   1      44.180  24.959  25.004  1.00  0.00     0.012 A 
ATOM     78  C   UNL A   1      42.259  24.175  26.254  1.00  0.00     0.148 A 
ATOM     79  C   UNL A   1      44.484  23.646  24.634  1.00  0.00     0.002 A 
ATOM     80  C   UNL A   1      42.558  22.871  25.868  1.00  0.00     0.091 A 
ATOM     81  F   UNL A   1      41.235  24.418  27.083  1.00  0.00    -0.205 F 
ATOM     82  C   UNL A   1      43.686  22.600  25.082  1.00  0.00     0.022 A 
BRANCH  80  83
ATOM     83  S   UNL A   1      41.564  21.471  26.403  1.00  0.00     0.127 S 
ATOM     84  O   UNL A   1      41.809  21.454  27.848  1.00  0.00    -0.237 OA
ATOM     85  O   UNL A   1      40.220  21.886  26.016  1.00  0.00    -0.237 OA
ATOM     86  O   UNL A   1      42.107  20.317  25.698  1.00  0.00    -0.744 OA
ENDBRANCH  80  83
ENDBRANCH  52  76
BRANCH  64  87
ATOM     87  C   UNL A   1      45.388  30.841  27.926  1.00  0.00     0.023 A 
ATOM     88  C   UNL A   1      44.203  31.372  27.382  1.00  0.00     0.012 A 
ATOM     89  C   UNL A   1      46.617  31.455  27.640  1.00  0.00     0.148 A 
ATOM     90  C   UNL A   1      44.251  32.503  26.563  1.00  0.00     0.002 A 
ATOM     91  C   UNL A   1      46.657  32.597  26.855  1.00  0.00     0.091 A 
ATOM     92  F   UNL A   1      47.727  30.919  28.171  1.00  0.00    -0.205 F 
ATOM     93  C   UNL A   1      45.476  33.124  26.310  1.00  0.00     0.022 A 
BRANCH  91  94
ATOM     94  S   UNL A   1      48.183  33.495  26.572  1.00  0.00     0.127 S 
ATOM     95  O   UNL A   1      48.417  34.120  27.873  1.00  0.00    -0.237 OA
ATOM     96  O   UNL A   1      49.115  32.418  26.233  1.00  0.00    -0.237 OA
ATOM     97  O   UNL A   1      47.914  34.422  25.479  1.00  0.00    -0.744 OA
ENDBRANCH  91  94
ENDBRANCH  64  87
ENDBRANCH  38  39
ENDBRANCH  30  33
ENDBRANCH  28  29
ENDBRANCH  27  28
ENDBRANCH   1  27
TORSDOF 18
ENDMDL
MODEL 2
REMARK VINA RESULT:     -12.6      3.069      9.494
REMARK SMILES Cc1nc2cc(C(=O)NCCCCNC(=O)c3ccc(-c4c5nc(c(-c6cccc(S(=O)(=O)[O-])c6F)c6ccc([nH]6)c(-c6cccc(S(=O)(=O)[O-])c6F)c6nc(c(-c7cccc(S(=O)(=O)[O-])c7F)c7ccc4[nH]7)C=C6)C=C5)cc3)ccc2n1CCC[NH+]1CCOCC1
REMARK SMILES IDX 11 1 10 2 9 3 7 4 8 5 6 7 1 8 2 9 3 10 83 11 4 12 82 13 5 14
REMARK SMILES IDX 81 15 80 16 84 17 85 18 86 19 87 20 88 21 92 22 89 24 91 25
REMARK SMILES IDX 90 26 12 27 13 28 14 29 15 30 16 32 17 33 18 34 79 35 19 36
REMARK SMILES IDX 78 37 20 38 21 39 22 40 72 41 23 42 77 43 71 44 73 45 24 46
REMARK SMILES IDX 76 47 70 48 69 49 25 51 57 52 37 53 56 54 38 55 41 56 55 57
REMARK SMILES IDX 74 58 39 59 40 60 54 62 75 63 42 64 26 65 27 66 35 67 28 68
REMARK SMILES IDX 30 69 36 70 29 71 31 72 32 73 33 74 34 75 58 76 59 77 67 78
REMARK SMILES IDX 60 79 62 80 68 81 61 82 63 83 64 84 65 85 66 86 43 87 44 88
REMARK SMILES IDX 52 89 45 90 47 91 53 92 46 93 48 94 49 95 50 96 51 97
REMARK H PARENT 9 6 87 23 14 31 73 50 41 61
REMARK Flexibility Score: inf
ROOT
ATOM      1  C   UNL A   1      35.234  20.995  25.071  1.00  0.00     0.023 C 
ENDROOT
BRANCH   1   2
ATOM      2  C   UNL A   1      33.722  21.196  25.189  1.00  0.00     0.116 C 
BRANCH   2   3
ATOM      3  N   UNL A   1      33.073  20.848  23.945  1.00  0.00    -0.352 N 
ATOM      4  C   UNL A   1      32.322  21.578  23.066  1.00  0.00     0.251 C 
ATOM      5  O   UNL A   1      31.914  20.997  22.059  1.00  0.00    -0.269 OA
ATOM      6  H   UNL A   1      33.193  19.908  23.682  1.00  0.00     0.163 HD
BRANCH   4   7
ATOM      7  C   UNL A   1      32.030  23.028  23.239  1.00  0.00     0.042 A 
ATOM      8  C   UNL A   1      33.625  28.688  22.618  1.00  0.00     0.088 C 
ATOM      9  C   UNL A   1      33.120  27.386  23.101  1.00  0.00     0.106 A 
ATOM     10  N   UNL A   1      33.831  26.279  23.063  1.00  0.00    -0.233 NA
ATOM     11  N   UNL A   1      31.852  27.136  23.579  1.00  0.00    -0.328 N 
ATOM     12  C   UNL A   1      32.935  25.267  23.256  1.00  0.00     0.090 A 
ATOM     13  C   UNL A   1      31.669  25.770  23.528  1.00  0.00     0.068 A 
ATOM     14  C   UNL A   1      33.136  23.888  23.158  1.00  0.00     0.044 A 
ATOM     15  C   UNL A   1      30.549  24.945  23.637  1.00  0.00     0.029 A 
ATOM     16  C   UNL A   1      30.751  23.576  23.413  1.00  0.00     0.016 A 
BRANCH  11  17
ATOM     17  C   UNL A   1      30.826  28.101  23.936  1.00  0.00     0.130 C 
BRANCH  17  18
ATOM     18  C   UNL A   1      29.658  28.184  22.940  1.00  0.00     0.083 C 
BRANCH  18  19
ATOM     19  C   UNL A   1      29.633  29.463  22.090  1.00  0.00     0.264 C 
BRANCH  19  20
ATOM     20  N   UNL A   1      28.261  29.880  21.769  1.00  0.00    -0.331 N 
ATOM     21  C   UNL A   1      28.214  31.121  20.966  1.00  0.00     0.291 C 
ATOM     22  C   UNL A   1      27.418  30.084  22.970  1.00  0.00     0.291 C 
ATOM     23  H   UNL A   1      27.887  29.104  21.223  1.00  0.00     0.348 HD
ATOM     24  C   UNL A   1      28.528  32.393  21.759  1.00  0.00     0.221 C 
ATOM     25  C   UNL A   1      27.719  31.389  23.731  1.00  0.00     0.221 C 
ATOM     26  O   UNL A   1      27.642  32.535  22.873  1.00  0.00    -0.370 OA
ENDBRANCH  19  20
ENDBRANCH  18  19
ENDBRANCH  17  18
ENDBRANCH  11  17
ENDBRANCH   4   7
ENDBRANCH   2   3
ENDBRANCH   1   2
BRANCH   1  27
ATOM     27  C   UNL A   1      36.052  22.112  25.741  1.00  0.00     0.023 C 
BRANCH  27  28
ATOM     28  C   UNL A   1      37.383  22.395  25.040  1.00  0.00     0.116 C 
BRANCH  28  29
ATOM     29  N   UNL A   1      38.478  21.636  25.614  1.00  0.00    -0.352 N 
ATOM     30  C   UNL A   1      39.522  21.923  26.447  1.00  0.00     0.251 C 
ATOM     31  H   UNL A   1      38.464  20.691  25.339  1.00  0.00     0.163 HD
ATOM     32  O   UNL A   1      40.256  20.970  26.729  1.00  0.00    -0.269 OA
BRANCH  30  33
ATOM     33  C   UNL A   1      39.841  23.269  26.989  1.00  0.00     0.039 A 
ATOM     34  C   UNL A   1      39.136  24.435  26.698  1.00  0.00     0.014 A 
ATOM     35  C   UNL A   1      40.972  23.359  27.825  1.00  0.00     0.014 A 
ATOM     36  C   UNL A   1      39.569  25.657  27.183  1.00  0.00     0.010 A 
ATOM     37  C   UNL A   1      41.407  24.583  28.323  1.00  0.00     0.010 A 
ATOM     38  C   UNL A   1      40.719  25.736  27.972  1.00  0.00    -0.014 A 
BRANCH  38  39
ATOM     39  C   UNL A   1      41.077  27.065  28.447  1.00  0.00     0.031 A 
ATOM     40  C   UNL A   1      42.411  27.536  27.992  1.00  0.00     0.074 A 
ATOM     41  C   UNL A   1      40.295  27.825  29.237  1.00  0.00     0.049 A 
ATOM     42  N   UNL A   1      43.487  27.660  28.701  1.00  0.00    -0.248 NA
ATOM     43  C   UNL A   1      42.609  27.751  26.551  1.00  0.00     0.031 C 
ATOM     44  C   UNL A   1      38.875  27.630  29.536  1.00  0.00     0.029 A 
ATOM     45  N   UNL A   1      40.586  29.006  29.853  1.00  0.00    -0.354 N 
ATOM     46  C   UNL A   1      44.434  28.204  27.838  1.00  0.00     0.074 A 
ATOM     47  C   UNL A   1      43.901  28.080  26.504  1.00  0.00     0.031 C 
ATOM     48  C   UNL A   1      38.371  28.775  30.048  1.00  0.00     0.029 A 
ATOM     49  C   UNL A   1      39.462  29.707  30.271  1.00  0.00     0.049 A 
ATOM     50  H   UNL A   1      41.505  29.332  29.990  1.00  0.00     0.167 HD
ATOM     51  C   UNL A   1      45.458  28.970  28.301  1.00  0.00     0.034 A 
ATOM     52  C   UNL A   1      39.441  30.988  30.705  1.00  0.00     0.034 A 
ATOM     53  C   UNL A   1      45.610  28.889  29.723  1.00  0.00     0.049 A 
ATOM     54  C   UNL A   1      40.781  31.294  31.255  1.00  0.00     0.074 A 
ATOM     55  C   UNL A   1      46.213  28.061  30.642  1.00  0.00     0.029 A 
ATOM     56  N   UNL A   1      44.740  29.695  30.402  1.00  0.00    -0.354 N 
ATOM     57  N   UNL A   1      41.282  30.710  32.308  1.00  0.00    -0.248 NA
ATOM     58  C   UNL A   1      41.712  32.110  30.482  1.00  0.00     0.031 C 
ATOM     59  C   UNL A   1      45.567  28.310  31.891  1.00  0.00     0.029 A 
ATOM     60  C   UNL A   1      44.600  29.293  31.702  1.00  0.00     0.049 A 
ATOM     61  H   UNL A   1      44.275  30.468  30.007  1.00  0.00     0.167 HD
ATOM     62  C   UNL A   1      42.644  30.741  32.085  1.00  0.00     0.074 A 
ATOM     63  C   UNL A   1      42.857  31.764  31.074  1.00  0.00     0.031 C 
ATOM     64  C   UNL A   1      43.445  29.710  32.463  1.00  0.00     0.034 A 
BRANCH  51  65
ATOM     65  C   UNL A   1      46.018  30.149  27.545  1.00  0.00     0.023 A 
ATOM     66  C   UNL A   1      47.409  30.369  27.568  1.00  0.00     0.012 A 
ATOM     67  C   UNL A   1      45.203  31.199  27.059  1.00  0.00     0.148 A 
ATOM     68  C   UNL A   1      47.965  31.569  27.106  1.00  0.00     0.002 A 
ATOM     69  C   UNL A   1      45.763  32.354  26.527  1.00  0.00     0.091 A 
ATOM     70  F   UNL A   1      43.879  31.141  27.240  1.00  0.00    -0.205 F 
ATOM     71  C   UNL A   1      47.143  32.552  26.565  1.00  0.00     0.022 A 
BRANCH  69  72
ATOM     72  S   UNL A   1      44.738  33.622  25.776  1.00  0.00     0.127 S 
ATOM     73  O   UNL A   1      43.844  32.816  24.942  1.00  0.00    -0.237 OA
ATOM     74  O   UNL A   1      44.104  34.225  26.953  1.00  0.00    -0.237 OA
ATOM     75  O   UNL A   1      45.659  34.498  25.080  1.00  0.00    -0.744 OA
ENDBRANCH  69  72
ENDBRANCH  51  65
BRANCH  52  76
ATOM     76  C   UNL A   1      38.448  32.063  30.463  1.00  0.00     0.023 A 
ATOM     77  C   UNL A   1      38.040  32.310  29.134  1.00  0.00     0.012 A 
ATOM     78  C   UNL A   1      37.664  32.596  31.508  1.00  0.00     0.148 A 
ATOM     79  C   UNL A   1      36.841  32.972  28.856  1.00  0.00     0.002 A 
ATOM     80  C   UNL A   1      36.478  33.269  31.225  1.00  0.00     0.091 A 
ATOM     81  F   UNL A   1      38.021  32.359  32.778  1.00  0.00    -0.205 F 
ATOM     82  C   UNL A   1      36.050  33.433  29.901  1.00  0.00     0.022 A 
BRANCH  80  83
ATOM     83  S   UNL A   1      35.410  33.900  32.527  1.00  0.00     0.127 S 
ATOM     84  O   UNL A   1      36.078  35.152  32.892  1.00  0.00    -0.237 OA
ATOM     85  O   UNL A   1      34.141  34.066  31.827  1.00  0.00    -0.237 OA
ATOM     86  O   UNL A   1      35.437  32.889  33.576  1.00  0.00    -0.744 OA
ENDBRANCH  80  83
ENDBRANCH  52  76
BRANCH  64  87
ATOM     87  C   UNL A   1      42.996  28.846  33.596  1.00  0.00     0.023 A 
ATOM     88  C   UNL A   1      41.983  27.877  33.466  1.00  0.00     0.012 A 
ATOM     89  C   UNL A   1      43.706  28.949  34.803  1.00  0.00     0.148 A 
ATOM     90  C   UNL A   1      41.688  27.022  34.532  1.00  0.00     0.002 A 
ATOM     91  C   UNL A   1      43.434  28.076  35.845  1.00  0.00     0.091 A 
ATOM     92  F   UNL A   1      44.661  29.887  34.894  1.00  0.00    -0.205 F 
ATOM     93  C   UNL A   1      42.421  27.112  35.716  1.00  0.00     0.022 A 
BRANCH  91  94
ATOM     94  S   UNL A   1      44.402  28.077  37.354  1.00  0.00     0.127 S 
ATOM     95  O   UNL A   1      43.770  27.008  38.125  1.00  0.00    -0.237 OA
ATOM     96  O   UNL A   1      45.743  27.765  36.858  1.00  0.00    -0.237 OA
ATOM     97  O   UNL A   1      44.269  29.413  37.923  1.00  0.00    -0.744 OA
ENDBRANCH  91  94
ENDBRANCH  64  87
ENDBRANCH  38  39
ENDBRANCH  30  33
ENDBRANCH  28  29
ENDBRANCH  27  28
ENDBRANCH   1  27
TORSDOF 18
ENDMDL
MODEL 3
REMARK VINA RESULT:     -12.4      3.914      8.656
REMARK SMILES Cc1nc2cc(C(=O)NCCCCNC(=O)c3ccc(-c4c5nc(c(-c6cccc(S(=O)(=O)[O-])c6F)c6ccc([nH]6)c(-c6cccc(S(=O)(=O)[O-])c6F)c6nc(c(-c7cccc(S(=O)(=O)[O-])c7F)c7ccc4[nH]7)C=C6)C=C5)cc3)ccc2n1CCC[NH+]1CCOCC1
REMARK SMILES IDX 11 1 10 2 9 3 7 4 8 5 6 7 1 8 2 9 3 10 83 11 4 12 82 13 5 14
REMARK SMILES IDX 81 15 80 16 84 17 85 18 86 19 87 20 88 21 92 22 89 24 91 25
REMARK SMILES IDX 90 26 12 27 13 28 14 29 15 30 16 32 17 33 18 34 79 35 19 36
REMARK SMILES IDX 78 37 20 38 21 39 22 40 72 41 23 42 77 43 71 44 73 45 24 46
REMARK SMILES IDX 76 47 70 48 69 49 25 51 57 52 37 53 56 54 38 55 41 56 55 57
REMARK SMILES IDX 74 58 39 59 40 60 54 62 75 63 42 64 26 65 27 66 35 67 28 68
REMARK SMILES IDX 30 69 36 70 29 71 31 72 32 73 33 74 34 75 58 76 59 77 67 78
REMARK SMILES IDX 60 79 62 80 68 81 61 82 63 83 64 84 65 85 66 86 43 87 44 88
REMARK SMILES IDX 52 89 45 90 47 91 53 92 46 93 48 94 49 95 50 96 51 97
REMARK H PARENT 9 6 87 23 14 31 73 50 41 61
REMARK Flexibility Score: inf
ROOT
ATOM      1  C   UNL A   1      34.575  20.352  25.348  1.00  0.00     0.023 C 
ENDROOT
BRANCH   1   2
ATOM      2  C   UNL A   1      33.090  20.688  25.200  1.00  0.00     0.116 C 
BRANCH   2   3
ATOM      3  N   UNL A   1      32.646  20.412  23.852  1.00  0.00    -0.352 N 
ATOM      4  C   UNL A   1      32.151  21.219  22.865  1.00  0.00     0.251 C 
ATOM      5  O   UNL A   1      31.875  20.685  21.790  1.00  0.00    -0.269 OA
ATOM      6  H   UNL A   1      32.713  19.464  23.596  1.00  0.00     0.163 HD
BRANCH   4   7
ATOM      7  C   UNL A   1      31.987  22.692  23.011  1.00  0.00     0.042 A 
ATOM      8  C   UNL A   1      33.901  28.190  21.973  1.00  0.00     0.088 C 
ATOM      9  C   UNL A   1      33.365  26.947  22.565  1.00  0.00     0.106 A 
ATOM     10  N   UNL A   1      33.984  25.788  22.491  1.00  0.00    -0.233 NA
ATOM     11  N   UNL A   1      32.148  26.811  23.198  1.00  0.00    -0.328 N 
ATOM     12  C   UNL A   1      33.048  24.855  22.829  1.00  0.00     0.090 A 
ATOM     13  C   UNL A   1      31.862  25.461  23.225  1.00  0.00     0.068 A 
ATOM     14  C   UNL A   1      33.135  23.462  22.766  1.00  0.00     0.044 A 
ATOM     15  C   UNL A   1      30.707  24.729  23.499  1.00  0.00     0.029 A 
ATOM     16  C   UNL A   1      30.782  23.342  23.310  1.00  0.00     0.016 A 
BRANCH  11  17
ATOM     17  C   UNL A   1      31.244  27.863  23.632  1.00  0.00     0.130 C 
BRANCH  17  18
ATOM     18  C   UNL A   1      30.045  28.094  22.699  1.00  0.00     0.083 C 
BRANCH  18  19
ATOM     19  C   UNL A   1      29.874  29.546  22.226  1.00  0.00     0.264 C 
BRANCH  19  20
ATOM     20  N   UNL A   1      28.489  29.832  21.826  1.00  0.00    -0.331 N 
ATOM     21  C   UNL A   1      28.369  31.073  21.031  1.00  0.00     0.291 C 
ATOM     22  C   UNL A   1      27.561  29.935  22.975  1.00  0.00     0.291 C 
ATOM     23  H   UNL A   1      28.227  29.030  21.253  1.00  0.00     0.348 HD
ATOM     24  C   UNL A   1      28.509  32.359  21.852  1.00  0.00     0.221 C 
ATOM     25  C   UNL A   1      27.686  31.253  23.764  1.00  0.00     0.221 C 
ATOM     26  O   UNL A   1      27.549  32.398  22.912  1.00  0.00    -0.370 OA
ENDBRANCH  19  20
ENDBRANCH  18  19
ENDBRANCH  17  18
ENDBRANCH  11  17
ENDBRANCH   4   7
ENDBRANCH   2   3
ENDBRANCH   1   2
BRANCH   1  27
ATOM     27  C   UNL A   1      35.472  21.594  25.482  1.00  0.00     0.023 C 
BRANCH  27  28
ATOM     28  C   UNL A   1      36.655  21.597  24.510  1.00  0.00     0.116 C 
BRANCH  28  29
ATOM     29  N   UNL A   1      37.527  20.454  24.705  1.00  0.00    -0.352 N 
ATOM     30  C   UNL A   1      38.700  20.235  25.369  1.00  0.00     0.251 C 
ATOM     31  H   UNL A   1      37.194  19.646  24.251  1.00  0.00     0.163 HD
ATOM     32  O   UNL A   1      39.138  19.082  25.311  1.00  0.00    -0.269 OA
BRANCH  30  33
ATOM     33  C   UNL A   1      39.474  21.269  26.104  1.00  0.00     0.039 A 
ATOM     34  C   UNL A   1      40.623  21.025  26.854  1.00  0.00     0.014 A 
ATOM     35  C   UNL A   1      38.966  22.583  26.060  1.00  0.00     0.014 A 
ATOM     36  C   UNL A   1      41.219  22.045  27.576  1.00  0.00     0.010 A 
ATOM     37  C   UNL A   1      39.567  23.614  26.777  1.00  0.00     0.010 A 
ATOM     38  C   UNL A   1      40.677  23.332  27.561  1.00  0.00    -0.014 A 
BRANCH  38  39
ATOM     39  C   UNL A   1      41.391  24.335  28.337  1.00  0.00     0.031 A 
ATOM     40  C   UNL A   1      40.736  25.668  28.361  1.00  0.00     0.074 A 
ATOM     41  C   UNL A   1      42.550  24.109  28.985  1.00  0.00     0.049 A 
ATOM     42  N   UNL A   1      41.122  26.746  27.756  1.00  0.00    -0.248 NA
ATOM     43  C   UNL A   1      39.420  25.776  29.009  1.00  0.00     0.031 C 
ATOM     44  C   UNL A   1      43.166  22.815  29.286  1.00  0.00     0.029 A 
ATOM     45  N   UNL A   1      43.371  25.000  29.613  1.00  0.00    -0.354 N 
ATOM     46  C   UNL A   1      40.221  27.730  28.153  1.00  0.00     0.074 A 
ATOM     47  C   UNL A   1      39.111  27.053  28.775  1.00  0.00     0.031 C 
ATOM     48  C   UNL A   1      44.102  22.985  30.246  1.00  0.00     0.029 A 
ATOM     49  C   UNL A   1      44.267  24.406  30.493  1.00  0.00     0.049 A 
ATOM     50  H   UNL A   1      43.332  25.972  29.458  1.00  0.00     0.167 HD
ATOM     51  C   UNL A   1      40.577  29.042  28.197  1.00  0.00     0.034 A 
ATOM     52  C   UNL A   1      45.036  25.051  31.399  1.00  0.00     0.034 A 
ATOM     53  C   UNL A   1      41.817  29.301  27.526  1.00  0.00     0.049 A 
ATOM     54  C   UNL A   1      45.253  26.427  30.900  1.00  0.00     0.074 A 
ATOM     55  C   UNL A   1      42.255  29.536  26.243  1.00  0.00     0.029 A 
ATOM     56  N   UNL A   1      42.912  29.009  28.290  1.00  0.00    -0.354 N 
ATOM     57  N   UNL A   1      45.913  26.706  29.810  1.00  0.00    -0.248 NA
ATOM     58  C   UNL A   1      44.517  27.538  31.494  1.00  0.00     0.031 C 
ATOM     59  C   UNL A   1      43.653  29.238  26.236  1.00  0.00     0.029 A 
ATOM     60  C   UNL A   1      44.028  28.845  27.517  1.00  0.00     0.049 A 
ATOM     61  H   UNL A   1      42.899  28.928  29.271  1.00  0.00     0.167 HD
ATOM     62  C   UNL A   1      45.338  27.880  29.368  1.00  0.00     0.074 A 
ATOM     63  C   UNL A   1      44.642  28.438  30.517  1.00  0.00     0.031 C 
ATOM     64  C   UNL A   1      45.167  28.128  28.042  1.00  0.00     0.034 A 
BRANCH  51  65
ATOM     65  C   UNL A   1      40.064  30.006  29.237  1.00  0.00     0.023 A 
ATOM     66  C   UNL A   1      40.679  30.023  30.505  1.00  0.00     0.012 A 
ATOM     67  C   UNL A   1      38.829  30.682  29.106  1.00  0.00     0.148 A 
ATOM     68  C   UNL A   1      40.102  30.702  31.585  1.00  0.00     0.002 A 
ATOM     69  C   UNL A   1      38.301  31.422  30.158  1.00  0.00     0.091 A 
ATOM     70  F   UNL A   1      38.090  30.495  28.006  1.00  0.00    -0.205 F 
ATOM     71  C   UNL A   1      38.924  31.420  31.406  1.00  0.00     0.022 A 
BRANCH  69  72
ATOM     72  S   UNL A   1      36.810  32.400  29.948  1.00  0.00     0.127 S 
ATOM     73  O   UNL A   1      35.797  31.354  29.790  1.00  0.00    -0.237 OA
ATOM     74  O   UNL A   1      36.751  33.125  31.222  1.00  0.00    -0.237 OA
ATOM     75  O   UNL A   1      37.061  33.240  28.795  1.00  0.00    -0.744 OA
ENDBRANCH  69  72
ENDBRANCH  51  65
BRANCH  52  76
ATOM     76  C   UNL A   1      45.396  24.673  32.788  1.00  0.00     0.023 A 
ATOM     77  C   UNL A   1      44.450  23.958  33.554  1.00  0.00     0.012 A 
ATOM     78  C   UNL A   1      46.733  24.698  33.238  1.00  0.00     0.148 A 
ATOM     79  C   UNL A   1      44.838  23.209  34.668  1.00  0.00     0.002 A 
ATOM     80  C   UNL A   1      47.112  23.962  34.358  1.00  0.00     0.091 A 
ATOM     81  F   UNL A   1      47.653  25.354  32.517  1.00  0.00    -0.205 F 
ATOM     82  C   UNL A   1      46.172  23.194  35.058  1.00  0.00     0.022 A 
BRANCH  80  83
ATOM     83  S   UNL A   1      48.818  23.905  34.924  1.00  0.00     0.127 S 
ATOM     84  O   UNL A   1      49.550  23.695  33.673  1.00  0.00    -0.237 OA
ATOM     85  O   UNL A   1      48.986  25.227  35.518  1.00  0.00    -0.237 OA
ATOM     86  O   UNL A   1      48.884  22.776  35.844  1.00  0.00    -0.744 OA
ENDBRANCH  80  83
ENDBRANCH  52  76
BRANCH  64  87
ATOM     87  C   UNL A   1      46.086  27.455  27.075  1.00  0.00     0.023 A 
ATOM     88  C   UNL A   1      47.392  27.912  26.814  1.00  0.00     0.012 A 
ATOM     89  C   UNL A   1      45.645  26.253  26.499  1.00  0.00     0.148 A 
ATOM     90  C   UNL A   1      48.242  27.174  25.987  1.00  0.00     0.002 A 
ATOM     91  C   UNL A   1      46.503  25.506  25.707  1.00  0.00     0.091 A 
ATOM     92  F   UNL A   1      44.393  25.850  26.765  1.00  0.00    -0.205 F 
ATOM     93  C   UNL A   1      47.804  25.965  25.444  1.00  0.00     0.022 A 
BRANCH  91  94
ATOM     94  S   UNL A   1      46.034  23.901  25.060  1.00  0.00     0.127 S 
ATOM     95  O   UNL A   1      44.631  24.111  24.709  1.00  0.00    -0.237 OA
ATOM     96  O   UNL A   1      46.937  23.754  23.918  1.00  0.00    -0.237 OA
ATOM     97  O   UNL A   1      46.267  22.944  26.136  1.00  0.00    -0.744 OA
ENDBRANCH  91  94
ENDBRANCH  64  87
ENDBRANCH  38  39
ENDBRANCH  30  33
ENDBRANCH  28  29
ENDBRANCH  27  28
ENDBRANCH   1  27
TORSDOF 18
ENDMDL
