MODEL 1
REMARK VINA RESULT:     -12.7      0.000      0.000
REMARK SMILES CC(C)n1c2c(c3ccccc31)[C@@H](c1ccccc1)N(CC(=O)NCCCCNC(=O)c1ccc(-c3c4nc(c(-c5cccc(S(=O)(=O)[O-])c5F)c5ccc([nH]5)c(-c5cccc(S(=O)(=O)[O-])c5F)c5nc(c(-c6cccc(S(=O)(=O)[O-])c6F)c6ccc3[nH]6)C=C5)C=C4)cc1)C2=O
REMARK SMILES IDX 27 1 26 2 25 3 24 4 22 5 23 6 21 8 20 9 4 10 5 11 12 12 6 13
REMARK SMILES IDX 95 14 7 15 11 16 13 17 96 18 8 19 10 20 9 21 2 22 1 23 3 24
REMARK SMILES IDX 14 25 15 26 19 27 16 28 18 29 17 30 28 31 29 32 30 33 31 35
REMARK SMILES IDX 32 36 33 37 94 38 34 39 93 40 35 41 36 42 37 43 87 44 38 45
REMARK SMILES IDX 92 46 86 47 88 48 39 49 91 50 85 51 84 52 40 54 72 55 52 56
REMARK SMILES IDX 71 57 53 58 56 59 70 60 89 61 54 62 55 63 69 65 90 66 57 67
REMARK SMILES IDX 41 68 42 69 50 70 43 71 45 72 51 73 44 74 46 75 47 76 48 77
REMARK SMILES IDX 49 78 73 79 74 80 82 81 75 82 77 83 83 84 76 85 78 86 79 87
REMARK SMILES IDX 80 88 81 89 58 90 59 91 67 92 60 93 62 94 68 95 61 96 63 97
REMARK SMILES IDX 64 98 65 99 66 100
REMARK H PARENT 24 7 29 34 88 53 56 64
REMARK Flexibility Score: inf
ROOT
ATOM      1  C   UNL A   1      37.403  21.165  24.267  1.00  0.00     0.023 C 
ENDROOT
BRANCH   1   2
ATOM      2  C   UNL A   1      36.817  22.575  24.414  1.00  0.00     0.023 C 
BRANCH   2   3
ATOM      3  C   UNL A   1      36.083  23.093  23.178  1.00  0.00     0.116 C 
BRANCH   3   4
ATOM      4  N   UNL A   1      34.732  22.578  23.098  1.00  0.00    -0.355 N 
ATOM      5  C   UNL A   1      33.603  23.239  22.704  1.00  0.00     0.239 C 
ATOM      6  O   UNL A   1      32.529  22.632  22.706  1.00  0.00    -0.273 OA
ATOM      7  H   UNL A   1      34.612  21.637  23.360  1.00  0.00     0.163 HD
BRANCH   5   8
ATOM      8  C   UNL A   1      33.680  24.711  22.279  1.00  0.00     0.220 C 
BRANCH   8   9
ATOM      9  N   UNL A   1      32.999  25.577  23.224  1.00  0.00    -0.317 N 
ATOM     10  N   UNL A   1      31.184  28.543  24.109  1.00  0.00    -0.334 N 
ATOM     11  C   UNL A   1      31.829  27.369  23.857  1.00  0.00     0.114 A 
ATOM     12  C   UNL A   1      31.825  29.146  25.207  1.00  0.00     0.049 A 
ATOM     13  C   UNL A   1      32.838  27.197  24.773  1.00  0.00     0.018 A 
ATOM     14  C   UNL A   1      31.864  26.319  22.890  1.00  0.00     0.272 C 
ATOM     15  C   UNL A   1      32.891  28.321  25.606  1.00  0.00     0.006 A 
ATOM     16  C   UNL A   1      31.575  30.363  25.865  1.00  0.00     0.027 A 
ATOM     17  C   UNL A   1      33.591  25.941  24.535  1.00  0.00     0.150 C 
ATOM     18  O   UNL A   1      31.154  26.141  21.910  1.00  0.00    -0.267 OA
ATOM     19  C   UNL A   1      33.731  28.722  26.661  1.00  0.00     0.011 A 
ATOM     20  C   UNL A   1      32.423  30.742  26.912  1.00  0.00     0.002 A 
ATOM     21  C   UNL A   1      33.488  29.937  27.304  1.00  0.00     0.001 A 
BRANCH  10  22
ATOM     22  C   UNL A   1      30.049  29.151  23.413  1.00  0.00     0.082 C 
ATOM     23  C   UNL A   1      30.441  29.692  22.033  1.00  0.00     0.031 C 
ATOM     24  C   UNL A   1      28.796  28.284  23.278  1.00  0.00     0.031 C 
ENDBRANCH  10  22
BRANCH  17  25
ATOM     25  C   UNL A   1      33.237  24.910  25.601  1.00  0.00    -0.021 A 
ATOM     26  C   UNL A   1      34.287  24.176  26.188  1.00  0.00     0.006 A 
ATOM     27  C   UNL A   1      31.927  24.595  26.009  1.00  0.00     0.006 A 
ATOM     28  C   UNL A   1      34.034  23.142  27.094  1.00  0.00     0.000 A 
ATOM     29  C   UNL A   1      31.676  23.578  26.935  1.00  0.00     0.000 A 
ATOM     30  C   UNL A   1      32.728  22.841  27.464  1.00  0.00     0.000 A 
ENDBRANCH  17  25
ENDBRANCH   8   9
ENDBRANCH   5   8
ENDBRANCH   3   4
ENDBRANCH   2   3
ENDBRANCH   1   2
BRANCH   1  31
ATOM     31  C   UNL A   1      37.950  20.589  25.573  1.00  0.00     0.116 C 
BRANCH  31  32
ATOM     32  N   UNL A   1      39.050  19.667  25.378  1.00  0.00    -0.352 N 
ATOM     33  C   UNL A   1      40.326  19.576  25.853  1.00  0.00     0.251 C 
ATOM     34  H   UNL A   1      38.824  18.936  24.758  1.00  0.00     0.163 HD
ATOM     35  O   UNL A   1      40.938  18.547  25.553  1.00  0.00    -0.269 OA
BRANCH  33  36
ATOM     36  C   UNL A   1      41.029  20.650  26.594  1.00  0.00     0.039 A 
ATOM     37  C   UNL A   1      41.142  20.730  27.983  1.00  0.00     0.014 A 
ATOM     38  C   UNL A   1      41.508  21.715  25.811  1.00  0.00     0.014 A 
ATOM     39  C   UNL A   1      41.537  21.909  28.585  1.00  0.00     0.010 A 
ATOM     40  C   UNL A   1      41.947  22.883  26.405  1.00  0.00     0.010 A 
ATOM     41  C   UNL A   1      41.865  23.000  27.788  1.00  0.00    -0.014 A 
BRANCH  41  42
ATOM     42  C   UNL A   1      42.166  24.256  28.455  1.00  0.00     0.031 A 
ATOM     43  C   UNL A   1      41.152  25.329  28.236  1.00  0.00     0.074 A 
ATOM     44  C   UNL A   1      43.230  24.345  29.281  1.00  0.00     0.049 A 
ATOM     45  N   UNL A   1      41.326  26.524  27.768  1.00  0.00    -0.248 NA
ATOM     46  C   UNL A   1      39.736  24.967  28.435  1.00  0.00     0.031 C 
ATOM     47  C   UNL A   1      44.114  23.264  29.736  1.00  0.00     0.029 A 
ATOM     48  N   UNL A   1      43.640  25.399  30.031  1.00  0.00    -0.354 N 
ATOM     49  C   UNL A   1      40.069  27.129  27.807  1.00  0.00     0.074 A 
ATOM     50  C   UNL A   1      39.112  26.089  28.082  1.00  0.00     0.031 C 
ATOM     51  C   UNL A   1      44.719  23.646  30.883  1.00  0.00     0.029 A 
ATOM     52  C   UNL A   1      44.372  25.027  31.158  1.00  0.00     0.049 A 
ATOM     53  H   UNL A   1      43.441  26.335  29.801  1.00  0.00     0.167 HD
ATOM     54  C   UNL A   1      39.894  28.478  27.818  1.00  0.00     0.034 A 
ATOM     55  C   UNL A   1      44.546  25.777  32.276  1.00  0.00     0.034 A 
ATOM     56  C   UNL A   1      41.068  29.193  27.417  1.00  0.00     0.049 A 
ATOM     57  C   UNL A   1      44.245  27.180  31.894  1.00  0.00     0.074 A 
ATOM     58  C   UNL A   1      41.787  29.289  26.244  1.00  0.00     0.029 A 
ATOM     59  N   UNL A   1      41.903  29.634  28.414  1.00  0.00    -0.354 N 
ATOM     60  N   UNL A   1      44.940  27.857  31.024  1.00  0.00    -0.248 NA
ATOM     61  C   UNL A   1      42.893  27.663  32.134  1.00  0.00     0.031 C 
ATOM     62  C   UNL A   1      43.152  29.304  26.656  1.00  0.00     0.029 A 
ATOM     63  C   UNL A   1      43.178  29.282  28.052  1.00  0.00     0.049 A 
ATOM     64  H   UNL A   1      41.637  30.112  29.232  1.00  0.00     0.167 HD
ATOM     65  C   UNL A   1      43.992  28.563  30.296  1.00  0.00     0.074 A 
ATOM     66  C   UNL A   1      42.757  28.465  31.075  1.00  0.00     0.031 C 
ATOM     67  C   UNL A   1      44.207  28.907  28.993  1.00  0.00     0.034 A 
BRANCH  54  68
ATOM     68  C   UNL A   1      38.739  29.144  28.503  1.00  0.00     0.023 A 
ATOM     69  C   UNL A   1      37.852  29.937  27.752  1.00  0.00     0.012 A 
ATOM     70  C   UNL A   1      38.637  29.197  29.913  1.00  0.00     0.148 A 
ATOM     71  C   UNL A   1      36.889  30.737  28.381  1.00  0.00     0.002 A 
ATOM     72  C   UNL A   1      37.642  29.942  30.531  1.00  0.00     0.091 A 
ATOM     73  F   UNL A   1      39.581  28.608  30.657  1.00  0.00    -0.205 F 
ATOM     74  C   UNL A   1      36.773  30.727  29.769  1.00  0.00     0.022 A 
BRANCH  72  75
ATOM     75  S   UNL A   1      37.435  29.953  32.314  1.00  0.00     0.127 S 
ATOM     76  O   UNL A   1      37.285  28.528  32.599  1.00  0.00    -0.237 OA
ATOM     77  O   UNL A   1      38.700  30.543  32.755  1.00  0.00    -0.237 OA
ATOM     78  O   UNL A   1      36.265  30.783  32.566  1.00  0.00    -0.744 OA
ENDBRANCH  72  75
ENDBRANCH  54  68
BRANCH  55  79
ATOM     79  C   UNL A   1      44.560  25.348  33.703  1.00  0.00     0.023 A 
ATOM     80  C   UNL A   1      43.361  25.411  34.447  1.00  0.00     0.012 A 
ATOM     81  C   UNL A   1      45.633  24.607  34.248  1.00  0.00     0.148 A 
ATOM     82  C   UNL A   1      43.219  24.719  35.657  1.00  0.00     0.002 A 
ATOM     83  C   UNL A   1      45.491  23.933  35.460  1.00  0.00     0.091 A 
ATOM     84  F   UNL A   1      46.761  24.476  33.540  1.00  0.00    -0.205 F 
ATOM     85  C   UNL A   1      44.280  23.971  36.158  1.00  0.00     0.022 A 
BRANCH  83  86
ATOM     86  S   UNL A   1      46.821  22.943  36.162  1.00  0.00     0.127 S 
ATOM     87  O   UNL A   1      46.191  22.398  37.366  1.00  0.00    -0.237 OA
ATOM     88  O   UNL A   1      47.066  21.969  35.103  1.00  0.00    -0.237 OA
ATOM     89  O   UNL A   1      47.908  23.876  36.431  1.00  0.00    -0.744 OA
ENDBRANCH  83  86
ENDBRANCH  55  79
BRANCH  67  90
ATOM     90  C   UNL A   1      45.574  28.648  28.410  1.00  0.00     0.023 A 
ATOM     91  C   UNL A   1      46.669  29.509  28.643  1.00  0.00     0.012 A 
ATOM     92  C   UNL A   1      45.802  27.408  27.797  1.00  0.00     0.148 A 
ATOM     93  C   UNL A   1      47.964  29.138  28.269  1.00  0.00     0.002 A 
ATOM     94  C   UNL A   1      47.094  27.028  27.456  1.00  0.00     0.091 A 
ATOM     95  F   UNL A   1      44.749  26.599  27.604  1.00  0.00    -0.205 F 
ATOM     96  C   UNL A   1      48.178  27.891  27.687  1.00  0.00     0.022 A 
BRANCH  94  97
ATOM     97  S   UNL A   1      47.456  25.398  26.804  1.00  0.00     0.127 S 
ATOM     98  O   UNL A   1      46.972  24.528  27.875  1.00  0.00    -0.237 OA
ATOM     99  O   UNL A   1      46.652  25.368  25.581  1.00  0.00    -0.237 OA
ATOM    100  O   UNL A   1      48.896  25.360  26.578  1.00  0.00    -0.744 OA
ENDBRANCH  94  97
ENDBRANCH  67  90
ENDBRANCH  41  42
ENDBRANCH  33  36
ENDBRANCH  31  32
ENDBRANCH   1  31
TORSDOF 17
ENDMDL
MODEL 2
REMARK VINA RESULT:     -12.2      3.512      7.169
REMARK SMILES CC(C)n1c2c(c3ccccc31)[C@@H](c1ccccc1)N(CC(=O)NCCCCNC(=O)c1ccc(-c3c4nc(c(-c5cccc(S(=O)(=O)[O-])c5F)c5ccc([nH]5)c(-c5cccc(S(=O)(=O)[O-])c5F)c5nc(c(-c6cccc(S(=O)(=O)[O-])c6F)c6ccc3[nH]6)C=C5)C=C4)cc1)C2=O
REMARK SMILES IDX 27 1 26 2 25 3 24 4 22 5 23 6 21 8 20 9 4 10 5 11 12 12 6 13
REMARK SMILES IDX 95 14 7 15 11 16 13 17 96 18 8 19 10 20 9 21 2 22 1 23 3 24
REMARK SMILES IDX 14 25 15 26 19 27 16 28 18 29 17 30 28 31 29 32 30 33 31 35
REMARK SMILES IDX 32 36 33 37 94 38 34 39 93 40 35 41 36 42 37 43 87 44 38 45
REMARK SMILES IDX 92 46 86 47 88 48 39 49 91 50 85 51 84 52 40 54 72 55 52 56
REMARK SMILES IDX 71 57 53 58 56 59 70 60 89 61 54 62 55 63 69 65 90 66 57 67
REMARK SMILES IDX 41 68 42 69 50 70 43 71 45 72 51 73 44 74 46 75 47 76 48 77
REMARK SMILES IDX 49 78 73 79 74 80 82 81 75 82 77 83 83 84 76 85 78 86 79 87
REMARK SMILES IDX 80 88 81 89 58 90 59 91 67 92 60 93 62 94 68 95 61 96 63 97
REMARK SMILES IDX 64 98 65 99 66 100
REMARK H PARENT 24 7 29 34 88 53 56 64
REMARK Flexibility Score: inf
ROOT
ATOM      1  C   UNL A   1      36.985  22.357  25.449  1.00  0.00     0.023 C 
ENDROOT
BRANCH   1   2
ATOM      2  C   UNL A   1      36.927  22.283  23.919  1.00  0.00     0.023 C 
BRANCH   2   3
ATOM      3  C   UNL A   1      35.938  23.251  23.270  1.00  0.00     0.116 C 
BRANCH   3   4
ATOM      4  N   UNL A   1      34.624  22.661  23.124  1.00  0.00    -0.355 N 
ATOM      5  C   UNL A   1      33.488  23.247  22.641  1.00  0.00     0.239 C 
ATOM      6  O   UNL A   1      32.450  22.582  22.597  1.00  0.00    -0.273 OA
ATOM      7  H   UNL A   1      34.538  21.722  23.406  1.00  0.00     0.163 HD
BRANCH   5   8
ATOM      8  C   UNL A   1      33.512  24.710  22.178  1.00  0.00     0.220 C 
BRANCH   8   9
ATOM      9  N   UNL A   1      32.821  25.578  23.114  1.00  0.00    -0.317 N 
ATOM     10  N   UNL A   1      31.032  28.566  23.978  1.00  0.00    -0.334 N 
ATOM     11  C   UNL A   1      31.664  27.384  23.732  1.00  0.00     0.114 A 
ATOM     12  C   UNL A   1      31.654  29.150  25.096  1.00  0.00     0.049 A 
ATOM     13  C   UNL A   1      32.647  27.189  24.671  1.00  0.00     0.018 A 
ATOM     14  C   UNL A   1      31.707  26.341  22.758  1.00  0.00     0.272 C 
ATOM     15  C   UNL A   1      32.697  28.305  25.515  1.00  0.00     0.006 A 
ATOM     16  C   UNL A   1      31.407  30.366  25.758  1.00  0.00     0.027 A 
ATOM     17  C   UNL A   1      33.386  25.923  24.441  1.00  0.00     0.150 C 
ATOM     18  O   UNL A   1      31.019  26.182  21.759  1.00  0.00    -0.267 OA
ATOM     19  C   UNL A   1      33.517  28.685  26.593  1.00  0.00     0.011 A 
ATOM     20  C   UNL A   1      32.234  30.723  26.829  1.00  0.00     0.002 A 
ATOM     21  C   UNL A   1      33.276  29.898  27.240  1.00  0.00     0.001 A 
BRANCH  10  22
ATOM     22  C   UNL A   1      29.923  29.198  23.258  1.00  0.00     0.082 C 
ATOM     23  C   UNL A   1      30.341  29.678  21.864  1.00  0.00     0.031 C 
ATOM     24  C   UNL A   1      28.636  28.379  23.147  1.00  0.00     0.031 C 
ENDBRANCH  10  22
BRANCH  17  25
ATOM     25  C   UNL A   1      32.990  24.889  25.490  1.00  0.00    -0.021 A 
ATOM     26  C   UNL A   1      34.018  24.233  26.196  1.00  0.00     0.006 A 
ATOM     27  C   UNL A   1      31.667  24.498  25.771  1.00  0.00     0.006 A 
ATOM     28  C   UNL A   1      33.738  23.200  27.096  1.00  0.00     0.000 A 
ATOM     29  C   UNL A   1      31.386  23.483  26.690  1.00  0.00     0.000 A 
ATOM     30  C   UNL A   1      32.422  22.824  27.339  1.00  0.00     0.000 A 
ENDBRANCH  17  25
ENDBRANCH   8   9
ENDBRANCH   5   8
ENDBRANCH   3   4
ENDBRANCH   2   3
ENDBRANCH   1   2
BRANCH   1  31
ATOM     31  C   UNL A   1      38.058  23.308  25.977  1.00  0.00     0.116 C 
BRANCH  31  32
ATOM     32  N   UNL A   1      39.139  22.631  26.663  1.00  0.00    -0.352 N 
ATOM     33  C   UNL A   1      40.114  23.014  27.538  1.00  0.00     0.251 C 
ATOM     34  H   UNL A   1      39.181  21.672  26.447  1.00  0.00     0.163 HD
ATOM     35  O   UNL A   1      40.791  22.102  28.020  1.00  0.00    -0.269 OA
BRANCH  33  36
ATOM     36  C   UNL A   1      40.461  24.421  27.851  1.00  0.00     0.039 A 
ATOM     37  C   UNL A   1      41.745  24.890  28.134  1.00  0.00     0.014 A 
ATOM     38  C   UNL A   1      39.372  25.302  27.976  1.00  0.00     0.014 A 
ATOM     39  C   UNL A   1      41.923  26.133  28.711  1.00  0.00     0.010 A 
ATOM     40  C   UNL A   1      39.547  26.564  28.511  1.00  0.00     0.010 A 
ATOM     41  C   UNL A   1      40.810  26.929  28.963  1.00  0.00    -0.014 A 
BRANCH  41  42
ATOM     42  C   UNL A   1      41.023  28.179  29.672  1.00  0.00     0.031 A 
ATOM     43  C   UNL A   1      42.017  29.089  29.030  1.00  0.00     0.074 A 
ATOM     44  C   UNL A   1      40.272  28.482  30.751  1.00  0.00     0.049 A 
ATOM     45  N   UNL A   1      43.088  29.609  29.542  1.00  0.00    -0.248 NA
ATOM     46  C   UNL A   1      41.868  29.337  27.584  1.00  0.00     0.031 C 
ATOM     47  C   UNL A   1      39.112  27.751  31.279  1.00  0.00     0.029 A 
ATOM     48  N   UNL A   1      40.280  29.610  31.506  1.00  0.00    -0.354 N 
ATOM     49  C   UNL A   1      43.633  30.411  28.538  1.00  0.00     0.074 A 
ATOM     50  C   UNL A   1      42.932  30.092  27.321  1.00  0.00     0.031 C 
ATOM     51  C   UNL A   1      38.368  28.593  32.030  1.00  0.00     0.029 A 
ATOM     52  C   UNL A   1      39.065  29.860  32.143  1.00  0.00     0.049 A 
ATOM     53  H   UNL A   1      41.067  30.194  31.594  1.00  0.00     0.167 HD
ATOM     54  C   UNL A   1      44.485  31.440  28.790  1.00  0.00     0.034 A 
ATOM     55  C   UNL A   1      38.639  31.067  32.597  1.00  0.00     0.034 A 
ATOM     56  C   UNL A   1      45.047  31.385  30.106  1.00  0.00     0.049 A 
ATOM     57  C   UNL A   1      39.848  31.919  32.726  1.00  0.00     0.074 A 
ATOM     58  C   UNL A   1      45.895  30.515  30.759  1.00  0.00     0.029 A 
ATOM     59  N   UNL A   1      44.419  32.113  31.086  1.00  0.00    -0.354 N 
ATOM     60  N   UNL A   1      40.825  31.667  33.552  1.00  0.00    -0.248 NA
ATOM     61  C   UNL A   1      40.177  32.786  31.605  1.00  0.00     0.031 C 
ATOM     62  C   UNL A   1      45.368  30.419  32.080  1.00  0.00     0.029 A 
ATOM     63  C   UNL A   1      44.276  31.284  32.169  1.00  0.00     0.049 A 
ATOM     64  H   UNL A   1      44.126  33.050  31.023  1.00  0.00     0.167 HD
ATOM     65  C   UNL A   1      41.973  31.971  32.834  1.00  0.00     0.074 A 
ATOM     66  C   UNL A   1      41.510  32.729  31.670  1.00  0.00     0.031 C 
ATOM     67  C   UNL A   1      43.154  31.333  33.078  1.00  0.00     0.034 A 
BRANCH  54  68
ATOM     68  C   UNL A   1      44.554  32.669  27.935  1.00  0.00     0.023 A 
ATOM     69  C   UNL A   1      45.649  32.850  27.069  1.00  0.00     0.012 A 
ATOM     70  C   UNL A   1      43.683  33.766  28.131  1.00  0.00     0.148 A 
ATOM     71  C   UNL A   1      45.855  34.070  26.411  1.00  0.00     0.002 A 
ATOM     72  C   UNL A   1      43.855  34.952  27.431  1.00  0.00     0.091 A 
ATOM     73  F   UNL A   1      42.748  33.691  29.088  1.00  0.00    -0.205 F 
ATOM     74  C   UNL A   1      44.950  35.114  26.579  1.00  0.00     0.022 A 
BRANCH  72  75
ATOM     75  S   UNL A   1      42.709  36.325  27.595  1.00  0.00     0.127 S 
ATOM     76  O   UNL A   1      43.032  36.815  28.933  1.00  0.00    -0.237 OA
ATOM     77  O   UNL A   1      43.131  37.196  26.498  1.00  0.00    -0.237 OA
ATOM     78  O   UNL A   1      41.383  35.747  27.428  1.00  0.00    -0.744 OA
ENDBRANCH  72  75
ENDBRANCH  54  68
BRANCH  55  79
ATOM     79  C   UNL A   1      37.273  31.660  32.550  1.00  0.00     0.023 A 
ATOM     80  C   UNL A   1      36.689  32.126  33.747  1.00  0.00     0.012 A 
ATOM     81  C   UNL A   1      36.670  32.046  31.331  1.00  0.00     0.148 A 
ATOM     82  C   UNL A   1      35.583  32.987  33.730  1.00  0.00     0.002 A 
ATOM     83  C   UNL A   1      35.561  32.891  31.320  1.00  0.00     0.091 A 
ATOM     84  F   UNL A   1      37.235  31.673  30.177  1.00  0.00    -0.205 F 
ATOM     85  C   UNL A   1      35.026  33.378  32.517  1.00  0.00     0.022 A 
BRANCH  83  86
ATOM     86  S   UNL A   1      34.795  33.439  29.786  1.00  0.00     0.127 S 
ATOM     87  O   UNL A   1      34.416  32.169  29.164  1.00  0.00    -0.237 OA
ATOM     88  O   UNL A   1      33.676  34.239  30.276  1.00  0.00    -0.237 OA
ATOM     89  O   UNL A   1      35.830  34.170  29.066  1.00  0.00    -0.744 OA
ENDBRANCH  83  86
ENDBRANCH  55  79
BRANCH  67  90
ATOM     90  C   UNL A   1      43.224  30.406  34.265  1.00  0.00     0.023 A 
ATOM     91  C   UNL A   1      43.488  30.873  35.572  1.00  0.00     0.012 A 
ATOM     92  C   UNL A   1      42.807  29.079  34.089  1.00  0.00     0.148 A 
ATOM     93  C   UNL A   1      43.341  30.029  36.678  1.00  0.00     0.002 A 
ATOM     94  C   UNL A   1      42.629  28.254  35.191  1.00  0.00     0.091 A 
ATOM     95  F   UNL A   1      42.543  28.665  32.840  1.00  0.00    -0.205 F 
ATOM     96  C   UNL A   1      42.898  28.723  36.488  1.00  0.00     0.022 A 
BRANCH  94  97
ATOM     97  S   UNL A   1      41.960  26.598  35.030  1.00  0.00     0.127 S 
ATOM     98  O   UNL A   1      41.794  26.201  36.428  1.00  0.00    -0.237 OA
ATOM     99  O   UNL A   1      40.709  26.838  34.309  1.00  0.00    -0.237 OA
ATOM    100  O   UNL A   1      42.948  25.831  34.281  1.00  0.00    -0.744 OA
ENDBRANCH  94  97
ENDBRANCH  67  90
ENDBRANCH  41  42
ENDBRANCH  33  36
ENDBRANCH  31  32
ENDBRANCH   1  31
TORSDOF 17
ENDMDL
MODEL 3
REMARK VINA RESULT:     -12.0      3.547      7.749
REMARK SMILES CC(C)n1c2c(c3ccccc31)[C@@H](c1ccccc1)N(CC(=O)NCCCCNC(=O)c1ccc(-c3c4nc(c(-c5cccc(S(=O)(=O)[O-])c5F)c5ccc([nH]5)c(-c5cccc(S(=O)(=O)[O-])c5F)c5nc(c(-c6cccc(S(=O)(=O)[O-])c6F)c6ccc3[nH]6)C=C5)C=C4)cc1)C2=O
REMARK SMILES IDX 27 1 26 2 25 3 24 4 22 5 23 6 21 8 20 9 4 10 5 11 12 12 6 13
REMARK SMILES IDX 95 14 7 15 11 16 13 17 96 18 8 19 10 20 9 21 2 22 1 23 3 24
REMARK SMILES IDX 14 25 15 26 19 27 16 28 18 29 17 30 28 31 29 32 30 33 31 35
REMARK SMILES IDX 32 36 33 37 94 38 34 39 93 40 35 41 36 42 37 43 87 44 38 45
REMARK SMILES IDX 92 46 86 47 88 48 39 49 91 50 85 51 84 52 40 54 72 55 52 56
REMARK SMILES IDX 71 57 53 58 56 59 70 60 89 61 54 62 55 63 69 65 90 66 57 67
REMARK SMILES IDX 41 68 42 69 50 70 43 71 45 72 51 73 44 74 46 75 47 76 48 77
REMARK SMILES IDX 49 78 73 79 74 80 82 81 75 82 77 83 83 84 76 85 78 86 79 87
REMARK SMILES IDX 80 88 81 89 58 90 59 91 67 92 60 93 62 94 68 95 61 96 63 97
REMARK SMILES IDX 64 98 65 99 66 100
REMARK H PARENT 24 7 29 34 88 53 56 64
REMARK Flexibility Score: inf
ROOT
ATOM      1  C   UNL A   1      37.550  23.055  25.147  1.00  0.00     0.023 C 
ENDROOT
BRANCH   1   2
ATOM      2  C   UNL A   1      36.699  22.214  24.187  1.00  0.00     0.023 C 
BRANCH   2   3
ATOM      3  C   UNL A   1      35.954  23.018  23.123  1.00  0.00     0.116 C 
BRANCH   3   4
ATOM      4  N   UNL A   1      34.583  22.577  22.975  1.00  0.00    -0.355 N 
ATOM      5  C   UNL A   1      33.502  23.310  22.574  1.00  0.00     0.239 C 
ATOM      6  O   UNL A   1      32.400  22.759  22.513  1.00  0.00    -0.273 OA
ATOM      7  H   UNL A   1      34.407  21.633  23.190  1.00  0.00     0.163 HD
BRANCH   5   8
ATOM      8  C   UNL A   1      33.667  24.794  22.219  1.00  0.00     0.220 C 
BRANCH   8   9
ATOM      9  N   UNL A   1      32.976  25.650  23.166  1.00  0.00    -0.317 N 
ATOM     10  N   UNL A   1      31.132  28.596  24.057  1.00  0.00    -0.334 N 
ATOM     11  C   UNL A   1      31.788  27.430  23.802  1.00  0.00     0.114 A 
ATOM     12  C   UNL A   1      31.765  29.202  25.157  1.00  0.00     0.049 A 
ATOM     13  C   UNL A   1      32.797  27.264  24.719  1.00  0.00     0.018 A 
ATOM     14  C   UNL A   1      31.835  26.383  22.832  1.00  0.00     0.272 C 
ATOM     15  C   UNL A   1      32.838  28.386  25.556  1.00  0.00     0.006 A 
ATOM     16  C   UNL A   1      31.502  30.415  25.819  1.00  0.00     0.027 A 
ATOM     17  C   UNL A   1      33.562  26.016  24.478  1.00  0.00     0.150 C 
ATOM     18  O   UNL A   1      31.128  26.201  21.850  1.00  0.00    -0.267 OA
ATOM     19  C   UNL A   1      33.672  28.792  26.613  1.00  0.00     0.011 A 
ATOM     20  C   UNL A   1      32.344  30.799  26.868  1.00  0.00     0.002 A 
ATOM     21  C   UNL A   1      33.416  30.002  27.259  1.00  0.00     0.001 A 
BRANCH  10  22
ATOM     22  C   UNL A   1      29.991  29.196  23.360  1.00  0.00     0.082 C 
ATOM     23  C   UNL A   1      30.375  29.720  21.972  1.00  0.00     0.031 C 
ATOM     24  C   UNL A   1      28.738  28.327  23.244  1.00  0.00     0.031 C 
ENDBRANCH  10  22
BRANCH  17  25
ATOM     25  C   UNL A   1      33.217  24.978  25.541  1.00  0.00    -0.021 A 
ATOM     26  C   UNL A   1      34.273  24.253  26.127  1.00  0.00     0.006 A 
ATOM     27  C   UNL A   1      31.908  24.649  25.946  1.00  0.00     0.006 A 
ATOM     28  C   UNL A   1      34.028  23.214  27.030  1.00  0.00     0.000 A 
ATOM     29  C   UNL A   1      31.666  23.628  26.868  1.00  0.00     0.000 A 
ATOM     30  C   UNL A   1      32.724  22.900  27.397  1.00  0.00     0.000 A 
ENDBRANCH  17  25
ENDBRANCH   8   9
ENDBRANCH   5   8
ENDBRANCH   3   4
ENDBRANCH   2   3
ENDBRANCH   1   2
BRANCH   1  31
ATOM     31  C   UNL A   1      38.336  22.223  26.158  1.00  0.00     0.116 C 
BRANCH  31  32
ATOM     32  N   UNL A   1      39.764  22.215  25.911  1.00  0.00    -0.352 N 
ATOM     33  C   UNL A   1      40.828  22.924  26.387  1.00  0.00     0.251 C 
ATOM     34  H   UNL A   1      40.027  21.542  25.242  1.00  0.00     0.163 HD
ATOM     35  O   UNL A   1      41.940  22.532  26.025  1.00  0.00    -0.269 OA
BRANCH  33  36
ATOM     36  C   UNL A   1      40.722  24.158  27.203  1.00  0.00     0.039 A 
ATOM     37  C   UNL A   1      39.889  25.241  26.920  1.00  0.00     0.014 A 
ATOM     38  C   UNL A   1      41.629  24.258  28.272  1.00  0.00     0.014 A 
ATOM     39  C   UNL A   1      40.085  26.455  27.551  1.00  0.00     0.010 A 
ATOM     40  C   UNL A   1      41.801  25.457  28.938  1.00  0.00     0.010 A 
ATOM     41  C   UNL A   1      41.091  26.570  28.503  1.00  0.00    -0.014 A 
BRANCH  41  42
ATOM     42  C   UNL A   1      41.342  27.888  29.062  1.00  0.00     0.031 A 
ATOM     43  C   UNL A   1      42.634  28.501  28.637  1.00  0.00     0.074 A 
ATOM     44  C   UNL A   1      40.396  28.498  29.805  1.00  0.00     0.049 A 
ATOM     45  N   UNL A   1      43.602  28.945  29.376  1.00  0.00    -0.248 NA
ATOM     46  C   UNL A   1      42.944  28.488  27.195  1.00  0.00     0.031 C 
ATOM     47  C   UNL A   1      39.015  28.062  30.047  1.00  0.00     0.029 A 
ATOM     48  N   UNL A   1      40.417  29.737  30.362  1.00  0.00    -0.354 N 
ATOM     49  C   UNL A   1      44.551  29.451  28.487  1.00  0.00     0.074 A 
ATOM     50  C   UNL A   1      44.168  29.013  27.170  1.00  0.00     0.031 C 
ATOM     51  C   UNL A   1      38.273  29.132  30.409  1.00  0.00     0.029 A 
ATOM     52  C   UNL A   1      39.148  30.280  30.553  1.00  0.00     0.049 A 
ATOM     53  H   UNL A   1      41.247  30.204  30.606  1.00  0.00     0.167 HD
ATOM     54  C   UNL A   1      45.486  30.372  28.843  1.00  0.00     0.034 A 
ATOM     55  C   UNL A   1      38.859  31.601  30.683  1.00  0.00     0.034 A 
ATOM     56  C   UNL A   1      45.638  30.487  30.262  1.00  0.00     0.049 A 
ATOM     57  C   UNL A   1      40.129  32.275  31.057  1.00  0.00     0.074 A 
ATOM     58  C   UNL A   1      46.082  29.643  31.258  1.00  0.00     0.029 A 
ATOM     59  N   UNL A   1      44.919  31.474  30.891  1.00  0.00    -0.354 N 
ATOM     60  N   UNL A   1      40.768  32.044  32.170  1.00  0.00    -0.248 NA
ATOM     61  C   UNL A   1      40.921  32.853  29.983  1.00  0.00     0.031 C 
ATOM     62  C   UNL A   1      45.201  29.881  32.353  1.00  0.00     0.029 A 
ATOM     63  C   UNL A   1      44.320  30.898  31.981  1.00  0.00     0.049 A 
ATOM     64  H   UNL A   1      44.847  32.414  30.611  1.00  0.00     0.167 HD
ATOM     65  C   UNL A   1      42.107  32.032  31.804  1.00  0.00     0.074 A 
ATOM     66  C   UNL A   1      42.144  32.613  30.461  1.00  0.00     0.031 C 
ATOM     67  C   UNL A   1      43.023  31.285  32.486  1.00  0.00     0.034 A 
BRANCH  54  68
ATOM     68  C   UNL A   1      46.031  31.391  27.888  1.00  0.00     0.023 A 
ATOM     69  C   UNL A   1      47.404  31.386  27.580  1.00  0.00     0.012 A 
ATOM     70  C   UNL A   1      45.265  32.502  27.463  1.00  0.00     0.148 A 
ATOM     71  C   UNL A   1      47.986  32.439  26.860  1.00  0.00     0.002 A 
ATOM     72  C   UNL A   1      45.832  33.511  26.698  1.00  0.00     0.091 A 
ATOM     73  F   UNL A   1      44.006  32.630  27.901  1.00  0.00    -0.205 F 
ATOM     74  C   UNL A   1      47.198  33.492  26.406  1.00  0.00     0.022 A 
BRANCH  72  75
ATOM     75  S   UNL A   1      44.860  34.884  26.071  1.00  0.00     0.127 S 
ATOM     76  O   UNL A   1      43.912  34.196  25.198  1.00  0.00    -0.237 OA
ATOM     77  O   UNL A   1      44.286  35.428  27.302  1.00  0.00    -0.237 OA
ATOM     78  O   UNL A   1      45.812  35.767  25.411  1.00  0.00    -0.744 OA
ENDBRANCH  72  75
ENDBRANCH  54  68
BRANCH  55  79
ATOM     79  C   UNL A   1      37.706  32.369  30.136  1.00  0.00     0.023 A 
ATOM     80  C   UNL A   1      37.362  32.210  28.776  1.00  0.00     0.012 A 
ATOM     81  C   UNL A   1      36.769  33.008  30.979  1.00  0.00     0.148 A 
ATOM     82  C   UNL A   1      36.115  32.621  28.288  1.00  0.00     0.002 A 
ATOM     83  C   UNL A   1      35.535  33.428  30.486  1.00  0.00     0.091 A 
ATOM     84  F   UNL A   1      37.037  33.119  32.286  1.00  0.00    -0.205 F 
ATOM     85  C   UNL A   1      35.197  33.220  29.145  1.00  0.00     0.022 A 
BRANCH  83  86
ATOM     86  S   UNL A   1      34.299  34.205  31.540  1.00  0.00     0.127 S 
ATOM     87  O   UNL A   1      33.283  34.613  30.568  1.00  0.00    -0.237 OA
ATOM     88  O   UNL A   1      33.906  33.101  32.410  1.00  0.00    -0.237 OA
ATOM     89  O   UNL A   1      34.979  35.317  32.193  1.00  0.00    -0.744 OA
ENDBRANCH  83  86
ENDBRANCH  55  79
BRANCH  67  90
ATOM     90  C   UNL A   1      42.576  30.602  33.754  1.00  0.00     0.023 A 
ATOM     91  C   UNL A   1      42.059  29.288  33.761  1.00  0.00     0.012 A 
ATOM     92  C   UNL A   1      42.881  31.220  34.975  1.00  0.00     0.148 A 
ATOM     93  C   UNL A   1      41.850  28.606  34.964  1.00  0.00     0.002 A 
ATOM     94  C   UNL A   1      42.704  30.529  36.167  1.00  0.00     0.091 A 
ATOM     95  F   UNL A   1      43.389  32.462  34.942  1.00  0.00    -0.205 F 
ATOM     96  C   UNL A   1      42.185  29.223  36.167  1.00  0.00     0.022 A 
BRANCH  94  97
ATOM     97  S   UNL A   1      43.213  31.219  37.740  1.00  0.00     0.127 S 
ATOM     98  O   UNL A   1      41.931  31.578  38.344  1.00  0.00    -0.237 OA
ATOM     99  O   UNL A   1      43.890  30.085  38.371  1.00  0.00    -0.237 OA
ATOM    100  O   UNL A   1      44.089  32.343  37.429  1.00  0.00    -0.744 OA
ENDBRANCH  94  97
ENDBRANCH  67  90
ENDBRANCH  41  42
ENDBRANCH  33  36
ENDBRANCH  31  32
ENDBRANCH   1  31
TORSDOF 17
ENDMDL
