MODEL 1
REMARK VINA RESULT:     -12.2      0.000      0.000
REMARK SMILES CC[C@@H]1CC[C@](C[C@@H]2CCCc3ccccc32)(C(=O)NCCCCNC(=O)c2ccc(-c3c4nc(c(-c5cccc(S(=O)(=O)[O-])c5F)c5ccc([nH]5)c(-c5cccc(S(=O)(=O)[O-])c5F)c5nc(c(-c6cccc(S(=O)(=O)[O-])c6F)c6ccc3[nH]6)C=C5)C=C4)cc2)C1
REMARK SMILES IDX 23 1 22 2 21 3 20 4 18 5 19 6 6 8 3 9 4 10 91 11 5 12 2 13
REMARK SMILES IDX 1 14 7 15 8 16 9 17 17 18 10 19 12 20 16 21 11 22 13 23
REMARK SMILES IDX 15 24 14 25 24 26 25 27 26 28 27 30 28 31 29 32 90 33 30 34
REMARK SMILES IDX 89 35 31 36 32 37 33 38 83 39 34 40 88 41 82 42 84 43 35 44
REMARK SMILES IDX 87 45 81 46 80 47 36 49 68 50 48 51 67 52 49 53 52 54 66 55
REMARK SMILES IDX 85 56 50 57 51 58 65 60 86 61 53 62 37 63 38 64 46 65 39 66
REMARK SMILES IDX 41 67 47 68 40 69 42 70 43 71 44 72 45 73 69 74 70 75 78 76
REMARK SMILES IDX 71 77 73 78 79 79 72 80 74 81 75 82 76 83 77 84 54 85 55 86
REMARK SMILES IDX 63 87 56 88 58 89 64 90 57 91 59 92 60 93 61 94 62 95
REMARK H PARENT 20 7 25 29 84 48 52 59
REMARK Flexibility Score: inf
ROOT
ATOM      1  C   UNL A   1      33.425  28.190  25.188  1.00  0.00     0.023 C 
ENDROOT
BRANCH   1   2
ATOM      2  C   UNL A   1      33.576  28.611  23.721  1.00  0.00     0.023 C 
BRANCH   2   3
ATOM      3  C   UNL A   1      32.441  28.157  22.809  1.00  0.00     0.116 C 
BRANCH   3   4
ATOM      4  N   UNL A   1      32.875  27.277  21.739  1.00  0.00    -0.356 N 
ATOM      5  C   UNL A   1      33.021  25.932  21.601  1.00  0.00     0.226 C 
ATOM      6  O   UNL A   1      33.240  25.566  20.438  1.00  0.00    -0.274 OA
ATOM      7  H   UNL A   1      33.120  27.768  20.922  1.00  0.00     0.163 HD
BRANCH   5   8
ATOM      8  C   UNL A   1      33.088  24.900  22.778  1.00  0.00     0.050 C 
ATOM      9  C   UNL A   1      32.442  22.572  23.004  1.00  0.00    -0.010 C 
ATOM     10  C   UNL A   1      31.258  23.389  23.507  1.00  0.00     0.005 C 
ATOM     11  C   UNL A   1      33.181  23.516  22.076  1.00  0.00     0.020 C 
ATOM     12  C   UNL A   1      31.702  24.848  23.475  1.00  0.00     0.017 C 
BRANCH   9  13
ATOM     13  C   UNL A   1      32.063  21.202  22.450  1.00  0.00     0.000 C 
ATOM     14  C   UNL A   1      32.409  20.103  23.455  1.00  0.00     0.004 C 
ENDBRANCH   9  13
BRANCH   8  15
ATOM     15  C   UNL A   1      34.232  25.202  23.792  1.00  0.00     0.025 C 
BRANCH  15  16
ATOM     16  C   UNL A   1      35.025  24.235  24.744  1.00  0.00     0.020 C 
ATOM     17  C   UNL A   1      36.257  23.540  24.128  1.00  0.00     0.009 C 
ATOM     18  C   UNL A   1      34.271  23.405  25.776  1.00  0.00    -0.042 A 
ATOM     19  C   UNL A   1      36.193  22.013  24.117  1.00  0.00     0.005 C 
ATOM     20  C   UNL A   1      34.668  22.094  26.104  1.00  0.00    -0.045 A 
ATOM     21  C   UNL A   1      33.240  23.993  26.535  1.00  0.00     0.004 A 
ATOM     22  C   UNL A   1      35.878  21.448  25.485  1.00  0.00     0.036 C 
ATOM     23  C   UNL A   1      34.001  21.389  27.121  1.00  0.00     0.004 A 
ATOM     24  C   UNL A   1      32.598  23.289  27.556  1.00  0.00     0.000 A 
ATOM     25  C   UNL A   1      32.970  21.982  27.842  1.00  0.00     0.000 A 
ENDBRANCH  15  16
ENDBRANCH   8  15
ENDBRANCH   5   8
ENDBRANCH   3   4
ENDBRANCH   2   3
ENDBRANCH   1   2
BRANCH   1  26
ATOM     26  C   UNL A   1      34.387  28.854  26.173  1.00  0.00     0.116 C 
BRANCH  26  27
ATOM     27  N   UNL A   1      33.910  30.121  26.706  1.00  0.00    -0.352 N 
ATOM     28  C   UNL A   1      34.486  30.904  27.681  1.00  0.00     0.251 C 
ATOM     29  H   UNL A   1      33.070  30.461  26.321  1.00  0.00     0.163 HD
ATOM     30  O   UNL A   1      33.912  31.907  28.085  1.00  0.00    -0.269 OA
BRANCH  28  31
ATOM     31  C   UNL A   1      35.783  30.497  28.267  1.00  0.00     0.039 A 
ATOM     32  C   UNL A   1      35.780  29.664  29.389  1.00  0.00     0.014 A 
ATOM     33  C   UNL A   1      36.990  30.909  27.699  1.00  0.00     0.014 A 
ATOM     34  C   UNL A   1      36.990  29.194  29.902  1.00  0.00     0.010 A 
ATOM     35  C   UNL A   1      38.191  30.386  28.170  1.00  0.00     0.010 A 
ATOM     36  C   UNL A   1      38.205  29.526  29.279  1.00  0.00    -0.014 A 
BRANCH  36  37
ATOM     37  C   UNL A   1      39.492  28.971  29.767  1.00  0.00     0.031 A 
ATOM     38  C   UNL A   1      40.222  29.626  30.908  1.00  0.00     0.074 A 
ATOM     39  C   UNL A   1      40.048  27.923  29.127  1.00  0.00     0.049 A 
ATOM     40  N   UNL A   1      41.357  29.287  31.462  1.00  0.00    -0.248 NA
ATOM     41  C   UNL A   1      39.617  30.840  31.483  1.00  0.00     0.031 C 
ATOM     42  C   UNL A   1      39.495  27.267  27.940  1.00  0.00     0.029 A 
ATOM     43  N   UNL A   1      41.216  27.243  29.366  1.00  0.00    -0.354 N 
ATOM     44  C   UNL A   1      41.620  30.260  32.418  1.00  0.00     0.074 A 
ATOM     45  C   UNL A   1      40.543  31.222  32.350  1.00  0.00     0.031 C 
ATOM     46  C   UNL A   1      40.321  26.280  27.556  1.00  0.00     0.029 A 
ATOM     47  C   UNL A   1      41.467  26.239  28.458  1.00  0.00     0.049 A 
ATOM     48  H   UNL A   1      41.818  27.452  30.117  1.00  0.00     0.167 HD
ATOM     49  C   UNL A   1      42.648  30.329  33.297  1.00  0.00     0.034 A 
ATOM     50  C   UNL A   1      42.502  25.381  28.366  1.00  0.00     0.034 A 
ATOM     51  C   UNL A   1      43.681  29.336  33.406  1.00  0.00     0.049 A 
ATOM     52  C   UNL A   1      43.584  25.426  29.412  1.00  0.00     0.074 A 
ATOM     53  C   UNL A   1      44.693  29.246  34.346  1.00  0.00     0.029 A 
ATOM     54  N   UNL A   1      43.842  28.264  32.542  1.00  0.00    -0.354 N 
ATOM     55  N   UNL A   1      43.703  26.230  30.440  1.00  0.00    -0.248 NA
ATOM     56  C   UNL A   1      44.648  24.416  29.314  1.00  0.00     0.031 C 
ATOM     57  C   UNL A   1      45.475  28.128  34.041  1.00  0.00     0.029 A 
ATOM     58  C   UNL A   1      44.941  27.512  32.920  1.00  0.00     0.049 A 
ATOM     59  H   UNL A   1      43.260  28.066  31.775  1.00  0.00     0.167 HD
ATOM     60  C   UNL A   1      44.836  25.808  31.127  1.00  0.00     0.074 A 
ATOM     61  C   UNL A   1      45.351  24.658  30.413  1.00  0.00     0.031 C 
ATOM     62  C   UNL A   1      45.411  26.337  32.235  1.00  0.00     0.034 A 
BRANCH  49  63
ATOM     63  C   UNL A   1      42.670  31.484  34.264  1.00  0.00     0.023 A 
ATOM     64  C   UNL A   1      43.395  32.647  33.936  1.00  0.00     0.012 A 
ATOM     65  C   UNL A   1      41.921  31.449  35.455  1.00  0.00     0.148 A 
ATOM     66  C   UNL A   1      43.401  33.746  34.793  1.00  0.00     0.002 A 
ATOM     67  C   UNL A   1      41.898  32.564  36.285  1.00  0.00     0.091 A 
ATOM     68  F   UNL A   1      41.255  30.326  35.760  1.00  0.00    -0.205 F 
ATOM     69  C   UNL A   1      42.644  33.708  35.961  1.00  0.00     0.022 A 
BRANCH  67  70
ATOM     70  S   UNL A   1      40.895  32.645  37.774  1.00  0.00     0.127 S 
ATOM     71  O   UNL A   1      39.662  31.992  37.335  1.00  0.00    -0.237 OA
ATOM     72  O   UNL A   1      41.691  31.867  38.724  1.00  0.00    -0.237 OA
ATOM     73  O   UNL A   1      40.773  34.058  38.099  1.00  0.00    -0.744 OA
ENDBRANCH  67  70
ENDBRANCH  49  63
BRANCH  50  74
ATOM     74  C   UNL A   1      42.522  24.352  27.288  1.00  0.00     0.023 A 
ATOM     75  C   UNL A   1      43.235  24.610  26.100  1.00  0.00     0.012 A 
ATOM     76  C   UNL A   1      41.870  23.114  27.442  1.00  0.00     0.148 A 
ATOM     77  C   UNL A   1      43.267  23.668  25.070  1.00  0.00     0.002 A 
ATOM     78  C   UNL A   1      41.951  22.159  26.434  1.00  0.00     0.091 A 
ATOM     79  F   UNL A   1      41.185  22.893  28.572  1.00  0.00    -0.205 F 
ATOM     80  C   UNL A   1      42.635  22.439  25.242  1.00  0.00     0.022 A 
BRANCH  78  81
ATOM     81  S   UNL A   1      41.281  20.504  26.632  1.00  0.00     0.127 S 
ATOM     82  O   UNL A   1      41.937  20.059  27.858  1.00  0.00    -0.237 OA
ATOM     83  O   UNL A   1      39.847  20.768  26.762  1.00  0.00    -0.237 OA
ATOM     84  O   UNL A   1      41.647  19.790  25.416  1.00  0.00    -0.744 OA
ENDBRANCH  78  81
ENDBRANCH  50  74
BRANCH  62  85
ATOM     85  C   UNL A   1      46.653  25.671  32.763  1.00  0.00     0.023 A 
ATOM     86  C   UNL A   1      47.918  26.126  32.344  1.00  0.00     0.012 A 
ATOM     87  C   UNL A   1      46.570  24.650  33.729  1.00  0.00     0.148 A 
ATOM     88  C   UNL A   1      49.083  25.556  32.857  1.00  0.00     0.002 A 
ATOM     89  C   UNL A   1      47.735  24.118  34.270  1.00  0.00     0.091 A 
ATOM     90  F   UNL A   1      45.356  24.215  34.100  1.00  0.00    -0.205 F 
ATOM     91  C   UNL A   1      48.991  24.561  33.828  1.00  0.00     0.022 A 
BRANCH  89  92
ATOM     92  S   UNL A   1      47.707  22.902  35.594  1.00  0.00     0.127 S 
ATOM     93  O   UNL A   1      47.029  21.778  34.952  1.00  0.00    -0.237 OA
ATOM     94  O   UNL A   1      49.131  22.687  35.852  1.00  0.00    -0.237 OA
ATOM     95  O   UNL A   1      46.986  23.528  36.693  1.00  0.00    -0.744 OA
ENDBRANCH  89  92
ENDBRANCH  62  85
ENDBRANCH  36  37
ENDBRANCH  28  31
ENDBRANCH  26  27
ENDBRANCH   1  26
TORSDOF 17
ENDMDL
MODEL 2
REMARK VINA RESULT:     -12.1      1.915      2.532
REMARK SMILES CC[C@@H]1CC[C@](C[C@@H]2CCCc3ccccc32)(C(=O)NCCCCNC(=O)c2ccc(-c3c4nc(c(-c5cccc(S(=O)(=O)[O-])c5F)c5ccc([nH]5)c(-c5cccc(S(=O)(=O)[O-])c5F)c5nc(c(-c6cccc(S(=O)(=O)[O-])c6F)c6ccc3[nH]6)C=C5)C=C4)cc2)C1
REMARK SMILES IDX 23 1 22 2 21 3 20 4 18 5 19 6 6 8 3 9 4 10 91 11 5 12 2 13
REMARK SMILES IDX 1 14 7 15 8 16 9 17 17 18 10 19 12 20 16 21 11 22 13 23
REMARK SMILES IDX 15 24 14 25 24 26 25 27 26 28 27 30 28 31 29 32 90 33 30 34
REMARK SMILES IDX 89 35 31 36 32 37 33 38 83 39 34 40 88 41 82 42 84 43 35 44
REMARK SMILES IDX 87 45 81 46 80 47 36 49 68 50 48 51 67 52 49 53 52 54 66 55
REMARK SMILES IDX 85 56 50 57 51 58 65 60 86 61 53 62 37 63 38 64 46 65 39 66
REMARK SMILES IDX 41 67 47 68 40 69 42 70 43 71 44 72 45 73 69 74 70 75 78 76
REMARK SMILES IDX 71 77 73 78 79 79 72 80 74 81 75 82 76 83 77 84 54 85 55 86
REMARK SMILES IDX 63 87 56 88 58 89 64 90 57 91 59 92 60 93 61 94 62 95
REMARK H PARENT 20 7 25 29 84 48 52 59
REMARK Flexibility Score: inf
ROOT
ATOM      1  C   UNL A   1      31.932  28.934  24.880  1.00  0.00     0.023 C 
ENDROOT
BRANCH   1   2
ATOM      2  C   UNL A   1      32.435  28.707  23.450  1.00  0.00     0.023 C 
BRANCH   2   3
ATOM      3  C   UNL A   1      31.531  27.832  22.588  1.00  0.00     0.116 C 
BRANCH   3   4
ATOM      4  N   UNL A   1      32.249  27.071  21.582  1.00  0.00    -0.356 N 
ATOM      5  C   UNL A   1      32.700  25.792  21.485  1.00  0.00     0.226 C 
ATOM      6  O   UNL A   1      33.106  25.486  20.355  1.00  0.00    -0.274 OA
ATOM      7  H   UNL A   1      32.459  27.606  20.783  1.00  0.00     0.163 HD
BRANCH   5   8
ATOM      8  C   UNL A   1      32.878  24.798  22.683  1.00  0.00     0.050 C 
ATOM      9  C   UNL A   1      32.411  22.436  22.982  1.00  0.00    -0.010 C 
ATOM     10  C   UNL A   1      31.186  23.176  23.503  1.00  0.00     0.005 C 
ATOM     11  C   UNL A   1      33.052  23.407  22.011  1.00  0.00     0.020 C 
ATOM     12  C   UNL A   1      31.520  24.663  23.423  1.00  0.00     0.017 C 
BRANCH   9  13
ATOM     13  C   UNL A   1      32.119  21.028  22.473  1.00  0.00     0.000 C 
ATOM     14  C   UNL A   1      32.470  19.988  23.537  1.00  0.00     0.004 C 
ENDBRANCH   9  13
BRANCH   8  15
ATOM     15  C   UNL A   1      34.025  25.208  23.654  1.00  0.00     0.025 C 
BRANCH  15  16
ATOM     16  C   UNL A   1      34.914  24.326  24.603  1.00  0.00     0.020 C 
ATOM     17  C   UNL A   1      36.178  23.712  23.967  1.00  0.00     0.009 C 
ATOM     18  C   UNL A   1      34.253  23.467  25.674  1.00  0.00    -0.042 A 
ATOM     19  C   UNL A   1      36.230  22.185  23.990  1.00  0.00     0.005 C 
ATOM     20  C   UNL A   1      34.758  22.197  26.018  1.00  0.00    -0.045 A 
ATOM     21  C   UNL A   1      33.202  23.993  26.450  1.00  0.00     0.004 A 
ATOM     22  C   UNL A   1      35.997  21.630  25.379  1.00  0.00     0.036 C 
ATOM     23  C   UNL A   1      34.174  21.468  27.069  1.00  0.00     0.004 A 
ATOM     24  C   UNL A   1      32.643  23.267  27.504  1.00  0.00     0.000 A 
ATOM     25  C   UNL A   1      33.120  21.999  27.806  1.00  0.00     0.000 A 
ENDBRANCH  15  16
ENDBRANCH   8  15
ENDBRANCH   5   8
ENDBRANCH   3   4
ENDBRANCH   2   3
ENDBRANCH   1   2
BRANCH   1  26
ATOM     26  C   UNL A   1      32.938  29.555  25.850  1.00  0.00     0.116 C 
BRANCH  26  27
ATOM     27  N   UNL A   1      32.603  30.907  26.268  1.00  0.00    -0.352 N 
ATOM     28  C   UNL A   1      33.281  31.717  27.151  1.00  0.00     0.251 C 
ATOM     29  H   UNL A   1      31.789  31.291  25.868  1.00  0.00     0.163 HD
ATOM     30  O   UNL A   1      32.819  32.805  27.468  1.00  0.00    -0.269 OA
BRANCH  28  31
ATOM     31  C   UNL A   1      34.548  31.239  27.748  1.00  0.00     0.039 A 
ATOM     32  C   UNL A   1      35.597  32.146  27.914  1.00  0.00     0.014 A 
ATOM     33  C   UNL A   1      34.690  29.914  28.167  1.00  0.00     0.014 A 
ATOM     34  C   UNL A   1      36.767  31.739  28.557  1.00  0.00     0.010 A 
ATOM     35  C   UNL A   1      35.829  29.528  28.867  1.00  0.00     0.010 A 
ATOM     36  C   UNL A   1      36.882  30.435  29.067  1.00  0.00    -0.014 A 
BRANCH  36  37
ATOM     37  C   UNL A   1      38.088  30.012  29.821  1.00  0.00     0.031 A 
ATOM     38  C   UNL A   1      38.334  30.521  31.215  1.00  0.00     0.074 A 
ATOM     39  C   UNL A   1      39.008  29.233  29.217  1.00  0.00     0.049 A 
ATOM     40  N   UNL A   1      39.333  30.266  32.020  1.00  0.00    -0.248 NA
ATOM     41  C   UNL A   1      37.348  31.464  31.768  1.00  0.00     0.031 C 
ATOM     42  C   UNL A   1      38.940  28.762  27.832  1.00  0.00     0.029 A 
ATOM     43  N   UNL A   1      40.195  28.722  29.681  1.00  0.00    -0.354 N 
ATOM     44  C   UNL A   1      39.118  31.041  33.152  1.00  0.00     0.074 A 
ATOM     45  C   UNL A   1      37.910  31.802  32.920  1.00  0.00     0.031 C 
ATOM     46  C   UNL A   1      40.035  28.032  27.560  1.00  0.00     0.029 A 
ATOM     47  C   UNL A   1      40.888  27.992  28.743  1.00  0.00     0.049 A 
ATOM     48  H   UNL A   1      40.520  28.864  30.600  1.00  0.00     0.167 HD
ATOM     49  C   UNL A   1      39.841  31.092  34.296  1.00  0.00     0.034 A 
ATOM     50  C   UNL A   1      42.074  27.359  28.828  1.00  0.00     0.034 A 
ATOM     51  C   UNL A   1      41.004  30.285  34.548  1.00  0.00     0.049 A 
ATOM     52  C   UNL A   1      42.810  27.359  30.141  1.00  0.00     0.074 A 
ATOM     53  C   UNL A   1      41.731  30.167  35.720  1.00  0.00     0.029 A 
ATOM     54  N   UNL A   1      41.615  29.465  33.614  1.00  0.00    -0.354 N 
ATOM     55  N   UNL A   1      42.478  27.933  31.271  1.00  0.00    -0.248 NA
ATOM     56  C   UNL A   1      44.059  26.586  30.205  1.00  0.00     0.031 C 
ATOM     57  C   UNL A   1      42.793  29.286  35.488  1.00  0.00     0.029 A 
ATOM     58  C   UNL A   1      42.717  28.844  34.177  1.00  0.00     0.049 A 
ATOM     59  H   UNL A   1      41.310  29.341  32.687  1.00  0.00     0.167 HD
ATOM     60  C   UNL A   1      43.459  27.570  32.188  1.00  0.00     0.074 A 
ATOM     61  C   UNL A   1      44.382  26.701  31.486  1.00  0.00     0.031 C 
ATOM     62  C   UNL A   1      43.595  27.938  33.485  1.00  0.00     0.034 A 
BRANCH  49  63
ATOM     63  C   UNL A   1      39.356  32.000  35.395  1.00  0.00     0.023 A 
ATOM     64  C   UNL A   1      38.461  31.500  36.361  1.00  0.00     0.012 A 
ATOM     65  C   UNL A   1      39.836  33.319  35.514  1.00  0.00     0.148 A 
ATOM     66  C   UNL A   1      38.025  32.307  37.412  1.00  0.00     0.002 A 
ATOM     67  C   UNL A   1      39.431  34.104  36.586  1.00  0.00     0.091 A 
ATOM     68  F   UNL A   1      40.671  33.782  34.572  1.00  0.00    -0.205 F 
ATOM     69  C   UNL A   1      38.519  33.603  37.530  1.00  0.00     0.022 A 
BRANCH  67  70
ATOM     70  S   UNL A   1      40.066  35.760  36.871  1.00  0.00     0.127 S 
ATOM     71  O   UNL A   1      39.388  36.126  38.114  1.00  0.00    -0.237 OA
ATOM     72  O   UNL A   1      41.503  35.519  37.009  1.00  0.00    -0.237 OA
ATOM     73  O   UNL A   1      39.691  36.541  35.701  1.00  0.00    -0.744 OA
ENDBRANCH  67  70
ENDBRANCH  49  63
BRANCH  50  74
ATOM     74  C   UNL A   1      42.600  26.602  27.656  1.00  0.00     0.023 A 
ATOM     75  C   UNL A   1      43.492  27.236  26.769  1.00  0.00     0.012 A 
ATOM     76  C   UNL A   1      42.248  25.258  27.432  1.00  0.00     0.148 A 
ATOM     77  C   UNL A   1      43.997  26.554  25.660  1.00  0.00     0.002 A 
ATOM     78  C   UNL A   1      42.796  24.569  26.356  1.00  0.00     0.091 A 
ATOM     79  F   UNL A   1      41.386  24.677  28.278  1.00  0.00    -0.205 F 
ATOM     80  C   UNL A   1      43.658  25.219  25.459  1.00  0.00     0.022 A 
BRANCH  78  81
ATOM     81  S   UNL A   1      42.517  22.812  26.105  1.00  0.00     0.127 S 
ATOM     82  O   UNL A   1      43.238  22.230  27.234  1.00  0.00    -0.237 OA
ATOM     83  O   UNL A   1      41.059  22.718  26.191  1.00  0.00    -0.237 OA
ATOM     84  O   UNL A   1      43.055  22.519  24.783  1.00  0.00    -0.744 OA
ENDBRANCH  78  81
ENDBRANCH  50  74
BRANCH  62  85
ATOM     85  C   UNL A   1      44.774  27.392  34.246  1.00  0.00     0.023 A 
ATOM     86  C   UNL A   1      45.989  28.104  34.253  1.00  0.00     0.012 A 
ATOM     87  C   UNL A   1      44.656  26.218  35.015  1.00  0.00     0.148 A 
ATOM     88  C   UNL A   1      47.078  27.642  34.990  1.00  0.00     0.002 A 
ATOM     89  C   UNL A   1      45.731  25.788  35.784  1.00  0.00     0.091 A 
ATOM     90  F   UNL A   1      43.497  25.542  34.980  1.00  0.00    -0.205 F 
ATOM     91  C   UNL A   1      46.946  26.491  35.764  1.00  0.00     0.022 A 
BRANCH  89  92
ATOM     92  S   UNL A   1      45.615  24.371  36.884  1.00  0.00     0.127 S 
ATOM     93  O   UNL A   1      46.891  24.438  37.593  1.00  0.00    -0.237 OA
ATOM     94  O   UNL A   1      44.447  24.703  37.701  1.00  0.00    -0.237 OA
ATOM     95  O   UNL A   1      45.434  23.212  36.022  1.00  0.00    -0.744 OA
ENDBRANCH  89  92
ENDBRANCH  62  85
ENDBRANCH  36  37
ENDBRANCH  28  31
ENDBRANCH  26  27
ENDBRANCH   1  26
TORSDOF 17
ENDMDL
MODEL 3
REMARK VINA RESULT:     -12.1      1.725      2.632
REMARK SMILES CC[C@@H]1CC[C@](C[C@@H]2CCCc3ccccc32)(C(=O)NCCCCNC(=O)c2ccc(-c3c4nc(c(-c5cccc(S(=O)(=O)[O-])c5F)c5ccc([nH]5)c(-c5cccc(S(=O)(=O)[O-])c5F)c5nc(c(-c6cccc(S(=O)(=O)[O-])c6F)c6ccc3[nH]6)C=C5)C=C4)cc2)C1
REMARK SMILES IDX 23 1 22 2 21 3 20 4 18 5 19 6 6 8 3 9 4 10 91 11 5 12 2 13
REMARK SMILES IDX 1 14 7 15 8 16 9 17 17 18 10 19 12 20 16 21 11 22 13 23
REMARK SMILES IDX 15 24 14 25 24 26 25 27 26 28 27 30 28 31 29 32 90 33 30 34
REMARK SMILES IDX 89 35 31 36 32 37 33 38 83 39 34 40 88 41 82 42 84 43 35 44
REMARK SMILES IDX 87 45 81 46 80 47 36 49 68 50 48 51 67 52 49 53 52 54 66 55
REMARK SMILES IDX 85 56 50 57 51 58 65 60 86 61 53 62 37 63 38 64 46 65 39 66
REMARK SMILES IDX 41 67 47 68 40 69 42 70 43 71 44 72 45 73 69 74 70 75 78 76
REMARK SMILES IDX 71 77 73 78 79 79 72 80 74 81 75 82 76 83 77 84 54 85 55 86
REMARK SMILES IDX 63 87 56 88 58 89 64 90 57 91 59 92 60 93 61 94 62 95
REMARK H PARENT 20 7 25 29 84 48 52 59
REMARK Flexibility Score: inf
ROOT
ATOM      1  C   UNL A   1      31.900  29.142  26.163  1.00  0.00     0.023 C 
ENDROOT
BRANCH   1   2
ATOM      2  C   UNL A   1      31.339  28.956  24.749  1.00  0.00     0.023 C 
BRANCH   2   3
ATOM      3  C   UNL A   1      32.396  28.878  23.651  1.00  0.00     0.116 C 
BRANCH   3   4
ATOM      4  N   UNL A   1      31.999  28.052  22.524  1.00  0.00    -0.356 N 
ATOM      5  C   UNL A   1      31.959  26.716  22.279  1.00  0.00     0.226 C 
ATOM      6  O   UNL A   1      31.364  26.413  21.236  1.00  0.00    -0.274 OA
ATOM      7  H   UNL A   1      31.686  28.586  21.758  1.00  0.00     0.163 HD
BRANCH   5   8
ATOM      8  C   UNL A   1      32.718  25.619  23.101  1.00  0.00     0.050 C 
ATOM      9  C   UNL A   1      32.553  24.828  25.390  1.00  0.00    -0.010 C 
ATOM     10  C   UNL A   1      33.649  25.885  25.388  1.00  0.00     0.005 C 
ATOM     11  C   UNL A   1      31.698  25.172  24.186  1.00  0.00     0.020 C 
ATOM     12  C   UNL A   1      33.836  26.303  23.932  1.00  0.00     0.017 C 
BRANCH   9  13
ATOM     13  C   UNL A   1      31.842  24.669  26.730  1.00  0.00     0.000 C 
ATOM     14  C   UNL A   1      31.705  23.190  27.094  1.00  0.00     0.004 C 
ENDBRANCH   9  13
BRANCH   8  15
ATOM     15  C   UNL A   1      33.281  24.469  22.214  1.00  0.00     0.025 C 
BRANCH  15  16
ATOM     16  C   UNL A   1      33.583  22.968  22.570  1.00  0.00     0.020 C 
ATOM     17  C   UNL A   1      32.363  22.026  22.618  1.00  0.00     0.009 C 
ATOM     18  C   UNL A   1      34.689  22.636  23.565  1.00  0.00    -0.042 A 
ATOM     19  C   UNL A   1      32.123  21.355  23.970  1.00  0.00     0.005 C 
ATOM     20  C   UNL A   1      34.569  21.564  24.472  1.00  0.00    -0.045 A 
ATOM     21  C   UNL A   1      35.923  23.310  23.497  1.00  0.00     0.004 A 
ATOM     22  C   UNL A   1      33.364  20.662  24.488  1.00  0.00     0.036 C 
ATOM     23  C   UNL A   1      35.643  21.233  25.317  1.00  0.00     0.004 A 
ATOM     24  C   UNL A   1      36.989  22.960  24.329  1.00  0.00     0.000 A 
ATOM     25  C   UNL A   1      36.845  21.929  25.249  1.00  0.00     0.000 A 
ENDBRANCH  15  16
ENDBRANCH   8  15
ENDBRANCH   5   8
ENDBRANCH   3   4
ENDBRANCH   2   3
ENDBRANCH   1   2
BRANCH   1  26
ATOM     26  C   UNL A   1      33.186  29.961  26.267  1.00  0.00     0.116 C 
BRANCH  26  27
ATOM     27  N   UNL A   1      32.985  31.326  26.728  1.00  0.00    -0.352 N 
ATOM     28  C   UNL A   1      33.771  32.057  27.592  1.00  0.00     0.251 C 
ATOM     29  H   UNL A   1      32.188  31.785  26.378  1.00  0.00     0.163 HD
ATOM     30  O   UNL A   1      33.416  33.171  27.953  1.00  0.00    -0.269 OA
BRANCH  28  31
ATOM     31  C   UNL A   1      35.022  31.462  28.114  1.00  0.00     0.039 A 
ATOM     32  C   UNL A   1      36.175  32.249  28.148  1.00  0.00     0.014 A 
ATOM     33  C   UNL A   1      35.049  30.150  28.592  1.00  0.00     0.014 A 
ATOM     34  C   UNL A   1      37.342  31.739  28.720  1.00  0.00     0.010 A 
ATOM     35  C   UNL A   1      36.192  29.668  29.222  1.00  0.00     0.010 A 
ATOM     36  C   UNL A   1      37.352  30.454  29.290  1.00  0.00    -0.014 A 
BRANCH  36  37
ATOM     37  C   UNL A   1      38.563  29.929  29.970  1.00  0.00     0.031 A 
ATOM     38  C   UNL A   1      38.942  30.421  31.340  1.00  0.00     0.074 A 
ATOM     39  C   UNL A   1      39.368  29.067  29.317  1.00  0.00     0.049 A 
ATOM     40  N   UNL A   1      39.964  30.082  32.082  1.00  0.00    -0.248 NA
ATOM     41  C   UNL A   1      38.082  31.452  31.944  1.00  0.00     0.031 C 
ATOM     42  C   UNL A   1      39.170  28.598  27.944  1.00  0.00     0.029 A 
ATOM     43  N   UNL A   1      40.532  28.455  29.710  1.00  0.00    -0.354 N 
ATOM     44  C   UNL A   1      39.892  30.880  33.217  1.00  0.00     0.074 A 
ATOM     45  C   UNL A   1      38.745  31.744  33.054  1.00  0.00     0.031 C 
ATOM     46  C   UNL A   1      40.175  27.771  27.611  1.00  0.00     0.029 A 
ATOM     47  C   UNL A   1      41.096  27.661  28.738  1.00  0.00     0.049 A 
ATOM     48  H   UNL A   1      40.927  28.572  30.605  1.00  0.00     0.167 HD
ATOM     49  C   UNL A   1      40.689  30.872  34.312  1.00  0.00     0.034 A 
ATOM     50  C   UNL A   1      42.224  26.924  28.753  1.00  0.00     0.034 A 
ATOM     51  C   UNL A   1      41.790  29.965  34.498  1.00  0.00     0.049 A 
ATOM     52  C   UNL A   1      43.040  26.866  30.017  1.00  0.00     0.074 A 
ATOM     53  C   UNL A   1      42.578  29.789  35.622  1.00  0.00     0.029 A 
ATOM     54  N   UNL A   1      42.264  29.089  33.535  1.00  0.00    -0.354 N 
ATOM     55  N   UNL A   1      42.835  27.474  31.160  1.00  0.00    -0.248 NA
ATOM     56  C   UNL A   1      44.217  25.984  30.010  1.00  0.00     0.031 C 
ATOM     57  C   UNL A   1      43.540  28.816  35.333  1.00  0.00     0.029 A 
ATOM     58  C   UNL A   1      43.340  28.375  34.034  1.00  0.00     0.049 A 
ATOM     59  H   UNL A   1      41.890  28.988  32.631  1.00  0.00     0.167 HD
ATOM     60  C   UNL A   1      43.836  27.029  32.016  1.00  0.00     0.074 A 
ATOM     61  C   UNL A   1      44.631  26.077  31.267  1.00  0.00     0.031 C 
ATOM     62  C   UNL A   1      44.088  27.391  33.298  1.00  0.00     0.034 A 
BRANCH  49  63
ATOM     63  C   UNL A   1      40.359  31.826  35.429  1.00  0.00     0.023 A 
ATOM     64  C   UNL A   1      41.128  32.997  35.589  1.00  0.00     0.012 A 
ATOM     65  C   UNL A   1      39.253  31.604  36.272  1.00  0.00     0.148 A 
ATOM     66  C   UNL A   1      40.821  33.917  36.589  1.00  0.00     0.002 A 
ATOM     67  C   UNL A   1      38.928  32.546  37.240  1.00  0.00     0.091 A 
ATOM     68  F   UNL A   1      38.548  30.474  36.117  1.00  0.00    -0.205 F 
ATOM     69  C   UNL A   1      39.715  33.697  37.407  1.00  0.00     0.022 A 
BRANCH  67  70
ATOM     70  S   UNL A   1      37.480  32.394  38.294  1.00  0.00     0.127 S 
ATOM     71  O   UNL A   1      37.916  33.101  39.497  1.00  0.00    -0.237 OA
ATOM     72  O   UNL A   1      36.458  33.093  37.513  1.00  0.00    -0.237 OA
ATOM     73  O   UNL A   1      37.250  30.966  38.456  1.00  0.00    -0.744 OA
ENDBRANCH  67  70
ENDBRANCH  49  63
BRANCH  50  74
ATOM     74  C   UNL A   1      42.604  26.118  27.560  1.00  0.00     0.023 A 
ATOM     75  C   UNL A   1      43.451  26.682  26.585  1.00  0.00     0.012 A 
ATOM     76  C   UNL A   1      42.158  24.792  27.397  1.00  0.00     0.148 A 
ATOM     77  C   UNL A   1      43.819  25.953  25.453  1.00  0.00     0.002 A 
ATOM     78  C   UNL A   1      42.573  24.053  26.294  1.00  0.00     0.091 A 
ATOM     79  F   UNL A   1      41.341  24.278  28.326  1.00  0.00    -0.205 F 
ATOM     80  C   UNL A   1      43.389  24.636  25.313  1.00  0.00     0.022 A 
BRANCH  78  81
ATOM     81  S   UNL A   1      42.175  22.311  26.108  1.00  0.00     0.127 S 
ATOM     82  O   UNL A   1      42.898  21.966  24.887  1.00  0.00    -0.237 OA
ATOM     83  O   UNL A   1      42.731  21.738  27.336  1.00  0.00    -0.237 OA
ATOM     84  O   UNL A   1      40.721  22.252  26.030  1.00  0.00    -0.744 OA
ENDBRANCH  78  81
ENDBRANCH  50  74
BRANCH  62  85
ATOM     85  C   UNL A   1      45.260  26.745  33.988  1.00  0.00     0.023 A 
ATOM     86  C   UNL A   1      46.545  27.305  33.849  1.00  0.00     0.012 A 
ATOM     87  C   UNL A   1      45.078  25.634  34.834  1.00  0.00     0.148 A 
ATOM     88  C   UNL A   1      47.636  26.752  34.518  1.00  0.00     0.002 A 
ATOM     89  C   UNL A   1      46.161  25.116  35.534  1.00  0.00     0.091 A 
ATOM     90  F   UNL A   1      43.851  25.102  34.938  1.00  0.00    -0.205 F 
ATOM     91  C   UNL A   1      47.443  25.666  35.369  1.00  0.00     0.022 A 
BRANCH  89  92
ATOM     92  S   UNL A   1      45.983  23.781  36.724  1.00  0.00     0.127 S 
ATOM     93  O   UNL A   1      45.489  22.694  35.881  1.00  0.00    -0.237 OA
ATOM     94  O   UNL A   1      47.354  23.604  37.204  1.00  0.00    -0.237 OA
ATOM     95  O   UNL A   1      45.052  24.268  37.731  1.00  0.00    -0.744 OA
ENDBRANCH  89  92
ENDBRANCH  62  85
ENDBRANCH  36  37
ENDBRANCH  28  31
ENDBRANCH  26  27
ENDBRANCH   1  26
TORSDOF 17
ENDMDL
