MODEL 1
REMARK VINA RESULT:     -11.8      0.000      0.000
REMARK SMILES CC(C)C[C@@H]([NH2+][C@H]1CCOC2(CCOCC2)C1)C(=O)NCCCCNC(=O)c1ccc(-c2c3nc(c(-c4cccc(S(=O)(=O)[O-])c4F)c4ccc([nH]4)c(-c4cccc(S(=O)(=O)[O-])c4F)c4nc(c(-c5cccc(S(=O)(=O)[O-])c5F)c5ccc2[nH]5)C=C4)C=C3)cc1
REMARK SMILES IDX 23 1 22 2 21 3 20 4 18 5 19 6 5 8 4 9 2 10 1 11 3 12 6 13
REMARK SMILES IDX 7 16 8 17 17 18 9 19 11 20 10 21 12 22 16 23 13 24 15 25
REMARK SMILES IDX 14 26 24 27 25 28 26 29 27 31 28 32 29 33 90 34 30 35 89 36
REMARK SMILES IDX 31 37 32 38 33 39 83 40 34 41 88 42 82 43 84 44 35 45 87 46
REMARK SMILES IDX 81 47 80 48 36 50 68 51 48 52 67 53 49 54 52 55 66 56 85 57
REMARK SMILES IDX 50 58 51 59 65 61 86 62 53 63 37 64 38 65 46 66 39 67 41 68
REMARK SMILES IDX 47 69 40 70 42 71 43 72 44 73 45 74 69 75 70 76 78 77 71 78
REMARK SMILES IDX 73 79 79 80 72 81 74 82 75 83 76 84 77 85 54 86 55 87 63 88
REMARK SMILES IDX 56 89 58 90 64 91 57 92 59 93 60 94 61 95 62 96
REMARK H PARENT 20 7 6 14 6 15 25 30 84 49 52 60
REMARK Flexibility Score: inf
ROOT
ATOM      1  C   UNL A   1      31.429  29.405  26.174  1.00  0.00     0.023 C 
ENDROOT
BRANCH   1   2
ATOM      2  C   UNL A   1      31.494  28.211  27.128  1.00  0.00     0.023 C 
BRANCH   2   3
ATOM      3  C   UNL A   1      32.261  27.010  26.574  1.00  0.00     0.116 C 
BRANCH   3   4
ATOM      4  N   UNL A   1      31.523  25.788  26.823  1.00  0.00    -0.351 N 
ATOM      5  C   UNL A   1      30.717  25.079  25.984  1.00  0.00     0.278 C 
ATOM      6  O   UNL A   1      29.996  24.206  26.478  1.00  0.00    -0.268 OA
ATOM      7  H   UNL A   1      31.617  25.416  27.729  1.00  0.00     0.163 HD
BRANCH   5   8
ATOM      8  C   UNL A   1      30.687  25.344  24.463  1.00  0.00     0.273 C 
BRANCH   8   9
ATOM      9  C   UNL A   1      30.653  23.974  23.746  1.00  0.00     0.078 C 
BRANCH   9  10
ATOM     10  C   UNL A   1      31.980  23.431  23.189  1.00  0.00    -0.011 C 
ATOM     11  C   UNL A   1      33.027  24.526  23.003  1.00  0.00     0.007 C 
ATOM     12  C   UNL A   1      32.518  22.348  24.134  1.00  0.00     0.007 C 
ENDBRANCH   9  10
ENDBRANCH   8   9
BRANCH   8  13
ATOM     13  N   UNL A   1      29.592  26.253  24.050  1.00  0.00    -0.333 N 
ATOM     14  H   UNL A   1      28.954  26.335  24.843  1.00  0.00     0.347 HD
ATOM     15  H   UNL A   1      29.212  25.818  23.209  1.00  0.00     0.347 HD
BRANCH  13  16
ATOM     16  C   UNL A   1      29.934  27.632  23.620  1.00  0.00     0.188 C 
ATOM     17  C   UNL A   1      31.199  27.846  22.778  1.00  0.00     0.093 C 
ATOM     18  C   UNL A   1      28.725  28.232  22.868  1.00  0.00     0.100 C 
ATOM     19  C   UNL A   1      31.344  29.290  22.331  1.00  0.00     0.167 C 
ATOM     20  C   UNL A   1      28.967  29.677  22.383  1.00  0.00     0.078 C 
ATOM     21  O   UNL A   1      30.189  29.729  21.632  1.00  0.00    -0.374 OA
ATOM     22  C   UNL A   1      28.962  30.694  23.543  1.00  0.00     0.064 C 
ATOM     23  C   UNL A   1      27.862  30.089  21.391  1.00  0.00     0.064 C 
ATOM     24  C   UNL A   1      29.078  32.118  23.012  1.00  0.00     0.163 C 
ATOM     25  C   UNL A   1      28.035  31.546  20.971  1.00  0.00     0.163 C 
ATOM     26  O   UNL A   1      28.006  32.402  22.113  1.00  0.00    -0.381 OA
ENDBRANCH  13  16
ENDBRANCH   8  13
ENDBRANCH   5   8
ENDBRANCH   3   4
ENDBRANCH   2   3
ENDBRANCH   1   2
BRANCH   1  27
ATOM     27  C   UNL A   1      32.723  30.201  26.060  1.00  0.00     0.116 C 
BRANCH  27  28
ATOM     28  N   UNL A   1      32.550  31.600  26.428  1.00  0.00    -0.352 N 
ATOM     29  C   UNL A   1      33.289  32.348  27.311  1.00  0.00     0.251 C 
ATOM     30  H   UNL A   1      31.807  32.070  25.987  1.00  0.00     0.163 HD
ATOM     31  O   UNL A   1      32.920  33.475  27.629  1.00  0.00    -0.269 OA
BRANCH  29  32
ATOM     32  C   UNL A   1      34.518  31.770  27.892  1.00  0.00     0.039 A 
ATOM     33  C   UNL A   1      35.649  32.579  28.027  1.00  0.00     0.014 A 
ATOM     34  C   UNL A   1      34.536  30.444  28.334  1.00  0.00     0.014 A 
ATOM     35  C   UNL A   1      36.784  32.072  28.661  1.00  0.00     0.010 A 
ATOM     36  C   UNL A   1      35.642  29.966  29.028  1.00  0.00     0.010 A 
ATOM     37  C   UNL A   1      36.779  30.772  29.194  1.00  0.00    -0.014 A 
BRANCH  37  38
ATOM     38  C   UNL A   1      37.946  30.239  29.939  1.00  0.00     0.031 A 
ATOM     39  C   UNL A   1      38.220  30.701  31.345  1.00  0.00     0.074 A 
ATOM     40  C   UNL A   1      38.812  29.414  29.319  1.00  0.00     0.049 A 
ATOM     41  N   UNL A   1      39.218  30.398  32.133  1.00  0.00    -0.248 NA
ATOM     42  C   UNL A   1      37.261  31.652  31.932  1.00  0.00     0.031 C 
ATOM     43  C   UNL A   1      38.702  28.961  27.930  1.00  0.00     0.029 A 
ATOM     44  N   UNL A   1      39.971  28.831  29.767  1.00  0.00    -0.354 N 
ATOM     45  C   UNL A   1      39.031  31.145  33.288  1.00  0.00     0.074 A 
ATOM     46  C   UNL A   1      37.841  31.943  33.088  1.00  0.00     0.031 C 
ATOM     47  C   UNL A   1      39.748  28.169  27.642  1.00  0.00     0.029 A 
ATOM     48  C   UNL A   1      40.615  28.078  28.812  1.00  0.00     0.049 A 
ATOM     49  H   UNL A   1      40.310  28.942  30.684  1.00  0.00     0.167 HD
ATOM     50  C   UNL A   1      39.763  31.144  34.428  1.00  0.00     0.034 A 
ATOM     51  C   UNL A   1      41.775  27.394  28.872  1.00  0.00     0.034 A 
ATOM     52  C   UNL A   1      40.915  30.310  34.642  1.00  0.00     0.049 A 
ATOM     53  C   UNL A   1      42.541  27.370  30.168  1.00  0.00     0.074 A 
ATOM     54  C   UNL A   1      41.667  30.163  35.794  1.00  0.00     0.029 A 
ATOM     55  N   UNL A   1      41.484  29.485  33.684  1.00  0.00    -0.354 N 
ATOM     56  N   UNL A   1      42.255  27.951  31.307  1.00  0.00    -0.248 NA
ATOM     57  C   UNL A   1      43.771  26.565  30.196  1.00  0.00     0.031 C 
ATOM     58  C   UNL A   1      42.703  29.262  35.525  1.00  0.00     0.029 A 
ATOM     59  C   UNL A   1      42.582  28.833  34.214  1.00  0.00     0.049 A 
ATOM     60  H   UNL A   1      41.154  29.380  32.762  1.00  0.00     0.167 HD
ATOM     61  C   UNL A   1      43.245  27.554  32.197  1.00  0.00     0.074 A 
ATOM     62  C   UNL A   1      44.128  26.665  31.470  1.00  0.00     0.031 C 
ATOM     63  C   UNL A   1      43.418  27.905  33.495  1.00  0.00     0.034 A 
BRANCH  50  64
ATOM     64  C   UNL A   1      39.305  32.031  35.555  1.00  0.00     0.023 A 
ATOM     65  C   UNL A   1      38.417  31.519  36.523  1.00  0.00     0.012 A 
ATOM     66  C   UNL A   1      39.793  33.345  35.692  1.00  0.00     0.148 A 
ATOM     67  C   UNL A   1      37.995  32.309  37.591  1.00  0.00     0.002 A 
ATOM     68  C   UNL A   1      39.402  34.113  36.784  1.00  0.00     0.091 A 
ATOM     69  F   UNL A   1      40.618  33.822  34.750  1.00  0.00    -0.205 F 
ATOM     70  C   UNL A   1      38.495  33.601  37.726  1.00  0.00     0.022 A 
BRANCH  68  71
ATOM     71  S   UNL A   1      40.050  35.760  37.091  1.00  0.00     0.127 S 
ATOM     72  O   UNL A   1      39.653  36.464  35.872  1.00  0.00    -0.237 OA
ATOM     73  O   UNL A   1      39.318  36.160  38.293  1.00  0.00    -0.237 OA
ATOM     74  O   UNL A   1      41.485  35.597  37.280  1.00  0.00    -0.744 OA
ENDBRANCH  68  71
ENDBRANCH  50  64
BRANCH  51  75
ATOM     75  C   UNL A   1      42.240  26.612  27.692  1.00  0.00     0.023 A 
ATOM     76  C   UNL A   1      43.026  27.249  26.712  1.00  0.00     0.012 A 
ATOM     77  C   UNL A   1      41.939  25.245  27.549  1.00  0.00     0.148 A 
ATOM     78  C   UNL A   1      43.477  26.546  25.594  1.00  0.00     0.002 A 
ATOM     79  C   UNL A   1      42.436  24.537  26.460  1.00  0.00     0.091 A 
ATOM     80  F   UNL A   1      41.180  24.660  28.486  1.00  0.00    -0.205 F 
ATOM     81  C   UNL A   1      43.190  25.190  25.472  1.00  0.00     0.022 A 
BRANCH  79  82
ATOM     82  S   UNL A   1      42.227  22.761  26.291  1.00  0.00     0.127 S 
ATOM     83  O   UNL A   1      42.944  22.262  27.462  1.00  0.00    -0.237 OA
ATOM     84  O   UNL A   1      40.772  22.619  26.352  1.00  0.00    -0.237 OA
ATOM     85  O   UNL A   1      42.808  22.421  24.999  1.00  0.00    -0.744 OA
ENDBRANCH  79  82
ENDBRANCH  51  75
BRANCH  63  86
ATOM     86  C   UNL A   1      44.586  27.305  34.233  1.00  0.00     0.023 A 
ATOM     87  C   UNL A   1      45.834  27.957  34.218  1.00  0.00     0.012 A 
ATOM     88  C   UNL A   1      44.424  26.137  35.005  1.00  0.00     0.148 A 
ATOM     89  C   UNL A   1      46.911  27.442  34.936  1.00  0.00     0.002 A 
ATOM     90  C   UNL A   1      45.489  25.656  35.757  1.00  0.00     0.091 A 
ATOM     91  F   UNL A   1      43.234  25.520  34.991  1.00  0.00    -0.205 F 
ATOM     92  C   UNL A   1      46.736  26.300  35.715  1.00  0.00     0.022 A 
BRANCH  90  93
ATOM     93  S   UNL A   1      45.327  24.249  36.862  1.00  0.00     0.127 S 
ATOM     94  O   UNL A   1      44.967  23.179  35.933  1.00  0.00    -0.237 OA
ATOM     95  O   UNL A   1      46.673  24.140  37.426  1.00  0.00    -0.237 OA
ATOM     96  O   UNL A   1      44.298  24.614  37.827  1.00  0.00    -0.744 OA
ENDBRANCH  90  93
ENDBRANCH  63  86
ENDBRANCH  37  38
ENDBRANCH  29  32
ENDBRANCH  27  28
ENDBRANCH   1  27
TORSDOF 18
ENDMDL
MODEL 2
REMARK VINA RESULT:     -11.6      2.365      7.914
REMARK SMILES CC(C)C[C@@H]([NH2+][C@H]1CCOC2(CCOCC2)C1)C(=O)NCCCCNC(=O)c1ccc(-c2c3nc(c(-c4cccc(S(=O)(=O)[O-])c4F)c4ccc([nH]4)c(-c4cccc(S(=O)(=O)[O-])c4F)c4nc(c(-c5cccc(S(=O)(=O)[O-])c5F)c5ccc2[nH]5)C=C4)C=C3)cc1
REMARK SMILES IDX 23 1 22 2 21 3 20 4 18 5 19 6 5 8 4 9 2 10 1 11 3 12 6 13
REMARK SMILES IDX 7 16 8 17 17 18 9 19 11 20 10 21 12 22 16 23 13 24 15 25
REMARK SMILES IDX 14 26 24 27 25 28 26 29 27 31 28 32 29 33 90 34 30 35 89 36
REMARK SMILES IDX 31 37 32 38 33 39 83 40 34 41 88 42 82 43 84 44 35 45 87 46
REMARK SMILES IDX 81 47 80 48 36 50 68 51 48 52 67 53 49 54 52 55 66 56 85 57
REMARK SMILES IDX 50 58 51 59 65 61 86 62 53 63 37 64 38 65 46 66 39 67 41 68
REMARK SMILES IDX 47 69 40 70 42 71 43 72 44 73 45 74 69 75 70 76 78 77 71 78
REMARK SMILES IDX 73 79 79 80 72 81 74 82 75 83 76 84 77 85 54 86 55 87 63 88
REMARK SMILES IDX 56 89 58 90 64 91 57 92 59 93 60 94 61 95 62 96
REMARK H PARENT 20 7 6 14 6 15 25 30 84 49 52 60
REMARK Flexibility Score: inf
ROOT
ATOM      1  C   UNL A   1      31.738  32.052  26.543  1.00  0.00     0.023 C 
ENDROOT
BRANCH   1   2
ATOM      2  C   UNL A   1      31.527  30.574  26.879  1.00  0.00     0.023 C 
BRANCH   2   3
ATOM      3  C   UNL A   1      32.797  29.726  26.790  1.00  0.00     0.116 C 
BRANCH   3   4
ATOM      4  N   UNL A   1      32.497  28.344  27.102  1.00  0.00    -0.351 N 
ATOM      5  C   UNL A   1      31.968  27.373  26.305  1.00  0.00     0.278 C 
ATOM      6  O   UNL A   1      31.571  26.336  26.847  1.00  0.00    -0.268 OA
ATOM      7  H   UNL A   1      32.705  28.065  28.022  1.00  0.00     0.163 HD
BRANCH   5   8
ATOM      8  C   UNL A   1      31.856  27.544  24.775  1.00  0.00     0.273 C 
BRANCH   8   9
ATOM      9  C   UNL A   1      33.174  27.034  24.146  1.00  0.00     0.078 C 
BRANCH   9  10
ATOM     10  C   UNL A   1      33.081  25.857  23.160  1.00  0.00    -0.011 C 
ATOM     11  C   UNL A   1      33.306  26.290  21.713  1.00  0.00     0.007 C 
ATOM     12  C   UNL A   1      34.110  24.789  23.552  1.00  0.00     0.007 C 
ENDBRANCH   9  10
ENDBRANCH   8   9
BRANCH   8  13
ATOM     13  N   UNL A   1      30.646  26.908  24.203  1.00  0.00    -0.333 N 
ATOM     14  H   UNL A   1      30.147  26.463  24.975  1.00  0.00     0.347 HD
ATOM     15  H   UNL A   1      31.009  26.285  23.482  1.00  0.00     0.347 HD
BRANCH  13  16
ATOM     16  C   UNL A   1      29.666  27.760  23.483  1.00  0.00     0.188 C 
ATOM     17  C   UNL A   1      28.169  27.485  23.679  1.00  0.00     0.093 C 
ATOM     18  C   UNL A   1      29.953  29.240  23.823  1.00  0.00     0.100 C 
ATOM     19  C   UNL A   1      27.307  28.511  22.964  1.00  0.00     0.167 C 
ATOM     20  C   UNL A   1      28.996  30.222  23.115  1.00  0.00     0.078 C 
ATOM     21  O   UNL A   1      27.638  29.831  23.367  1.00  0.00    -0.374 OA
ATOM     22  C   UNL A   1      29.288  30.340  21.605  1.00  0.00     0.064 C 
ATOM     23  C   UNL A   1      29.135  31.627  23.733  1.00  0.00     0.064 C 
ATOM     24  C   UNL A   1      28.408  31.409  20.967  1.00  0.00     0.163 C 
ATOM     25  C   UNL A   1      28.262  32.631  22.984  1.00  0.00     0.163 C 
ATOM     26  O   UNL A   1      28.619  32.670  21.602  1.00  0.00    -0.381 OA
ENDBRANCH  13  16
ENDBRANCH   8  13
ENDBRANCH   5   8
ENDBRANCH   3   4
ENDBRANCH   2   3
ENDBRANCH   1   2
BRANCH   1  27
ATOM     27  C   UNL A   1      32.839  32.736  27.343  1.00  0.00     0.116 C 
BRANCH  27  28
ATOM     28  N   UNL A   1      32.527  34.127  27.643  1.00  0.00    -0.352 N 
ATOM     29  C   UNL A   1      33.070  34.933  28.613  1.00  0.00     0.251 C 
ATOM     30  H   UNL A   1      31.838  34.542  27.077  1.00  0.00     0.163 HD
ATOM     31  O   UNL A   1      32.589  36.040  28.839  1.00  0.00    -0.269 OA
BRANCH  29  32
ATOM     32  C   UNL A   1      34.222  34.443  29.396  1.00  0.00     0.039 A 
ATOM     33  C   UNL A   1      33.993  33.839  30.634  1.00  0.00     0.014 A 
ATOM     34  C   UNL A   1      35.520  34.550  28.888  1.00  0.00     0.014 A 
ATOM     35  C   UNL A   1      35.064  33.287  31.339  1.00  0.00     0.010 A 
ATOM     36  C   UNL A   1      36.573  33.938  29.557  1.00  0.00     0.010 A 
ATOM     37  C   UNL A   1      36.358  33.305  30.791  1.00  0.00    -0.014 A 
BRANCH  37  38
ATOM     38  C   UNL A   1      37.498  32.658  31.486  1.00  0.00     0.031 A 
ATOM     39  C   UNL A   1      38.213  31.499  30.846  1.00  0.00     0.074 A 
ATOM     40  C   UNL A   1      37.827  33.050  32.733  1.00  0.00     0.049 A 
ATOM     41  N   UNL A   1      39.187  30.768  31.321  1.00  0.00    -0.248 NA
ATOM     42  C   UNL A   1      37.754  31.089  29.509  1.00  0.00     0.031 C 
ATOM     43  C   UNL A   1      37.154  34.105  33.494  1.00  0.00     0.029 A 
ATOM     44  N   UNL A   1      38.794  32.589  33.590  1.00  0.00    -0.354 N 
ATOM     45  C   UNL A   1      39.432  29.792  30.364  1.00  0.00     0.074 A 
ATOM     46  C   UNL A   1      38.482  30.002  29.293  1.00  0.00     0.031 C 
ATOM     47  C   UNL A   1      37.730  34.213  34.702  1.00  0.00     0.029 A 
ATOM     48  C   UNL A   1      38.794  33.220  34.813  1.00  0.00     0.049 A 
ATOM     49  H   UNL A   1      39.428  31.874  33.354  1.00  0.00     0.167 HD
ATOM     50  C   UNL A   1      40.383  28.827  30.358  1.00  0.00     0.034 A 
ATOM     51  C   UNL A   1      39.562  33.019  35.902  1.00  0.00     0.034 A 
ATOM     52  C   UNL A   1      41.359  28.656  31.400  1.00  0.00     0.049 A 
ATOM     53  C   UNL A   1      40.645  31.974  35.849  1.00  0.00     0.074 A 
ATOM     54  C   UNL A   1      42.423  27.773  31.443  1.00  0.00     0.029 A 
ATOM     55  N   UNL A   1      41.389  29.377  32.583  1.00  0.00    -0.354 N 
ATOM     56  N   UNL A   1      40.970  31.172  34.864  1.00  0.00    -0.248 NA
ATOM     57  C   UNL A   1      41.490  31.832  37.043  1.00  0.00     0.031 C 
ATOM     58  C   UNL A   1      43.086  27.949  32.663  1.00  0.00     0.029 A 
ATOM     59  C   UNL A   1      42.448  28.955  33.368  1.00  0.00     0.049 A 
ATOM     60  H   UNL A   1      40.751  30.086  32.828  1.00  0.00     0.167 HD
ATOM     61  C   UNL A   1      42.078  30.458  35.304  1.00  0.00     0.074 A 
ATOM     62  C   UNL A   1      42.381  30.937  36.637  1.00  0.00     0.031 C 
ATOM     63  C   UNL A   1      42.772  29.482  34.669  1.00  0.00     0.034 A 
BRANCH  50  64
ATOM     64  C   UNL A   1      40.451  27.919  29.159  1.00  0.00     0.023 A 
ATOM     65  C   UNL A   1      39.547  26.842  29.054  1.00  0.00     0.012 A 
ATOM     66  C   UNL A   1      41.363  28.161  28.113  1.00  0.00     0.148 A 
ATOM     67  C   UNL A   1      39.571  26.000  27.943  1.00  0.00     0.002 A 
ATOM     68  C   UNL A   1      41.350  27.343  26.989  1.00  0.00     0.091 A 
ATOM     69  F   UNL A   1      42.229  29.175  28.241  1.00  0.00    -0.205 F 
ATOM     70  C   UNL A   1      40.465  26.257  26.908  1.00  0.00     0.022 A 
BRANCH  68  71
ATOM     71  S   UNL A   1      42.408  27.637  25.567  1.00  0.00     0.127 S 
ATOM     72  O   UNL A   1      41.868  28.896  25.054  1.00  0.00    -0.237 OA
ATOM     73  O   UNL A   1      43.730  27.748  26.183  1.00  0.00    -0.237 OA
ATOM     74  O   UNL A   1      42.240  26.483  24.696  1.00  0.00    -0.744 OA
ENDBRANCH  68  71
ENDBRANCH  50  64
BRANCH  51  75
ATOM     75  C   UNL A   1      39.386  33.878  37.107  1.00  0.00     0.023 A 
ATOM     76  C   UNL A   1      39.823  35.217  37.067  1.00  0.00     0.012 A 
ATOM     77  C   UNL A   1      38.767  33.392  38.274  1.00  0.00     0.148 A 
ATOM     78  C   UNL A   1      39.675  36.047  38.178  1.00  0.00     0.002 A 
ATOM     79  C   UNL A   1      38.575  34.240  39.359  1.00  0.00     0.091 A 
ATOM     80  F   UNL A   1      38.369  32.112  38.297  1.00  0.00    -0.205 F 
ATOM     81  C   UNL A   1      39.043  35.563  39.320  1.00  0.00     0.022 A 
BRANCH  79  82
ATOM     82  S   UNL A   1      37.655  33.741  40.819  1.00  0.00     0.127 S 
ATOM     83  O   UNL A   1      38.599  32.838  41.473  1.00  0.00    -0.237 OA
ATOM     84  O   UNL A   1      37.451  35.019  41.501  1.00  0.00    -0.237 OA
ATOM     85  O   UNL A   1      36.432  33.127  40.319  1.00  0.00    -0.744 OA
ENDBRANCH  79  82
ENDBRANCH  51  75
BRANCH  63  86
ATOM     86  C   UNL A   1      43.954  28.884  35.386  1.00  0.00     0.023 A 
ATOM     87  C   UNL A   1      45.234  29.444  35.214  1.00  0.00     0.012 A 
ATOM     88  C   UNL A   1      43.781  27.817  36.290  1.00  0.00     0.148 A 
ATOM     89  C   UNL A   1      46.330  28.934  35.909  1.00  0.00     0.002 A 
ATOM     90  C   UNL A   1      44.868  27.345  37.015  1.00  0.00     0.091 A 
ATOM     91  F   UNL A   1      42.557  27.284  36.425  1.00  0.00    -0.205 F 
ATOM     92  C   UNL A   1      46.145  27.894  36.817  1.00  0.00     0.022 A 
BRANCH  90  93
ATOM     93  S   UNL A   1      44.705  26.075  38.275  1.00  0.00     0.127 S 
ATOM     94  O   UNL A   1      43.983  25.028  37.554  1.00  0.00    -0.237 OA
ATOM     95  O   UNL A   1      46.101  25.756  38.577  1.00  0.00    -0.237 OA
ATOM     96  O   UNL A   1      43.978  26.694  39.375  1.00  0.00    -0.744 OA
ENDBRANCH  90  93
ENDBRANCH  63  86
ENDBRANCH  37  38
ENDBRANCH  29  32
ENDBRANCH  27  28
ENDBRANCH   1  27
TORSDOF 18
ENDMDL
MODEL 3
REMARK VINA RESULT:     -11.5      2.070      4.143
REMARK SMILES CC(C)C[C@@H]([NH2+][C@H]1CCOC2(CCOCC2)C1)C(=O)NCCCCNC(=O)c1ccc(-c2c3nc(c(-c4cccc(S(=O)(=O)[O-])c4F)c4ccc([nH]4)c(-c4cccc(S(=O)(=O)[O-])c4F)c4nc(c(-c5cccc(S(=O)(=O)[O-])c5F)c5ccc2[nH]5)C=C4)C=C3)cc1
REMARK SMILES IDX 23 1 22 2 21 3 20 4 18 5 19 6 5 8 4 9 2 10 1 11 3 12 6 13
REMARK SMILES IDX 7 16 8 17 17 18 9 19 11 20 10 21 12 22 16 23 13 24 15 25
REMARK SMILES IDX 14 26 24 27 25 28 26 29 27 31 28 32 29 33 90 34 30 35 89 36
REMARK SMILES IDX 31 37 32 38 33 39 83 40 34 41 88 42 82 43 84 44 35 45 87 46
REMARK SMILES IDX 81 47 80 48 36 50 68 51 48 52 67 53 49 54 52 55 66 56 85 57
REMARK SMILES IDX 50 58 51 59 65 61 86 62 53 63 37 64 38 65 46 66 39 67 41 68
REMARK SMILES IDX 47 69 40 70 42 71 43 72 44 73 45 74 69 75 70 76 78 77 71 78
REMARK SMILES IDX 73 79 79 80 72 81 74 82 75 83 76 84 77 85 54 86 55 87 63 88
REMARK SMILES IDX 56 89 58 90 64 91 57 92 59 93 60 94 61 95 62 96
REMARK H PARENT 20 7 6 14 6 15 25 30 84 49 52 60
REMARK Flexibility Score: inf
ROOT
ATOM      1  C   UNL A   1      31.393  31.431  26.436  1.00  0.00     0.023 C 
ENDROOT
BRANCH   1   2
ATOM      2  C   UNL A   1      31.474  30.238  25.482  1.00  0.00     0.023 C 
BRANCH   2   3
ATOM      3  C   UNL A   1      32.866  29.614  25.379  1.00  0.00     0.116 C 
BRANCH   3   4
ATOM      4  N   UNL A   1      33.259  29.498  23.989  1.00  0.00    -0.351 N 
ATOM      5  C   UNL A   1      33.394  28.382  23.220  1.00  0.00     0.278 C 
ATOM      6  O   UNL A   1      33.975  28.496  22.135  1.00  0.00    -0.268 OA
ATOM      7  H   UNL A   1      33.456  30.348  23.534  1.00  0.00     0.163 HD
BRANCH   5   8
ATOM      8  C   UNL A   1      32.852  27.008  23.671  1.00  0.00     0.273 C 
BRANCH   8   9
ATOM      9  C   UNL A   1      31.346  26.958  23.322  1.00  0.00     0.078 C 
BRANCH   9  10
ATOM     10  C   UNL A   1      30.414  26.221  24.299  1.00  0.00    -0.011 C 
ATOM     11  C   UNL A   1      30.652  26.628  25.751  1.00  0.00     0.007 C 
ATOM     12  C   UNL A   1      28.956  26.496  23.911  1.00  0.00     0.007 C 
ENDBRANCH   9  10
ENDBRANCH   8   9
BRANCH   8  13
ATOM     13  N   UNL A   1      33.622  25.867  23.122  1.00  0.00    -0.333 N 
ATOM     14  H   UNL A   1      34.485  26.247  22.732  1.00  0.00     0.347 HD
ATOM     15  H   UNL A   1      32.981  25.431  22.460  1.00  0.00     0.347 HD
BRANCH  13  16
ATOM     16  C   UNL A   1      34.005  24.762  24.036  1.00  0.00     0.188 C 
ATOM     17  C   UNL A   1      33.847  24.970  25.549  1.00  0.00     0.093 C 
ATOM     18  C   UNL A   1      33.235  23.488  23.623  1.00  0.00     0.100 C 
ATOM     19  C   UNL A   1      34.176  23.711  26.331  1.00  0.00     0.167 C 
ATOM     20  C   UNL A   1      33.567  22.265  24.503  1.00  0.00     0.078 C 
ATOM     21  O   UNL A   1      33.396  22.611  25.886  1.00  0.00    -0.374 OA
ATOM     22  C   UNL A   1      34.976  21.704  24.222  1.00  0.00     0.064 C 
ATOM     23  C   UNL A   1      32.550  21.136  24.239  1.00  0.00     0.064 C 
ATOM     24  C   UNL A   1      35.218  20.426  25.018  1.00  0.00     0.163 C 
ATOM     25  C   UNL A   1      32.917  19.887  25.035  1.00  0.00     0.163 C 
ATOM     26  O   UNL A   1      34.232  19.446  24.694  1.00  0.00    -0.381 OA
ENDBRANCH  13  16
ENDBRANCH   8  13
ENDBRANCH   5   8
ENDBRANCH   3   4
ENDBRANCH   2   3
ENDBRANCH   1   2
BRANCH   1  27
ATOM     27  C   UNL A   1      32.684  31.737  27.185  1.00  0.00     0.116 C 
BRANCH  27  28
ATOM     28  N   UNL A   1      32.880  33.165  27.395  1.00  0.00    -0.352 N 
ATOM     29  C   UNL A   1      33.892  33.796  28.076  1.00  0.00     0.251 C 
ATOM     30  H   UNL A   1      32.200  33.754  26.998  1.00  0.00     0.163 HD
ATOM     31  O   UNL A   1      33.832  35.003  28.296  1.00  0.00    -0.269 OA
BRANCH  29  32
ATOM     32  C   UNL A   1      35.039  33.002  28.562  1.00  0.00     0.039 A 
ATOM     33  C   UNL A   1      36.333  33.486  28.359  1.00  0.00     0.014 A 
ATOM     34  C   UNL A   1      34.829  31.802  29.247  1.00  0.00     0.014 A 
ATOM     35  C   UNL A   1      37.419  32.793  28.897  1.00  0.00     0.010 A 
ATOM     36  C   UNL A   1      35.905  31.152  29.841  1.00  0.00     0.010 A 
ATOM     37  C   UNL A   1      37.210  31.637  29.669  1.00  0.00    -0.014 A 
BRANCH  37  38
ATOM     38  C   UNL A   1      38.342  30.927  30.314  1.00  0.00     0.031 A 
ATOM     39  C   UNL A   1      38.765  31.293  31.711  1.00  0.00     0.074 A 
ATOM     40  C   UNL A   1      39.048  30.020  29.610  1.00  0.00     0.049 A 
ATOM     41  N   UNL A   1      39.763  30.831  32.417  1.00  0.00    -0.248 NA
ATOM     42  C   UNL A   1      37.983  32.338  32.392  1.00  0.00     0.031 C 
ATOM     43  C   UNL A   1      38.788  29.640  28.219  1.00  0.00     0.029 A 
ATOM     44  N   UNL A   1      40.144  29.273  29.958  1.00  0.00    -0.354 N 
ATOM     45  C   UNL A   1      39.753  31.550  33.605  1.00  0.00     0.074 A 
ATOM     46  C   UNL A   1      38.670  32.504  33.513  1.00  0.00     0.031 C 
ATOM     47  C   UNL A   1      39.697  28.730  27.835  1.00  0.00     0.029 A 
ATOM     48  C   UNL A   1      40.618  28.479  28.939  1.00  0.00     0.049 A 
ATOM     49  H   UNL A   1      40.554  29.302  30.853  1.00  0.00     0.167 HD
ATOM     50  C   UNL A   1      40.552  31.408  34.691  1.00  0.00     0.034 A 
ATOM     51  C   UNL A   1      41.677  27.647  28.897  1.00  0.00     0.034 A 
ATOM     52  C   UNL A   1      41.593  30.422  34.798  1.00  0.00     0.049 A 
ATOM     53  C   UNL A   1      42.517  27.471  30.134  1.00  0.00     0.074 A 
ATOM     54  C   UNL A   1      42.392  30.132  35.890  1.00  0.00     0.029 A 
ATOM     55  N   UNL A   1      41.983  29.568  33.779  1.00  0.00    -0.354 N 
ATOM     56  N   UNL A   1      42.386  28.040  31.308  1.00  0.00    -0.248 NA
ATOM     57  C   UNL A   1      43.627  26.511  30.053  1.00  0.00     0.031 C 
ATOM     58  C   UNL A   1      43.278  29.114  35.523  1.00  0.00     0.029 A 
ATOM     59  C   UNL A   1      43.016  28.756  34.211  1.00  0.00     0.049 A 
ATOM     60  H   UNL A   1      41.582  29.543  32.879  1.00  0.00     0.167 HD
ATOM     61  C   UNL A   1      43.370  27.482  32.115  1.00  0.00     0.074 A 
ATOM     62  C   UNL A   1      44.077  26.514  31.301  1.00  0.00     0.031 C 
ATOM     63  C   UNL A   1      43.672  27.756  33.407  1.00  0.00     0.034 A 
BRANCH  50  64
ATOM     64  C   UNL A   1      40.291  32.303  35.873  1.00  0.00     0.023 A 
ATOM     65  C   UNL A   1      41.066  33.467  36.045  1.00  0.00     0.012 A 
ATOM     66  C   UNL A   1      39.246  32.029  36.777  1.00  0.00     0.148 A 
ATOM     67  C   UNL A   1      40.831  34.327  37.117  1.00  0.00     0.002 A 
ATOM     68  C   UNL A   1      38.989  32.914  37.818  1.00  0.00     0.091 A 
ATOM     69  F   UNL A   1      38.534  30.906  36.611  1.00  0.00    -0.205 F 
ATOM     70  C   UNL A   1      39.787  34.056  37.996  1.00  0.00     0.022 A 
BRANCH  68  71
ATOM     71  S   UNL A   1      37.618  32.695  38.958  1.00  0.00     0.127 S 
ATOM     72  O   UNL A   1      36.467  32.839  38.066  1.00  0.00    -0.237 OA
ATOM     73  O   UNL A   1      37.840  31.336  39.451  1.00  0.00    -0.237 OA
ATOM     74  O   UNL A   1      37.763  33.737  39.965  1.00  0.00    -0.744 OA
ENDBRANCH  68  71
ENDBRANCH  50  64
BRANCH  51  75
ATOM     75  C   UNL A   1      41.957  26.858  27.664  1.00  0.00     0.023 A 
ATOM     76  C   UNL A   1      42.519  27.504  26.546  1.00  0.00     0.012 A 
ATOM     77  C   UNL A   1      41.700  25.475  27.601  1.00  0.00     0.148 A 
ATOM     78  C   UNL A   1      42.791  26.795  25.376  1.00  0.00     0.002 A 
ATOM     79  C   UNL A   1      42.023  24.764  26.451  1.00  0.00     0.091 A 
ATOM     80  F   UNL A   1      41.154  24.881  28.671  1.00  0.00    -0.205 F 
ATOM     81  C   UNL A   1      42.552  25.424  25.331  1.00  0.00     0.022 A 
BRANCH  79  82
ATOM     82  S   UNL A   1      41.872  22.977  26.352  1.00  0.00     0.127 S 
ATOM     83  O   UNL A   1      42.465  22.698  25.046  1.00  0.00    -0.237 OA
ATOM     84  O   UNL A   1      42.671  22.540  27.497  1.00  0.00    -0.237 OA
ATOM     85  O   UNL A   1      40.448  22.697  26.474  1.00  0.00    -0.744 OA
ENDBRANCH  79  82
ENDBRANCH  51  75
BRANCH  63  86
ATOM     86  C   UNL A   1      44.795  26.979  34.044  1.00  0.00     0.023 A 
ATOM     87  C   UNL A   1      46.122  27.427  33.905  1.00  0.00     0.012 A 
ATOM     88  C   UNL A   1      44.524  25.851  34.844  1.00  0.00     0.148 A 
ATOM     89  C   UNL A   1      47.167  26.747  34.528  1.00  0.00     0.002 A 
ATOM     90  C   UNL A   1      45.565  25.208  35.502  1.00  0.00     0.091 A 
ATOM     91  F   UNL A   1      43.255  25.429  34.948  1.00  0.00    -0.205 F 
ATOM     92  C   UNL A   1      46.888  25.647  35.336  1.00  0.00     0.022 A 
BRANCH  90  93
ATOM     93  S   UNL A   1      45.288  23.844  36.637  1.00  0.00     0.127 S 
ATOM     94  O   UNL A   1      44.476  24.478  37.674  1.00  0.00    -0.237 OA
ATOM     95  O   UNL A   1      44.567  22.884  35.800  1.00  0.00    -0.237 OA
ATOM     96  O   UNL A   1      46.610  23.400  37.059  1.00  0.00    -0.744 OA
ENDBRANCH  90  93
ENDBRANCH  63  86
ENDBRANCH  37  38
ENDBRANCH  29  32
ENDBRANCH  27  28
ENDBRANCH   1  27
TORSDOF 18
ENDMDL
