MODEL 1
REMARK VINA RESULT:     -10.7      0.000      0.000
REMARK SMILES C[C@@H](C(=O)NCCCCNC(=O)c1ccc(-c2c3nc(c(-c4cccc(S(=O)(=O)[O-])c4F)c4ccc([nH]4)c(-c4cccc(S(=O)(=O)[O-])c4F)c4nc(c(-c5cccc(S(=O)(=O)[O-])c5F)c5ccc2[nH]5)C=C4)C=C3)cc1)c1ccc(-c2cccc(OC(=O)NCCCc3ccccc3)c2)c(F)c1
REMARK SMILES IDX 3 1 4 2 5 3 2 5 1 6 76 7 77 8 101 9 78 10 99 11 79 12 100 13
REMARK SMILES IDX 80 14 81 15 98 16 82 17 84 18 83 19 85 20 86 21 87 22 88 23
REMARK SMILES IDX 89 25 90 26 91 27 92 28 93 29 97 30 94 31 96 32 95 33 6 34
REMARK SMILES IDX 7 35 8 36 9 37 10 38 11 39 12 41 13 42 14 43 75 44 15 45
REMARK SMILES IDX 74 46 16 47 17 48 18 49 68 50 19 51 73 52 67 53 69 54 20 55
REMARK SMILES IDX 72 56 66 57 65 58 21 60 53 61 33 62 52 63 34 64 37 65 51 66
REMARK SMILES IDX 70 67 35 68 36 69 50 71 71 72 38 73 22 74 23 75 31 76 24 77
REMARK SMILES IDX 26 78 32 79 25 80 27 81 28 82 29 83 30 84 54 85 55 86 63 87
REMARK SMILES IDX 56 88 58 89 64 90 57 91 59 92 60 93 61 94 62 95 39 96 40 97
REMARK SMILES IDX 48 98 41 99 43 100 49 101 42 102 44 103 45 104 46 105 47 106
REMARK H PARENT 5 4 88 24 10 40 69 59 37 70
REMARK Flexibility Score: inf
ROOT
ATOM      1  C   UNL A   1      35.076  32.213  29.561  1.00  0.00     0.227 C 
ATOM      2  O   UNL A   1      34.384  32.306  30.575  1.00  0.00    -0.274 OA
ATOM      3  N   UNL A   1      36.358  31.774  29.721  1.00  0.00    -0.356 N 
ATOM      4  H   UNL A   1      36.583  31.454  30.624  1.00  0.00     0.163 HD
ENDROOT
BRANCH   1   5
ATOM      5  C   UNL A   1      34.543  32.516  28.149  1.00  0.00     0.105 C 
ATOM      6  C   UNL A   1      33.628  33.746  28.115  1.00  0.00     0.023 C 
BRANCH   5   7
ATOM      7  C   UNL A   1      33.851  31.298  27.549  1.00  0.00    -0.033 A 
ATOM      8  C   UNL A   1      32.483  31.306  27.236  1.00  0.00     0.005 A 
ATOM      9  C   UNL A   1      34.574  30.114  27.356  1.00  0.00     0.044 A 
ATOM     10  C   UNL A   1      31.861  30.176  26.712  1.00  0.00     0.012 A 
ATOM     11  C   UNL A   1      33.942  28.983  26.846  1.00  0.00     0.131 A 
ATOM     12  C   UNL A   1      32.580  28.991  26.512  1.00  0.00     0.018 A 
ATOM     13  F   UNL A   1      34.670  27.865  26.690  1.00  0.00    -0.206 F 
BRANCH  12  14
ATOM     14  C   UNL A   1      31.876  27.782  26.077  1.00  0.00    -0.012 A 
ATOM     15  C   UNL A   1      31.028  27.782  24.958  1.00  0.00     0.009 A 
ATOM     16  C   UNL A   1      31.985  26.614  26.842  1.00  0.00     0.056 A 
ATOM     17  C   UNL A   1      30.293  26.643  24.622  1.00  0.00     0.004 A 
ATOM     18  C   UNL A   1      31.236  25.490  26.518  1.00  0.00     0.133 A 
ATOM     19  C   UNL A   1      30.392  25.497  25.407  1.00  0.00     0.047 A 
BRANCH  18  20
ATOM     20  O   UNL A   1      31.277  24.284  27.249  1.00  0.00    -0.410 OA
BRANCH  20  21
ATOM     21  C   UNL A   1      31.193  23.005  26.704  1.00  0.00     0.412 C 
ATOM     22  O   UNL A   1      30.233  22.506  26.135  1.00  0.00    -0.224 OA
ATOM     23  N   UNL A   1      32.353  22.296  26.844  1.00  0.00    -0.321 N 
ATOM     24  H   UNL A   1      32.336  21.347  26.584  1.00  0.00     0.167 HD
BRANCH  23  25
ATOM     25  C   UNL A   1      33.599  22.824  27.340  1.00  0.00     0.120 C 
BRANCH  25  26
ATOM     26  C   UNL A   1      34.651  23.063  26.261  1.00  0.00     0.026 C 
BRANCH  26  27
ATOM     27  C   UNL A   1      34.714  24.447  25.603  1.00  0.00     0.037 C 
BRANCH  27  28
ATOM     28  C   UNL A   1      33.960  24.728  24.324  1.00  0.00    -0.048 A 
ATOM     29  C   UNL A   1      33.262  23.770  23.581  1.00  0.00     0.004 A 
ATOM     30  C   UNL A   1      34.028  26.035  23.807  1.00  0.00     0.004 A 
ATOM     31  C   UNL A   1      32.664  24.100  22.361  1.00  0.00     0.000 A 
ATOM     32  C   UNL A   1      33.420  26.369  22.595  1.00  0.00     0.000 A 
ATOM     33  C   UNL A   1      32.743  25.398  21.867  1.00  0.00     0.000 A 
ENDBRANCH  27  28
ENDBRANCH  26  27
ENDBRANCH  25  26
ENDBRANCH  23  25
ENDBRANCH  20  21
ENDBRANCH  18  20
ENDBRANCH  12  14
ENDBRANCH   5   7
ENDBRANCH   1   5
BRANCH   3  34
ATOM     34  C   UNL A   1      37.433  31.709  28.755  1.00  0.00     0.116 C 
BRANCH  34  35
ATOM     35  C   UNL A   1      38.470  30.665  29.174  1.00  0.00     0.023 C 
BRANCH  35  36
ATOM     36  C   UNL A   1      37.929  29.237  29.245  1.00  0.00     0.023 C 
BRANCH  36  37
ATOM     37  C   UNL A   1      38.912  28.209  29.791  1.00  0.00     0.116 C 
BRANCH  37  38
ATOM     38  N   UNL A   1      38.392  27.500  30.951  1.00  0.00    -0.352 N 
ATOM     39  C   UNL A   1      38.526  27.817  32.281  1.00  0.00     0.251 C 
ATOM     40  H   UNL A   1      37.874  26.685  30.758  1.00  0.00     0.163 HD
ATOM     41  O   UNL A   1      38.153  27.029  33.143  1.00  0.00    -0.269 OA
BRANCH  39  42
ATOM     42  C   UNL A   1      39.151  29.102  32.656  1.00  0.00     0.039 A 
ATOM     43  C   UNL A   1      40.522  29.133  32.922  1.00  0.00     0.014 A 
ATOM     44  C   UNL A   1      38.393  30.274  32.708  1.00  0.00     0.014 A 
ATOM     45  C   UNL A   1      41.143  30.357  33.182  1.00  0.00     0.010 A 
ATOM     46  C   UNL A   1      39.028  31.499  32.884  1.00  0.00     0.010 A 
ATOM     47  C   UNL A   1      40.407  31.553  33.130  1.00  0.00    -0.014 A 
BRANCH  47  48
ATOM     48  C   UNL A   1      41.068  32.870  33.318  1.00  0.00     0.031 A 
ATOM     49  C   UNL A   1      41.690  33.581  32.147  1.00  0.00     0.074 A 
ATOM     50  C   UNL A   1      41.176  33.389  34.558  1.00  0.00     0.049 A 
ATOM     51  N   UNL A   1      42.345  34.712  32.124  1.00  0.00    -0.248 NA
ATOM     52  C   UNL A   1      41.588  32.923  30.833  1.00  0.00     0.031 C 
ATOM     53  C   UNL A   1      40.685  32.757  35.786  1.00  0.00     0.029 A 
ATOM     54  N   UNL A   1      41.758  34.552  34.995  1.00  0.00    -0.354 N 
ATOM     55  C   UNL A   1      42.760  34.885  30.810  1.00  0.00     0.074 A 
ATOM     56  C   UNL A   1      42.316  33.724  30.071  1.00  0.00     0.031 C 
ATOM     57  C   UNL A   1      40.976  33.545  36.833  1.00  0.00     0.029 A 
ATOM     58  C   UNL A   1      41.706  34.716  36.360  1.00  0.00     0.049 A 
ATOM     59  H   UNL A   1      42.171  35.208  34.389  1.00  0.00     0.167 HD
ATOM     60  C   UNL A   1      43.425  35.929  30.258  1.00  0.00     0.034 A 
ATOM     61  C   UNL A   1      42.200  35.695  37.144  1.00  0.00     0.034 A 
ATOM     62  C   UNL A   1      43.836  37.096  30.990  1.00  0.00     0.049 A 
ATOM     63  C   UNL A   1      42.914  36.855  36.502  1.00  0.00     0.074 A 
ATOM     64  C   UNL A   1      44.439  38.244  30.507  1.00  0.00     0.029 A 
ATOM     65  N   UNL A   1      43.702  37.261  32.360  1.00  0.00    -0.354 N 
ATOM     66  N   UNL A   1      43.157  37.075  35.233  1.00  0.00    -0.248 NA
ATOM     67  C   UNL A   1      43.389  37.918  37.398  1.00  0.00     0.031 C 
ATOM     68  C   UNL A   1      44.703  39.087  31.592  1.00  0.00     0.029 A 
ATOM     69  C   UNL A   1      44.223  38.485  32.743  1.00  0.00     0.049 A 
ATOM     70  H   UNL A   1      43.295  36.605  32.971  1.00  0.00     0.167 HD
ATOM     71  C   UNL A   1      43.777  38.318  35.175  1.00  0.00     0.074 A 
ATOM     72  C   UNL A   1      43.853  38.811  36.534  1.00  0.00     0.031 C 
ATOM     73  C   UNL A   1      44.251  38.986  34.093  1.00  0.00     0.034 A 
BRANCH  60  74
ATOM     74  C   UNL A   1      43.712  35.874  28.780  1.00  0.00     0.023 A 
ATOM     75  C   UNL A   1      42.801  36.448  27.868  1.00  0.00     0.012 A 
ATOM     76  C   UNL A   1      44.909  35.309  28.296  1.00  0.00     0.148 A 
ATOM     77  C   UNL A   1      43.057  36.426  26.498  1.00  0.00     0.002 A 
ATOM     78  C   UNL A   1      45.179  35.335  26.933  1.00  0.00     0.091 A 
ATOM     79  F   UNL A   1      45.754  34.752  29.174  1.00  0.00    -0.205 F 
ATOM     80  C   UNL A   1      44.249  35.880  26.032  1.00  0.00     0.022 A 
BRANCH  78  81
ATOM     81  S   UNL A   1      46.724  34.735  26.239  1.00  0.00     0.127 S 
ATOM     82  O   UNL A   1      46.367  34.566  24.831  1.00  0.00    -0.237 OA
ATOM     83  O   UNL A   1      47.633  35.849  26.506  1.00  0.00    -0.237 OA
ATOM     84  O   UNL A   1      47.037  33.507  26.954  1.00  0.00    -0.744 OA
ENDBRANCH  78  81
ENDBRANCH  60  74
BRANCH  61  85
ATOM     85  C   UNL A   1      41.992  35.647  38.619  1.00  0.00     0.023 A 
ATOM     86  C   UNL A   1      42.979  35.069  39.441  1.00  0.00     0.012 A 
ATOM     87  C   UNL A   1      40.835  36.185  39.212  1.00  0.00     0.148 A 
ATOM     88  C   UNL A   1      42.799  34.991  40.822  1.00  0.00     0.002 A 
ATOM     89  C   UNL A   1      40.688  36.156  40.594  1.00  0.00     0.091 A 
ATOM     90  F   UNL A   1      39.904  36.724  38.412  1.00  0.00    -0.205 F 
ATOM     91  C   UNL A   1      41.660  35.543  41.400  1.00  0.00     0.022 A 
BRANCH  89  92
ATOM     92  S   UNL A   1      39.317  36.957  41.435  1.00  0.00     0.127 S 
ATOM     93  O   UNL A   1      38.191  36.118  41.035  1.00  0.00    -0.237 OA
ATOM     94  O   UNL A   1      39.712  36.832  42.839  1.00  0.00    -0.237 OA
ATOM     95  O   UNL A   1      39.295  38.326  40.938  1.00  0.00    -0.744 OA
ENDBRANCH  89  92
ENDBRANCH  61  85
BRANCH  73  96
ATOM     96  C   UNL A   1      44.853  40.348  34.321  1.00  0.00     0.023 A 
ATOM     97  C   UNL A   1      46.189  40.467  34.754  1.00  0.00     0.012 A 
ATOM     98  C   UNL A   1      44.112  41.513  34.036  1.00  0.00     0.148 A 
ATOM     99  C   UNL A   1      46.765  41.723  34.935  1.00  0.00     0.002 A 
ATOM    100  C   UNL A   1      44.711  42.760  34.167  1.00  0.00     0.091 A 
ATOM    101  F   UNL A   1      42.838  41.379  33.641  1.00  0.00    -0.205 F 
ATOM    102  C   UNL A   1      46.032  42.868  34.631  1.00  0.00     0.022 A 
BRANCH 100 103
ATOM    103  S   UNL A   1      43.878  44.282  33.702  1.00  0.00     0.127 S 
ATOM    104  O   UNL A   1      42.592  44.137  34.384  1.00  0.00    -0.237 OA
ATOM    105  O   UNL A   1      44.758  45.302  34.271  1.00  0.00    -0.237 OA
ATOM    106  O   UNL A   1      43.815  44.280  32.247  1.00  0.00    -0.744 OA
ENDBRANCH 100 103
ENDBRANCH  73  96
ENDBRANCH  47  48
ENDBRANCH  39  42
ENDBRANCH  37  38
ENDBRANCH  36  37
ENDBRANCH  35  36
ENDBRANCH  34  35
ENDBRANCH   3  34
TORSDOF 22
ENDMDL
MODEL 2
REMARK VINA RESULT:     -10.4      6.461     11.676
REMARK SMILES C[C@@H](C(=O)NCCCCNC(=O)c1ccc(-c2c3nc(c(-c4cccc(S(=O)(=O)[O-])c4F)c4ccc([nH]4)c(-c4cccc(S(=O)(=O)[O-])c4F)c4nc(c(-c5cccc(S(=O)(=O)[O-])c5F)c5ccc2[nH]5)C=C4)C=C3)cc1)c1ccc(-c2cccc(OC(=O)NCCCc3ccccc3)c2)c(F)c1
REMARK SMILES IDX 3 1 4 2 5 3 2 5 1 6 76 7 77 8 101 9 78 10 99 11 79 12 100 13
REMARK SMILES IDX 80 14 81 15 98 16 82 17 84 18 83 19 85 20 86 21 87 22 88 23
REMARK SMILES IDX 89 25 90 26 91 27 92 28 93 29 97 30 94 31 96 32 95 33 6 34
REMARK SMILES IDX 7 35 8 36 9 37 10 38 11 39 12 41 13 42 14 43 75 44 15 45
REMARK SMILES IDX 74 46 16 47 17 48 18 49 68 50 19 51 73 52 67 53 69 54 20 55
REMARK SMILES IDX 72 56 66 57 65 58 21 60 53 61 33 62 52 63 34 64 37 65 51 66
REMARK SMILES IDX 70 67 35 68 36 69 50 71 71 72 38 73 22 74 23 75 31 76 24 77
REMARK SMILES IDX 26 78 32 79 25 80 27 81 28 82 29 83 30 84 54 85 55 86 63 87
REMARK SMILES IDX 56 88 58 89 64 90 57 91 59 92 60 93 61 94 62 95 39 96 40 97
REMARK SMILES IDX 48 98 41 99 43 100 49 101 42 102 44 103 45 104 46 105 47 106
REMARK H PARENT 5 4 88 24 10 40 69 59 37 70
REMARK Flexibility Score: inf
ROOT
ATOM      1  C   UNL A   1      45.308  21.614  25.458  1.00  0.00     0.227 C 
ATOM      2  O   UNL A   1      46.464  21.271  25.208  1.00  0.00    -0.274 OA
ATOM      3  N   UNL A   1      44.377  20.624  25.574  1.00  0.00    -0.356 N 
ATOM      4  H   UNL A   1      44.734  19.707  25.564  1.00  0.00     0.163 HD
ENDROOT
BRANCH   1   5
ATOM      5  C   UNL A   1      44.899  23.079  25.693  1.00  0.00     0.105 C 
ATOM      6  C   UNL A   1      44.213  23.702  24.472  1.00  0.00     0.023 C 
BRANCH   5   7
ATOM      7  C   UNL A   1      46.089  23.918  26.143  1.00  0.00    -0.033 A 
ATOM      8  C   UNL A   1      46.412  24.071  27.501  1.00  0.00     0.005 A 
ATOM      9  C   UNL A   1      46.852  24.607  25.192  1.00  0.00     0.044 A 
ATOM     10  C   UNL A   1      47.487  24.862  27.896  1.00  0.00     0.012 A 
ATOM     11  C   UNL A   1      47.918  25.408  25.597  1.00  0.00     0.131 A 
ATOM     12  C   UNL A   1      48.258  25.549  26.949  1.00  0.00     0.018 A 
ATOM     13  F   UNL A   1      48.614  26.061  24.652  1.00  0.00    -0.206 F 
BRANCH  12  14
ATOM     14  C   UNL A   1      49.305  26.470  27.398  1.00  0.00    -0.012 A 
ATOM     15  C   UNL A   1      50.582  26.017  27.764  1.00  0.00     0.009 A 
ATOM     16  C   UNL A   1      49.003  27.829  27.547  1.00  0.00     0.056 A 
ATOM     17  C   UNL A   1      51.530  26.901  28.283  1.00  0.00     0.004 A 
ATOM     18  C   UNL A   1      49.940  28.702  28.083  1.00  0.00     0.133 A 
ATOM     19  C   UNL A   1      51.207  28.246  28.448  1.00  0.00     0.047 A 
BRANCH  18  20
ATOM     20  O   UNL A   1      49.706  30.080  28.280  1.00  0.00    -0.410 OA
BRANCH  20  21
ATOM     21  C   UNL A   1      49.169  30.953  27.336  1.00  0.00     0.412 C 
ATOM     22  O   UNL A   1      49.677  31.301  26.281  1.00  0.00    -0.224 OA
ATOM     23  N   UNL A   1      47.934  31.415  27.690  1.00  0.00    -0.321 N 
ATOM     24  H   UNL A   1      47.538  32.122  27.130  1.00  0.00     0.167 HD
BRANCH  23  25
ATOM     25  C   UNL A   1      47.161  30.956  28.816  1.00  0.00     0.120 C 
BRANCH  25  26
ATOM     26  C   UNL A   1      45.838  30.294  28.439  1.00  0.00     0.026 C 
BRANCH  26  27
ATOM     27  C   UNL A   1      45.870  29.116  27.458  1.00  0.00     0.037 C 
BRANCH  27  28
ATOM     28  C   UNL A   1      44.616  28.677  26.739  1.00  0.00    -0.048 A 
ATOM     29  C   UNL A   1      44.508  27.527  25.951  1.00  0.00     0.004 A 
ATOM     30  C   UNL A   1      43.497  29.527  26.812  1.00  0.00     0.004 A 
ATOM     31  C   UNL A   1      43.332  27.241  25.249  1.00  0.00     0.000 A 
ATOM     32  C   UNL A   1      42.317  29.237  26.123  1.00  0.00     0.000 A 
ATOM     33  C   UNL A   1      42.238  28.095  25.334  1.00  0.00     0.000 A 
ENDBRANCH  27  28
ENDBRANCH  26  27
ENDBRANCH  25  26
ENDBRANCH  23  25
ENDBRANCH  20  21
ENDBRANCH  18  20
ENDBRANCH  12  14
ENDBRANCH   5   7
ENDBRANCH   1   5
BRANCH   3  34
ATOM     34  C   UNL A   1      42.940  20.727  25.708  1.00  0.00     0.116 C 
BRANCH  34  35
ATOM     35  C   UNL A   1      42.415  19.680  26.693  1.00  0.00     0.023 C 
BRANCH  35  36
ATOM     36  C   UNL A   1      41.095  20.058  27.365  1.00  0.00     0.023 C 
BRANCH  36  37
ATOM     37  C   UNL A   1      40.698  21.521  27.214  1.00  0.00     0.116 C 
BRANCH  37  38
ATOM     38  N   UNL A   1      39.556  21.702  26.328  1.00  0.00    -0.352 N 
ATOM     39  C   UNL A   1      38.788  22.824  26.141  1.00  0.00     0.251 C 
ATOM     40  H   UNL A   1      39.302  20.916  25.792  1.00  0.00     0.163 HD
ATOM     41  O   UNL A   1      37.764  22.765  25.466  1.00  0.00    -0.269 OA
BRANCH  39  42
ATOM     42  C   UNL A   1      39.190  24.091  26.785  1.00  0.00     0.039 A 
ATOM     43  C   UNL A   1      38.766  24.350  28.090  1.00  0.00     0.014 A 
ATOM     44  C   UNL A   1      40.014  25.000  26.115  1.00  0.00     0.014 A 
ATOM     45  C   UNL A   1      39.220  25.496  28.745  1.00  0.00     0.010 A 
ATOM     46  C   UNL A   1      40.530  26.096  26.798  1.00  0.00     0.010 A 
ATOM     47  C   UNL A   1      40.133  26.359  28.117  1.00  0.00    -0.014 A 
BRANCH  47  48
ATOM     48  C   UNL A   1      40.692  27.537  28.830  1.00  0.00     0.031 A 
ATOM     49  C   UNL A   1      42.058  27.465  29.457  1.00  0.00     0.074 A 
ATOM     50  C   UNL A   1      39.938  28.644  28.979  1.00  0.00     0.049 A 
ATOM     51  N   UNL A   1      42.693  28.371  30.153  1.00  0.00    -0.248 NA
ATOM     52  C   UNL A   1      42.798  26.201  29.306  1.00  0.00     0.031 C 
ATOM     53  C   UNL A   1      38.568  28.808  28.486  1.00  0.00     0.029 A 
ATOM     54  N   UNL A   1      40.206  29.832  29.612  1.00  0.00    -0.354 N 
ATOM     55  C   UNL A   1      43.885  27.780  30.551  1.00  0.00     0.074 A 
ATOM     56  C   UNL A   1      43.870  26.423  30.050  1.00  0.00     0.031 C 
ATOM     57  C   UNL A   1      38.121  30.028  28.826  1.00  0.00     0.029 A 
ATOM     58  C   UNL A   1      39.154  30.718  29.590  1.00  0.00     0.049 A 
ATOM     59  H   UNL A   1      41.070  30.032  30.039  1.00  0.00     0.167 HD
ATOM     60  C   UNL A   1      44.914  28.324  31.244  1.00  0.00     0.034 A 
ATOM     61  C   UNL A   1      39.031  31.945  30.135  1.00  0.00     0.034 A 
ATOM     62  C   UNL A   1      44.938  29.683  31.712  1.00  0.00     0.049 A 
ATOM     63  C   UNL A   1      40.198  32.535  30.880  1.00  0.00     0.074 A 
ATOM     64  C   UNL A   1      45.967  30.354  32.349  1.00  0.00     0.029 A 
ATOM     65  N   UNL A   1      43.883  30.576  31.608  1.00  0.00    -0.354 N 
ATOM     66  N   UNL A   1      41.380  32.015  31.108  1.00  0.00    -0.248 NA
ATOM     67  C   UNL A   1      40.028  33.894  31.411  1.00  0.00     0.031 C 
ATOM     68  C   UNL A   1      45.520  31.641  32.663  1.00  0.00     0.029 A 
ATOM     69  C   UNL A   1      44.229  31.787  32.182  1.00  0.00     0.049 A 
ATOM     70  H   UNL A   1      43.015  30.378  31.188  1.00  0.00     0.167 HD
ATOM     71  C   UNL A   1      42.106  32.996  31.773  1.00  0.00     0.074 A 
ATOM     72  C   UNL A   1      41.237  34.149  31.892  1.00  0.00     0.031 C 
ATOM     73  C   UNL A   1      43.373  32.943  32.252  1.00  0.00     0.034 A 
BRANCH  60  74
ATOM     74  C   UNL A   1      46.120  27.457  31.503  1.00  0.00     0.023 A 
ATOM     75  C   UNL A   1      47.264  27.589  30.689  1.00  0.00     0.012 A 
ATOM     76  C   UNL A   1      46.144  26.556  32.586  1.00  0.00     0.148 A 
ATOM     77  C   UNL A   1      48.398  26.812  30.922  1.00  0.00     0.002 A 
ATOM     78  C   UNL A   1      47.296  25.820  32.842  1.00  0.00     0.091 A 
ATOM     79  F   UNL A   1      45.042  26.430  33.337  1.00  0.00    -0.205 F 
ATOM     80  C   UNL A   1      48.417  25.936  32.004  1.00  0.00     0.022 A 
BRANCH  78  81
ATOM     81  S   UNL A   1      47.454  24.729  34.260  1.00  0.00     0.127 S 
ATOM     82  O   UNL A   1      46.412  23.740  33.986  1.00  0.00    -0.237 OA
ATOM     83  O   UNL A   1      48.820  24.230  34.112  1.00  0.00    -0.237 OA
ATOM     84  O   UNL A   1      47.231  25.559  35.435  1.00  0.00    -0.744 OA
ENDBRANCH  78  81
ENDBRANCH  60  74
BRANCH  61  85
ATOM     85  C   UNL A   1      37.771  32.721  29.952  1.00  0.00     0.023 A 
ATOM     86  C   UNL A   1      37.458  33.246  28.682  1.00  0.00     0.012 A 
ATOM     87  C   UNL A   1      36.876  32.926  31.018  1.00  0.00     0.148 A 
ATOM     88  C   UNL A   1      36.297  33.995  28.489  1.00  0.00     0.002 A 
ATOM     89  C   UNL A   1      35.693  33.624  30.805  1.00  0.00     0.091 A 
ATOM     90  F   UNL A   1      37.196  32.425  32.220  1.00  0.00    -0.205 F 
ATOM     91  C   UNL A   1      35.410  34.175  29.546  1.00  0.00     0.022 A 
BRANCH  89  92
ATOM     92  S   UNL A   1      34.432  33.794  32.072  1.00  0.00     0.127 S 
ATOM     93  O   UNL A   1      34.134  32.399  32.386  1.00  0.00    -0.237 OA
ATOM     94  O   UNL A   1      35.153  34.521  33.118  1.00  0.00    -0.237 OA
ATOM     95  O   UNL A   1      33.350  34.548  31.453  1.00  0.00    -0.744 OA
ENDBRANCH  89  92
ENDBRANCH  61  85
BRANCH  73  96
ATOM     96  C   UNL A   1      43.925  34.182  32.910  1.00  0.00     0.023 A 
ATOM     97  C   UNL A   1      44.559  35.172  32.133  1.00  0.00     0.012 A 
ATOM     98  C   UNL A   1      43.751  34.394  34.292  1.00  0.00     0.148 A 
ATOM     99  C   UNL A   1      45.044  36.336  32.728  1.00  0.00     0.002 A 
ATOM    100  C   UNL A   1      44.188  35.580  34.869  1.00  0.00     0.091 A 
ATOM    101  F   UNL A   1      43.160  33.433  35.017  1.00  0.00    -0.205 F 
ATOM    102  C   UNL A   1      44.848  36.546  34.091  1.00  0.00     0.022 A 
BRANCH 100 103
ATOM    103  S   UNL A   1      43.889  35.980  36.594  1.00  0.00     0.127 S 
ATOM    104  O   UNL A   1      44.894  35.159  37.268  1.00  0.00    -0.237 OA
ATOM    105  O   UNL A   1      44.156  37.418  36.628  1.00  0.00    -0.237 OA
ATOM    106  O   UNL A   1      42.505  35.615  36.859  1.00  0.00    -0.744 OA
ENDBRANCH 100 103
ENDBRANCH  73  96
ENDBRANCH  47  48
ENDBRANCH  39  42
ENDBRANCH  37  38
ENDBRANCH  36  37
ENDBRANCH  35  36
ENDBRANCH  34  35
ENDBRANCH   3  34
TORSDOF 22
ENDMDL
MODEL 3
REMARK VINA RESULT:     -10.4      6.310     11.455
REMARK SMILES C[C@@H](C(=O)NCCCCNC(=O)c1ccc(-c2c3nc(c(-c4cccc(S(=O)(=O)[O-])c4F)c4ccc([nH]4)c(-c4cccc(S(=O)(=O)[O-])c4F)c4nc(c(-c5cccc(S(=O)(=O)[O-])c5F)c5ccc2[nH]5)C=C4)C=C3)cc1)c1ccc(-c2cccc(OC(=O)NCCCc3ccccc3)c2)c(F)c1
REMARK SMILES IDX 3 1 4 2 5 3 2 5 1 6 76 7 77 8 101 9 78 10 99 11 79 12 100 13
REMARK SMILES IDX 80 14 81 15 98 16 82 17 84 18 83 19 85 20 86 21 87 22 88 23
REMARK SMILES IDX 89 25 90 26 91 27 92 28 93 29 97 30 94 31 96 32 95 33 6 34
REMARK SMILES IDX 7 35 8 36 9 37 10 38 11 39 12 41 13 42 14 43 75 44 15 45
REMARK SMILES IDX 74 46 16 47 17 48 18 49 68 50 19 51 73 52 67 53 69 54 20 55
REMARK SMILES IDX 72 56 66 57 65 58 21 60 53 61 33 62 52 63 34 64 37 65 51 66
REMARK SMILES IDX 70 67 35 68 36 69 50 71 71 72 38 73 22 74 23 75 31 76 24 77
REMARK SMILES IDX 26 78 32 79 25 80 27 81 28 82 29 83 30 84 54 85 55 86 63 87
REMARK SMILES IDX 56 88 58 89 64 90 57 91 59 92 60 93 61 94 62 95 39 96 40 97
REMARK SMILES IDX 48 98 41 99 43 100 49 101 42 102 44 103 45 104 46 105 47 106
REMARK H PARENT 5 4 88 24 10 40 69 59 37 70
REMARK Flexibility Score: inf
ROOT
ATOM      1  C   UNL A   1      33.406  34.621  29.565  1.00  0.00     0.227 C 
ATOM      2  O   UNL A   1      32.451  34.190  28.917  1.00  0.00    -0.274 OA
ATOM      3  N   UNL A   1      33.220  34.793  30.906  1.00  0.00    -0.356 N 
ATOM      4  H   UNL A   1      32.371  34.445  31.262  1.00  0.00     0.163 HD
ENDROOT
BRANCH   1   5
ATOM      5  C   UNL A   1      34.782  34.912  28.941  1.00  0.00     0.105 C 
ATOM      6  C   UNL A   1      34.678  35.459  27.513  1.00  0.00     0.023 C 
BRANCH   5   7
ATOM      7  C   UNL A   1      35.682  33.684  28.996  1.00  0.00    -0.033 A 
ATOM      8  C   UNL A   1      35.449  32.561  28.187  1.00  0.00     0.005 A 
ATOM      9  C   UNL A   1      36.737  33.636  29.917  1.00  0.00     0.044 A 
ATOM     10  C   UNL A   1      36.266  31.436  28.268  1.00  0.00     0.012 A 
ATOM     11  C   UNL A   1      37.541  32.503  30.002  1.00  0.00     0.131 A 
ATOM     12  C   UNL A   1      37.326  31.386  29.183  1.00  0.00     0.018 A 
ATOM     13  F   UNL A   1      38.533  32.495  30.909  1.00  0.00    -0.206 F 
BRANCH  12  14
ATOM     14  C   UNL A   1      38.093  30.147  29.335  1.00  0.00    -0.012 A 
ATOM     15  C   UNL A   1      37.609  29.065  30.086  1.00  0.00     0.009 A 
ATOM     16  C   UNL A   1      39.379  30.067  28.786  1.00  0.00     0.056 A 
ATOM     17  C   UNL A   1      38.400  27.934  30.297  1.00  0.00     0.004 A 
ATOM     18  C   UNL A   1      40.171  28.950  29.015  1.00  0.00     0.133 A 
ATOM     19  C   UNL A   1      39.686  27.879  29.765  1.00  0.00     0.047 A 
BRANCH  18  20
ATOM     20  O   UNL A   1      41.481  28.802  28.512  1.00  0.00    -0.410 OA
BRANCH  20  21
ATOM     21  C   UNL A   1      41.812  28.485  27.196  1.00  0.00     0.412 C 
ATOM     22  O   UNL A   1      41.488  29.094  26.187  1.00  0.00    -0.224 OA
ATOM     23  N   UNL A   1      42.597  27.371  27.104  1.00  0.00    -0.321 N 
ATOM     24  H   UNL A   1      42.779  27.019  26.203  1.00  0.00     0.167 HD
BRANCH  23  25
ATOM     25  C   UNL A   1      43.180  26.666  28.218  1.00  0.00     0.120 C 
BRANCH  25  26
ATOM     26  C   UNL A   1      42.647  25.250  28.411  1.00  0.00     0.026 C 
BRANCH  26  27
ATOM     27  C   UNL A   1      43.641  24.085  28.346  1.00  0.00     0.037 C 
BRANCH  27  28
ATOM     28  C   UNL A   1      44.344  23.743  27.052  1.00  0.00    -0.048 A 
ATOM     29  C   UNL A   1      45.644  23.235  26.960  1.00  0.00     0.004 A 
ATOM     30  C   UNL A   1      43.665  24.025  25.853  1.00  0.00     0.004 A 
ATOM     31  C   UNL A   1      46.251  23.028  25.717  1.00  0.00     0.000 A 
ATOM     32  C   UNL A   1      44.264  23.806  24.610  1.00  0.00     0.000 A 
ATOM     33  C   UNL A   1      45.562  23.314  24.543  1.00  0.00     0.000 A 
ENDBRANCH  27  28
ENDBRANCH  26  27
ENDBRANCH  25  26
ENDBRANCH  23  25
ENDBRANCH  20  21
ENDBRANCH  18  20
ENDBRANCH  12  14
ENDBRANCH   5   7
ENDBRANCH   1   5
BRANCH   3  34
ATOM     34  C   UNL A   1      34.090  35.414  31.881  1.00  0.00     0.116 C 
BRANCH  34  35
ATOM     35  C   UNL A   1      34.787  34.352  32.734  1.00  0.00     0.023 C 
BRANCH  35  36
ATOM     36  C   UNL A   1      36.102  34.815  33.361  1.00  0.00     0.023 C 
BRANCH  36  37
ATOM     37  C   UNL A   1      37.117  33.707  33.606  1.00  0.00     0.116 C 
BRANCH  37  38
ATOM     38  N   UNL A   1      37.062  33.189  34.966  1.00  0.00    -0.352 N 
ATOM     39  C   UNL A   1      37.781  32.157  35.519  1.00  0.00     0.251 C 
ATOM     40  H   UNL A   1      36.426  33.637  35.569  1.00  0.00     0.163 HD
ATOM     41  O   UNL A   1      37.505  31.747  36.642  1.00  0.00    -0.269 OA
BRANCH  39  42
ATOM     42  C   UNL A   1      38.865  31.531  34.735  1.00  0.00     0.039 A 
ATOM     43  C   UNL A   1      38.537  30.571  33.776  1.00  0.00     0.014 A 
ATOM     44  C   UNL A   1      40.194  31.920  34.923  1.00  0.00     0.014 A 
ATOM     45  C   UNL A   1      39.541  30.044  32.961  1.00  0.00     0.010 A 
ATOM     46  C   UNL A   1      41.177  31.455  34.056  1.00  0.00     0.010 A 
ATOM     47  C   UNL A   1      40.863  30.508  33.071  1.00  0.00    -0.014 A 
BRANCH  47  48
ATOM     48  C   UNL A   1      41.927  30.021  32.155  1.00  0.00     0.031 A 
ATOM     49  C   UNL A   1      42.609  28.706  32.417  1.00  0.00     0.074 A 
ATOM     50  C   UNL A   1      42.332  30.800  31.132  1.00  0.00     0.049 A 
ATOM     51  N   UNL A   1      43.585  28.139  31.757  1.00  0.00    -0.248 NA
ATOM     52  C   UNL A   1      42.156  27.939  33.590  1.00  0.00     0.031 C 
ATOM     53  C   UNL A   1      41.804  32.131  30.821  1.00  0.00     0.029 A 
ATOM     54  N   UNL A   1      43.300  30.598  30.181  1.00  0.00    -0.354 N 
ATOM     55  C   UNL A   1      43.884  26.971  32.448  1.00  0.00     0.074 A 
ATOM     56  C   UNL A   1      43.013  26.929  33.601  1.00  0.00     0.031 C 
ATOM     57  C   UNL A   1      42.447  32.620  29.748  1.00  0.00     0.029 A 
ATOM     58  C   UNL A   1      43.455  31.658  29.318  1.00  0.00     0.049 A 
ATOM     59  H   UNL A   1      43.831  29.772  30.121  1.00  0.00     0.167 HD
ATOM     60  C   UNL A   1      44.782  26.006  32.137  1.00  0.00     0.034 A 
ATOM     61  C   UNL A   1      44.321  31.840  28.301  1.00  0.00     0.034 A 
ATOM     62  C   UNL A   1      45.623  26.037  30.972  1.00  0.00     0.049 A 
ATOM     63  C   UNL A   1      45.292  30.740  27.962  1.00  0.00     0.074 A 
ATOM     64  C   UNL A   1      46.504  25.069  30.523  1.00  0.00     0.029 A 
ATOM     65  N   UNL A   1      45.702  27.094  30.079  1.00  0.00    -0.354 N 
ATOM     66  N   UNL A   1      45.449  29.572  28.536  1.00  0.00    -0.248 NA
ATOM     67  C   UNL A   1      46.179  30.970  26.813  1.00  0.00     0.031 C 
ATOM     68  C   UNL A   1      47.143  25.557  29.378  1.00  0.00     0.029 A 
ATOM     69  C   UNL A   1      46.626  26.810  29.088  1.00  0.00     0.049 A 
ATOM     70  H   UNL A   1      45.178  27.925  30.139  1.00  0.00     0.167 HD
ATOM     71  C   UNL A   1      46.424  28.913  27.795  1.00  0.00     0.074 A 
ATOM     72  C   UNL A   1      46.804  29.805  26.719  1.00  0.00     0.031 C 
ATOM     73  C   UNL A   1      46.963  27.685  27.995  1.00  0.00     0.034 A 
BRANCH  60  74
ATOM     74  C   UNL A   1      44.871  24.811  33.051  1.00  0.00     0.023 A 
ATOM     75  C   UNL A   1      44.044  23.691  32.821  1.00  0.00     0.012 A 
ATOM     76  C   UNL A   1      45.811  24.771  34.100  1.00  0.00     0.148 A 
ATOM     77  C   UNL A   1      44.123  22.568  33.643  1.00  0.00     0.002 A 
ATOM     78  C   UNL A   1      45.917  23.627  34.884  1.00  0.00     0.091 A 
ATOM     79  F   UNL A   1      46.574  25.850  34.316  1.00  0.00    -0.205 F 
ATOM     80  C   UNL A   1      45.066  22.531  34.666  1.00  0.00     0.022 A 
BRANCH  78  81
ATOM     81  S   UNL A   1      47.156  23.447  36.172  1.00  0.00     0.127 S 
ATOM     82  O   UNL A   1      46.660  24.373  37.189  1.00  0.00    -0.237 OA
ATOM     83  O   UNL A   1      47.030  22.033  36.522  1.00  0.00    -0.237 OA
ATOM     84  O   UNL A   1      48.427  23.813  35.563  1.00  0.00    -0.744 OA
ENDBRANCH  78  81
ENDBRANCH  60  74
BRANCH  61  85
ATOM     85  C   UNL A   1      44.273  33.092  27.494  1.00  0.00     0.023 A 
ATOM     86  C   UNL A   1      43.666  33.078  26.223  1.00  0.00     0.012 A 
ATOM     87  C   UNL A   1      44.809  34.298  27.985  1.00  0.00     0.148 A 
ATOM     88  C   UNL A   1      43.629  34.231  25.439  1.00  0.00     0.002 A 
ATOM     89  C   UNL A   1      44.716  35.457  27.222  1.00  0.00     0.091 A 
ATOM     90  F   UNL A   1      45.389  34.290  29.193  1.00  0.00    -0.205 F 
ATOM     91  C   UNL A   1      44.144  35.422  25.941  1.00  0.00     0.022 A 
BRANCH  89  92
ATOM     92  S   UNL A   1      45.235  37.062  27.841  1.00  0.00     0.127 S 
ATOM     93  O   UNL A   1      46.670  36.862  28.025  1.00  0.00    -0.237 OA
ATOM     94  O   UNL A   1      44.872  37.943  26.729  1.00  0.00    -0.237 OA
ATOM     95  O   UNL A   1      44.465  37.283  29.057  1.00  0.00    -0.744 OA
ENDBRANCH  89  92
ENDBRANCH  61  85
BRANCH  73  96
ATOM     96  C   UNL A   1      47.991  27.202  27.004  1.00  0.00     0.023 A 
ATOM     97  C   UNL A   1      47.588  26.493  25.855  1.00  0.00     0.012 A 
ATOM     98  C   UNL A   1      49.354  27.514  27.181  1.00  0.00     0.148 A 
ATOM     99  C   UNL A   1      48.529  26.071  24.917  1.00  0.00     0.002 A 
ATOM    100  C   UNL A   1      50.279  27.138  26.216  1.00  0.00     0.091 A 
ATOM    101  F   UNL A   1      49.720  28.175  28.290  1.00  0.00    -0.205 F 
ATOM    102  C   UNL A   1      49.871  26.403  25.091  1.00  0.00     0.022 A 
BRANCH 100 103
ATOM    103  S   UNL A   1      52.010  27.608  26.304  1.00  0.00     0.127 S 
ATOM    104  O   UNL A   1      52.300  27.409  27.723  1.00  0.00    -0.237 OA
ATOM    105  O   UNL A   1      52.640  26.636  25.411  1.00  0.00    -0.237 OA
ATOM    106  O   UNL A   1      52.078  28.988  25.842  1.00  0.00    -0.744 OA
ENDBRANCH 100 103
ENDBRANCH  73  96
ENDBRANCH  47  48
ENDBRANCH  39  42
ENDBRANCH  37  38
ENDBRANCH  36  37
ENDBRANCH  35  36
ENDBRANCH  34  35
ENDBRANCH   3  34
TORSDOF 22
ENDMDL
