MODEL 1
REMARK VINA RESULT:     -12.5      0.000      0.000
REMARK SMILES Cc1cc(C(=O)Nc2c(Cl)cc(Cl)cc2C(=O)NCCCCNC(=O)c2ccc(-c3c4nc(c(-c5cccc(S(=O)(=O)[O-])c5F)c5ccc([nH]5)c(-c5cccc(S(=O)(=O)[O-])c5F)c5nc(c(-c6cccc(S(=O)(=O)[O-])c6F)c6ccc3[nH]6)C=C5)C=C4)cc2)c(C)s1
REMARK SMILES IDX 21 1 20 2 19 3 18 4 16 5 17 6 15 8 8 9 9 10 10 11 11 12
REMARK SMILES IDX 14 13 12 14 13 15 7 16 5 17 6 18 4 20 1 21 2 22 3 23 91 24
REMARK SMILES IDX 89 25 90 26 22 27 23 28 24 29 25 31 26 32 27 33 88 34 28 35
REMARK SMILES IDX 87 36 29 37 30 38 31 39 81 40 32 41 86 42 80 43 82 44 33 45
REMARK SMILES IDX 85 46 79 47 78 48 34 50 66 51 46 52 65 53 47 54 50 55 64 56
REMARK SMILES IDX 83 57 48 58 49 59 63 61 84 62 51 63 35 64 36 65 44 66 37 67
REMARK SMILES IDX 39 68 45 69 38 70 40 71 41 72 42 73 43 74 67 75 68 76 76 77
REMARK SMILES IDX 69 78 71 79 77 80 70 81 72 82 73 83 74 84 75 85 52 86 53 87
REMARK SMILES IDX 61 88 54 89 56 90 62 91 55 92 57 93 58 94 59 95 60 96
REMARK H PARENT 18 7 7 19 23 30 82 49 50 60
REMARK Flexibility Score: inf
ROOT
ATOM      1  C   UNL A   1      31.750  29.575  27.047  1.00  0.00     0.023 C 
ENDROOT
BRANCH   1   2
ATOM      2  C   UNL A   1      32.260  28.204  27.485  1.00  0.00     0.023 C 
BRANCH   2   3
ATOM      3  C   UNL A   1      32.109  27.055  26.500  1.00  0.00     0.116 C 
BRANCH   3   4
ATOM      4  N   UNL A   1      31.572  25.814  26.998  1.00  0.00    -0.352 N 
ATOM      5  C   UNL A   1      31.931  24.512  26.748  1.00  0.00     0.253 C 
ATOM      6  O   UNL A   1      31.331  23.637  27.377  1.00  0.00    -0.269 OA
ATOM      7  H   UNL A   1      30.821  25.917  27.627  1.00  0.00     0.163 HD
BRANCH   5   8
ATOM      8  C   UNL A   1      32.937  24.044  25.738  1.00  0.00     0.066 A 
ATOM      9  C   UNL A   1      32.743  23.703  24.382  1.00  0.00     0.073 A 
ATOM     10  C   UNL A   1      33.875  23.474  23.556  1.00  0.00     0.066 A 
ATOM     11  Cl  UNL A   1      33.733  23.239  21.842  1.00  0.00    -0.082 Cl
ATOM     12  C   UNL A   1      35.165  23.440  24.085  1.00  0.00     0.043 A 
ATOM     13  C   UNL A   1      34.257  24.006  26.246  1.00  0.00     0.036 A 
ATOM     14  C   UNL A   1      35.345  23.681  25.436  1.00  0.00     0.043 A 
ATOM     15  Cl  UNL A   1      36.924  23.589  26.110  1.00  0.00    -0.084 Cl
BRANCH   9  16
ATOM     16  N   UNL A   1      31.466  23.606  23.819  1.00  0.00    -0.320 N 
ATOM     17  C   UNL A   1      30.660  24.610  23.287  1.00  0.00     0.256 C 
ATOM     18  O   UNL A   1      29.547  24.246  22.897  1.00  0.00    -0.269 OA
ATOM     19  H   UNL A   1      31.082  22.700  23.796  1.00  0.00     0.170 HD
BRANCH  17  20
ATOM     20  C   UNL A   1      31.139  26.002  23.072  1.00  0.00     0.054 A 
ATOM     21  C   UNL A   1      33.935  28.516  22.593  1.00  0.00     0.056 C 
ATOM     22  C   UNL A   1      32.642  27.795  22.755  1.00  0.00     0.003 A 
ATOM     23  C   UNL A   1      32.382  26.465  22.512  1.00  0.00     0.029 A 
ATOM     24  S   UNL A   1      31.247  28.590  23.291  1.00  0.00    -0.145 S 
ATOM     25  C   UNL A   1      30.340  27.126  23.302  1.00  0.00     0.014 A 
ATOM     26  C   UNL A   1      28.872  27.232  23.578  1.00  0.00     0.057 C 
ENDBRANCH  17  20
ENDBRANCH   9  16
ENDBRANCH   5   8
ENDBRANCH   3   4
ENDBRANCH   2   3
ENDBRANCH   1   2
BRANCH   1  27
ATOM     27  C   UNL A   1      32.740  30.517  26.366  1.00  0.00     0.116 C 
BRANCH  27  28
ATOM     28  N   UNL A   1      32.756  31.877  26.890  1.00  0.00    -0.352 N 
ATOM     29  C   UNL A   1      33.696  32.538  27.648  1.00  0.00     0.251 C 
ATOM     30  H   UNL A   1      31.961  32.412  26.664  1.00  0.00     0.163 HD
ATOM     31  O   UNL A   1      33.470  33.693  28.010  1.00  0.00    -0.269 OA
BRANCH  29  32
ATOM     32  C   UNL A   1      34.951  31.877  28.082  1.00  0.00     0.039 A 
ATOM     33  C   UNL A   1      36.108  32.653  28.192  1.00  0.00     0.014 A 
ATOM     34  C   UNL A   1      35.007  30.515  28.386  1.00  0.00     0.014 A 
ATOM     35  C   UNL A   1      37.283  32.093  28.706  1.00  0.00     0.010 A 
ATOM     36  C   UNL A   1      36.149  29.982  28.987  1.00  0.00     0.010 A 
ATOM     37  C   UNL A   1      37.298  30.766  29.167  1.00  0.00    -0.014 A 
BRANCH  37  38
ATOM     38  C   UNL A   1      38.488  30.212  29.873  1.00  0.00     0.031 A 
ATOM     39  C   UNL A   1      38.871  30.696  31.248  1.00  0.00     0.074 A 
ATOM     40  C   UNL A   1      39.277  29.318  29.239  1.00  0.00     0.049 A 
ATOM     41  N   UNL A   1      39.888  30.341  31.993  1.00  0.00    -0.248 NA
ATOM     42  C   UNL A   1      38.021  31.732  31.857  1.00  0.00     0.031 C 
ATOM     43  C   UNL A   1      39.083  28.842  27.867  1.00  0.00     0.029 A 
ATOM     44  N   UNL A   1      40.414  28.668  29.653  1.00  0.00    -0.354 N 
ATOM     45  C   UNL A   1      39.813  31.119  33.142  1.00  0.00     0.074 A 
ATOM     46  C   UNL A   1      38.677  32.001  32.978  1.00  0.00     0.031 C 
ATOM     47  C   UNL A   1      40.058  27.972  27.558  1.00  0.00     0.029 A 
ATOM     48  C   UNL A   1      40.961  27.843  28.696  1.00  0.00     0.049 A 
ATOM     49  H   UNL A   1      40.800  28.780  30.552  1.00  0.00     0.167 HD
ATOM     50  C   UNL A   1      40.588  31.079  34.252  1.00  0.00     0.034 A 
ATOM     51  C   UNL A   1      42.065  27.071  28.728  1.00  0.00     0.034 A 
ATOM     52  C   UNL A   1      41.691  30.174  34.437  1.00  0.00     0.049 A 
ATOM     53  C   UNL A   1      42.873  27.001  29.996  1.00  0.00     0.074 A 
ATOM     54  C   UNL A   1      42.494  30.012  35.553  1.00  0.00     0.029 A 
ATOM     55  N   UNL A   1      42.148  29.276  33.485  1.00  0.00    -0.354 N 
ATOM     56  N   UNL A   1      42.683  27.629  31.131  1.00  0.00    -0.248 NA
ATOM     57  C   UNL A   1      44.022  26.083  30.002  1.00  0.00     0.031 C 
ATOM     58  C   UNL A   1      43.442  29.022  35.273  1.00  0.00     0.029 A 
ATOM     59  C   UNL A   1      43.218  28.554  33.989  1.00  0.00     0.049 A 
ATOM     60  H   UNL A   1      41.768  29.167  32.584  1.00  0.00     0.167 HD
ATOM     61  C   UNL A   1      43.666  27.160  31.994  1.00  0.00     0.074 A 
ATOM     62  C   UNL A   1      44.429  26.170  31.261  1.00  0.00     0.031 C 
ATOM     63  C   UNL A   1      43.932  27.531  33.271  1.00  0.00     0.034 A 
BRANCH  50  64
ATOM     64  C   UNL A   1      40.220  31.987  35.398  1.00  0.00     0.023 A 
ATOM     65  C   UNL A   1      40.915  33.203  35.557  1.00  0.00     0.012 A 
ATOM     66  C   UNL A   1      39.148  31.686  36.260  1.00  0.00     0.148 A 
ATOM     67  C   UNL A   1      40.570  34.094  36.573  1.00  0.00     0.002 A 
ATOM     68  C   UNL A   1      38.782  32.597  37.246  1.00  0.00     0.091 A 
ATOM     69  F   UNL A   1      38.508  30.518  36.103  1.00  0.00    -0.205 F 
ATOM     70  C   UNL A   1      39.498  33.796  37.409  1.00  0.00     0.022 A 
BRANCH  68  71
ATOM     71  S   UNL A   1      37.369  32.350  38.328  1.00  0.00     0.127 S 
ATOM     72  O   UNL A   1      37.290  30.892  38.381  1.00  0.00    -0.237 OA
ATOM     73  O   UNL A   1      37.819  32.983  39.568  1.00  0.00    -0.237 OA
ATOM     74  O   UNL A   1      36.244  33.010  37.680  1.00  0.00    -0.744 OA
ENDBRANCH  68  71
ENDBRANCH  50  64
BRANCH  51  75
ATOM     75  C   UNL A   1      42.439  26.247  27.542  1.00  0.00     0.023 A 
ATOM     76  C   UNL A   1      43.211  26.820  26.513  1.00  0.00     0.012 A 
ATOM     77  C   UNL A   1      42.040  24.902  27.430  1.00  0.00     0.148 A 
ATOM     78  C   UNL A   1      43.541  26.083  25.374  1.00  0.00     0.002 A 
ATOM     79  C   UNL A   1      42.422  24.155  26.320  1.00  0.00     0.091 A 
ATOM     80  F   UNL A   1      41.291  24.374  28.409  1.00  0.00    -0.205 F 
ATOM     81  C   UNL A   1      43.155  24.749  25.282  1.00  0.00     0.022 A 
BRANCH  79  82
ATOM     82  S   UNL A   1      42.083  22.395  26.195  1.00  0.00     0.127 S 
ATOM     83  O   UNL A   1      40.628  22.377  26.080  1.00  0.00    -0.237 OA
ATOM     84  O   UNL A   1      42.802  22.030  24.973  1.00  0.00    -0.237 OA
ATOM     85  O   UNL A   1      42.637  21.809  27.407  1.00  0.00    -0.744 OA
ENDBRANCH  79  82
ENDBRANCH  51  75
BRANCH  63  86
ATOM     86  C   UNL A   1      45.078  26.848  33.970  1.00  0.00     0.023 A 
ATOM     87  C   UNL A   1      46.390  27.328  33.794  1.00  0.00     0.012 A 
ATOM     88  C   UNL A   1      44.849  25.762  34.839  1.00  0.00     0.148 A 
ATOM     89  C   UNL A   1      47.463  26.714  34.439  1.00  0.00     0.002 A 
ATOM     90  C   UNL A   1      45.918  25.186  35.516  1.00  0.00     0.091 A 
ATOM     91  F   UNL A   1      43.596  25.306  34.979  1.00  0.00    -0.205 F 
ATOM     92  C   UNL A   1      47.226  25.651  35.307  1.00  0.00     0.022 A 
BRANCH  90  93
ATOM     93  S   UNL A   1      45.693  23.874  36.722  1.00  0.00     0.127 S 
ATOM     94  O   UNL A   1      45.192  22.784  35.888  1.00  0.00    -0.237 OA
ATOM     95  O   UNL A   1      47.053  23.678  37.228  1.00  0.00    -0.237 OA
ATOM     96  O   UNL A   1      44.756  24.394  37.708  1.00  0.00    -0.744 OA
ENDBRANCH  90  93
ENDBRANCH  63  86
ENDBRANCH  37  38
ENDBRANCH  29  32
ENDBRANCH  27  28
ENDBRANCH   1  27
TORSDOF 16
ENDMDL
MODEL 2
REMARK VINA RESULT:     -12.4      2.509      8.303
REMARK SMILES Cc1cc(C(=O)Nc2c(Cl)cc(Cl)cc2C(=O)NCCCCNC(=O)c2ccc(-c3c4nc(c(-c5cccc(S(=O)(=O)[O-])c5F)c5ccc([nH]5)c(-c5cccc(S(=O)(=O)[O-])c5F)c5nc(c(-c6cccc(S(=O)(=O)[O-])c6F)c6ccc3[nH]6)C=C5)C=C4)cc2)c(C)s1
REMARK SMILES IDX 21 1 20 2 19 3 18 4 16 5 17 6 15 8 8 9 9 10 10 11 11 12
REMARK SMILES IDX 14 13 12 14 13 15 7 16 5 17 6 18 4 20 1 21 2 22 3 23 91 24
REMARK SMILES IDX 89 25 90 26 22 27 23 28 24 29 25 31 26 32 27 33 88 34 28 35
REMARK SMILES IDX 87 36 29 37 30 38 31 39 81 40 32 41 86 42 80 43 82 44 33 45
REMARK SMILES IDX 85 46 79 47 78 48 34 50 66 51 46 52 65 53 47 54 50 55 64 56
REMARK SMILES IDX 83 57 48 58 49 59 63 61 84 62 51 63 35 64 36 65 44 66 37 67
REMARK SMILES IDX 39 68 45 69 38 70 40 71 41 72 42 73 43 74 67 75 68 76 76 77
REMARK SMILES IDX 69 78 71 79 77 80 70 81 72 82 73 83 74 84 75 85 52 86 53 87
REMARK SMILES IDX 61 88 54 89 56 90 62 91 55 92 57 93 58 94 59 95 60 96
REMARK H PARENT 18 7 7 19 23 30 82 49 50 60
REMARK Flexibility Score: inf
ROOT
ATOM      1  C   UNL A   1      33.522  31.660  27.978  1.00  0.00     0.023 C 
ENDROOT
BRANCH   1   2
ATOM      2  C   UNL A   1      34.624  30.655  27.652  1.00  0.00     0.023 C 
BRANCH   2   3
ATOM      3  C   UNL A   1      34.197  29.233  27.325  1.00  0.00     0.116 C 
BRANCH   3   4
ATOM      4  N   UNL A   1      32.911  28.795  27.806  1.00  0.00    -0.352 N 
ATOM      5  C   UNL A   1      31.993  27.930  27.261  1.00  0.00     0.253 C 
ATOM      6  O   UNL A   1      30.991  27.682  27.937  1.00  0.00    -0.269 OA
ATOM      7  H   UNL A   1      32.647  29.179  28.673  1.00  0.00     0.163 HD
BRANCH   5   8
ATOM      8  C   UNL A   1      32.057  27.305  25.898  1.00  0.00     0.066 A 
ATOM      9  C   UNL A   1      31.544  26.063  25.465  1.00  0.00     0.073 A 
ATOM     10  C   UNL A   1      31.548  25.757  24.078  1.00  0.00     0.066 A 
ATOM     11  Cl  UNL A   1      30.766  24.342  23.445  1.00  0.00    -0.082 Cl
ATOM     12  C   UNL A   1      32.171  26.593  23.153  1.00  0.00     0.043 A 
ATOM     13  C   UNL A   1      32.680  28.134  24.936  1.00  0.00     0.036 A 
ATOM     14  C   UNL A   1      32.759  27.766  23.593  1.00  0.00     0.043 A 
ATOM     15  Cl  UNL A   1      33.577  28.778  22.469  1.00  0.00    -0.084 Cl
BRANCH   9  16
ATOM     16  N   UNL A   1      31.011  25.130  26.362  1.00  0.00    -0.320 N 
ATOM     17  C   UNL A   1      31.490  23.867  26.705  1.00  0.00     0.256 C 
ATOM     18  O   UNL A   1      30.787  23.232  27.496  1.00  0.00    -0.269 OA
ATOM     19  H   UNL A   1      30.181  25.404  26.813  1.00  0.00     0.170 HD
BRANCH  17  20
ATOM     20  C   UNL A   1      32.816  23.358  26.266  1.00  0.00     0.054 A 
ATOM     21  C   UNL A   1      36.538  23.823  25.724  1.00  0.00     0.056 C 
ATOM     22  C   UNL A   1      35.134  23.339  25.814  1.00  0.00     0.003 A 
ATOM     23  C   UNL A   1      34.135  23.798  26.642  1.00  0.00     0.029 A 
ATOM     24  S   UNL A   1      34.569  22.076  24.838  1.00  0.00    -0.145 S 
ATOM     25  C   UNL A   1      32.968  22.232  25.452  1.00  0.00     0.014 A 
ATOM     26  C   UNL A   1      31.968  21.200  25.028  1.00  0.00     0.057 C 
ENDBRANCH  17  20
ENDBRANCH   9  16
ENDBRANCH   5   8
ENDBRANCH   3   4
ENDBRANCH   2   3
ENDBRANCH   1   2
BRANCH   1  27
ATOM     27  C   UNL A   1      33.286  32.802  26.992  1.00  0.00     0.116 C 
BRANCH  27  28
ATOM     28  N   UNL A   1      32.758  34.026  27.582  1.00  0.00    -0.352 N 
ATOM     29  C   UNL A   1      33.184  34.758  28.667  1.00  0.00     0.251 C 
ATOM     30  H   UNL A   1      31.963  34.389  27.128  1.00  0.00     0.163 HD
ATOM     31  O   UNL A   1      32.544  35.755  29.007  1.00  0.00    -0.269 OA
BRANCH  29  32
ATOM     32  C   UNL A   1      34.362  34.348  29.469  1.00  0.00     0.039 A 
ATOM     33  C   UNL A   1      34.145  33.785  30.730  1.00  0.00     0.014 A 
ATOM     34  C   UNL A   1      35.669  34.502  29.003  1.00  0.00     0.014 A 
ATOM     35  C   UNL A   1      35.221  33.283  31.469  1.00  0.00     0.010 A 
ATOM     36  C   UNL A   1      36.730  33.915  29.695  1.00  0.00     0.010 A 
ATOM     37  C   UNL A   1      36.520  33.287  30.932  1.00  0.00    -0.014 A 
BRANCH  37  38
ATOM     38  C   UNL A   1      37.643  32.600  31.631  1.00  0.00     0.031 A 
ATOM     39  C   UNL A   1      38.353  31.431  31.000  1.00  0.00     0.074 A 
ATOM     40  C   UNL A   1      37.976  32.985  32.882  1.00  0.00     0.049 A 
ATOM     41  N   UNL A   1      39.330  30.704  31.481  1.00  0.00    -0.248 NA
ATOM     42  C   UNL A   1      37.892  31.002  29.670  1.00  0.00     0.031 C 
ATOM     43  C   UNL A   1      37.302  34.033  33.654  1.00  0.00     0.029 A 
ATOM     44  N   UNL A   1      38.950  32.526  33.735  1.00  0.00    -0.354 N 
ATOM     45  C   UNL A   1      39.585  29.725  30.527  1.00  0.00     0.074 A 
ATOM     46  C   UNL A   1      38.629  29.920  29.459  1.00  0.00     0.031 C 
ATOM     47  C   UNL A   1      37.886  34.142  34.858  1.00  0.00     0.029 A 
ATOM     48  C   UNL A   1      38.960  33.159  34.958  1.00  0.00     0.049 A 
ATOM     49  H   UNL A   1      39.582  31.810  33.495  1.00  0.00     0.167 HD
ATOM     50  C   UNL A   1      40.552  28.775  30.516  1.00  0.00     0.034 A 
ATOM     51  C   UNL A   1      39.742  32.971  36.039  1.00  0.00     0.034 A 
ATOM     52  C   UNL A   1      41.532  28.605  31.556  1.00  0.00     0.049 A 
ATOM     53  C   UNL A   1      40.846  31.950  35.975  1.00  0.00     0.074 A 
ATOM     54  C   UNL A   1      42.592  27.716  31.603  1.00  0.00     0.029 A 
ATOM     55  N   UNL A   1      41.577  29.340  32.731  1.00  0.00    -0.354 N 
ATOM     56  N   UNL A   1      41.170  31.146  34.992  1.00  0.00    -0.248 NA
ATOM     57  C   UNL A   1      41.720  31.842  37.153  1.00  0.00     0.031 C 
ATOM     58  C   UNL A   1      43.272  27.907  32.811  1.00  0.00     0.029 A 
ATOM     59  C   UNL A   1      42.648  28.927  33.507  1.00  0.00     0.049 A 
ATOM     60  H   UNL A   1      40.941  30.050  32.977  1.00  0.00     0.167 HD
ATOM     61  C   UNL A   1      42.301  30.460  35.419  1.00  0.00     0.074 A 
ATOM     62  C   UNL A   1      42.626  30.968  36.736  1.00  0.00     0.031 C 
ATOM     63  C   UNL A   1      42.995  29.480  34.790  1.00  0.00     0.034 A 
BRANCH  50  64
ATOM     64  C   UNL A   1      40.655  27.893  29.298  1.00  0.00     0.023 A 
ATOM     65  C   UNL A   1      39.801  26.776  29.190  1.00  0.00     0.012 A 
ATOM     66  C   UNL A   1      41.523  28.205  28.234  1.00  0.00     0.148 A 
ATOM     67  C   UNL A   1      39.830  25.965  28.056  1.00  0.00     0.002 A 
ATOM     68  C   UNL A   1      41.517  27.416  27.088  1.00  0.00     0.091 A 
ATOM     69  F   UNL A   1      42.337  29.262  28.362  1.00  0.00    -0.205 F 
ATOM     70  C   UNL A   1      40.679  26.291  27.002  1.00  0.00     0.022 A 
BRANCH  68  71
ATOM     71  S   UNL A   1      42.514  27.789  25.641  1.00  0.00     0.127 S 
ATOM     72  O   UNL A   1      41.883  29.015  25.157  1.00  0.00    -0.237 OA
ATOM     73  O   UNL A   1      43.843  27.976  26.224  1.00  0.00    -0.237 OA
ATOM     74  O   UNL A   1      42.392  26.637  24.759  1.00  0.00    -0.744 OA
ENDBRANCH  68  71
ENDBRANCH  50  64
BRANCH  51  75
ATOM     75  C   UNL A   1      39.556  33.814  37.256  1.00  0.00     0.023 A 
ATOM     76  C   UNL A   1      40.088  35.118  37.287  1.00  0.00     0.012 A 
ATOM     77  C   UNL A   1      38.853  33.335  38.377  1.00  0.00     0.148 A 
ATOM     78  C   UNL A   1      39.962  35.912  38.428  1.00  0.00     0.002 A 
ATOM     79  C   UNL A   1      38.679  34.154  39.489  1.00  0.00     0.091 A 
ATOM     80  F   UNL A   1      38.365  32.087  38.340  1.00  0.00    -0.205 F 
ATOM     81  C   UNL A   1      39.250  35.435  39.524  1.00  0.00     0.022 A 
BRANCH  79  82
ATOM     82  S   UNL A   1      37.658  33.662  40.882  1.00  0.00     0.127 S 
ATOM     83  O   UNL A   1      38.525  32.710  41.570  1.00  0.00    -0.237 OA
ATOM     84  O   UNL A   1      37.460  34.934  41.582  1.00  0.00    -0.237 OA
ATOM     85  O   UNL A   1      36.443  33.114  40.294  1.00  0.00    -0.744 OA
ENDBRANCH  79  82
ENDBRANCH  51  75
BRANCH  63  86
ATOM     86  C   UNL A   1      44.192  28.908  35.503  1.00  0.00     0.023 A 
ATOM     87  C   UNL A   1      45.470  29.456  35.275  1.00  0.00     0.012 A 
ATOM     88  C   UNL A   1      44.046  27.861  36.435  1.00  0.00     0.148 A 
ATOM     89  C   UNL A   1      46.589  28.946  35.930  1.00  0.00     0.002 A 
ATOM     90  C   UNL A   1      45.160  27.390  37.121  1.00  0.00     0.091 A 
ATOM     91  F   UNL A   1      42.827  27.338  36.626  1.00  0.00    -0.205 F 
ATOM     92  C   UNL A   1      46.433  27.922  36.861  1.00  0.00     0.022 A 
BRANCH  90  93
ATOM     93  S   UNL A   1      45.038  26.137  38.403  1.00  0.00     0.127 S 
ATOM     94  O   UNL A   1      44.096  26.754  39.334  1.00  0.00    -0.237 OA
ATOM     95  O   UNL A   1      44.506  24.989  37.667  1.00  0.00    -0.237 OA
ATOM     96  O   UNL A   1      46.391  25.950  38.908  1.00  0.00    -0.744 OA
ENDBRANCH  90  93
ENDBRANCH  63  86
ENDBRANCH  37  38
ENDBRANCH  29  32
ENDBRANCH  27  28
ENDBRANCH   1  27
TORSDOF 16
ENDMDL
MODEL 3
REMARK VINA RESULT:     -12.2      5.044      9.853
REMARK SMILES Cc1cc(C(=O)Nc2c(Cl)cc(Cl)cc2C(=O)NCCCCNC(=O)c2ccc(-c3c4nc(c(-c5cccc(S(=O)(=O)[O-])c5F)c5ccc([nH]5)c(-c5cccc(S(=O)(=O)[O-])c5F)c5nc(c(-c6cccc(S(=O)(=O)[O-])c6F)c6ccc3[nH]6)C=C5)C=C4)cc2)c(C)s1
REMARK SMILES IDX 21 1 20 2 19 3 18 4 16 5 17 6 15 8 8 9 9 10 10 11 11 12
REMARK SMILES IDX 14 13 12 14 13 15 7 16 5 17 6 18 4 20 1 21 2 22 3 23 91 24
REMARK SMILES IDX 89 25 90 26 22 27 23 28 24 29 25 31 26 32 27 33 88 34 28 35
REMARK SMILES IDX 87 36 29 37 30 38 31 39 81 40 32 41 86 42 80 43 82 44 33 45
REMARK SMILES IDX 85 46 79 47 78 48 34 50 66 51 46 52 65 53 47 54 50 55 64 56
REMARK SMILES IDX 83 57 48 58 49 59 63 61 84 62 51 63 35 64 36 65 44 66 37 67
REMARK SMILES IDX 39 68 45 69 38 70 40 71 41 72 42 73 43 74 67 75 68 76 76 77
REMARK SMILES IDX 69 78 71 79 77 80 70 81 72 82 73 83 74 84 75 85 52 86 53 87
REMARK SMILES IDX 61 88 54 89 56 90 62 91 55 92 57 93 58 94 59 95 60 96
REMARK H PARENT 18 7 7 19 23 30 82 49 50 60
REMARK Flexibility Score: inf
ROOT
ATOM      1  C   UNL A   1      36.622  21.671  23.915  1.00  0.00     0.023 C 
ENDROOT
BRANCH   1   2
ATOM      2  C   UNL A   1      36.601  23.082  23.331  1.00  0.00     0.023 C 
BRANCH   2   3
ATOM      3  C   UNL A   1      35.289  23.848  23.407  1.00  0.00     0.116 C 
BRANCH   3   4
ATOM      4  N   UNL A   1      34.150  23.290  22.722  1.00  0.00    -0.352 N 
ATOM      5  C   UNL A   1      32.894  22.969  23.178  1.00  0.00     0.253 C 
ATOM      6  O   UNL A   1      32.083  22.564  22.341  1.00  0.00    -0.269 OA
ATOM      7  H   UNL A   1      34.296  23.110  21.766  1.00  0.00     0.163 HD
BRANCH   5   8
ATOM      8  C   UNL A   1      32.428  23.004  24.604  1.00  0.00     0.066 A 
ATOM      9  C   UNL A   1      31.205  23.474  25.129  1.00  0.00     0.073 A 
ATOM     10  C   UNL A   1      30.895  23.229  26.493  1.00  0.00     0.066 A 
ATOM     11  Cl  UNL A   1      29.340  23.602  27.166  1.00  0.00    -0.082 Cl
ATOM     12  C   UNL A   1      31.829  22.659  27.358  1.00  0.00     0.043 A 
ATOM     13  C   UNL A   1      33.354  22.426  25.504  1.00  0.00     0.036 A 
ATOM     14  C   UNL A   1      33.066  22.285  26.862  1.00  0.00     0.043 A 
ATOM     15  Cl  UNL A   1      34.245  21.631  27.929  1.00  0.00    -0.084 Cl
BRANCH   9  16
ATOM     16  N   UNL A   1      30.276  24.158  24.337  1.00  0.00    -0.320 N 
ATOM     17  C   UNL A   1      30.108  25.531  24.165  1.00  0.00     0.256 C 
ATOM     18  O   UNL A   1      29.169  25.862  23.437  1.00  0.00    -0.269 OA
ATOM     19  H   UNL A   1      29.652  23.589  23.830  1.00  0.00     0.170 HD
BRANCH  17  20
ATOM     20  C   UNL A   1      31.062  26.535  24.704  1.00  0.00     0.054 A 
ATOM     21  C   UNL A   1      32.024  29.171  27.252  1.00  0.00     0.056 C 
ATOM     22  C   UNL A   1      31.941  28.208  26.120  1.00  0.00     0.003 A 
ATOM     23  C   UNL A   1      31.175  27.068  26.037  1.00  0.00     0.029 A 
ATOM     24  S   UNL A   1      32.851  28.422  24.708  1.00  0.00    -0.145 S 
ATOM     25  C   UNL A   1      32.125  27.053  23.957  1.00  0.00     0.014 A 
ATOM     26  C   UNL A   1      32.679  26.624  22.634  1.00  0.00     0.057 C 
ENDBRANCH  17  20
ENDBRANCH   9  16
ENDBRANCH   5   8
ENDBRANCH   3   4
ENDBRANCH   2   3
ENDBRANCH   1   2
BRANCH   1  27
ATOM     27  C   UNL A   1      37.059  21.511  25.370  1.00  0.00     0.116 C 
BRANCH  27  28
ATOM     28  N   UNL A   1      38.182  20.605  25.579  1.00  0.00    -0.352 N 
ATOM     29  C   UNL A   1      39.418  20.820  26.144  1.00  0.00     0.251 C 
ATOM     30  H   UNL A   1      38.030  19.685  25.262  1.00  0.00     0.163 HD
ATOM     31  O   UNL A   1      40.232  19.896  26.178  1.00  0.00    -0.269 OA
BRANCH  29  32
ATOM     32  C   UNL A   1      39.815  22.151  26.665  1.00  0.00     0.039 A 
ATOM     33  C   UNL A   1      40.854  22.218  27.598  1.00  0.00     0.014 A 
ATOM     34  C   UNL A   1      39.189  23.328  26.251  1.00  0.00     0.014 A 
ATOM     35  C   UNL A   1      41.332  23.460  28.027  1.00  0.00     0.010 A 
ATOM     36  C   UNL A   1      39.728  24.567  26.605  1.00  0.00     0.010 A 
ATOM     37  C   UNL A   1      40.814  24.650  27.488  1.00  0.00    -0.014 A 
BRANCH  37  38
ATOM     38  C   UNL A   1      41.431  25.970  27.806  1.00  0.00     0.031 A 
ATOM     39  C   UNL A   1      42.865  26.264  27.447  1.00  0.00     0.074 A 
ATOM     40  C   UNL A   1      40.715  26.885  28.494  1.00  0.00     0.049 A 
ATOM     41  N   UNL A   1      43.564  27.348  27.674  1.00  0.00    -0.248 NA
ATOM     42  C   UNL A   1      43.622  25.198  26.773  1.00  0.00     0.031 C 
ATOM     43  C   UNL A   1      39.352  26.691  28.995  1.00  0.00     0.029 A 
ATOM     44  N   UNL A   1      41.040  28.153  28.911  1.00  0.00    -0.354 N 
ATOM     45  C   UNL A   1      44.841  27.088  27.192  1.00  0.00     0.074 A 
ATOM     46  C   UNL A   1      44.836  25.727  26.702  1.00  0.00     0.031 C 
ATOM     47  C   UNL A   1      38.956  27.799  29.642  1.00  0.00     0.029 A 
ATOM     48  C   UNL A   1      40.040  28.775  29.624  1.00  0.00     0.049 A 
ATOM     49  H   UNL A   1      41.907  28.577  28.717  1.00  0.00     0.167 HD
ATOM     50  C   UNL A   1      45.912  27.917  27.121  1.00  0.00     0.034 A 
ATOM     51  C   UNL A   1      39.998  29.992  30.201  1.00  0.00     0.034 A 
ATOM     52  C   UNL A   1      45.908  29.284  27.568  1.00  0.00     0.049 A 
ATOM     53  C   UNL A   1      41.181  30.912  30.055  1.00  0.00     0.074 A 
ATOM     54  C   UNL A   1      46.922  30.222  27.478  1.00  0.00     0.029 A 
ATOM     55  N   UNL A   1      44.839  29.913  28.187  1.00  0.00    -0.354 N 
ATOM     56  N   UNL A   1      42.322  30.698  29.447  1.00  0.00    -0.248 NA
ATOM     57  C   UNL A   1      41.052  32.257  30.635  1.00  0.00     0.031 C 
ATOM     58  C   UNL A   1      46.469  31.416  28.050  1.00  0.00     0.029 A 
ATOM     59  C   UNL A   1      45.168  31.227  28.480  1.00  0.00     0.049 A 
ATOM     60  H   UNL A   1      43.975  29.489  28.389  1.00  0.00     0.167 HD
ATOM     61  C   UNL A   1      43.033  31.888  29.545  1.00  0.00     0.074 A 
ATOM     62  C   UNL A   1      42.180  32.830  30.240  1.00  0.00     0.031 C 
ATOM     63  C   UNL A   1      44.289  32.171  29.120  1.00  0.00     0.034 A 
BRANCH  50  64
ATOM     64  C   UNL A   1      47.160  27.393  26.459  1.00  0.00     0.023 A 
ATOM     65  C   UNL A   1      47.424  27.747  25.120  1.00  0.00     0.012 A 
ATOM     66  C   UNL A   1      48.105  26.628  27.171  1.00  0.00     0.148 A 
ATOM     67  C   UNL A   1      48.594  27.324  24.489  1.00  0.00     0.002 A 
ATOM     68  C   UNL A   1      49.289  26.245  26.548  1.00  0.00     0.091 A 
ATOM     69  F   UNL A   1      47.830  26.289  28.438  1.00  0.00    -0.205 F 
ATOM     70  C   UNL A   1      49.529  26.583  25.205  1.00  0.00     0.022 A 
BRANCH  68  71
ATOM     71  S   UNL A   1      50.596  25.354  27.400  1.00  0.00     0.127 S 
ATOM     72  O   UNL A   1      51.000  26.325  28.415  1.00  0.00    -0.237 OA
ATOM     73  O   UNL A   1      49.884  24.187  27.920  1.00  0.00    -0.237 OA
ATOM     74  O   UNL A   1      51.603  25.054  26.391  1.00  0.00    -0.744 OA
ENDBRANCH  68  71
ENDBRANCH  50  64
BRANCH  51  75
ATOM     75  C   UNL A   1      38.769  30.442  30.916  1.00  0.00     0.023 A 
ATOM     76  C   UNL A   1      38.644  30.209  32.300  1.00  0.00     0.012 A 
ATOM     77  C   UNL A   1      37.727  31.103  30.238  1.00  0.00     0.148 A 
ATOM     78  C   UNL A   1      37.488  30.583  32.985  1.00  0.00     0.002 A 
ATOM     79  C   UNL A   1      36.602  31.527  30.938  1.00  0.00     0.091 A 
ATOM     80  F   UNL A   1      37.851  31.304  28.918  1.00  0.00    -0.205 F 
ATOM     81  C   UNL A   1      36.472  31.251  32.308  1.00  0.00     0.022 A 
BRANCH  79  82
ATOM     82  S   UNL A   1      35.316  32.514  30.165  1.00  0.00     0.127 S 
ATOM     83  O   UNL A   1      34.875  31.638  29.083  1.00  0.00    -0.237 OA
ATOM     84  O   UNL A   1      34.355  32.677  31.258  1.00  0.00    -0.237 OA
ATOM     85  O   UNL A   1      35.970  33.750  29.761  1.00  0.00    -0.744 OA
ENDBRANCH  79  82
ENDBRANCH  51  75
BRANCH  63  86
ATOM     86  C   UNL A   1      44.811  33.562  29.369  1.00  0.00     0.023 A 
ATOM     87  C   UNL A   1      45.434  33.866  30.595  1.00  0.00     0.012 A 
ATOM     88  C   UNL A   1      44.728  34.554  28.371  1.00  0.00     0.148 A 
ATOM     89  C   UNL A   1      45.931  35.145  30.842  1.00  0.00     0.002 A 
ATOM     90  C   UNL A   1      45.269  35.813  28.606  1.00  0.00     0.091 A 
ATOM     91  F   UNL A   1      44.115  34.254  27.218  1.00  0.00    -0.205 F 
ATOM     92  C   UNL A   1      45.858  36.115  29.844  1.00  0.00     0.022 A 
BRANCH  90  93
ATOM     93  S   UNL A   1      45.301  37.093  27.346  1.00  0.00     0.127 S 
ATOM     94  O   UNL A   1      43.879  37.268  27.063  1.00  0.00    -0.237 OA
ATOM     95  O   UNL A   1      45.925  38.212  28.053  1.00  0.00    -0.237 OA
ATOM     96  O   UNL A   1      46.099  36.555  26.252  1.00  0.00    -0.744 OA
ENDBRANCH  90  93
ENDBRANCH  63  86
ENDBRANCH  37  38
ENDBRANCH  29  32
ENDBRANCH  27  28
ENDBRANCH   1  27
TORSDOF 16
ENDMDL
