MODEL 1
REMARK VINA RESULT:      -8.2      0.000      0.000
REMARK SMILES CCCCCCNC(=O)Oc1cccc(-c2ccc([C@@H](C)C(=O)NCCCCNC(=O)c3ccc(-c4c5nc(c(-c6cccc(S(=O)(=O)[O-])c6F)c6ccc([nH]6)c(-c6cccc(S(=O)(=O)[O-])c6F)c6nc(c(-c7cccc(S(=O)(=O)[O-])c7F)c7ccc4[nH]7)C=C6)C=C5)cc3)cc2N)c1
REMARK SMILES IDX 20 1 21 2 19 3 16 4 17 5 96 6 18 7 95 8 15 9 11 10 12 11
REMARK SMILES IDX 98 12 13 13 14 14 10 15 8 16 7 17 9 19 6 20 5 21 4 22 3 23
REMARK SMILES IDX 2 24 1 25 97 26 22 29 23 30 24 31 25 33 26 34 27 35 28 36
REMARK SMILES IDX 29 37 30 38 31 40 32 41 33 42 94 43 34 44 93 45 35 46 36 47
REMARK SMILES IDX 37 48 87 49 38 50 92 51 86 52 88 53 39 54 91 55 85 56 84 57
REMARK SMILES IDX 40 59 72 60 52 61 71 62 53 63 56 64 70 65 89 66 54 67 55 68
REMARK SMILES IDX 69 70 90 71 57 72 41 73 42 74 50 75 43 76 45 77 51 78 44 79
REMARK SMILES IDX 46 80 47 81 48 82 49 83 73 84 74 85 82 86 75 87 77 88 83 89
REMARK SMILES IDX 76 90 78 91 79 92 80 93 81 94 58 95 59 96 67 97 60 98 62 99
REMARK SMILES IDX 68 100 61 101 63 102 64 103 65 104 66 105
REMARK H PARENT 7 18 97 27 97 28 24 32 29 39 88 58 56 69
REMARK Flexibility Score: inf
ROOT
ATOM      1  C   UNL A   1      42.122  25.044  27.622  1.00  0.00     0.105 C 
ATOM      2  C   UNL A   1      43.061  24.448  28.671  1.00  0.00     0.023 C 
ENDROOT
BRANCH   1   3
ATOM      3  C   UNL A   1      41.259  26.204  28.094  1.00  0.00    -0.034 A 
ATOM      4  C   UNL A   1      39.873  28.538  28.983  1.00  0.00     0.005 A 
ATOM      5  C   UNL A   1      39.698  28.013  27.689  1.00  0.00     0.011 A 
ATOM      6  C   UNL A   1      40.673  27.794  29.881  1.00  0.00     0.040 A 
ATOM      7  C   UNL A   1      40.329  26.837  27.275  1.00  0.00     0.005 A 
ATOM      8  C   UNL A   1      41.411  26.696  29.400  1.00  0.00     0.030 A 
BRANCH   4   9
ATOM      9  C   UNL A   1      39.218  29.826  29.329  1.00  0.00    -0.013 A 
ATOM     10  C   UNL A   1      37.246  31.243  29.487  1.00  0.00     0.133 A 
ATOM     11  C   UNL A   1      37.998  32.288  30.014  1.00  0.00     0.047 A 
ATOM     12  C   UNL A   1      37.836  30.020  29.159  1.00  0.00     0.056 A 
ATOM     13  C   UNL A   1      39.359  32.105  30.224  1.00  0.00     0.004 A 
ATOM     14  C   UNL A   1      39.961  30.894  29.872  1.00  0.00     0.009 A 
BRANCH  10  15
ATOM     15  O   UNL A   1      35.910  31.530  29.161  1.00  0.00    -0.410 OA
BRANCH  15  16
ATOM     16  C   UNL A   1      35.587  32.801  28.710  1.00  0.00     0.412 C 
ATOM     17  N   UNL A   1      34.882  33.526  29.632  1.00  0.00    -0.321 N 
ATOM     18  H   UNL A   1      34.615  34.435  29.366  1.00  0.00     0.167 HD
ATOM     19  O   UNL A   1      35.865  33.268  27.614  1.00  0.00    -0.224 OA
BRANCH  17  20
ATOM     20  C   UNL A   1      34.487  33.093  30.957  1.00  0.00     0.119 C 
BRANCH  20  21
ATOM     21  C   UNL A   1      34.294  34.270  31.913  1.00  0.00     0.021 C 
BRANCH  21  22
ATOM     22  C   UNL A   1      35.591  34.947  32.371  1.00  0.00     0.002 C 
BRANCH  22  23
ATOM     23  C   UNL A   1      36.746  33.998  32.711  1.00  0.00    -0.000 C 
BRANCH  23  24
ATOM     24  C   UNL A   1      36.421  32.910  33.738  1.00  0.00    -0.003 C 
ATOM     25  C   UNL A   1      37.328  31.693  33.632  1.00  0.00     0.004 C 
ENDBRANCH  23  24
ENDBRANCH  22  23
ENDBRANCH  21  22
ENDBRANCH  20  21
ENDBRANCH  17  20
ENDBRANCH  15  16
ENDBRANCH  10  15
ENDBRANCH   4   9
BRANCH   6  26
ATOM     26  N   UNL A   1      40.848  28.165  31.215  1.00  0.00    -0.398 N 
ATOM     27  H   UNL A   1      41.432  28.925  31.442  1.00  0.00     0.156 HD
ATOM     28  H   UNL A   1      40.389  27.666  31.930  1.00  0.00     0.156 HD
ENDBRANCH   6  26
ENDBRANCH   1   3
BRANCH   1  29
ATOM     29  C   UNL A   1      41.365  23.995  26.790  1.00  0.00     0.227 C 
ATOM     30  O   UNL A   1      40.216  23.673  27.118  1.00  0.00    -0.274 OA
ATOM     31  N   UNL A   1      41.868  23.401  25.672  1.00  0.00    -0.356 N 
ATOM     32  H   UNL A   1      41.234  22.803  25.215  1.00  0.00     0.163 HD
BRANCH  31  33
ATOM     33  C   UNL A   1      43.165  23.489  25.036  1.00  0.00     0.116 C 
BRANCH  33  34
ATOM     34  C   UNL A   1      44.001  22.227  25.256  1.00  0.00     0.023 C 
BRANCH  34  35
ATOM     35  C   UNL A   1      45.463  22.477  25.616  1.00  0.00     0.023 C 
BRANCH  35  36
ATOM     36  C   UNL A   1      45.808  23.919  25.961  1.00  0.00     0.116 C 
BRANCH  36  37
ATOM     37  N   UNL A   1      46.566  24.615  24.929  1.00  0.00    -0.352 N 
ATOM     38  C   UNL A   1      46.802  25.967  24.825  1.00  0.00     0.251 C 
ATOM     39  H   UNL A   1      46.955  24.051  24.222  1.00  0.00     0.163 HD
ATOM     40  O   UNL A   1      47.397  26.427  23.855  1.00  0.00    -0.269 OA
BRANCH  38  41
ATOM     41  C   UNL A   1      46.285  26.859  25.883  1.00  0.00     0.039 A 
ATOM     42  C   UNL A   1      44.913  27.111  25.949  1.00  0.00     0.014 A 
ATOM     43  C   UNL A   1      47.148  27.361  26.860  1.00  0.00     0.014 A 
ATOM     44  C   UNL A   1      44.395  27.804  27.045  1.00  0.00     0.010 A 
ATOM     45  C   UNL A   1      46.620  27.973  27.991  1.00  0.00     0.010 A 
ATOM     46  C   UNL A   1      45.239  28.203  28.095  1.00  0.00    -0.014 A 
BRANCH  46  47
ATOM     47  C   UNL A   1      44.705  28.861  29.315  1.00  0.00     0.031 A 
ATOM     48  C   UNL A   1      44.502  28.056  30.571  1.00  0.00     0.074 A 
ATOM     49  C   UNL A   1      44.318  30.152  29.268  1.00  0.00     0.049 A 
ATOM     50  N   UNL A   1      43.969  28.419  31.708  1.00  0.00    -0.248 NA
ATOM     51  C   UNL A   1      44.928  26.644  30.535  1.00  0.00     0.031 C 
ATOM     52  C   UNL A   1      44.389  31.020  28.088  1.00  0.00     0.029 A 
ATOM     53  N   UNL A   1      43.762  30.957  30.233  1.00  0.00    -0.354 N 
ATOM     54  C   UNL A   1      43.968  27.283  32.508  1.00  0.00     0.074 A 
ATOM     55  C   UNL A   1      44.510  26.203  31.712  1.00  0.00     0.031 C 
ATOM     56  C   UNL A   1      43.904  32.232  28.401  1.00  0.00     0.029 A 
ATOM     57  C   UNL A   1      43.459  32.225  29.790  1.00  0.00     0.049 A 
ATOM     58  H   UNL A   1      43.596  30.654  31.154  1.00  0.00     0.167 HD
ATOM     59  C   UNL A   1      43.590  27.156  33.802  1.00  0.00     0.034 A 
ATOM     60  C   UNL A   1      42.883  33.259  30.433  1.00  0.00     0.034 A 
ATOM     61  C   UNL A   1      43.099  28.241  34.605  1.00  0.00     0.049 A 
ATOM     62  C   UNL A   1      42.500  33.095  31.881  1.00  0.00     0.074 A 
ATOM     63  C   UNL A   1      42.748  28.229  35.943  1.00  0.00     0.029 A 
ATOM     64  N   UNL A   1      42.897  29.533  34.148  1.00  0.00    -0.354 N 
ATOM     65  N   UNL A   1      42.642  32.050  32.660  1.00  0.00    -0.248 NA
ATOM     66  C   UNL A   1      41.912  34.266  32.550  1.00  0.00     0.031 C 
ATOM     67  C   UNL A   1      42.323  29.514  36.293  1.00  0.00     0.029 A 
ATOM     68  C   UNL A   1      42.431  30.330  35.179  1.00  0.00     0.049 A 
ATOM     69  H   UNL A   1      43.060  29.839  33.227  1.00  0.00     0.167 HD
ATOM     70  C   UNL A   1      42.205  32.451  33.918  1.00  0.00     0.074 A 
ATOM     71  C   UNL A   1      41.816  33.840  33.802  1.00  0.00     0.031 C 
ATOM     72  C   UNL A   1      42.119  31.730  35.062  1.00  0.00     0.034 A 
BRANCH  59  73
ATOM     73  C   UNL A   1      43.766  25.809  34.453  1.00  0.00     0.023 A 
ATOM     74  C   UNL A   1      42.664  24.933  34.526  1.00  0.00     0.012 A 
ATOM     75  C   UNL A   1      45.023  25.381  34.922  1.00  0.00     0.148 A 
ATOM     76  C   UNL A   1      42.801  23.661  35.083  1.00  0.00     0.002 A 
ATOM     77  C   UNL A   1      45.162  24.096  35.435  1.00  0.00     0.091 A 
ATOM     78  F   UNL A   1      46.054  26.236  34.859  1.00  0.00    -0.205 F 
ATOM     79  C   UNL A   1      44.052  23.241  35.526  1.00  0.00     0.022 A 
BRANCH  77  80
ATOM     80  S   UNL A   1      46.742  23.424  35.962  1.00  0.00     0.127 S 
ATOM     81  O   UNL A   1      47.553  23.596  34.755  1.00  0.00    -0.237 OA
ATOM     82  O   UNL A   1      47.099  24.312  37.067  1.00  0.00    -0.237 OA
ATOM     83  O   UNL A   1      46.487  22.042  36.344  1.00  0.00    -0.744 OA
ENDBRANCH  77  80
ENDBRANCH  59  73
BRANCH  60  84
ATOM     84  C   UNL A   1      42.688  34.569  29.744  1.00  0.00     0.023 A 
ATOM     85  C   UNL A   1      41.485  34.809  29.047  1.00  0.00     0.012 A 
ATOM     86  C   UNL A   1      43.680  35.566  29.756  1.00  0.00     0.148 A 
ATOM     87  C   UNL A   1      41.297  35.994  28.337  1.00  0.00     0.002 A 
ATOM     88  C   UNL A   1      43.464  36.768  29.091  1.00  0.00     0.091 A 
ATOM     89  F   UNL A   1      44.824  35.317  30.410  1.00  0.00    -0.205 F 
ATOM     90  C   UNL A   1      42.282  36.976  28.364  1.00  0.00     0.022 A 
BRANCH  88  91
ATOM     91  S   UNL A   1      44.629  38.132  29.178  1.00  0.00     0.127 S 
ATOM     92  O   UNL A   1      45.716  37.654  28.328  1.00  0.00    -0.237 OA
ATOM     93  O   UNL A   1      43.850  39.237  28.616  1.00  0.00    -0.237 OA
ATOM     94  O   UNL A   1      44.942  38.282  30.593  1.00  0.00    -0.744 OA
ENDBRANCH  88  91
ENDBRANCH  60  84
BRANCH  72  95
ATOM     95  C   UNL A   1      41.638  32.439  36.301  1.00  0.00     0.023 A 
ATOM     96  C   UNL A   1      42.517  33.272  37.019  1.00  0.00     0.012 A 
ATOM     97  C   UNL A   1      40.291  32.339  36.703  1.00  0.00     0.148 A 
ATOM     98  C   UNL A   1      42.072  33.969  38.141  1.00  0.00     0.002 A 
ATOM     99  C   UNL A   1      39.843  33.076  37.792  1.00  0.00     0.091 A 
ATOM    100  F   UNL A   1      39.477  31.527  36.016  1.00  0.00    -0.205 F 
ATOM    101  C   UNL A   1      40.734  33.882  38.520  1.00  0.00     0.022 A 
BRANCH  99 102
ATOM    102  S   UNL A   1      38.118  33.103  38.291  1.00  0.00     0.127 S 
ATOM    103  O   UNL A   1      38.121  34.140  39.321  1.00  0.00    -0.237 OA
ATOM    104  O   UNL A   1      37.441  33.479  37.049  1.00  0.00    -0.237 OA
ATOM    105  O   UNL A   1      37.815  31.758  38.760  1.00  0.00    -0.744 OA
ENDBRANCH  99 102
ENDBRANCH  72  95
ENDBRANCH  46  47
ENDBRANCH  38  41
ENDBRANCH  36  37
ENDBRANCH  35  36
ENDBRANCH  34  35
ENDBRANCH  33  34
ENDBRANCH  31  33
ENDBRANCH   1  29
TORSDOF 24
ENDMDL
MODEL 2
REMARK VINA RESULT:      -8.1      2.585      9.168
REMARK SMILES CCCCCCNC(=O)Oc1cccc(-c2ccc([C@@H](C)C(=O)NCCCCNC(=O)c3ccc(-c4c5nc(c(-c6cccc(S(=O)(=O)[O-])c6F)c6ccc([nH]6)c(-c6cccc(S(=O)(=O)[O-])c6F)c6nc(c(-c7cccc(S(=O)(=O)[O-])c7F)c7ccc4[nH]7)C=C6)C=C5)cc3)cc2N)c1
REMARK SMILES IDX 20 1 21 2 19 3 16 4 17 5 96 6 18 7 95 8 15 9 11 10 12 11
REMARK SMILES IDX 98 12 13 13 14 14 10 15 8 16 7 17 9 19 6 20 5 21 4 22 3 23
REMARK SMILES IDX 2 24 1 25 97 26 22 29 23 30 24 31 25 33 26 34 27 35 28 36
REMARK SMILES IDX 29 37 30 38 31 40 32 41 33 42 94 43 34 44 93 45 35 46 36 47
REMARK SMILES IDX 37 48 87 49 38 50 92 51 86 52 88 53 39 54 91 55 85 56 84 57
REMARK SMILES IDX 40 59 72 60 52 61 71 62 53 63 56 64 70 65 89 66 54 67 55 68
REMARK SMILES IDX 69 70 90 71 57 72 41 73 42 74 50 75 43 76 45 77 51 78 44 79
REMARK SMILES IDX 46 80 47 81 48 82 49 83 73 84 74 85 82 86 75 87 77 88 83 89
REMARK SMILES IDX 76 90 78 91 79 92 80 93 81 94 58 95 59 96 67 97 60 98 62 99
REMARK SMILES IDX 68 100 61 101 63 102 64 103 65 104 66 105
REMARK H PARENT 7 18 97 27 97 28 24 32 29 39 88 58 56 69
REMARK Flexibility Score: inf
ROOT
ATOM      1  C   UNL A   1      38.058  30.910  30.011  1.00  0.00     0.105 C 
ATOM      2  C   UNL A   1      37.877  32.370  29.596  1.00  0.00     0.023 C 
ENDROOT
BRANCH   1   3
ATOM      3  C   UNL A   1      38.966  30.080  29.118  1.00  0.00    -0.034 A 
ATOM      4  C   UNL A   1      40.624  28.304  27.614  1.00  0.00     0.005 A 
ATOM      5  C   UNL A   1      39.394  28.777  27.119  1.00  0.00     0.011 A 
ATOM      6  C   UNL A   1      41.076  28.839  28.842  1.00  0.00     0.040 A 
ATOM      7  C   UNL A   1      38.613  29.693  27.828  1.00  0.00     0.005 A 
ATOM      8  C   UNL A   1      40.210  29.646  29.604  1.00  0.00     0.030 A 
BRANCH   4   9
ATOM      9  C   UNL A   1      41.366  27.284  26.831  1.00  0.00    -0.013 A 
ATOM     10  C   UNL A   1      41.750  24.980  26.147  1.00  0.00     0.133 A 
ATOM     11  C   UNL A   1      42.793  25.366  25.311  1.00  0.00     0.047 A 
ATOM     12  C   UNL A   1      41.031  25.919  26.889  1.00  0.00     0.056 A 
ATOM     13  C   UNL A   1      43.117  26.713  25.209  1.00  0.00     0.004 A 
ATOM     14  C   UNL A   1      42.420  27.656  25.971  1.00  0.00     0.009 A 
BRANCH  10  15
ATOM     15  O   UNL A   1      41.561  23.599  26.321  1.00  0.00    -0.410 OA
BRANCH  15  16
ATOM     16  C   UNL A   1      42.567  22.728  25.931  1.00  0.00     0.412 C 
ATOM     17  N   UNL A   1      43.393  22.377  26.963  1.00  0.00    -0.321 N 
ATOM     18  H   UNL A   1      44.134  21.766  26.746  1.00  0.00     0.167 HD
ATOM     19  O   UNL A   1      42.749  22.301  24.799  1.00  0.00    -0.224 OA
BRANCH  17  20
ATOM     20  C   UNL A   1      43.290  22.811  28.342  1.00  0.00     0.119 C 
BRANCH  20  21
ATOM     21  C   UNL A   1      44.295  23.914  28.674  1.00  0.00     0.021 C 
BRANCH  21  22
ATOM     22  C   UNL A   1      43.705  25.124  29.408  1.00  0.00     0.002 C 
BRANCH  22  23
ATOM     23  C   UNL A   1      44.173  25.310  30.856  1.00  0.00    -0.000 C 
BRANCH  23  24
ATOM     24  C   UNL A   1      44.850  24.092  31.489  1.00  0.00    -0.003 C 
ATOM     25  C   UNL A   1      44.096  23.541  32.690  1.00  0.00     0.004 C 
ENDBRANCH  23  24
ENDBRANCH  22  23
ENDBRANCH  21  22
ENDBRANCH  20  21
ENDBRANCH  17  20
ENDBRANCH  15  16
ENDBRANCH  10  15
ENDBRANCH   4   9
BRANCH   6  26
ATOM     26  N   UNL A   1      42.319  28.515  29.390  1.00  0.00    -0.398 N 
ATOM     27  H   UNL A   1      42.650  27.589  29.348  1.00  0.00     0.156 HD
ATOM     28  H   UNL A   1      42.864  29.214  29.820  1.00  0.00     0.156 HD
ENDBRANCH   6  26
ENDBRANCH   1   3
BRANCH   1  29
ATOM     29  C   UNL A   1      36.750  30.204  30.408  1.00  0.00     0.227 C 
ATOM     30  O   UNL A   1      36.767  28.994  30.666  1.00  0.00    -0.274 OA
ATOM     31  N   UNL A   1      35.550  30.836  30.530  1.00  0.00    -0.356 N 
ATOM     32  H   UNL A   1      34.823  30.259  30.858  1.00  0.00     0.163 HD
BRANCH  31  33
ATOM     33  C   UNL A   1      35.149  32.201  30.265  1.00  0.00     0.116 C 
BRANCH  33  34
ATOM     34  C   UNL A   1      34.576  32.885  31.508  1.00  0.00     0.023 C 
BRANCH  34  35
ATOM     35  C   UNL A   1      34.864  34.380  31.612  1.00  0.00     0.023 C 
BRANCH  35  36
ATOM     36  C   UNL A   1      35.960  34.761  32.598  1.00  0.00     0.116 C 
BRANCH  36  37
ATOM     37  N   UNL A   1      35.574  34.635  33.999  1.00  0.00    -0.352 N 
ATOM     38  C   UNL A   1      36.198  33.900  34.981  1.00  0.00     0.251 C 
ATOM     39  H   UNL A   1      34.772  35.135  34.274  1.00  0.00     0.163 HD
ATOM     40  O   UNL A   1      35.717  33.823  36.107  1.00  0.00    -0.269 OA
BRANCH  38  41
ATOM     41  C   UNL A   1      37.436  33.169  34.639  1.00  0.00     0.039 A 
ATOM     42  C   UNL A   1      37.344  31.986  33.900  1.00  0.00     0.014 A 
ATOM     43  C   UNL A   1      38.682  33.707  34.967  1.00  0.00     0.014 A 
ATOM     44  C   UNL A   1      38.510  31.385  33.421  1.00  0.00     0.010 A 
ATOM     45  C   UNL A   1      39.832  33.156  34.416  1.00  0.00     0.010 A 
ATOM     46  C   UNL A   1      39.760  31.989  33.639  1.00  0.00    -0.014 A 
BRANCH  46  47
ATOM     47  C   UNL A   1      41.008  31.423  33.065  1.00  0.00     0.031 A 
ATOM     48  C   UNL A   1      41.695  30.275  33.757  1.00  0.00     0.074 A 
ATOM     49  C   UNL A   1      41.570  31.995  31.981  1.00  0.00     0.049 A 
ATOM     50  N   UNL A   1      42.832  29.699  33.469  1.00  0.00    -0.248 NA
ATOM     51  C   UNL A   1      41.030  29.720  34.950  1.00  0.00     0.031 C 
ATOM     52  C   UNL A   1      41.044  33.163  31.266  1.00  0.00     0.029 A 
ATOM     53  N   UNL A   1      42.725  31.690  31.304  1.00  0.00    -0.354 N 
ATOM     54  C   UNL A   1      43.033  28.740  34.453  1.00  0.00     0.074 A 
ATOM     55  C   UNL A   1      41.924  28.842  35.377  1.00  0.00     0.031 C 
ATOM     56  C   UNL A   1      41.868  33.466  30.250  1.00  0.00     0.029 A 
ATOM     57  C   UNL A   1      42.995  32.540  30.256  1.00  0.00     0.049 A 
ATOM     58  H   UNL A   1      43.305  30.932  31.545  1.00  0.00     0.167 HD
ATOM     59  C   UNL A   1      44.028  27.828  34.560  1.00  0.00     0.034 A 
ATOM     60  C   UNL A   1      44.037  32.571  29.402  1.00  0.00     0.034 A 
ATOM     61  C   UNL A   1      45.101  27.697  33.615  1.00  0.00     0.049 A 
ATOM     62  C   UNL A   1      45.113  31.524  29.529  1.00  0.00     0.074 A 
ATOM     63  C   UNL A   1      46.124  26.765  33.600  1.00  0.00     0.029 A 
ATOM     64  N   UNL A   1      45.287  28.515  32.512  1.00  0.00    -0.354 N 
ATOM     65  N   UNL A   1      45.207  30.535  30.385  1.00  0.00    -0.248 NA
ATOM     66  C   UNL A   1      46.208  31.574  28.548  1.00  0.00     0.031 C 
ATOM     67  C   UNL A   1      46.936  27.027  32.492  1.00  0.00     0.029 A 
ATOM     68  C   UNL A   1      46.405  28.108  31.806  1.00  0.00     0.049 A 
ATOM     69  H   UNL A   1      44.711  29.275  32.269  1.00  0.00     0.167 HD
ATOM     70  C   UNL A   1      46.342  29.820  30.017  1.00  0.00     0.074 A 
ATOM     71  C   UNL A   1      46.889  30.477  28.849  1.00  0.00     0.031 C 
ATOM     72  C   UNL A   1      46.892  28.729  30.603  1.00  0.00     0.034 A 
BRANCH  59  73
ATOM     73  C   UNL A   1      43.959  26.847  35.701  1.00  0.00     0.023 A 
ATOM     74  C   UNL A   1      43.357  25.589  35.490  1.00  0.00     0.012 A 
ATOM     75  C   UNL A   1      44.549  27.132  36.948  1.00  0.00     0.148 A 
ATOM     76  C   UNL A   1      43.315  24.640  36.512  1.00  0.00     0.002 A 
ATOM     77  C   UNL A   1      44.543  26.164  37.946  1.00  0.00     0.091 A 
ATOM     78  F   UNL A   1      45.101  28.339  37.133  1.00  0.00    -0.205 F 
ATOM     79  C   UNL A   1      43.918  24.924  37.734  1.00  0.00     0.022 A 
BRANCH  77  80
ATOM     80  S   UNL A   1      45.357  26.395  39.531  1.00  0.00     0.127 S 
ATOM     81  O   UNL A   1      45.039  25.138  40.211  1.00  0.00    -0.237 OA
ATOM     82  O   UNL A   1      46.758  26.537  39.137  1.00  0.00    -0.237 OA
ATOM     83  O   UNL A   1      44.763  27.586  40.121  1.00  0.00    -0.744 OA
ENDBRANCH  77  80
ENDBRANCH  59  73
BRANCH  60  84
ATOM     84  C   UNL A   1      44.093  33.582  28.306  1.00  0.00     0.023 A 
ATOM     85  C   UNL A   1      43.746  33.196  26.994  1.00  0.00     0.012 A 
ATOM     86  C   UNL A   1      44.499  34.908  28.543  1.00  0.00     0.148 A 
ATOM     87  C   UNL A   1      43.851  34.097  25.935  1.00  0.00     0.002 A 
ATOM     88  C   UNL A   1      44.549  35.817  27.491  1.00  0.00     0.091 A 
ATOM     89  F   UNL A   1      44.839  35.256  29.792  1.00  0.00    -0.205 F 
ATOM     90  C   UNL A   1      44.246  35.408  26.183  1.00  0.00     0.022 A 
BRANCH  88  91
ATOM     91  S   UNL A   1      44.927  37.554  27.745  1.00  0.00     0.127 S 
ATOM     92  O   UNL A   1      43.682  38.050  28.325  1.00  0.00    -0.237 OA
ATOM     93  O   UNL A   1      46.056  37.490  28.674  1.00  0.00    -0.237 OA
ATOM     94  O   UNL A   1      45.268  38.071  26.427  1.00  0.00    -0.744 OA
ENDBRANCH  88  91
ENDBRANCH  60  84
BRANCH  72  95
ATOM     95  C   UNL A   1      48.118  28.134  29.962  1.00  0.00     0.023 A 
ATOM     96  C   UNL A   1      49.398  28.508  30.413  1.00  0.00     0.012 A 
ATOM     97  C   UNL A   1      47.994  27.142  28.968  1.00  0.00     0.148 A 
ATOM     98  C   UNL A   1      50.540  27.930  29.860  1.00  0.00     0.002 A 
ATOM     99  C   UNL A   1      49.134  26.534  28.458  1.00  0.00     0.091 A 
ATOM    100  F   UNL A   1      46.767  26.813  28.542  1.00  0.00    -0.205 F 
ATOM    101  C   UNL A   1      50.409  26.936  28.893  1.00  0.00     0.022 A 
BRANCH  99 102
ATOM    102  S   UNL A   1      49.058  25.177  27.284  1.00  0.00     0.127 S 
ATOM    103  O   UNL A   1      49.062  25.887  26.006  1.00  0.00    -0.237 OA
ATOM    104  O   UNL A   1      50.291  24.444  27.577  1.00  0.00    -0.237 OA
ATOM    105  O   UNL A   1      47.836  24.448  27.591  1.00  0.00    -0.744 OA
ENDBRANCH  99 102
ENDBRANCH  72  95
ENDBRANCH  46  47
ENDBRANCH  38  41
ENDBRANCH  36  37
ENDBRANCH  35  36
ENDBRANCH  34  35
ENDBRANCH  33  34
ENDBRANCH  31  33
ENDBRANCH   1  29
TORSDOF 24
ENDMDL
MODEL 3
REMARK VINA RESULT:      -8.0      2.828     11.775
REMARK SMILES CCCCCCNC(=O)Oc1cccc(-c2ccc([C@@H](C)C(=O)NCCCCNC(=O)c3ccc(-c4c5nc(c(-c6cccc(S(=O)(=O)[O-])c6F)c6ccc([nH]6)c(-c6cccc(S(=O)(=O)[O-])c6F)c6nc(c(-c7cccc(S(=O)(=O)[O-])c7F)c7ccc4[nH]7)C=C6)C=C5)cc3)cc2N)c1
REMARK SMILES IDX 20 1 21 2 19 3 16 4 17 5 96 6 18 7 95 8 15 9 11 10 12 11
REMARK SMILES IDX 98 12 13 13 14 14 10 15 8 16 7 17 9 19 6 20 5 21 4 22 3 23
REMARK SMILES IDX 2 24 1 25 97 26 22 29 23 30 24 31 25 33 26 34 27 35 28 36
REMARK SMILES IDX 29 37 30 38 31 40 32 41 33 42 94 43 34 44 93 45 35 46 36 47
REMARK SMILES IDX 37 48 87 49 38 50 92 51 86 52 88 53 39 54 91 55 85 56 84 57
REMARK SMILES IDX 40 59 72 60 52 61 71 62 53 63 56 64 70 65 89 66 54 67 55 68
REMARK SMILES IDX 69 70 90 71 57 72 41 73 42 74 50 75 43 76 45 77 51 78 44 79
REMARK SMILES IDX 46 80 47 81 48 82 49 83 73 84 74 85 82 86 75 87 77 88 83 89
REMARK SMILES IDX 76 90 78 91 79 92 80 93 81 94 58 95 59 96 67 97 60 98 62 99
REMARK SMILES IDX 68 100 61 101 63 102 64 103 65 104 66 105
REMARK H PARENT 7 18 97 27 97 28 24 32 29 39 88 58 56 69
REMARK Flexibility Score: inf
ROOT
ATOM      1  C   UNL A   1      37.610  31.542  30.322  1.00  0.00     0.105 C 
ATOM      2  C   UNL A   1      38.426  32.800  30.027  1.00  0.00     0.023 C 
ENDROOT
BRANCH   1   3
ATOM      3  C   UNL A   1      38.181  30.243  29.775  1.00  0.00    -0.034 A 
ATOM      4  C   UNL A   1      39.508  27.913  28.789  1.00  0.00     0.005 A 
ATOM      5  C   UNL A   1      38.813  27.916  30.014  1.00  0.00     0.011 A 
ATOM      6  C   UNL A   1      39.423  29.079  27.995  1.00  0.00     0.040 A 
ATOM      7  C   UNL A   1      38.113  29.037  30.466  1.00  0.00     0.005 A 
ATOM      8  C   UNL A   1      38.836  30.241  28.533  1.00  0.00     0.030 A 
BRANCH   4   9
ATOM      9  C   UNL A   1      40.280  26.704  28.406  1.00  0.00    -0.013 A 
ATOM     10  C   UNL A   1      40.538  24.654  27.119  1.00  0.00     0.133 A 
ATOM     11  C   UNL A   1      41.786  24.416  27.685  1.00  0.00     0.047 A 
ATOM     12  C   UNL A   1      39.794  25.787  27.457  1.00  0.00     0.056 A 
ATOM     13  C   UNL A   1      42.302  25.328  28.597  1.00  0.00     0.004 A 
ATOM     14  C   UNL A   1      41.551  26.449  28.962  1.00  0.00     0.009 A 
BRANCH  10  15
ATOM     15  O   UNL A   1      40.004  23.632  26.318  1.00  0.00    -0.410 OA
BRANCH  15  16
ATOM     16  C   UNL A   1      39.806  22.377  26.873  1.00  0.00     0.412 C 
ATOM     17  N   UNL A   1      38.735  21.721  26.330  1.00  0.00    -0.321 N 
ATOM     18  H   UNL A   1      38.537  20.827  26.691  1.00  0.00     0.167 HD
ATOM     19  O   UNL A   1      40.477  21.870  27.761  1.00  0.00    -0.224 OA
BRANCH  17  20
ATOM     20  C   UNL A   1      37.861  22.207  25.281  1.00  0.00     0.119 C 
BRANCH  20  21
ATOM     21  C   UNL A   1      36.557  22.777  25.837  1.00  0.00     0.021 C 
BRANCH  21  22
ATOM     22  C   UNL A   1      35.931  23.894  24.993  1.00  0.00     0.002 C 
BRANCH  22  23
ATOM     23  C   UNL A   1      34.639  24.499  25.554  1.00  0.00    -0.000 C 
BRANCH  23  24
ATOM     24  C   UNL A   1      34.254  25.868  24.988  1.00  0.00    -0.003 C 
ATOM     25  C   UNL A   1      33.182  25.794  23.911  1.00  0.00     0.004 C 
ENDBRANCH  23  24
ENDBRANCH  22  23
ENDBRANCH  21  22
ENDBRANCH  20  21
ENDBRANCH  17  20
ENDBRANCH  15  16
ENDBRANCH  10  15
ENDBRANCH   4   9
BRANCH   6  26
ATOM     26  N   UNL A   1      39.994  29.166  26.724  1.00  0.00    -0.398 N 
ATOM     27  H   UNL A   1      40.701  29.828  26.546  1.00  0.00     0.156 HD
ATOM     28  H   UNL A   1      39.689  28.566  26.005  1.00  0.00     0.156 HD
ENDBRANCH   6  26
ENDBRANCH   1   3
BRANCH   1  29
ATOM     29  C   UNL A   1      36.098  31.709  30.096  1.00  0.00     0.227 C 
ATOM     30  O   UNL A   1      35.654  31.722  28.941  1.00  0.00    -0.274 OA
ATOM     31  N   UNL A   1      35.184  31.816  31.100  1.00  0.00    -0.356 N 
ATOM     32  H   UNL A   1      34.250  31.848  30.792  1.00  0.00     0.163 HD
BRANCH  31  33
ATOM     33  C   UNL A   1      35.338  31.891  32.538  1.00  0.00     0.116 C 
BRANCH  33  34
ATOM     34  C   UNL A   1      35.023  33.287  33.078  1.00  0.00     0.023 C 
BRANCH  34  35
ATOM     35  C   UNL A   1      36.057  34.358  32.741  1.00  0.00     0.023 C 
BRANCH  35  36
ATOM     36  C   UNL A   1      37.196  34.495  33.743  1.00  0.00     0.116 C 
BRANCH  36  37
ATOM     37  N   UNL A   1      36.924  33.894  35.043  1.00  0.00    -0.352 N 
ATOM     38  C   UNL A   1      37.571  32.832  35.632  1.00  0.00     0.251 C 
ATOM     39  H   UNL A   1      36.190  34.297  35.561  1.00  0.00     0.163 HD
ATOM     40  O   UNL A   1      37.185  32.378  36.704  1.00  0.00    -0.269 OA
BRANCH  38  41
ATOM     41  C   UNL A   1      38.713  32.219  34.922  1.00  0.00     0.039 A 
ATOM     42  C   UNL A   1      38.470  31.208  33.988  1.00  0.00     0.014 A 
ATOM     43  C   UNL A   1      40.005  32.714  35.114  1.00  0.00     0.014 A 
ATOM     44  C   UNL A   1      39.518  30.749  33.188  1.00  0.00     0.010 A 
ATOM     45  C   UNL A   1      41.025  32.317  34.257  1.00  0.00     0.010 A 
ATOM     46  C   UNL A   1      40.794  31.330  33.287  1.00  0.00    -0.014 A 
BRANCH  46  47
ATOM     47  C   UNL A   1      41.905  30.926  32.386  1.00  0.00     0.031 A 
ATOM     48  C   UNL A   1      42.358  31.858  31.293  1.00  0.00     0.074 A 
ATOM     49  C   UNL A   1      42.441  29.693  32.492  1.00  0.00     0.049 A 
ATOM     50  N   UNL A   1      43.244  31.659  30.354  1.00  0.00    -0.248 NA
ATOM     51  C   UNL A   1      41.706  33.179  31.230  1.00  0.00     0.031 C 
ATOM     52  C   UNL A   1      42.034  28.668  33.458  1.00  0.00     0.029 A 
ATOM     53  N   UNL A   1      43.428  29.080  31.760  1.00  0.00    -0.354 N 
ATOM     54  C   UNL A   1      43.237  32.809  29.574  1.00  0.00     0.074 A 
ATOM     55  C   UNL A   1      42.224  33.685  30.120  1.00  0.00     0.031 C 
ATOM     56  C   UNL A   1      42.770  27.561  33.263  1.00  0.00     0.029 A 
ATOM     57  C   UNL A   1      43.677  27.782  32.143  1.00  0.00     0.049 A 
ATOM     58  H   UNL A   1      43.912  29.528  31.029  1.00  0.00     0.167 HD
ATOM     59  C   UNL A   1      44.029  33.127  28.524  1.00  0.00     0.034 A 
ATOM     60  C   UNL A   1      44.536  26.872  31.642  1.00  0.00     0.034 A 
ATOM     61  C   UNL A   1      45.068  32.276  28.014  1.00  0.00     0.049 A 
ATOM     62  C   UNL A   1      45.425  27.268  30.491  1.00  0.00     0.074 A 
ATOM     63  C   UNL A   1      45.966  32.532  26.994  1.00  0.00     0.029 A 
ATOM     64  N   UNL A   1      45.354  31.007  28.492  1.00  0.00    -0.354 N 
ATOM     65  N   UNL A   1      45.499  28.415  29.861  1.00  0.00    -0.248 NA
ATOM     66  C   UNL A   1      46.375  26.255  30.006  1.00  0.00     0.031 C 
ATOM     67  C   UNL A   1      46.790  31.412  26.847  1.00  0.00     0.029 A 
ATOM     68  C   UNL A   1      46.418  30.469  27.791  1.00  0.00     0.049 A 
ATOM     69  H   UNL A   1      44.871  30.555  29.220  1.00  0.00     0.167 HD
ATOM     70  C   UNL A   1      46.533  28.277  28.940  1.00  0.00     0.074 A 
ATOM     71  C   UNL A   1      47.068  26.943  29.110  1.00  0.00     0.031 C 
ATOM     72  C   UNL A   1      46.986  29.167  28.025  1.00  0.00     0.034 A 
BRANCH  59  73
ATOM     73  C   UNL A   1      43.854  34.488  27.902  1.00  0.00     0.023 A 
ATOM     74  C   UNL A   1      43.003  34.628  26.786  1.00  0.00     0.012 A 
ATOM     75  C   UNL A   1      44.461  35.630  28.457  1.00  0.00     0.148 A 
ATOM     76  C   UNL A   1      42.783  35.880  26.212  1.00  0.00     0.002 A 
ATOM     77  C   UNL A   1      44.201  36.881  27.907  1.00  0.00     0.091 A 
ATOM     78  F   UNL A   1      45.280  35.473  29.507  1.00  0.00    -0.205 F 
ATOM     79  C   UNL A   1      43.373  37.006  26.780  1.00  0.00     0.022 A 
BRANCH  77  80
ATOM     80  S   UNL A   1      44.846  38.405  28.606  1.00  0.00     0.127 S 
ATOM     81  O   UNL A   1      44.153  39.414  27.804  1.00  0.00    -0.237 OA
ATOM     82  O   UNL A   1      44.399  38.318  29.995  1.00  0.00    -0.237 OA
ATOM     83  O   UNL A   1      46.290  38.354  28.423  1.00  0.00    -0.744 OA
ENDBRANCH  77  80
ENDBRANCH  59  73
BRANCH  60  84
ATOM     84  C   UNL A   1      44.656  25.519  32.259  1.00  0.00     0.023 A 
ATOM     85  C   UNL A   1      44.004  24.425  31.653  1.00  0.00     0.012 A 
ATOM     86  C   UNL A   1      45.390  25.307  33.440  1.00  0.00     0.148 A 
ATOM     87  C   UNL A   1      44.039  23.160  32.238  1.00  0.00     0.002 A 
ATOM     88  C   UNL A   1      45.467  24.032  33.990  1.00  0.00     0.091 A 
ATOM     89  F   UNL A   1      45.993  26.359  34.013  1.00  0.00    -0.205 F 
ATOM     90  C   UNL A   1      44.776  22.961  33.402  1.00  0.00     0.022 A 
BRANCH  88  91
ATOM     91  S   UNL A   1      46.495  23.665  35.416  1.00  0.00     0.127 S 
ATOM     92  O   UNL A   1      45.971  24.598  36.411  1.00  0.00    -0.237 OA
ATOM     93  O   UNL A   1      46.179  22.257  35.668  1.00  0.00    -0.237 OA
ATOM     94  O   UNL A   1      47.863  23.900  34.977  1.00  0.00    -0.744 OA
ENDBRANCH  88  91
ENDBRANCH  60  84
BRANCH  72  95
ATOM     95  C   UNL A   1      48.157  28.758  27.170  1.00  0.00     0.023 A 
ATOM     96  C   UNL A   1      49.461  28.796  27.700  1.00  0.00     0.012 A 
ATOM     97  C   UNL A   1      47.951  28.259  25.868  1.00  0.00     0.148 A 
ATOM     98  C   UNL A   1      50.548  28.376  26.936  1.00  0.00     0.002 A 
ATOM     99  C   UNL A   1      49.033  27.795  25.131  1.00  0.00     0.091 A 
ATOM    100  F   UNL A   1      46.704  28.247  25.377  1.00  0.00    -0.205 F 
ATOM    101  C   UNL A   1      50.334  27.865  25.658  1.00  0.00     0.022 A 
BRANCH  99 102
ATOM    102  S   UNL A   1      48.841  27.030  23.518  1.00  0.00     0.127 S 
ATOM    103  O   UNL A   1      50.231  26.804  23.127  1.00  0.00    -0.237 OA
ATOM    104  O   UNL A   1      48.092  25.813  23.838  1.00  0.00    -0.237 OA
ATOM    105  O   UNL A   1      48.111  27.990  22.702  1.00  0.00    -0.744 OA
ENDBRANCH  99 102
ENDBRANCH  72  95
ENDBRANCH  46  47
ENDBRANCH  38  41
ENDBRANCH  36  37
ENDBRANCH  35  36
ENDBRANCH  34  35
ENDBRANCH  33  34
ENDBRANCH  31  33
ENDBRANCH   1  29
TORSDOF 24
ENDMDL
