MODEL 1
REMARK VINA RESULT:     -11.6      0.000      0.000
REMARK SMILES C[C@H]1[C@H](C(=O)NCCCCNC(=O)c2ccc(-c3c4nc(c(-c5cccc(S(=O)(=O)[O-])c5F)c5ccc([nH]5)c(-c5cccc(S(=O)(=O)[O-])c5F)c5nc(c(-c6cccc(S(=O)(=O)[O-])c6F)c6ccc3[nH]6)C=C5)C=C4)cc2)CCN1C(=O)COc1ccccc1F
REMARK SMILES IDX 8 1 7 2 6 3 4 4 5 5 3 7 1 8 2 9 79 10 77 11 78 12 80 13
REMARK SMILES IDX 81 14 82 15 83 16 84 17 85 18 89 19 86 20 88 21 90 22 87 23
REMARK SMILES IDX 9 24 10 25 11 26 12 27 13 29 14 30 15 31 76 32 16 33 75 34
REMARK SMILES IDX 17 35 18 36 19 37 69 38 20 39 74 40 68 41 70 42 21 43 73 44
REMARK SMILES IDX 67 45 66 46 22 48 54 49 34 50 53 51 35 52 38 53 52 54 71 55
REMARK SMILES IDX 36 56 37 57 51 59 72 60 39 61 23 62 24 63 32 64 25 65 27 66
REMARK SMILES IDX 33 67 26 68 28 69 29 70 30 71 31 72 55 73 56 74 64 75 57 76
REMARK SMILES IDX 59 77 65 78 58 79 60 80 61 81 62 82 63 83 40 84 41 85 49 86
REMARK SMILES IDX 42 87 44 88 50 89 43 90 45 91 46 92 47 93 48 94
REMARK H PARENT 6 6 11 28 70 47 38 58
REMARK Flexibility Score: inf
ROOT
ATOM      1  C   UNL A   1      31.626  31.078  26.121  1.00  0.00     0.023 C 
ENDROOT
BRANCH   1   2
ATOM      2  C   UNL A   1      33.047  30.528  26.195  1.00  0.00     0.116 C 
BRANCH   2   3
ATOM      3  N   UNL A   1      33.398  29.770  25.008  1.00  0.00    -0.356 N 
ATOM      4  C   UNL A   1      33.537  28.432  24.810  1.00  0.00     0.225 C 
ATOM      5  O   UNL A   1      33.863  28.050  23.683  1.00  0.00    -0.275 OA
ATOM      6  H   UNL A   1      33.562  30.320  24.208  1.00  0.00     0.163 HD
BRANCH   4   7
ATOM      7  C   UNL A   1      33.300  27.411  25.909  1.00  0.00     0.102 C 
ATOM      8  C   UNL A   1      31.695  27.751  27.798  1.00  0.00     0.032 C 
ATOM      9  C   UNL A   1      31.823  27.312  26.338  1.00  0.00     0.094 C 
ATOM     10  N   UNL A   1      31.476  25.906  26.110  1.00  0.00    -0.336 N 
ATOM     11  C   UNL A   1      33.773  26.002  25.551  1.00  0.00     0.037 C 
ATOM     12  C   UNL A   1      32.665  25.082  26.021  1.00  0.00     0.121 C 
BRANCH  10  13
ATOM     13  C   UNL A   1      30.247  25.352  25.812  1.00  0.00     0.260 C 
ATOM     14  O   UNL A   1      29.634  24.668  26.640  1.00  0.00    -0.271 OA
BRANCH  13  15
ATOM     15  C   UNL A   1      29.628  25.563  24.424  1.00  0.00     0.329 C 
BRANCH  15  16
ATOM     16  O   UNL A   1      28.584  26.482  24.182  1.00  0.00    -0.481 OA
BRANCH  16  17
ATOM     17  C   UNL A   1      28.805  27.591  23.414  1.00  0.00     0.155 A 
ATOM     18  C   UNL A   1      30.149  27.784  23.074  1.00  0.00     0.049 A 
ATOM     19  C   UNL A   1      27.888  28.575  23.045  1.00  0.00     0.165 A 
ATOM     20  C   UNL A   1      30.562  28.930  22.387  1.00  0.00     0.004 A 
ATOM     21  C   UNL A   1      28.295  29.728  22.373  1.00  0.00     0.043 A 
ATOM     22  F   UNL A   1      26.593  28.500  23.356  1.00  0.00    -0.203 F 
ATOM     23  C   UNL A   1      29.635  29.910  22.044  1.00  0.00     0.003 A 
ENDBRANCH  16  17
ENDBRANCH  15  16
ENDBRANCH  13  15
ENDBRANCH  10  13
ENDBRANCH   4   7
ENDBRANCH   2   3
ENDBRANCH   1   2
BRANCH   1  24
ATOM     24  C   UNL A   1      31.452  32.469  26.731  1.00  0.00     0.023 C 
BRANCH  24  25
ATOM     25  C   UNL A   1      32.736  33.126  27.228  1.00  0.00     0.116 C 
BRANCH  25  26
ATOM     26  N   UNL A   1      32.506  34.381  27.927  1.00  0.00    -0.352 N 
ATOM     27  C   UNL A   1      33.163  34.876  29.030  1.00  0.00     0.251 C 
ATOM     28  H   UNL A   1      31.790  34.948  27.564  1.00  0.00     0.163 HD
ATOM     29  O   UNL A   1      32.774  35.907  29.573  1.00  0.00    -0.269 OA
BRANCH  27  30
ATOM     30  C   UNL A   1      34.318  34.135  29.575  1.00  0.00     0.039 A 
ATOM     31  C   UNL A   1      35.603  34.473  29.145  1.00  0.00     0.014 A 
ATOM     32  C   UNL A   1      34.133  33.140  30.539  1.00  0.00     0.014 A 
ATOM     33  C   UNL A   1      36.710  33.864  29.738  1.00  0.00     0.010 A 
ATOM     34  C   UNL A   1      35.238  32.586  31.177  1.00  0.00     0.010 A 
ATOM     35  C   UNL A   1      36.537  32.943  30.784  1.00  0.00    -0.014 A 
BRANCH  35  36
ATOM     36  C   UNL A   1      37.700  32.354  31.495  1.00  0.00     0.031 A 
ATOM     37  C   UNL A   1      38.472  31.222  30.876  1.00  0.00     0.074 A 
ATOM     38  C   UNL A   1      37.995  32.772  32.743  1.00  0.00     0.049 A 
ATOM     39  N   UNL A   1      39.472  30.541  31.370  1.00  0.00    -0.248 NA
ATOM     40  C   UNL A   1      38.046  30.778  29.538  1.00  0.00     0.031 C 
ATOM     41  C   UNL A   1      37.264  33.800  33.487  1.00  0.00     0.029 A 
ATOM     42  N   UNL A   1      38.972  32.363  33.615  1.00  0.00    -0.354 N 
ATOM     43  C   UNL A   1      39.769  29.566  30.426  1.00  0.00     0.074 A 
ATOM     44  C   UNL A   1      38.823  29.722  29.343  1.00  0.00     0.031 C 
ATOM     45  C   UNL A   1      37.818  33.942  34.702  1.00  0.00     0.029 A 
ATOM     46  C   UNL A   1      38.928  33.002  34.833  1.00  0.00     0.049 A 
ATOM     47  H   UNL A   1      39.642  31.677  33.392  1.00  0.00     0.167 HD
ATOM     48  C   UNL A   1      40.763  28.645  30.442  1.00  0.00     0.034 A 
ATOM     49  C   UNL A   1      39.694  32.848  35.930  1.00  0.00     0.034 A 
ATOM     50  C   UNL A   1      41.737  28.530  31.492  1.00  0.00     0.049 A 
ATOM     51  C   UNL A   1      40.829  31.861  35.897  1.00  0.00     0.074 A 
ATOM     52  C   UNL A   1      42.841  27.699  31.554  1.00  0.00     0.029 A 
ATOM     53  N   UNL A   1      41.725  29.268  32.666  1.00  0.00    -0.354 N 
ATOM     54  N   UNL A   1      41.203  31.067  34.923  1.00  0.00    -0.248 NA
ATOM     55  C   UNL A   1      41.673  31.775  37.097  1.00  0.00     0.031 C 
ATOM     56  C   UNL A   1      43.491  27.927  32.773  1.00  0.00     0.029 A 
ATOM     57  C   UNL A   1      42.798  28.909  33.462  1.00  0.00     0.049 A 
ATOM     58  H   UNL A   1      41.051  29.947  32.899  1.00  0.00     0.167 HD
ATOM     59  C   UNL A   1      42.341  30.413  35.378  1.00  0.00     0.074 A 
ATOM     60  C   UNL A   1      42.609  30.921  36.708  1.00  0.00     0.031 C 
ATOM     61  C   UNL A   1      43.087  29.466  34.759  1.00  0.00     0.034 A 
BRANCH  48  62
ATOM     62  C   UNL A   1      40.886  27.732  29.251  1.00  0.00     0.023 A 
ATOM     63  C   UNL A   1      40.154  26.528  29.225  1.00  0.00     0.012 A 
ATOM     64  C   UNL A   1      41.678  28.084  28.141  1.00  0.00     0.148 A 
ATOM     65  C   UNL A   1      40.231  25.671  28.128  1.00  0.00     0.002 A 
ATOM     66  C   UNL A   1      41.717  27.244  27.032  1.00  0.00     0.091 A 
ATOM     67  F   UNL A   1      42.386  29.220  28.193  1.00  0.00    -0.205 F 
ATOM     68  C   UNL A   1      41.004  26.034  27.028  1.00  0.00     0.022 A 
BRANCH  66  69
ATOM     69  S   UNL A   1      42.623  27.660  25.537  1.00  0.00     0.127 S 
ATOM     70  O   UNL A   1      43.989  27.778  26.043  1.00  0.00    -0.237 OA
ATOM     71  O   UNL A   1      42.385  26.487  24.695  1.00  0.00    -0.237 OA
ATOM     72  O   UNL A   1      42.029  28.893  25.040  1.00  0.00    -0.744 OA
ENDBRANCH  66  69
ENDBRANCH  48  62
BRANCH  49  73
ATOM     73  C   UNL A   1      39.464  33.711  37.125  1.00  0.00     0.023 A 
ATOM     74  C   UNL A   1      39.905  35.048  37.101  1.00  0.00     0.012 A 
ATOM     75  C   UNL A   1      38.783  33.232  38.260  1.00  0.00     0.148 A 
ATOM     76  C   UNL A   1      39.702  35.885  38.199  1.00  0.00     0.002 A 
ATOM     77  C   UNL A   1      38.536  34.086  39.330  1.00  0.00     0.091 A 
ATOM     78  F   UNL A   1      38.382  31.953  38.270  1.00  0.00    -0.205 F 
ATOM     79  C   UNL A   1      39.009  35.408  39.308  1.00  0.00     0.022 A 
BRANCH  77  80
ATOM     80  S   UNL A   1      37.538  33.594  40.739  1.00  0.00     0.127 S 
ATOM     81  O   UNL A   1      38.382  32.580  41.366  1.00  0.00    -0.237 OA
ATOM     82  O   UNL A   1      37.424  34.848  41.486  1.00  0.00    -0.237 OA
ATOM     83  O   UNL A   1      36.280  33.118  40.178  1.00  0.00    -0.744 OA
ENDBRANCH  77  80
ENDBRANCH  49  73
BRANCH  61  84
ATOM     84  C   UNL A   1      44.284  28.927  35.495  1.00  0.00     0.023 A 
ATOM     85  C   UNL A   1      45.541  29.539  35.321  1.00  0.00     0.012 A 
ATOM     86  C   UNL A   1      44.149  27.871  36.417  1.00  0.00     0.148 A 
ATOM     87  C   UNL A   1      46.652  29.089  36.033  1.00  0.00     0.002 A 
ATOM     88  C   UNL A   1      45.252  27.458  37.157  1.00  0.00     0.091 A 
ATOM     89  F   UNL A   1      42.950  27.289  36.554  1.00  0.00    -0.205 F 
ATOM     90  C   UNL A   1      46.505  28.059  36.959  1.00  0.00     0.022 A 
BRANCH  88  91
ATOM     91  S   UNL A   1      45.132  26.203  38.436  1.00  0.00     0.127 S 
ATOM     92  O   UNL A   1      46.520  26.097  38.882  1.00  0.00    -0.237 OA
ATOM     93  O   UNL A   1      44.227  26.827  39.403  1.00  0.00    -0.237 OA
ATOM     94  O   UNL A   1      44.589  25.019  37.784  1.00  0.00    -0.744 OA
ENDBRANCH  88  91
ENDBRANCH  61  84
ENDBRANCH  35  36
ENDBRANCH  27  30
ENDBRANCH  25  26
ENDBRANCH  24  25
ENDBRANCH   1  24
TORSDOF 18
ENDMDL
MODEL 2
REMARK VINA RESULT:     -11.4      5.657      8.509
REMARK SMILES C[C@H]1[C@H](C(=O)NCCCCNC(=O)c2ccc(-c3c4nc(c(-c5cccc(S(=O)(=O)[O-])c5F)c5ccc([nH]5)c(-c5cccc(S(=O)(=O)[O-])c5F)c5nc(c(-c6cccc(S(=O)(=O)[O-])c6F)c6ccc3[nH]6)C=C5)C=C4)cc2)CCN1C(=O)COc1ccccc1F
REMARK SMILES IDX 8 1 7 2 6 3 4 4 5 5 3 7 1 8 2 9 79 10 77 11 78 12 80 13
REMARK SMILES IDX 81 14 82 15 83 16 84 17 85 18 89 19 86 20 88 21 90 22 87 23
REMARK SMILES IDX 9 24 10 25 11 26 12 27 13 29 14 30 15 31 76 32 16 33 75 34
REMARK SMILES IDX 17 35 18 36 19 37 69 38 20 39 74 40 68 41 70 42 21 43 73 44
REMARK SMILES IDX 67 45 66 46 22 48 54 49 34 50 53 51 35 52 38 53 52 54 71 55
REMARK SMILES IDX 36 56 37 57 51 59 72 60 39 61 23 62 24 63 32 64 25 65 27 66
REMARK SMILES IDX 33 67 26 68 28 69 29 70 30 71 31 72 55 73 56 74 64 75 57 76
REMARK SMILES IDX 59 77 65 78 58 79 60 80 61 81 62 82 63 83 40 84 41 85 49 86
REMARK SMILES IDX 42 87 44 88 50 89 43 90 45 91 46 92 47 93 48 94
REMARK H PARENT 6 6 11 28 70 47 38 58
REMARK Flexibility Score: inf
ROOT
ATOM      1  C   UNL A   1      34.651  21.377  26.396  1.00  0.00     0.023 C 
ENDROOT
BRANCH   1   2
ATOM      2  C   UNL A   1      33.158  21.211  26.130  1.00  0.00     0.116 C 
BRANCH   2   3
ATOM      3  N   UNL A   1      32.375  22.255  26.765  1.00  0.00    -0.356 N 
ATOM      4  C   UNL A   1      32.250  23.578  26.482  1.00  0.00     0.225 C 
ATOM      5  O   UNL A   1      31.513  24.253  27.206  1.00  0.00    -0.275 OA
ATOM      6  H   UNL A   1      31.840  21.951  27.535  1.00  0.00     0.163 HD
BRANCH   4   7
ATOM      7  C   UNL A   1      32.969  24.238  25.318  1.00  0.00     0.102 C 
ATOM      8  C   UNL A   1      32.163  24.141  22.952  1.00  0.00     0.032 C 
ATOM      9  C   UNL A   1      32.010  24.868  24.289  1.00  0.00     0.094 C 
ATOM     10  N   UNL A   1      32.405  26.279  24.245  1.00  0.00    -0.336 N 
ATOM     11  C   UNL A   1      33.964  25.319  25.744  1.00  0.00     0.037 C 
ATOM     12  C   UNL A   1      33.740  26.464  24.779  1.00  0.00     0.121 C 
BRANCH  10  13
ATOM     13  C   UNL A   1      31.638  27.387  23.944  1.00  0.00     0.260 C 
ATOM     14  O   UNL A   1      32.003  28.525  24.265  1.00  0.00    -0.271 OA
BRANCH  13  15
ATOM     15  C   UNL A   1      30.296  27.216  23.220  1.00  0.00     0.329 C 
BRANCH  15  16
ATOM     16  O   UNL A   1      29.886  28.053  22.160  1.00  0.00    -0.481 OA
BRANCH  16  17
ATOM     17  C   UNL A   1      29.090  29.137  22.405  1.00  0.00     0.155 A 
ATOM     18  C   UNL A   1      29.672  30.357  22.043  1.00  0.00     0.049 A 
ATOM     19  C   UNL A   1      27.859  29.166  23.059  1.00  0.00     0.165 A 
ATOM     20  C   UNL A   1      29.039  31.571  22.329  1.00  0.00     0.004 A 
ATOM     21  C   UNL A   1      27.228  30.374  23.362  1.00  0.00     0.043 A 
ATOM     22  F   UNL A   1      27.243  28.059  23.478  1.00  0.00    -0.203 F 
ATOM     23  C   UNL A   1      27.819  31.581  22.999  1.00  0.00     0.003 A 
ENDBRANCH  16  17
ENDBRANCH  15  16
ENDBRANCH  13  15
ENDBRANCH  10  13
ENDBRANCH   4   7
ENDBRANCH   2   3
ENDBRANCH   1   2
BRANCH   1  24
ATOM     24  C   UNL A   1      35.503  21.549  25.139  1.00  0.00     0.023 C 
BRANCH  24  25
ATOM     25  C   UNL A   1      36.907  22.097  25.376  1.00  0.00     0.116 C 
BRANCH  25  26
ATOM     26  N   UNL A   1      37.903  21.056  25.582  1.00  0.00    -0.352 N 
ATOM     27  C   UNL A   1      39.174  21.181  26.094  1.00  0.00     0.251 C 
ATOM     28  H   UNL A   1      37.633  20.147  25.323  1.00  0.00     0.163 HD
ATOM     29  O   UNL A   1      39.937  20.219  26.101  1.00  0.00    -0.269 OA
BRANCH  27  30
ATOM     30  C   UNL A   1      39.622  22.493  26.600  1.00  0.00     0.039 A 
ATOM     31  C   UNL A   1      40.657  22.539  27.538  1.00  0.00     0.014 A 
ATOM     32  C   UNL A   1      39.053  23.674  26.116  1.00  0.00     0.014 A 
ATOM     33  C   UNL A   1      41.171  23.774  27.937  1.00  0.00     0.010 A 
ATOM     34  C   UNL A   1      39.614  24.900  26.460  1.00  0.00     0.010 A 
ATOM     35  C   UNL A   1      40.678  24.963  27.373  1.00  0.00    -0.014 A 
BRANCH  35  36
ATOM     36  C   UNL A   1      41.273  26.281  27.708  1.00  0.00     0.031 A 
ATOM     37  C   UNL A   1      42.690  26.593  27.315  1.00  0.00     0.074 A 
ATOM     38  C   UNL A   1      40.569  27.156  28.454  1.00  0.00     0.049 A 
ATOM     39  N   UNL A   1      43.400  27.660  27.573  1.00  0.00    -0.248 NA
ATOM     40  C   UNL A   1      43.416  25.559  26.558  1.00  0.00     0.031 C 
ATOM     41  C   UNL A   1      39.218  26.931  28.974  1.00  0.00     0.029 A 
ATOM     42  N   UNL A   1      40.905  28.398  28.930  1.00  0.00    -0.354 N 
ATOM     43  C   UNL A   1      44.662  27.412  27.049  1.00  0.00     0.074 A 
ATOM     44  C   UNL A   1      44.632  26.080  26.485  1.00  0.00     0.031 C 
ATOM     45  C   UNL A   1      38.840  28.001  29.693  1.00  0.00     0.029 A 
ATOM     46  C   UNL A   1      39.926  28.976  29.706  1.00  0.00     0.049 A 
ATOM     47  H   UNL A   1      41.765  28.837  28.734  1.00  0.00     0.167 HD
ATOM     48  C   UNL A   1      45.740  28.232  27.007  1.00  0.00     0.034 A 
ATOM     49  C   UNL A   1      39.907  30.156  30.356  1.00  0.00     0.034 A 
ATOM     50  C   UNL A   1      45.749  29.576  27.517  1.00  0.00     0.049 A 
ATOM     51  C   UNL A   1      41.094  31.072  30.241  1.00  0.00     0.074 A 
ATOM     52  C   UNL A   1      46.756  30.521  27.434  1.00  0.00     0.029 A 
ATOM     53  N   UNL A   1      44.700  30.167  28.206  1.00  0.00    -0.354 N 
ATOM     54  N   UNL A   1      42.217  30.890  29.589  1.00  0.00    -0.248 NA
ATOM     55  C   UNL A   1      40.999  32.374  30.917  1.00  0.00     0.031 C 
ATOM     56  C   UNL A   1      46.319  31.681  28.083  1.00  0.00     0.029 A 
ATOM     57  C   UNL A   1      45.037  31.461  28.559  1.00  0.00     0.049 A 
ATOM     58  H   UNL A   1      43.843  29.729  28.414  1.00  0.00     0.167 HD
ATOM     59  C   UNL A   1      42.947  32.062  29.748  1.00  0.00     0.074 A 
ATOM     60  C   UNL A   1      42.128  32.958  30.539  1.00  0.00     0.031 C 
ATOM     61  C   UNL A   1      44.188  32.363  29.296  1.00  0.00     0.034 A 
BRANCH  48  62
ATOM     62  C   UNL A   1      46.981  27.719  26.325  1.00  0.00     0.023 A 
ATOM     63  C   UNL A   1      47.918  26.971  27.068  1.00  0.00     0.012 A 
ATOM     64  C   UNL A   1      47.196  27.927  24.950  1.00  0.00     0.148 A 
ATOM     65  C   UNL A   1      49.066  26.465  26.461  1.00  0.00     0.002 A 
ATOM     66  C   UNL A   1      48.323  27.383  24.342  1.00  0.00     0.091 A 
ATOM     67  F   UNL A   1      46.308  28.659  24.265  1.00  0.00    -0.205 F 
ATOM     68  C   UNL A   1      49.263  26.663  25.097  1.00  0.00     0.022 A 
BRANCH  66  69
ATOM     69  S   UNL A   1      48.628  27.517  22.576  1.00  0.00     0.127 S 
ATOM     70  O   UNL A   1      49.921  28.200  22.551  1.00  0.00    -0.237 OA
ATOM     71  O   UNL A   1      48.673  26.114  22.162  1.00  0.00    -0.237 OA
ATOM     72  O   UNL A   1      47.508  28.272  22.033  1.00  0.00    -0.744 OA
ENDBRANCH  66  69
ENDBRANCH  48  62
BRANCH  49  73
ATOM     73  C   UNL A   1      38.686  30.573  31.103  1.00  0.00     0.023 A 
ATOM     74  C   UNL A   1      38.617  30.340  32.490  1.00  0.00     0.012 A 
ATOM     75  C   UNL A   1      37.617  31.227  30.461  1.00  0.00     0.148 A 
ATOM     76  C   UNL A   1      37.491  30.722  33.221  1.00  0.00     0.002 A 
ATOM     77  C   UNL A   1      36.521  31.654  31.205  1.00  0.00     0.091 A 
ATOM     78  F   UNL A   1      37.695  31.428  29.139  1.00  0.00    -0.205 F 
ATOM     79  C   UNL A   1      36.449  31.388  32.582  1.00  0.00     0.022 A 
BRANCH  77  80
ATOM     80  S   UNL A   1      35.198  32.633  30.487  1.00  0.00     0.127 S 
ATOM     81  O   UNL A   1      34.254  32.722  31.598  1.00  0.00    -0.237 OA
ATOM     82  O   UNL A   1      35.886  33.884  30.162  1.00  0.00    -0.237 OA
ATOM     83  O   UNL A   1      34.745  31.882  29.324  1.00  0.00    -0.744 OA
ENDBRANCH  77  80
ENDBRANCH  49  73
BRANCH  61  84
ATOM     84  C   UNL A   1      44.737  33.727  29.617  1.00  0.00     0.023 A 
ATOM     85  C   UNL A   1      45.434  33.930  30.825  1.00  0.00     0.012 A 
ATOM     86  C   UNL A   1      44.635  34.783  28.691  1.00  0.00     0.148 A 
ATOM     87  C   UNL A   1      45.996  35.172  31.118  1.00  0.00     0.002 A 
ATOM     88  C   UNL A   1      45.237  36.005  28.969  1.00  0.00     0.091 A 
ATOM     89  F   UNL A   1      43.951  34.576  27.556  1.00  0.00    -0.205 F 
ATOM     90  C   UNL A   1      45.908  36.204  30.187  1.00  0.00     0.022 A 
BRANCH  88  91
ATOM     91  S   UNL A   1      45.253  37.357  27.787  1.00  0.00     0.127 S 
ATOM     92  O   UNL A   1      46.261  38.245  28.364  1.00  0.00    -0.237 OA
ATOM     93  O   UNL A   1      45.666  36.688  26.552  1.00  0.00    -0.237 OA
ATOM     94  O   UNL A   1      43.895  37.881  27.761  1.00  0.00    -0.744 OA
ENDBRANCH  88  91
ENDBRANCH  61  84
ENDBRANCH  35  36
ENDBRANCH  27  30
ENDBRANCH  25  26
ENDBRANCH  24  25
ENDBRANCH   1  24
TORSDOF 18
ENDMDL
MODEL 3
REMARK VINA RESULT:     -11.4      1.656      2.064
REMARK SMILES C[C@H]1[C@H](C(=O)NCCCCNC(=O)c2ccc(-c3c4nc(c(-c5cccc(S(=O)(=O)[O-])c5F)c5ccc([nH]5)c(-c5cccc(S(=O)(=O)[O-])c5F)c5nc(c(-c6cccc(S(=O)(=O)[O-])c6F)c6ccc3[nH]6)C=C5)C=C4)cc2)CCN1C(=O)COc1ccccc1F
REMARK SMILES IDX 8 1 7 2 6 3 4 4 5 5 3 7 1 8 2 9 79 10 77 11 78 12 80 13
REMARK SMILES IDX 81 14 82 15 83 16 84 17 85 18 89 19 86 20 88 21 90 22 87 23
REMARK SMILES IDX 9 24 10 25 11 26 12 27 13 29 14 30 15 31 76 32 16 33 75 34
REMARK SMILES IDX 17 35 18 36 19 37 69 38 20 39 74 40 68 41 70 42 21 43 73 44
REMARK SMILES IDX 67 45 66 46 22 48 54 49 34 50 53 51 35 52 38 53 52 54 71 55
REMARK SMILES IDX 36 56 37 57 51 59 72 60 39 61 23 62 24 63 32 64 25 65 27 66
REMARK SMILES IDX 33 67 26 68 28 69 29 70 30 71 31 72 55 73 56 74 64 75 57 76
REMARK SMILES IDX 59 77 65 78 58 79 60 80 61 81 62 82 63 83 40 84 41 85 49 86
REMARK SMILES IDX 42 87 44 88 50 89 43 90 45 91 46 92 47 93 48 94
REMARK H PARENT 6 6 11 28 70 47 38 58
REMARK Flexibility Score: inf
ROOT
ATOM      1  C   UNL A   1      31.329  30.439  25.492  1.00  0.00     0.023 C 
ENDROOT
BRANCH   1   2
ATOM      2  C   UNL A   1      32.719  29.814  25.556  1.00  0.00     0.116 C 
BRANCH   2   3
ATOM      3  N   UNL A   1      33.289  29.621  24.235  1.00  0.00    -0.356 N 
ATOM      4  C   UNL A   1      33.687  28.494  23.587  1.00  0.00     0.225 C 
ATOM      5  O   UNL A   1      34.158  28.620  22.454  1.00  0.00    -0.275 OA
ATOM      6  H   UNL A   1      33.407  30.451  23.717  1.00  0.00     0.163 HD
BRANCH   4   7
ATOM      7  C   UNL A   1      33.562  27.110  24.199  1.00  0.00     0.102 C 
ATOM      8  C   UNL A   1      32.382  26.645  26.355  1.00  0.00     0.032 C 
ATOM      9  C   UNL A   1      32.189  26.854  24.852  1.00  0.00     0.094 C 
ATOM     10  N   UNL A   1      31.672  25.675  24.152  1.00  0.00    -0.336 N 
ATOM     11  C   UNL A   1      33.821  25.974  23.209  1.00  0.00     0.037 C 
ATOM     12  C   UNL A   1      32.738  24.953  23.487  1.00  0.00     0.121 C 
BRANCH  10  13
ATOM     13  C   UNL A   1      30.361  25.308  23.921  1.00  0.00     0.260 C 
ATOM     14  O   UNL A   1      30.083  24.243  23.358  1.00  0.00    -0.271 OA
BRANCH  13  15
ATOM     15  C   UNL A   1      29.218  26.241  24.345  1.00  0.00     0.329 C 
BRANCH  15  16
ATOM     16  O   UNL A   1      28.399  26.920  23.417  1.00  0.00    -0.481 OA
BRANCH  16  17
ATOM     17  C   UNL A   1      28.671  28.214  23.074  1.00  0.00     0.155 A 
ATOM     18  C   UNL A   1      27.618  29.099  23.328  1.00  0.00     0.049 A 
ATOM     19  C   UNL A   1      29.797  28.708  22.415  1.00  0.00     0.165 A 
ATOM     20  C   UNL A   1      27.689  30.439  22.933  1.00  0.00     0.004 A 
ATOM     21  C   UNL A   1      29.869  30.040  22.004  1.00  0.00     0.043 A 
ATOM     22  F   UNL A   1      30.836  27.935  22.093  1.00  0.00    -0.203 F 
ATOM     23  C   UNL A   1      28.813  30.909  22.260  1.00  0.00     0.003 A 
ENDBRANCH  16  17
ENDBRANCH  15  16
ENDBRANCH  13  15
ENDBRANCH  10  13
ENDBRANCH   4   7
ENDBRANCH   2   3
ENDBRANCH   1   2
BRANCH   1  24
ATOM     24  C   UNL A   1      31.210  31.792  26.193  1.00  0.00     0.023 C 
BRANCH  24  25
ATOM     25  C   UNL A   1      32.478  32.276  26.891  1.00  0.00     0.116 C 
BRANCH  25  26
ATOM     26  N   UNL A   1      32.363  33.628  27.416  1.00  0.00    -0.352 N 
ATOM     27  C   UNL A   1      33.175  34.259  28.330  1.00  0.00     0.251 C 
ATOM     28  H   UNL A   1      31.610  34.159  27.073  1.00  0.00     0.163 HD
ATOM     29  O   UNL A   1      32.879  35.372  28.759  1.00  0.00    -0.269 OA
BRANCH  27  30
ATOM     30  C   UNL A   1      34.386  33.569  28.818  1.00  0.00     0.039 A 
ATOM     31  C   UNL A   1      35.609  34.242  28.780  1.00  0.00     0.014 A 
ATOM     32  C   UNL A   1      34.302  32.280  29.352  1.00  0.00     0.014 A 
ATOM     33  C   UNL A   1      36.739  33.649  29.345  1.00  0.00     0.010 A 
ATOM     34  C   UNL A   1      35.413  31.722  29.977  1.00  0.00     0.010 A 
ATOM     35  C   UNL A   1      36.642  32.400  29.981  1.00  0.00    -0.014 A 
BRANCH  35  36
ATOM     36  C   UNL A   1      37.806  31.793  30.673  1.00  0.00     0.031 A 
ATOM     37  C   UNL A   1      38.640  30.751  29.980  1.00  0.00     0.074 A 
ATOM     38  C   UNL A   1      38.049  32.107  31.962  1.00  0.00     0.049 A 
ATOM     39  N   UNL A   1      39.651  30.065  30.443  1.00  0.00    -0.248 NA
ATOM     40  C   UNL A   1      38.270  30.414  28.595  1.00  0.00     0.031 C 
ATOM     41  C   UNL A   1      37.256  33.035  32.771  1.00  0.00     0.029 A 
ATOM     42  N   UNL A   1      39.016  31.657  32.825  1.00  0.00    -0.354 N 
ATOM     43  C   UNL A   1      40.014  29.190  29.426  1.00  0.00     0.074 A 
ATOM     44  C   UNL A   1      39.093  29.409  28.332  1.00  0.00     0.031 C 
ATOM     45  C   UNL A   1      37.770  33.087  34.011  1.00  0.00     0.029 A 
ATOM     46  C   UNL A   1      38.912  32.181  34.093  1.00  0.00     0.049 A 
ATOM     47  H   UNL A   1      39.718  31.018  32.563  1.00  0.00     0.167 HD
ATOM     48  C   UNL A   1      41.042  28.309  29.391  1.00  0.00     0.034 A 
ATOM     49  C   UNL A   1      39.651  31.956  35.196  1.00  0.00     0.034 A 
ATOM     50  C   UNL A   1      41.990  28.136  30.458  1.00  0.00     0.049 A 
ATOM     51  C   UNL A   1      40.825  31.019  35.111  1.00  0.00     0.074 A 
ATOM     52  C   UNL A   1      43.124  27.344  30.481  1.00  0.00     0.029 A 
ATOM     53  N   UNL A   1      41.915  28.764  31.692  1.00  0.00    -0.354 N 
ATOM     54  N   UNL A   1      41.257  30.331  34.083  1.00  0.00    -0.248 NA
ATOM     55  C   UNL A   1      41.637  30.856  36.326  1.00  0.00     0.031 C 
ATOM     56  C   UNL A   1      43.729  27.484  31.735  1.00  0.00     0.029 A 
ATOM     57  C   UNL A   1      42.978  28.374  32.487  1.00  0.00     0.049 A 
ATOM     58  H   UNL A   1      41.208  29.394  31.963  1.00  0.00     0.167 HD
ATOM     59  C   UNL A   1      42.408  29.680  34.514  1.00  0.00     0.074 A 
ATOM     60  C   UNL A   1      42.617  30.075  35.891  1.00  0.00     0.031 C 
ATOM     61  C   UNL A   1      43.207  28.821  33.837  1.00  0.00     0.034 A 
BRANCH  48  62
ATOM     62  C   UNL A   1      41.236  27.513  28.128  1.00  0.00     0.023 A 
ATOM     63  C   UNL A   1      41.857  28.121  27.018  1.00  0.00     0.012 A 
ATOM     64  C   UNL A   1      40.857  26.159  28.054  1.00  0.00     0.148 A 
ATOM     65  C   UNL A   1      42.070  27.404  25.841  1.00  0.00     0.002 A 
ATOM     66  C   UNL A   1      41.110  25.438  26.891  1.00  0.00     0.091 A 
ATOM     67  F   UNL A   1      40.246  25.605  29.110  1.00  0.00    -0.205 F 
ATOM     68  C   UNL A   1      41.705  26.061  25.782  1.00  0.00     0.022 A 
BRANCH  66  69
ATOM     69  S   UNL A   1      40.748  23.684  26.743  1.00  0.00     0.127 S 
ATOM     70  O   UNL A   1      41.626  23.294  25.641  1.00  0.00    -0.237 OA
ATOM     71  O   UNL A   1      41.152  23.174  28.053  1.00  0.00    -0.237 OA
ATOM     72  O   UNL A   1      39.320  23.593  26.472  1.00  0.00    -0.744 OA
ENDBRANCH  66  69
ENDBRANCH  48  62
BRANCH  49  73
ATOM     73  C   UNL A   1      39.353  32.699  36.455  1.00  0.00     0.023 A 
ATOM     74  C   UNL A   1      39.951  33.955  36.669  1.00  0.00     0.012 A 
ATOM     75  C   UNL A   1      38.460  32.190  37.417  1.00  0.00     0.148 A 
ATOM     76  C   UNL A   1      39.690  34.679  37.833  1.00  0.00     0.002 A 
ATOM     77  C   UNL A   1      38.163  32.940  38.550  1.00  0.00     0.091 A 
ATOM     78  F   UNL A   1      37.911  30.986  37.202  1.00  0.00    -0.205 F 
ATOM     79  C   UNL A   1      38.789  34.178  38.767  1.00  0.00     0.022 A 
BRANCH  77  80
ATOM     80  S   UNL A   1      36.915  32.431  39.737  1.00  0.00     0.127 S 
ATOM     81  O   UNL A   1      35.729  32.308  38.893  1.00  0.00    -0.237 OA
ATOM     82  O   UNL A   1      37.458  31.163  40.226  1.00  0.00    -0.237 OA
ATOM     83  O   UNL A   1      36.877  33.488  40.739  1.00  0.00    -0.744 OA
ENDBRANCH  77  80
ENDBRANCH  49  73
BRANCH  61  84
ATOM     84  C   UNL A   1      44.404  28.263  34.560  1.00  0.00     0.023 A 
ATOM     85  C   UNL A   1      45.615  28.983  34.561  1.00  0.00     0.012 A 
ATOM     86  C   UNL A   1      44.306  27.070  35.302  1.00  0.00     0.148 A 
ATOM     87  C   UNL A   1      46.719  28.509  35.268  1.00  0.00     0.002 A 
ATOM     88  C   UNL A   1      45.397  26.628  36.042  1.00  0.00     0.091 A 
ATOM     89  F   UNL A   1      43.151  26.389  35.273  1.00  0.00    -0.205 F 
ATOM     90  C   UNL A   1      46.607  27.340  36.017  1.00  0.00     0.022 A 
BRANCH  88  91
ATOM     91  S   UNL A   1      45.312  25.185  37.108  1.00  0.00     0.127 S 
ATOM     92  O   UNL A   1      44.160  25.504  37.950  1.00  0.00    -0.237 OA
ATOM     93  O   UNL A   1      45.085  24.101  36.150  1.00  0.00    -0.237 OA
ATOM     94  O   UNL A   1      46.594  25.119  37.795  1.00  0.00    -0.744 OA
ENDBRANCH  88  91
ENDBRANCH  61  84
ENDBRANCH  35  36
ENDBRANCH  27  30
ENDBRANCH  25  26
ENDBRANCH  24  25
ENDBRANCH   1  24
TORSDOF 18
ENDMDL
