MODEL 1
REMARK VINA RESULT:     -10.8      0.000      0.000
REMARK SMILES CC[C@@H]1CCCN1C(=O)N(CC(=O)NCCCCNC(=O)c1ccc(-c2c3nc(c(-c4cccc(S(=O)(=O)[O-])c4F)c4ccc([nH]4)c(-c4cccc(S(=O)(=O)[O-])c4F)c4nc(c(-c5cccc(S(=O)(=O)[O-])c5F)c5ccc2[nH]5)C=C4)C=C3)cc1)CC(F)(F)F
REMARK SMILES IDX 16 1 15 2 14 3 12 4 13 5 11 7 10 8 8 9 9 10 7 11 3 12 4 13
REMARK SMILES IDX 5 14 6 15 2 16 1 17 85 18 86 19 87 20 88 21 89 22 17 23
REMARK SMILES IDX 18 24 19 25 20 26 21 28 22 29 23 30 84 31 24 32 83 33 25 34
REMARK SMILES IDX 26 35 27 36 77 37 28 38 82 39 76 40 78 41 29 42 81 43 75 44
REMARK SMILES IDX 74 45 30 47 62 48 42 49 61 50 43 51 46 52 60 53 79 54 44 55
REMARK SMILES IDX 45 56 59 58 80 59 47 60 31 61 32 62 40 63 33 64 35 65 41 66
REMARK SMILES IDX 34 67 36 68 37 69 38 70 39 71 63 72 64 73 72 74 65 75 67 76
REMARK SMILES IDX 73 77 66 78 68 79 69 80 70 81 71 82 48 83 49 84 57 85 50 86
REMARK SMILES IDX 52 87 58 88 51 89 53 90 54 91 55 92 56 93
REMARK H PARENT 14 6 19 27 78 46 46 57
REMARK Flexibility Score: inf
ROOT
ATOM      1  C   UNL A   1      31.265  29.263  24.069  1.00  0.00     0.023 C 
ENDROOT
BRANCH   1   2
ATOM      2  C   UNL A   1      30.986  28.270  22.951  1.00  0.00     0.116 C 
BRANCH   2   3
ATOM      3  N   UNL A   1      32.194  27.848  22.284  1.00  0.00    -0.355 N 
ATOM      4  C   UNL A   1      32.773  26.623  22.191  1.00  0.00     0.239 C 
ATOM      5  O   UNL A   1      33.784  26.534  21.485  1.00  0.00    -0.273 OA
ATOM      6  H   UNL A   1      32.679  28.567  21.818  1.00  0.00     0.163 HD
BRANCH   4   7
ATOM      7  C   UNL A   1      32.114  25.340  22.720  1.00  0.00     0.221 C 
BRANCH   7   8
ATOM      8  N   UNL A   1      32.477  24.681  23.961  1.00  0.00    -0.306 N 
BRANCH   8   9
ATOM      9  C   UNL A   1      33.698  24.307  24.455  1.00  0.00     0.321 C 
ATOM     10  O   UNL A   1      34.463  25.234  24.774  1.00  0.00    -0.248 OA
BRANCH   9  11
ATOM     11  N   UNL A   1      34.116  23.017  24.712  1.00  0.00    -0.322 N 
ATOM     12  C   UNL A   1      33.916  21.609  24.235  1.00  0.00     0.086 C 
ATOM     13  C   UNL A   1      34.490  20.800  25.419  1.00  0.00     0.027 C 
ATOM     14  C   UNL A   1      35.736  21.564  25.787  1.00  0.00     0.024 C 
ATOM     15  C   UNL A   1      35.329  23.006  25.559  1.00  0.00     0.122 C 
BRANCH  12  16
ATOM     16  C   UNL A   1      32.586  20.937  23.873  1.00  0.00     0.022 C 
ATOM     17  C   UNL A   1      32.075  21.348  22.491  1.00  0.00     0.006 C 
ENDBRANCH  12  16
ENDBRANCH   9  11
ENDBRANCH   8   9
BRANCH   8  18
ATOM     18  C   UNL A   1      31.295  24.306  24.796  1.00  0.00     0.237 C 
BRANCH  18  19
ATOM     19  C   UNL A   1      30.997  25.177  26.020  1.00  0.00     0.406 C 
ATOM     20  F   UNL A   1      31.398  26.455  25.877  1.00  0.00    -0.169 F 
ATOM     21  F   UNL A   1      29.662  25.199  26.257  1.00  0.00    -0.169 F 
ATOM     22  F   UNL A   1      31.583  24.673  27.129  1.00  0.00    -0.169 F 
ENDBRANCH  18  19
ENDBRANCH   8  18
ENDBRANCH   7   8
ENDBRANCH   4   7
ENDBRANCH   2   3
ENDBRANCH   1   2
BRANCH   1  23
ATOM     23  C   UNL A   1      32.710  29.248  24.560  1.00  0.00     0.023 C 
BRANCH  23  24
ATOM     24  C   UNL A   1      32.863  29.540  26.045  1.00  0.00     0.116 C 
BRANCH  24  25
ATOM     25  N   UNL A   1      32.586  30.934  26.367  1.00  0.00    -0.352 N 
ATOM     26  C   UNL A   1      33.287  31.763  27.211  1.00  0.00     0.251 C 
ATOM     27  H   UNL A   1      31.801  31.330  25.926  1.00  0.00     0.163 HD
ATOM     28  O   UNL A   1      32.848  32.860  27.520  1.00  0.00    -0.269 OA
BRANCH  26  29
ATOM     29  C   UNL A   1      34.575  31.283  27.749  1.00  0.00     0.039 A 
ATOM     30  C   UNL A   1      35.610  32.196  27.957  1.00  0.00     0.014 A 
ATOM     31  C   UNL A   1      34.718  29.942  28.116  1.00  0.00     0.014 A 
ATOM     32  C   UNL A   1      36.778  31.769  28.590  1.00  0.00     0.010 A 
ATOM     33  C   UNL A   1      35.846  29.542  28.819  1.00  0.00     0.010 A 
ATOM     34  C   UNL A   1      36.892  30.448  29.052  1.00  0.00    -0.014 A 
BRANCH  34  35
ATOM     35  C   UNL A   1      38.101  29.982  29.775  1.00  0.00     0.031 A 
ATOM     36  C   UNL A   1      38.381  30.491  31.164  1.00  0.00     0.074 A 
ATOM     37  C   UNL A   1      38.984  29.175  29.154  1.00  0.00     0.049 A 
ATOM     38  N   UNL A   1      39.412  30.263  31.934  1.00  0.00    -0.248 NA
ATOM     39  C   UNL A   1      37.384  31.402  31.753  1.00  0.00     0.031 C 
ATOM     40  C   UNL A   1      38.862  28.681  27.781  1.00  0.00     0.029 A 
ATOM     41  N   UNL A   1      40.174  28.649  29.590  1.00  0.00    -0.354 N 
ATOM     42  C   UNL A   1      39.203  31.020  33.079  1.00  0.00     0.074 A 
ATOM     43  C   UNL A   1      37.974  31.756  32.885  1.00  0.00     0.031 C 
ATOM     44  C   UNL A   1      39.928  27.916  27.491  1.00  0.00     0.029 A 
ATOM     45  C   UNL A   1      40.821  27.888  28.644  1.00  0.00     0.049 A 
ATOM     46  H   UNL A   1      40.530  28.800  30.495  1.00  0.00     0.167 HD
ATOM     47  C   UNL A   1      39.947  31.071  34.209  1.00  0.00     0.034 A 
ATOM     48  C   UNL A   1      42.003  27.245  28.702  1.00  0.00     0.034 A 
ATOM     49  C   UNL A   1      41.143  30.303  34.416  1.00  0.00     0.049 A 
ATOM     50  C   UNL A   1      42.794  27.292  29.983  1.00  0.00     0.074 A 
ATOM     51  C   UNL A   1      41.934  30.228  35.547  1.00  0.00     0.029 A 
ATOM     52  N   UNL A   1      41.721  29.474  33.466  1.00  0.00    -0.354 N 
ATOM     53  N   UNL A   1      42.505  27.897  31.110  1.00  0.00    -0.248 NA
ATOM     54  C   UNL A   1      44.055  26.538  30.014  1.00  0.00     0.031 C 
ATOM     55  C   UNL A   1      42.999  29.361  35.278  1.00  0.00     0.029 A 
ATOM     56  C   UNL A   1      42.858  28.881  33.987  1.00  0.00     0.049 A 
ATOM     57  H   UNL A   1      41.374  29.327  32.557  1.00  0.00     0.167 HD
ATOM     58  C   UNL A   1      43.524  27.563  31.994  1.00  0.00     0.074 A 
ATOM     59  C   UNL A   1      44.426  26.685  31.278  1.00  0.00     0.031 C 
ATOM     60  C   UNL A   1      43.707  27.959  33.277  1.00  0.00     0.034 A 
BRANCH  47  61
ATOM     61  C   UNL A   1      39.444  31.935  35.337  1.00  0.00     0.023 A 
ATOM     62  C   UNL A   1      38.553  31.385  36.282  1.00  0.00     0.012 A 
ATOM     63  C   UNL A   1      39.883  33.264  35.493  1.00  0.00     0.148 A 
ATOM     64  C   UNL A   1      38.080  32.152  37.345  1.00  0.00     0.002 A 
ATOM     65  C   UNL A   1      39.441  34.009  36.581  1.00  0.00     0.091 A 
ATOM     66  F   UNL A   1      40.712  33.776  34.573  1.00  0.00    -0.205 F 
ATOM     67  C   UNL A   1      38.531  33.459  37.500  1.00  0.00     0.022 A 
BRANCH  65  68
ATOM     68  S   UNL A   1      40.021  35.676  36.916  1.00  0.00     0.127 S 
ATOM     69  O   UNL A   1      39.320  35.985  38.163  1.00  0.00    -0.237 OA
ATOM     70  O   UNL A   1      41.463  35.477  37.060  1.00  0.00    -0.237 OA
ATOM     71  O   UNL A   1      39.628  36.476  35.765  1.00  0.00    -0.744 OA
ENDBRANCH  65  68
ENDBRANCH  47  61
BRANCH  48  72
ATOM     72  C   UNL A   1      42.480  26.437  27.543  1.00  0.00     0.023 A 
ATOM     73  C   UNL A   1      43.297  27.045  26.569  1.00  0.00     0.012 A 
ATOM     74  C   UNL A   1      42.138  25.078  27.399  1.00  0.00     0.148 A 
ATOM     75  C   UNL A   1      43.731  26.328  25.453  1.00  0.00     0.002 A 
ATOM     76  C   UNL A   1      42.619  24.355  26.312  1.00  0.00     0.091 A 
ATOM     77  F   UNL A   1      41.349  24.519  28.328  1.00  0.00    -0.205 F 
ATOM     78  C   UNL A   1      43.398  24.982  25.329  1.00  0.00     0.022 A 
BRANCH  76  79
ATOM     79  S   UNL A   1      42.343  22.589  26.139  1.00  0.00     0.127 S 
ATOM     80  O   UNL A   1      42.986  22.309  24.858  1.00  0.00    -0.237 OA
ATOM     81  O   UNL A   1      43.044  22.056  27.309  1.00  0.00    -0.237 OA
ATOM     82  O   UNL A   1      40.898  22.415  26.178  1.00  0.00    -0.744 OA
ENDBRANCH  76  79
ENDBRANCH  48  72
BRANCH  60  83
ATOM     83  C   UNL A   1      44.903  27.413  34.012  1.00  0.00     0.023 A 
ATOM     84  C   UNL A   1      46.118  28.126  34.003  1.00  0.00     0.012 A 
ATOM     85  C   UNL A   1      44.798  26.230  34.772  1.00  0.00     0.148 A 
ATOM     86  C   UNL A   1      47.221  27.655  34.714  1.00  0.00     0.002 A 
ATOM     87  C   UNL A   1      45.886  25.794  35.518  1.00  0.00     0.091 A 
ATOM     88  F   UNL A   1      43.639  25.557  34.752  1.00  0.00    -0.205 F 
ATOM     89  C   UNL A   1      47.101  26.498  35.480  1.00  0.00     0.022 A 
BRANCH  87  90
ATOM     90  S   UNL A   1      45.796  24.370  36.609  1.00  0.00     0.127 S 
ATOM     91  O   UNL A   1      44.706  24.751  37.506  1.00  0.00    -0.237 OA
ATOM     92  O   UNL A   1      45.472  23.287  35.680  1.00  0.00    -0.237 OA
ATOM     93  O   UNL A   1      47.108  24.259  37.232  1.00  0.00    -0.744 OA
ENDBRANCH  87  90
ENDBRANCH  60  83
ENDBRANCH  34  35
ENDBRANCH  26  29
ENDBRANCH  24  25
ENDBRANCH  23  24
ENDBRANCH   1  23
TORSDOF 20
ENDMDL
MODEL 2
REMARK VINA RESULT:     -10.6      1.810      2.329
REMARK SMILES CC[C@@H]1CCCN1C(=O)N(CC(=O)NCCCCNC(=O)c1ccc(-c2c3nc(c(-c4cccc(S(=O)(=O)[O-])c4F)c4ccc([nH]4)c(-c4cccc(S(=O)(=O)[O-])c4F)c4nc(c(-c5cccc(S(=O)(=O)[O-])c5F)c5ccc2[nH]5)C=C4)C=C3)cc1)CC(F)(F)F
REMARK SMILES IDX 16 1 15 2 14 3 12 4 13 5 11 7 10 8 8 9 9 10 7 11 3 12 4 13
REMARK SMILES IDX 5 14 6 15 2 16 1 17 85 18 86 19 87 20 88 21 89 22 17 23
REMARK SMILES IDX 18 24 19 25 20 26 21 28 22 29 23 30 84 31 24 32 83 33 25 34
REMARK SMILES IDX 26 35 27 36 77 37 28 38 82 39 76 40 78 41 29 42 81 43 75 44
REMARK SMILES IDX 74 45 30 47 62 48 42 49 61 50 43 51 46 52 60 53 79 54 44 55
REMARK SMILES IDX 45 56 59 58 80 59 47 60 31 61 32 62 40 63 33 64 35 65 41 66
REMARK SMILES IDX 34 67 36 68 37 69 38 70 39 71 63 72 64 73 72 74 65 75 67 76
REMARK SMILES IDX 73 77 66 78 68 79 69 80 70 81 71 82 48 83 49 84 57 85 50 86
REMARK SMILES IDX 52 87 58 88 51 89 53 90 54 91 55 92 56 93
REMARK H PARENT 14 6 19 27 78 46 46 57
REMARK Flexibility Score: inf
ROOT
ATOM      1  C   UNL A   1      31.616  30.334  25.450  1.00  0.00     0.023 C 
ENDROOT
BRANCH   1   2
ATOM      2  C   UNL A   1      32.967  29.638  25.522  1.00  0.00     0.116 C 
BRANCH   2   3
ATOM      3  N   UNL A   1      33.582  29.507  24.224  1.00  0.00    -0.355 N 
ATOM      4  C   UNL A   1      33.659  28.445  23.383  1.00  0.00     0.239 C 
ATOM      5  O   UNL A   1      34.192  28.637  22.284  1.00  0.00    -0.273 OA
ATOM      6  H   UNL A   1      34.019  30.325  23.892  1.00  0.00     0.163 HD
BRANCH   4   7
ATOM      7  C   UNL A   1      32.927  27.118  23.636  1.00  0.00     0.221 C 
BRANCH   7   8
ATOM      8  N   UNL A   1      33.563  25.908  24.126  1.00  0.00    -0.306 N 
BRANCH   8   9
ATOM      9  C   UNL A   1      33.882  25.515  25.398  1.00  0.00     0.321 C 
ATOM     10  O   UNL A   1      33.564  26.301  26.308  1.00  0.00    -0.248 OA
BRANCH   9  11
ATOM     11  N   UNL A   1      34.434  24.304  25.764  1.00  0.00    -0.322 N 
ATOM     12  C   UNL A   1      35.756  23.597  25.832  1.00  0.00     0.086 C 
ATOM     13  C   UNL A   1      35.309  22.125  25.977  1.00  0.00     0.027 C 
ATOM     14  C   UNL A   1      34.167  22.207  26.957  1.00  0.00     0.024 C 
ATOM     15  C   UNL A   1      33.491  23.510  26.582  1.00  0.00     0.122 C 
BRANCH  12  16
ATOM     16  C   UNL A   1      36.859  23.598  24.767  1.00  0.00     0.022 C 
ATOM     17  C   UNL A   1      36.865  22.322  23.923  1.00  0.00     0.006 C 
ENDBRANCH  12  16
ENDBRANCH   9  11
ENDBRANCH   8   9
BRANCH   8  18
ATOM     18  C   UNL A   1      33.980  24.979  23.033  1.00  0.00     0.237 C 
BRANCH  18  19
ATOM     19  C   UNL A   1      32.964  23.927  22.581  1.00  0.00     0.406 C 
ATOM     20  F   UNL A   1      31.709  24.405  22.483  1.00  0.00    -0.169 F 
ATOM     21  F   UNL A   1      33.308  23.447  21.360  1.00  0.00    -0.169 F 
ATOM     22  F   UNL A   1      32.948  22.871  23.426  1.00  0.00    -0.169 F 
ENDBRANCH  18  19
ENDBRANCH   8  18
ENDBRANCH   7   8
ENDBRANCH   4   7
ENDBRANCH   2   3
ENDBRANCH   1   2
BRANCH   1  23
ATOM     23  C   UNL A   1      31.453  31.468  26.459  1.00  0.00     0.023 C 
BRANCH  23  24
ATOM     24  C   UNL A   1      32.723  31.806  27.222  1.00  0.00     0.116 C 
BRANCH  24  25
ATOM     25  N   UNL A   1      32.899  33.242  27.396  1.00  0.00    -0.352 N 
ATOM     26  C   UNL A   1      33.916  33.898  28.050  1.00  0.00     0.251 C 
ATOM     27  H   UNL A   1      32.203  33.813  26.998  1.00  0.00     0.163 HD
ATOM     28  O   UNL A   1      33.852  35.098  28.266  1.00  0.00    -0.269 OA
BRANCH  26  29
ATOM     29  C   UNL A   1      35.078  33.108  28.500  1.00  0.00     0.039 A 
ATOM     30  C   UNL A   1      36.362  33.635  28.346  1.00  0.00     0.014 A 
ATOM     31  C   UNL A   1      34.879  31.883  29.143  1.00  0.00     0.014 A 
ATOM     32  C   UNL A   1      37.449  32.951  28.891  1.00  0.00     0.010 A 
ATOM     33  C   UNL A   1      35.952  31.250  29.755  1.00  0.00     0.010 A 
ATOM     34  C   UNL A   1      37.248  31.771  29.625  1.00  0.00    -0.014 A 
BRANCH  34  35
ATOM     35  C   UNL A   1      38.380  31.052  30.261  1.00  0.00     0.031 A 
ATOM     36  C   UNL A   1      38.843  31.458  31.635  1.00  0.00     0.074 A 
ATOM     37  C   UNL A   1      39.041  30.101  29.573  1.00  0.00     0.049 A 
ATOM     38  N   UNL A   1      39.852  31.008  32.332  1.00  0.00    -0.248 NA
ATOM     39  C   UNL A   1      38.090  32.536  32.300  1.00  0.00     0.031 C 
ATOM     40  C   UNL A   1      38.736  29.676  28.205  1.00  0.00     0.029 A 
ATOM     41  N   UNL A   1      40.124  29.335  29.922  1.00  0.00    -0.354 N 
ATOM     42  C   UNL A   1      39.873  31.762  33.498  1.00  0.00     0.074 A 
ATOM     43  C   UNL A   1      38.808  32.734  33.395  1.00  0.00     0.031 C 
ATOM     44  C   UNL A   1      39.605  28.720  27.835  1.00  0.00     0.029 A 
ATOM     45  C   UNL A   1      40.544  28.483  28.926  1.00  0.00     0.049 A 
ATOM     46  H   UNL A   1      40.559  29.388  30.804  1.00  0.00     0.167 HD
ATOM     47  C   UNL A   1      40.680  31.633  34.577  1.00  0.00     0.034 A 
ATOM     48  C   UNL A   1      41.573  27.614  28.898  1.00  0.00     0.034 A 
ATOM     49  C   UNL A   1      41.706  30.634  34.695  1.00  0.00     0.049 A 
ATOM     50  C   UNL A   1      42.434  27.468  30.125  1.00  0.00     0.074 A 
ATOM     51  C   UNL A   1      42.534  30.372  35.770  1.00  0.00     0.029 A 
ATOM     52  N   UNL A   1      42.044  29.730  33.699  1.00  0.00    -0.354 N 
ATOM     53  N   UNL A   1      42.344  28.090  31.276  1.00  0.00    -0.248 NA
ATOM     54  C   UNL A   1      43.516  26.475  30.062  1.00  0.00     0.031 C 
ATOM     55  C   UNL A   1      43.383  29.316  35.421  1.00  0.00     0.029 A 
ATOM     56  C   UNL A   1      43.067  28.907  34.135  1.00  0.00     0.049 A 
ATOM     57  H   UNL A   1      41.619  29.681  32.813  1.00  0.00     0.167 HD
ATOM     58  C   UNL A   1      43.328  27.534  32.087  1.00  0.00     0.074 A 
ATOM     59  C   UNL A   1      43.987  26.512  31.301  1.00  0.00     0.031 C 
ATOM     60  C   UNL A   1      43.667  27.852  33.360  1.00  0.00     0.034 A 
BRANCH  47  61
ATOM     61  C   UNL A   1      40.433  32.551  35.747  1.00  0.00     0.023 A 
ATOM     62  C   UNL A   1      41.146  33.764  35.833  1.00  0.00     0.012 A 
ATOM     63  C   UNL A   1      39.470  32.243  36.727  1.00  0.00     0.148 A 
ATOM     64  C   UNL A   1      40.931  34.642  36.894  1.00  0.00     0.002 A 
ATOM     65  C   UNL A   1      39.230  33.144  37.759  1.00  0.00     0.091 A 
ATOM     66  F   UNL A   1      38.818  31.076  36.641  1.00  0.00    -0.205 F 
ATOM     67  C   UNL A   1      39.968  34.337  37.850  1.00  0.00     0.022 A 
BRANCH  65  68
ATOM     68  S   UNL A   1      37.956  32.885  38.998  1.00  0.00     0.127 S 
ATOM     69  O   UNL A   1      37.933  34.183  39.673  1.00  0.00    -0.237 OA
ATOM     70  O   UNL A   1      36.779  32.604  38.177  1.00  0.00    -0.237 OA
ATOM     71  O   UNL A   1      38.411  31.767  39.813  1.00  0.00    -0.744 OA
ENDBRANCH  65  68
ENDBRANCH  47  61
BRANCH  48  72
ATOM     72  C   UNL A   1      41.803  26.757  27.700  1.00  0.00     0.023 A 
ATOM     73  C   UNL A   1      42.400  27.321  26.554  1.00  0.00     0.012 A 
ATOM     74  C   UNL A   1      41.444  25.395  27.685  1.00  0.00     0.148 A 
ATOM     75  C   UNL A   1      42.596  26.556  25.403  1.00  0.00     0.002 A 
ATOM     76  C   UNL A   1      41.692  24.626  26.554  1.00  0.00     0.091 A 
ATOM     77  F   UNL A   1      40.866  24.879  28.779  1.00  0.00    -0.205 F 
ATOM     78  C   UNL A   1      42.250  25.208  25.406  1.00  0.00     0.022 A 
BRANCH  76  79
ATOM     79  S   UNL A   1      41.394  22.855  26.514  1.00  0.00     0.127 S 
ATOM     80  O   UNL A   1      41.990  22.422  27.775  1.00  0.00    -0.237 OA
ATOM     81  O   UNL A   1      39.931  22.795  26.472  1.00  0.00    -0.237 OA
ATOM     82  O   UNL A   1      42.046  22.377  25.304  1.00  0.00    -0.744 OA
ENDBRANCH  76  79
ENDBRANCH  48  72
BRANCH  60  83
ATOM     83  C   UNL A   1      44.770  27.058  34.007  1.00  0.00     0.023 A 
ATOM     84  C   UNL A   1      46.113  27.436  33.814  1.00  0.00     0.012 A 
ATOM     85  C   UNL A   1      44.469  25.982  34.867  1.00  0.00     0.148 A 
ATOM     86  C   UNL A   1      47.143  26.736  34.440  1.00  0.00     0.002 A 
ATOM     87  C   UNL A   1      45.497  25.321  35.528  1.00  0.00     0.091 A 
ATOM     88  F   UNL A   1      43.185  25.627  35.023  1.00  0.00    -0.205 F 
ATOM     89  C   UNL A   1      46.835  25.689  35.306  1.00  0.00     0.022 A 
BRANCH  87  90
ATOM     90  S   UNL A   1      45.190  24.027  36.734  1.00  0.00     0.127 S 
ATOM     91  O   UNL A   1      44.224  24.670  37.623  1.00  0.00    -0.237 OA
ATOM     92  O   UNL A   1      44.638  22.955  35.905  1.00  0.00    -0.237 OA
ATOM     93  O   UNL A   1      46.483  23.721  37.332  1.00  0.00    -0.744 OA
ENDBRANCH  87  90
ENDBRANCH  60  83
ENDBRANCH  34  35
ENDBRANCH  26  29
ENDBRANCH  24  25
ENDBRANCH  23  24
ENDBRANCH   1  23
TORSDOF 20
ENDMDL
MODEL 3
REMARK VINA RESULT:     -10.5      5.079      7.429
REMARK SMILES CC[C@@H]1CCCN1C(=O)N(CC(=O)NCCCCNC(=O)c1ccc(-c2c3nc(c(-c4cccc(S(=O)(=O)[O-])c4F)c4ccc([nH]4)c(-c4cccc(S(=O)(=O)[O-])c4F)c4nc(c(-c5cccc(S(=O)(=O)[O-])c5F)c5ccc2[nH]5)C=C4)C=C3)cc1)CC(F)(F)F
REMARK SMILES IDX 16 1 15 2 14 3 12 4 13 5 11 7 10 8 8 9 9 10 7 11 3 12 4 13
REMARK SMILES IDX 5 14 6 15 2 16 1 17 85 18 86 19 87 20 88 21 89 22 17 23
REMARK SMILES IDX 18 24 19 25 20 26 21 28 22 29 23 30 84 31 24 32 83 33 25 34
REMARK SMILES IDX 26 35 27 36 77 37 28 38 82 39 76 40 78 41 29 42 81 43 75 44
REMARK SMILES IDX 74 45 30 47 62 48 42 49 61 50 43 51 46 52 60 53 79 54 44 55
REMARK SMILES IDX 45 56 59 58 80 59 47 60 31 61 32 62 40 63 33 64 35 65 41 66
REMARK SMILES IDX 34 67 36 68 37 69 38 70 39 71 63 72 64 73 72 74 65 75 67 76
REMARK SMILES IDX 73 77 66 78 68 79 69 80 70 81 71 82 48 83 49 84 57 85 50 86
REMARK SMILES IDX 52 87 58 88 51 89 53 90 54 91 55 92 56 93
REMARK H PARENT 14 6 19 27 78 46 46 57
REMARK Flexibility Score: inf
ROOT
ATOM      1  C   UNL A   1      33.994  23.265  24.453  1.00  0.00     0.023 C 
ENDROOT
BRANCH   1   2
ATOM      2  C   UNL A   1      32.988  23.160  23.317  1.00  0.00     0.116 C 
BRANCH   2   3
ATOM      3  N   UNL A   1      33.298  24.055  22.229  1.00  0.00    -0.355 N 
ATOM      4  C   UNL A   1      32.781  25.268  21.905  1.00  0.00     0.239 C 
ATOM      5  O   UNL A   1      33.293  25.857  20.945  1.00  0.00    -0.273 OA
ATOM      6  H   UNL A   1      34.002  23.734  21.621  1.00  0.00     0.163 HD
BRANCH   4   7
ATOM      7  C   UNL A   1      31.779  26.018  22.794  1.00  0.00     0.221 C 
BRANCH   7   8
ATOM      8  N   UNL A   1      31.761  27.458  22.980  1.00  0.00    -0.306 N 
BRANCH   8   9
ATOM      9  C   UNL A   1      32.485  28.263  23.819  1.00  0.00     0.321 C 
ATOM     10  O   UNL A   1      33.241  29.083  23.269  1.00  0.00    -0.248 OA
BRANCH   9  11
ATOM     11  N   UNL A   1      32.386  28.308  25.195  1.00  0.00    -0.322 N 
ATOM     12  C   UNL A   1      32.441  27.414  26.399  1.00  0.00     0.086 C 
ATOM     13  C   UNL A   1      31.795  28.313  27.477  1.00  0.00     0.027 C 
ATOM     14  C   UNL A   1      32.401  29.666  27.207  1.00  0.00     0.024 C 
ATOM     15  C   UNL A   1      32.504  29.695  25.695  1.00  0.00     0.122 C 
BRANCH  12  16
ATOM     16  C   UNL A   1      31.789  26.036  26.556  1.00  0.00     0.022 C 
ATOM     17  C   UNL A   1      30.333  26.015  26.087  1.00  0.00     0.006 C 
ENDBRANCH  12  16
ENDBRANCH   9  11
ENDBRANCH   8   9
BRANCH   8  18
ATOM     18  C   UNL A   1      30.733  28.147  22.144  1.00  0.00     0.237 C 
BRANCH  18  19
ATOM     19  C   UNL A   1      29.460  28.624  22.849  1.00  0.00     0.406 C 
ATOM     20  F   UNL A   1      28.545  29.142  22.006  1.00  0.00    -0.169 F 
ATOM     21  F   UNL A   1      28.871  27.585  23.492  1.00  0.00    -0.169 F 
ATOM     22  F   UNL A   1      29.743  29.555  23.787  1.00  0.00    -0.169 F 
ENDBRANCH  18  19
ENDBRANCH   8  18
ENDBRANCH   7   8
ENDBRANCH   4   7
ENDBRANCH   2   3
ENDBRANCH   1   2
BRANCH   1  23
ATOM     23  C   UNL A   1      34.804  21.992  24.679  1.00  0.00     0.023 C 
BRANCH  23  24
ATOM     24  C   UNL A   1      36.091  22.206  25.461  1.00  0.00     0.116 C 
BRANCH  24  25
ATOM     25  N   UNL A   1      36.976  21.050  25.397  1.00  0.00    -0.352 N 
ATOM     26  C   UNL A   1      38.328  21.005  25.645  1.00  0.00     0.251 C 
ATOM     27  H   UNL A   1      36.555  20.198  25.145  1.00  0.00     0.163 HD
ATOM     28  O   UNL A   1      38.980  20.004  25.392  1.00  0.00    -0.269 OA
BRANCH  26  29
ATOM     29  C   UNL A   1      38.974  22.207  26.208  1.00  0.00     0.039 A 
ATOM     30  C   UNL A   1      40.035  22.055  27.102  1.00  0.00     0.014 A 
ATOM     31  C   UNL A   1      38.571  23.476  25.782  1.00  0.00     0.014 A 
ATOM     32  C   UNL A   1      40.732  23.185  27.530  1.00  0.00     0.010 A 
ATOM     33  C   UNL A   1      39.320  24.588  26.144  1.00  0.00     0.010 A 
ATOM     34  C   UNL A   1      40.399  24.455  27.030  1.00  0.00    -0.014 A 
BRANCH  34  35
ATOM     35  C   UNL A   1      41.159  25.667  27.427  1.00  0.00     0.031 A 
ATOM     36  C   UNL A   1      40.482  26.736  28.243  1.00  0.00     0.074 A 
ATOM     37  C   UNL A   1      42.419  25.842  26.985  1.00  0.00     0.049 A 
ATOM     38  N   UNL A   1      40.945  27.894  28.631  1.00  0.00    -0.248 NA
ATOM     39  C   UNL A   1      39.089  26.482  28.650  1.00  0.00     0.031 C 
ATOM     40  C   UNL A   1      43.154  24.914  26.122  1.00  0.00     0.029 A 
ATOM     41  N   UNL A   1      43.299  26.877  27.180  1.00  0.00    -0.354 N 
ATOM     42  C   UNL A   1      39.898  28.517  29.299  1.00  0.00     0.074 A 
ATOM     43  C   UNL A   1      38.758  27.631  29.220  1.00  0.00     0.031 C 
ATOM     44  C   UNL A   1      44.374  25.416  25.872  1.00  0.00     0.029 A 
ATOM     45  C   UNL A   1      44.500  26.712  26.530  1.00  0.00     0.049 A 
ATOM     46  H   UNL A   1      43.091  27.663  27.735  1.00  0.00     0.167 HD
ATOM     47  C   UNL A   1      39.894  29.702  29.953  1.00  0.00     0.034 A 
ATOM     48  C   UNL A   1      45.578  27.518  26.471  1.00  0.00     0.034 A 
ATOM     49  C   UNL A   1      41.043  30.557  30.068  1.00  0.00     0.049 A 
ATOM     50  C   UNL A   1      45.557  28.815  27.235  1.00  0.00     0.074 A 
ATOM     51  C   UNL A   1      41.166  31.744  30.765  1.00  0.00     0.029 A 
ATOM     52  N   UNL A   1      42.270  30.313  29.469  1.00  0.00    -0.354 N 
ATOM     53  N   UNL A   1      44.605  29.318  27.984  1.00  0.00    -0.248 NA
ATOM     54  C   UNL A   1      46.773  29.640  27.177  1.00  0.00     0.031 C 
ATOM     55  C   UNL A   1      42.466  32.226  30.578  1.00  0.00     0.029 A 
ATOM     56  C   UNL A   1      43.158  31.327  29.782  1.00  0.00     0.049 A 
ATOM     57  H   UNL A   1      42.479  29.534  28.906  1.00  0.00     0.167 HD
ATOM     58  C   UNL A   1      45.122  30.493  28.518  1.00  0.00     0.074 A 
ATOM     59  C   UNL A   1      46.477  30.616  28.024  1.00  0.00     0.031 C 
ATOM     60  C   UNL A   1      44.524  31.398  29.331  1.00  0.00     0.034 A 
BRANCH  47  61
ATOM     61  C   UNL A   1      38.624  30.105  30.657  1.00  0.00     0.023 A 
ATOM     62  C   UNL A   1      38.372  29.618  31.956  1.00  0.00     0.012 A 
ATOM     63  C   UNL A   1      37.710  30.997  30.064  1.00  0.00     0.148 A 
ATOM     64  C   UNL A   1      37.214  29.983  32.641  1.00  0.00     0.002 A 
ATOM     65  C   UNL A   1      36.579  31.392  30.771  1.00  0.00     0.091 A 
ATOM     66  F   UNL A   1      37.956  31.433  28.821  1.00  0.00    -0.205 F 
ATOM     67  C   UNL A   1      36.324  30.876  32.053  1.00  0.00     0.022 A 
BRANCH  65  68
ATOM     68  S   UNL A   1      35.409  32.598  30.137  1.00  0.00     0.127 S 
ATOM     69  O   UNL A   1      35.066  32.021  28.837  1.00  0.00    -0.237 OA
ATOM     70  O   UNL A   1      34.338  32.540  31.132  1.00  0.00    -0.237 OA
ATOM     71  O   UNL A   1      36.126  33.864  30.087  1.00  0.00    -0.744 OA
ENDBRANCH  65  68
ENDBRANCH  47  61
BRANCH  48  72
ATOM     72  C   UNL A   1      46.797  27.094  25.724  1.00  0.00     0.023 A 
ATOM     73  C   UNL A   1      47.710  26.215  26.340  1.00  0.00     0.012 A 
ATOM     74  C   UNL A   1      47.056  27.544  24.415  1.00  0.00     0.148 A 
ATOM     75  C   UNL A   1      48.879  25.827  25.683  1.00  0.00     0.002 A 
ATOM     76  C   UNL A   1      48.195  27.110  23.746  1.00  0.00     0.091 A 
ATOM     77  F   UNL A   1      46.182  28.390  23.849  1.00  0.00    -0.205 F 
ATOM     78  C   UNL A   1      49.117  26.267  24.385  1.00  0.00     0.022 A 
BRANCH  76  79
ATOM     79  S   UNL A   1      48.516  27.528  22.029  1.00  0.00     0.127 S 
ATOM     80  O   UNL A   1      47.276  28.198  21.647  1.00  0.00    -0.237 OA
ATOM     81  O   UNL A   1      49.682  28.407  22.143  1.00  0.00    -0.237 OA
ATOM     82  O   UNL A   1      48.787  26.262  21.364  1.00  0.00    -0.744 OA
ENDBRANCH  76  79
ENDBRANCH  48  72
BRANCH  60  83
ATOM     83  C   UNL A   1      45.341  32.580  29.780  1.00  0.00     0.023 A 
ATOM     84  C   UNL A   1      46.124  32.490  30.948  1.00  0.00     0.012 A 
ATOM     85  C   UNL A   1      45.388  33.755  29.003  1.00  0.00     0.148 A 
ATOM     86  C   UNL A   1      46.918  33.561  31.353  1.00  0.00     0.002 A 
ATOM     87  C   UNL A   1      46.220  34.800  29.385  1.00  0.00     0.091 A 
ATOM     88  F   UNL A   1      44.621  33.827  27.905  1.00  0.00    -0.205 F 
ATOM     89  C   UNL A   1      46.975  34.710  30.566  1.00  0.00     0.022 A 
BRANCH  87  90
ATOM     90  S   UNL A   1      46.433  36.276  28.385  1.00  0.00     0.127 S 
ATOM     91  O   UNL A   1      47.813  36.647  28.691  1.00  0.00    -0.237 OA
ATOM     92  O   UNL A   1      46.224  35.765  27.030  1.00  0.00    -0.237 OA
ATOM     93  O   UNL A   1      45.417  37.218  28.837  1.00  0.00    -0.744 OA
ENDBRANCH  87  90
ENDBRANCH  60  83
ENDBRANCH  34  35
ENDBRANCH  26  29
ENDBRANCH  24  25
ENDBRANCH  23  24
ENDBRANCH   1  23
TORSDOF 20
ENDMDL
