MODEL 1
REMARK VINA RESULT:      -9.8      0.000      0.000
REMARK SMILES C=CC[C@H](CNC(=O)OC(C)(C)C)C(=O)NCCCCNC(=O)c1ccc(-c2c3nc(c(-c4cccc(S(=O)(=O)[O-])c4F)c4ccc([nH]4)c(-c4cccc(S(=O)(=O)[O-])c4F)c4nc(c(-c5cccc(S(=O)(=O)[O-])c5F)c5ccc2[nH]5)C=C4)C=C3)cc1
REMARK SMILES IDX 18 1 17 2 16 3 14 4 15 5 4 7 3 8 2 9 1 10 5 11 6 12 7 13
REMARK SMILES IDX 8 15 9 16 10 17 11 18 12 19 13 20 19 21 20 22 21 23 22 24
REMARK SMILES IDX 23 26 24 27 25 28 86 29 26 30 85 31 27 32 28 33 29 34 79 35
REMARK SMILES IDX 30 36 84 37 78 38 80 39 31 40 83 41 77 42 76 43 32 45 64 46
REMARK SMILES IDX 44 47 63 48 45 49 48 50 62 51 81 52 46 53 47 54 61 56 82 57
REMARK SMILES IDX 49 58 33 59 34 60 42 61 35 62 37 63 43 64 36 65 38 66 39 67
REMARK SMILES IDX 40 68 41 69 65 70 66 71 74 72 67 73 69 74 75 75 68 76 70 77
REMARK SMILES IDX 71 78 72 79 73 80 50 81 51 82 59 83 52 84 54 85 60 86 53 87
REMARK SMILES IDX 55 88 56 89 57 90 58 91
REMARK H PARENT 16 6 6 14 21 25 80 44 48 55
REMARK Flexibility Score: inf
ROOT
ATOM      1  C   UNL A   1      38.023  21.846  25.690  1.00  0.00     0.023 C 
ENDROOT
BRANCH   1   2
ATOM      2  C   UNL A   1      36.569  21.577  25.314  1.00  0.00     0.116 C 
BRANCH   2   3
ATOM      3  N   UNL A   1      35.692  21.687  26.465  1.00  0.00    -0.356 N 
ATOM      4  C   UNL A   1      34.336  21.730  26.558  1.00  0.00     0.225 C 
ATOM      5  O   UNL A   1      33.841  21.809  27.684  1.00  0.00    -0.275 OA
ATOM      6  H   UNL A   1      36.160  21.739  27.330  1.00  0.00     0.163 HD
BRANCH   4   7
ATOM      7  C   UNL A   1      33.437  21.671  25.331  1.00  0.00     0.101 C 
BRANCH   7   8
ATOM      8  C   UNL A   1      32.701  23.008  25.111  1.00  0.00     0.042 C 
BRANCH   8   9
ATOM      9  C   UNL A   1      33.179  23.709  23.868  1.00  0.00    -0.034 C 
ATOM     10  C   UNL A   1      34.124  23.231  23.049  1.00  0.00     0.004 C 
ENDBRANCH   8   9
ENDBRANCH   7   8
BRANCH   7  11
ATOM     11  C   UNL A   1      32.526  20.435  25.367  1.00  0.00     0.133 C 
BRANCH  11  12
ATOM     12  N   UNL A   1      32.229  19.972  24.019  1.00  0.00    -0.321 N 
ATOM     13  C   UNL A   1      32.454  18.743  23.484  1.00  0.00     0.407 C 
ATOM     14  H   UNL A   1      31.813  20.631  23.418  1.00  0.00     0.167 HD
ATOM     15  O   UNL A   1      32.283  18.555  22.283  1.00  0.00    -0.225 OA
BRANCH  13  16
ATOM     16  O   UNL A   1      32.847  17.820  24.387  1.00  0.00    -0.444 OA
BRANCH  16  17
ATOM     17  C   UNL A   1      34.144  17.180  24.261  1.00  0.00     0.106 C 
ATOM     18  C   UNL A   1      34.353  16.525  22.888  1.00  0.00     0.056 C 
ATOM     19  C   UNL A   1      35.253  18.185  24.587  1.00  0.00     0.056 C 
ATOM     20  C   UNL A   1      34.150  16.068  25.323  1.00  0.00     0.056 C 
ENDBRANCH  16  17
ENDBRANCH  13  16
ENDBRANCH  11  12
ENDBRANCH   7  11
ENDBRANCH   4   7
ENDBRANCH   2   3
ENDBRANCH   1   2
BRANCH   1  21
ATOM     21  C   UNL A   1      38.990  20.712  25.345  1.00  0.00     0.023 C 
BRANCH  21  22
ATOM     22  C   UNL A   1      39.817  20.180  26.513  1.00  0.00     0.116 C 
BRANCH  22  23
ATOM     23  N   UNL A   1      40.836  19.226  26.102  1.00  0.00    -0.352 N 
ATOM     24  C   UNL A   1      42.174  19.444  25.875  1.00  0.00     0.251 C 
ATOM     25  H   UNL A   1      40.525  18.301  25.968  1.00  0.00     0.163 HD
ATOM     26  O   UNL A   1      42.874  18.549  25.410  1.00  0.00    -0.269 OA
BRANCH  24  27
ATOM     27  C   UNL A   1      42.753  20.771  26.166  1.00  0.00     0.039 A 
ATOM     28  C   UNL A   1      43.059  21.624  25.103  1.00  0.00     0.014 A 
ATOM     29  C   UNL A   1      42.957  21.184  27.486  1.00  0.00     0.014 A 
ATOM     30  C   UNL A   1      43.507  22.920  25.365  1.00  0.00     0.010 A 
ATOM     31  C   UNL A   1      43.339  22.497  27.745  1.00  0.00     0.010 A 
ATOM     32  C   UNL A   1      43.618  23.378  26.689  1.00  0.00    -0.014 A 
BRANCH  32  33
ATOM     33  C   UNL A   1      44.003  24.780  26.992  1.00  0.00     0.031 A 
ATOM     34  C   UNL A   1      45.435  25.218  26.860  1.00  0.00     0.074 A 
ATOM     35  C   UNL A   1      43.078  25.631  27.481  1.00  0.00     0.049 A 
ATOM     36  N   UNL A   1      45.971  26.376  27.144  1.00  0.00    -0.248 NA
ATOM     37  C   UNL A   1      46.396  24.214  26.374  1.00  0.00     0.031 C 
ATOM     38  C   UNL A   1      41.675  25.300  27.740  1.00  0.00     0.029 A 
ATOM     39  N   UNL A   1      43.188  26.941  27.879  1.00  0.00    -0.354 N 
ATOM     40  C   UNL A   1      47.332  26.233  26.904  1.00  0.00     0.074 A 
ATOM     41  C   UNL A   1      47.546  24.864  26.487  1.00  0.00     0.031 C 
ATOM     42  C   UNL A   1      41.057  26.376  28.254  1.00  0.00     0.029 A 
ATOM     43  C   UNL A   1      42.021  27.464  28.385  1.00  0.00     0.049 A 
ATOM     44  H   UNL A   1      44.024  27.457  27.809  1.00  0.00     0.167 HD
ATOM     45  C   UNL A   1      48.313  27.163  26.991  1.00  0.00     0.034 A 
ATOM     46  C   UNL A   1      41.758  28.681  28.900  1.00  0.00     0.034 A 
ATOM     47  C   UNL A   1      48.090  28.535  27.359  1.00  0.00     0.049 A 
ATOM     48  C   UNL A   1      42.851  29.714  28.933  1.00  0.00     0.074 A 
ATOM     49  C   UNL A   1      49.001  29.577  27.390  1.00  0.00     0.029 A 
ATOM     50  N   UNL A   1      46.872  29.058  27.763  1.00  0.00    -0.354 N 
ATOM     51  N   UNL A   1      44.098  29.606  28.543  1.00  0.00    -0.248 NA
ATOM     52  C   UNL A   1      42.494  31.048  29.436  1.00  0.00     0.031 C 
ATOM     53  C   UNL A   1      48.335  30.727  27.824  1.00  0.00     0.029 A 
ATOM     54  C   UNL A   1      47.005  30.406  28.047  1.00  0.00     0.049 A 
ATOM     55  H   UNL A   1      46.034  28.545  27.837  1.00  0.00     0.167 HD
ATOM     56  C   UNL A   1      44.665  30.862  28.724  1.00  0.00     0.074 A 
ATOM     57  C   UNL A   1      43.617  31.722  29.236  1.00  0.00     0.031 C 
ATOM     58  C   UNL A   1      45.941  31.264  28.502  1.00  0.00     0.034 A 
BRANCH  45  59
ATOM     59  C   UNL A   1      49.709  26.741  26.614  1.00  0.00     0.023 A 
ATOM     60  C   UNL A   1      50.452  25.939  27.504  1.00  0.00     0.012 A 
ATOM     61  C   UNL A   1      50.266  27.090  25.369  1.00  0.00     0.148 A 
ATOM     62  C   UNL A   1      51.741  25.521  27.179  1.00  0.00     0.002 A 
ATOM     63  C   UNL A   1      51.537  26.633  25.033  1.00  0.00     0.091 A 
ATOM     64  F   UNL A   1      49.556  27.872  24.544  1.00  0.00    -0.205 F 
ATOM     65  C   UNL A   1      52.278  25.859  25.941  1.00  0.00     0.022 A 
BRANCH  63  66
ATOM     66  S   UNL A   1      52.287  26.951  23.432  1.00  0.00     0.127 S 
ATOM     67  O   UNL A   1      51.161  26.722  22.528  1.00  0.00    -0.237 OA
ATOM     68  O   UNL A   1      52.696  28.351  23.555  1.00  0.00    -0.237 OA
ATOM     69  O   UNL A   1      53.389  26.007  23.312  1.00  0.00    -0.744 OA
ENDBRANCH  63  66
ENDBRANCH  45  59
BRANCH  46  70
ATOM     70  C   UNL A   1      40.377  29.009  29.356  1.00  0.00     0.023 A 
ATOM     71  C   UNL A   1      39.421  29.431  28.412  1.00  0.00     0.012 A 
ATOM     72  C   UNL A   1      39.995  28.870  30.704  1.00  0.00     0.148 A 
ATOM     73  C   UNL A   1      38.118  29.736  28.806  1.00  0.00     0.002 A 
ATOM     74  C   UNL A   1      38.681  29.124  31.081  1.00  0.00     0.091 A 
ATOM     75  F   UNL A   1      40.923  28.481  31.590  1.00  0.00    -0.205 F 
ATOM     76  C   UNL A   1      37.745  29.573  30.137  1.00  0.00     0.022 A 
BRANCH  74  77
ATOM     77  S   UNL A   1      38.082  28.810  32.746  1.00  0.00     0.127 S 
ATOM     78  O   UNL A   1      38.141  27.353  32.815  1.00  0.00    -0.237 OA
ATOM     79  O   UNL A   1      39.076  29.508  33.562  1.00  0.00    -0.237 OA
ATOM     80  O   UNL A   1      36.749  29.397  32.797  1.00  0.00    -0.744 OA
ENDBRANCH  74  77
ENDBRANCH  46  70
BRANCH  58  81
ATOM     81  C   UNL A   1      46.279  32.703  28.782  1.00  0.00     0.023 A 
ATOM     82  C   UNL A   1      46.732  33.079  30.063  1.00  0.00     0.012 A 
ATOM     83  C   UNL A   1      46.227  33.669  27.757  1.00  0.00     0.148 A 
ATOM     84  C   UNL A   1      47.099  34.397  30.326  1.00  0.00     0.002 A 
ATOM     85  C   UNL A   1      46.638  34.971  28.015  1.00  0.00     0.091 A 
ATOM     86  F   UNL A   1      45.774  33.296  26.550  1.00  0.00    -0.205 F 
ATOM     87  C   UNL A   1      47.064  35.340  29.301  1.00  0.00     0.022 A 
BRANCH  85  88
ATOM     88  S   UNL A   1      46.714  36.226  26.731  1.00  0.00     0.127 S 
ATOM     89  O   UNL A   1      47.559  35.577  25.730  1.00  0.00    -0.237 OA
ATOM     90  O   UNL A   1      45.308  36.362  26.345  1.00  0.00    -0.237 OA
ATOM     91  O   UNL A   1      47.282  37.409  27.361  1.00  0.00    -0.744 OA
ENDBRANCH  85  88
ENDBRANCH  58  81
ENDBRANCH  32  33
ENDBRANCH  24  27
ENDBRANCH  22  23
ENDBRANCH  21  22
ENDBRANCH   1  21
TORSDOF 20
ENDMDL
MODEL 2
REMARK VINA RESULT:      -9.4      6.727     13.200
REMARK SMILES C=CC[C@H](CNC(=O)OC(C)(C)C)C(=O)NCCCCNC(=O)c1ccc(-c2c3nc(c(-c4cccc(S(=O)(=O)[O-])c4F)c4ccc([nH]4)c(-c4cccc(S(=O)(=O)[O-])c4F)c4nc(c(-c5cccc(S(=O)(=O)[O-])c5F)c5ccc2[nH]5)C=C4)C=C3)cc1
REMARK SMILES IDX 18 1 17 2 16 3 14 4 15 5 4 7 3 8 2 9 1 10 5 11 6 12 7 13
REMARK SMILES IDX 8 15 9 16 10 17 11 18 12 19 13 20 19 21 20 22 21 23 22 24
REMARK SMILES IDX 23 26 24 27 25 28 86 29 26 30 85 31 27 32 28 33 29 34 79 35
REMARK SMILES IDX 30 36 84 37 78 38 80 39 31 40 83 41 77 42 76 43 32 45 64 46
REMARK SMILES IDX 44 47 63 48 45 49 48 50 62 51 81 52 46 53 47 54 61 56 82 57
REMARK SMILES IDX 49 58 33 59 34 60 42 61 35 62 37 63 43 64 36 65 38 66 39 67
REMARK SMILES IDX 40 68 41 69 65 70 66 71 74 72 67 73 69 74 75 75 68 76 70 77
REMARK SMILES IDX 71 78 72 79 73 80 50 81 51 82 59 83 52 84 54 85 60 86 53 87
REMARK SMILES IDX 55 88 56 89 57 90 58 91
REMARK H PARENT 16 6 6 14 21 25 80 44 48 55
REMARK Flexibility Score: inf
ROOT
ATOM      1  C   UNL A   1      36.583  32.831  32.603  1.00  0.00     0.023 C 
ENDROOT
BRANCH   1   2
ATOM      2  C   UNL A   1      36.481  32.915  34.122  1.00  0.00     0.116 C 
BRANCH   2   3
ATOM      3  N   UNL A   1      37.300  31.907  34.769  1.00  0.00    -0.356 N 
ATOM      4  C   UNL A   1      37.874  31.873  36.001  1.00  0.00     0.225 C 
ATOM      5  O   UNL A   1      38.516  30.866  36.306  1.00  0.00    -0.275 OA
ATOM      6  H   UNL A   1      37.470  31.107  34.220  1.00  0.00     0.163 HD
BRANCH   4   7
ATOM      7  C   UNL A   1      37.734  33.019  36.993  1.00  0.00     0.101 C 
BRANCH   7   8
ATOM      8  C   UNL A   1      39.084  33.728  37.225  1.00  0.00     0.042 C 
BRANCH   8   9
ATOM      9  C   UNL A   1      39.344  34.786  36.186  1.00  0.00    -0.034 C 
ATOM     10  C   UNL A   1      40.111  34.607  35.104  1.00  0.00     0.004 C 
ENDBRANCH   8   9
ENDBRANCH   7   8
BRANCH   7  11
ATOM     11  C   UNL A   1      37.021  32.564  38.274  1.00  0.00     0.133 C 
BRANCH  11  12
ATOM     12  N   UNL A   1      37.963  31.959  39.204  1.00  0.00    -0.321 N 
ATOM     13  C   UNL A   1      37.749  31.590  40.495  1.00  0.00     0.407 C 
ATOM     14  H   UNL A   1      38.869  31.797  38.856  1.00  0.00     0.167 HD
ATOM     15  O   UNL A   1      38.692  31.230  41.194  1.00  0.00    -0.225 OA
BRANCH  13  16
ATOM     16  O   UNL A   1      36.455  31.652  40.873  1.00  0.00    -0.444 OA
BRANCH  16  17
ATOM     17  C   UNL A   1      36.018  32.660  41.821  1.00  0.00     0.106 C 
ATOM     18  C   UNL A   1      34.682  33.306  41.427  1.00  0.00     0.056 C 
ATOM     19  C   UNL A   1      35.966  32.060  43.230  1.00  0.00     0.056 C 
ATOM     20  C   UNL A   1      37.101  33.749  41.781  1.00  0.00     0.056 C 
ENDBRANCH  16  17
ENDBRANCH  13  16
ENDBRANCH  11  12
ENDBRANCH   7  11
ENDBRANCH   4   7
ENDBRANCH   2   3
ENDBRANCH   1   2
BRANCH   1  21
ATOM     21  C   UNL A   1      35.253  32.996  31.865  1.00  0.00     0.023 C 
BRANCH  21  22
ATOM     22  C   UNL A   1      35.359  33.536  30.441  1.00  0.00     0.116 C 
BRANCH  22  23
ATOM     23  N   UNL A   1      34.512  32.820  29.497  1.00  0.00    -0.352 N 
ATOM     24  C   UNL A   1      34.775  31.651  28.823  1.00  0.00     0.251 C 
ATOM     25  H   UNL A   1      33.634  33.229  29.317  1.00  0.00     0.163 HD
ATOM     26  O   UNL A   1      33.997  31.247  27.964  1.00  0.00    -0.269 OA
BRANCH  24  27
ATOM     27  C   UNL A   1      36.015  30.906  29.119  1.00  0.00     0.039 A 
ATOM     28  C   UNL A   1      37.223  31.361  28.585  1.00  0.00     0.014 A 
ATOM     29  C   UNL A   1      35.988  29.784  29.952  1.00  0.00     0.014 A 
ATOM     30  C   UNL A   1      38.416  30.730  28.941  1.00  0.00     0.010 A 
ATOM     31  C   UNL A   1      37.184  29.199  30.358  1.00  0.00     0.010 A 
ATOM     32  C   UNL A   1      38.409  29.665  29.858  1.00  0.00    -0.014 A 
BRANCH  32  33
ATOM     33  C   UNL A   1      39.672  29.038  30.323  1.00  0.00     0.031 A 
ATOM     34  C   UNL A   1      40.385  29.575  31.533  1.00  0.00     0.074 A 
ATOM     35  C   UNL A   1      40.227  28.046  29.597  1.00  0.00     0.049 A 
ATOM     36  N   UNL A   1      41.528  29.205  32.047  1.00  0.00    -0.248 NA
ATOM     37  C   UNL A   1      39.744  30.697  32.239  1.00  0.00     0.031 C 
ATOM     38  C   UNL A   1      39.679  27.497  28.355  1.00  0.00     0.029 A 
ATOM     39  N   UNL A   1      41.394  27.346  29.782  1.00  0.00    -0.354 N 
ATOM     40  C   UNL A   1      41.761  30.065  33.113  1.00  0.00     0.074 A 
ATOM     41  C   UNL A   1      40.658  31.001  33.150  1.00  0.00     0.031 C 
ATOM     42  C   UNL A   1      40.508  26.549  27.890  1.00  0.00     0.029 A 
ATOM     43  C   UNL A   1      41.658  26.438  28.783  1.00  0.00     0.049 A 
ATOM     44  H   UNL A   1      41.987  27.482  30.557  1.00  0.00     0.167 HD
ATOM     45  C   UNL A   1      42.782  30.059  34.003  1.00  0.00     0.034 A 
ATOM     46  C   UNL A   1      42.707  25.613  28.604  1.00  0.00     0.034 A 
ATOM     47  C   UNL A   1      43.852  29.097  33.993  1.00  0.00     0.049 A 
ATOM     48  C   UNL A   1      43.800  25.585  29.637  1.00  0.00     0.074 A 
ATOM     49  C   UNL A   1      44.885  28.950  34.902  1.00  0.00     0.029 A 
ATOM     50  N   UNL A   1      44.029  28.121  33.026  1.00  0.00    -0.354 N 
ATOM     51  N   UNL A   1      43.917  26.296  30.733  1.00  0.00    -0.248 NA
ATOM     52  C   UNL A   1      44.887  24.616  29.433  1.00  0.00     0.031 C 
ATOM     53  C   UNL A   1      45.693  27.891  34.477  1.00  0.00     0.029 A 
ATOM     54  C   UNL A   1      45.154  27.368  33.312  1.00  0.00     0.049 A 
ATOM     55  H   UNL A   1      43.441  27.984  32.248  1.00  0.00     0.167 HD
ATOM     56  C   UNL A   1      45.068  25.839  31.364  1.00  0.00     0.074 A 
ATOM     57  C   UNL A   1      45.600  24.773  30.539  1.00  0.00     0.031 C 
ATOM     58  C   UNL A   1      45.642  26.273  32.513  1.00  0.00     0.034 A 
BRANCH  45  59
ATOM     59  C   UNL A   1      42.753  31.084  35.106  1.00  0.00     0.023 A 
ATOM     60  C   UNL A   1      42.117  30.769  36.324  1.00  0.00     0.012 A 
ATOM     61  C   UNL A   1      43.391  32.331  34.961  1.00  0.00     0.148 A 
ATOM     62  C   UNL A   1      42.084  31.691  37.369  1.00  0.00     0.002 A 
ATOM     63  C   UNL A   1      43.392  33.229  36.024  1.00  0.00     0.091 A 
ATOM     64  F   UNL A   1      43.971  32.623  33.789  1.00  0.00    -0.205 F 
ATOM     65  C   UNL A   1      42.730  32.915  37.223  1.00  0.00     0.022 A 
BRANCH  63  66
ATOM     66  S   UNL A   1      44.259  34.801  35.961  1.00  0.00     0.127 S 
ATOM     67  O   UNL A   1      43.673  35.414  34.771  1.00  0.00    -0.237 OA
ATOM     68  O   UNL A   1      43.863  35.423  37.226  1.00  0.00    -0.237 OA
ATOM     69  O   UNL A   1      45.674  34.473  35.866  1.00  0.00    -0.744 OA
ENDBRANCH  63  66
ENDBRANCH  45  59
BRANCH  46  70
ATOM     70  C   UNL A   1      42.733  24.690  27.434  1.00  0.00     0.023 A 
ATOM     71  C   UNL A   1      43.359  25.105  26.242  1.00  0.00     0.012 A 
ATOM     72  C   UNL A   1      42.181  23.397  27.504  1.00  0.00     0.148 A 
ATOM     73  C   UNL A   1      43.409  24.260  25.133  1.00  0.00     0.002 A 
ATOM     74  C   UNL A   1      42.282  22.541  26.414  1.00  0.00     0.091 A 
ATOM     75  F   UNL A   1      41.578  23.025  28.642  1.00  0.00    -0.205 F 
ATOM     76  C   UNL A   1      42.881  22.976  25.221  1.00  0.00     0.022 A 
BRANCH  74  77
ATOM     77  S   UNL A   1      41.749  20.826  26.486  1.00  0.00     0.127 S 
ATOM     78  O   UNL A   1      40.310  20.950  26.280  1.00  0.00    -0.237 OA
ATOM     79  O   UNL A   1      42.484  20.233  25.368  1.00  0.00    -0.237 OA
ATOM     80  O   UNL A   1      42.166  20.344  27.796  1.00  0.00    -0.744 OA
ENDBRANCH  74  77
ENDBRANCH  46  70
BRANCH  58  81
ATOM     81  C   UNL A   1      46.898  25.582  32.972  1.00  0.00     0.023 A 
ATOM     82  C   UNL A   1      48.153  26.053  32.538  1.00  0.00     0.012 A 
ATOM     83  C   UNL A   1      46.840  24.519  33.895  1.00  0.00     0.148 A 
ATOM     84  C   UNL A   1      49.329  25.459  32.992  1.00  0.00     0.002 A 
ATOM     85  C   UNL A   1      48.018  23.961  34.379  1.00  0.00     0.091 A 
ATOM     86  F   UNL A   1      45.635  24.072  34.281  1.00  0.00    -0.205 F 
ATOM     87  C   UNL A   1      49.262  24.422  33.921  1.00  0.00     0.022 A 
BRANCH  85  88
ATOM     88  S   UNL A   1      48.026  22.687  35.646  1.00  0.00     0.127 S 
ATOM     89  O   UNL A   1      47.282  23.335  36.725  1.00  0.00    -0.237 OA
ATOM     90  O   UNL A   1      47.314  21.590  34.989  1.00  0.00    -0.237 OA
ATOM     91  O   UNL A   1      49.428  22.412  35.926  1.00  0.00    -0.744 OA
ENDBRANCH  85  88
ENDBRANCH  58  81
ENDBRANCH  32  33
ENDBRANCH  24  27
ENDBRANCH  22  23
ENDBRANCH  21  22
ENDBRANCH   1  21
TORSDOF 20
ENDMDL
MODEL 3
REMARK VINA RESULT:      -9.0      2.297      3.463
REMARK SMILES C=CC[C@H](CNC(=O)OC(C)(C)C)C(=O)NCCCCNC(=O)c1ccc(-c2c3nc(c(-c4cccc(S(=O)(=O)[O-])c4F)c4ccc([nH]4)c(-c4cccc(S(=O)(=O)[O-])c4F)c4nc(c(-c5cccc(S(=O)(=O)[O-])c5F)c5ccc2[nH]5)C=C4)C=C3)cc1
REMARK SMILES IDX 18 1 17 2 16 3 14 4 15 5 4 7 3 8 2 9 1 10 5 11 6 12 7 13
REMARK SMILES IDX 8 15 9 16 10 17 11 18 12 19 13 20 19 21 20 22 21 23 22 24
REMARK SMILES IDX 23 26 24 27 25 28 86 29 26 30 85 31 27 32 28 33 29 34 79 35
REMARK SMILES IDX 30 36 84 37 78 38 80 39 31 40 83 41 77 42 76 43 32 45 64 46
REMARK SMILES IDX 44 47 63 48 45 49 48 50 62 51 81 52 46 53 47 54 61 56 82 57
REMARK SMILES IDX 49 58 33 59 34 60 42 61 35 62 37 63 43 64 36 65 38 66 39 67
REMARK SMILES IDX 40 68 41 69 65 70 66 71 74 72 67 73 69 74 75 75 68 76 70 77
REMARK SMILES IDX 71 78 72 79 73 80 50 81 51 82 59 83 52 84 54 85 60 86 53 87
REMARK SMILES IDX 55 88 56 89 57 90 58 91
REMARK H PARENT 16 6 6 14 21 25 80 44 48 55
REMARK Flexibility Score: inf
ROOT
ATOM      1  C   UNL A   1      38.498  21.262  25.877  1.00  0.00     0.023 C 
ENDROOT
BRANCH   1   2
ATOM      2  C   UNL A   1      37.734  22.567  25.679  1.00  0.00     0.116 C 
BRANCH   2   3
ATOM      3  N   UNL A   1      37.396  22.780  24.284  1.00  0.00    -0.356 N 
ATOM      4  C   UNL A   1      36.196  22.940  23.666  1.00  0.00     0.225 C 
ATOM      5  O   UNL A   1      36.199  23.127  22.447  1.00  0.00    -0.275 OA
ATOM      6  H   UNL A   1      38.172  22.816  23.678  1.00  0.00     0.163 HD
BRANCH   4   7
ATOM      7  C   UNL A   1      34.880  22.906  24.430  1.00  0.00     0.101 C 
BRANCH   7   8
ATOM      8  C   UNL A   1      33.997  21.726  23.975  1.00  0.00     0.042 C 
BRANCH   8   9
ATOM      9  C   UNL A   1      32.555  21.932  24.350  1.00  0.00    -0.034 C 
ATOM     10  C   UNL A   1      31.974  21.398  25.433  1.00  0.00     0.004 C 
ENDBRANCH   8   9
ENDBRANCH   7   8
BRANCH   7  11
ATOM     11  C   UNL A   1      34.184  24.275  24.402  1.00  0.00     0.133 C 
BRANCH  11  12
ATOM     12  N   UNL A   1      34.188  24.831  23.056  1.00  0.00    -0.321 N 
ATOM     13  C   UNL A   1      33.196  25.513  22.426  1.00  0.00     0.407 C 
ATOM     14  H   UNL A   1      35.012  24.694  22.536  1.00  0.00     0.167 HD
ATOM     15  O   UNL A   1      33.300  25.786  21.234  1.00  0.00    -0.225 OA
BRANCH  13  16
ATOM     16  O   UNL A   1      32.163  25.841  23.231  1.00  0.00    -0.444 OA
BRANCH  16  17
ATOM     17  C   UNL A   1      31.940  27.225  23.608  1.00  0.00     0.106 C 
ATOM     18  C   UNL A   1      31.620  27.390  25.100  1.00  0.00     0.056 C 
ATOM     19  C   UNL A   1      33.141  28.078  23.187  1.00  0.00     0.056 C 
ATOM     20  C   UNL A   1      30.707  27.668  22.806  1.00  0.00     0.056 C 
ENDBRANCH  16  17
ENDBRANCH  13  16
ENDBRANCH  11  12
ENDBRANCH   7  11
ENDBRANCH   4   7
ENDBRANCH   2   3
ENDBRANCH   1   2
BRANCH   1  21
ATOM     21  C   UNL A   1      39.987  21.436  26.182  1.00  0.00     0.023 C 
BRANCH  21  22
ATOM     22  C   UNL A   1      40.641  20.277  26.929  1.00  0.00     0.116 C 
BRANCH  22  23
ATOM     23  N   UNL A   1      41.578  19.525  26.106  1.00  0.00    -0.352 N 
ATOM     24  C   UNL A   1      42.743  19.957  25.518  1.00  0.00     0.251 C 
ATOM     25  H   UNL A   1      41.346  18.581  25.950  1.00  0.00     0.163 HD
ATOM     26  O   UNL A   1      43.355  19.222  24.749  1.00  0.00    -0.269 OA
BRANCH  24  27
ATOM     27  C   UNL A   1      43.232  21.323  25.795  1.00  0.00     0.039 A 
ATOM     28  C   UNL A   1      43.165  22.285  24.785  1.00  0.00     0.014 A 
ATOM     29  C   UNL A   1      43.721  21.660  27.061  1.00  0.00     0.014 A 
ATOM     30  C   UNL A   1      43.525  23.604  25.063  1.00  0.00     0.010 A 
ATOM     31  C   UNL A   1      44.015  22.988  27.355  1.00  0.00     0.010 A 
ATOM     32  C   UNL A   1      43.920  23.974  26.360  1.00  0.00    -0.014 A 
BRANCH  32  33
ATOM     33  C   UNL A   1      44.219  25.387  26.704  1.00  0.00     0.031 A 
ATOM     34  C   UNL A   1      45.622  25.914  26.592  1.00  0.00     0.074 A 
ATOM     35  C   UNL A   1      43.243  26.167  27.211  1.00  0.00     0.049 A 
ATOM     36  N   UNL A   1      46.087  27.094  26.911  1.00  0.00    -0.248 NA
ATOM     37  C   UNL A   1      46.644  24.984  26.085  1.00  0.00     0.031 C 
ATOM     38  C   UNL A   1      41.861  25.745  27.452  1.00  0.00     0.029 A 
ATOM     39  N   UNL A   1      43.272  27.469  27.646  1.00  0.00    -0.354 N 
ATOM     40  C   UNL A   1      47.455  27.039  26.676  1.00  0.00     0.074 A 
ATOM     41  C   UNL A   1      47.752  25.698  26.222  1.00  0.00     0.031 C 
ATOM     42  C   UNL A   1      41.177  26.767  27.993  1.00  0.00     0.029 A 
ATOM     43  C   UNL A   1      42.073  27.907  28.159  1.00  0.00     0.049 A 
ATOM     44  H   UNL A   1      44.076  28.036  27.596  1.00  0.00     0.167 HD
ATOM     45  C   UNL A   1      48.377  28.024  26.794  1.00  0.00     0.034 A 
ATOM     46  C   UNL A   1      41.735  29.091  28.707  1.00  0.00     0.034 A 
ATOM     47  C   UNL A   1      48.070  29.370  27.199  1.00  0.00     0.049 A 
ATOM     48  C   UNL A   1      42.763  30.186  28.774  1.00  0.00     0.074 A 
ATOM     49  C   UNL A   1      48.917  30.463  27.264  1.00  0.00     0.029 A 
ATOM     50  N   UNL A   1      46.822  29.806  27.609  1.00  0.00    -0.354 N 
ATOM     51  N   UNL A   1      44.017  30.165  28.389  1.00  0.00    -0.248 NA
ATOM     52  C   UNL A   1      42.325  31.482  29.313  1.00  0.00     0.031 C 
ATOM     53  C   UNL A   1      48.181  31.558  27.726  1.00  0.00     0.029 A 
ATOM     54  C   UNL A   1      46.872  31.152  27.932  1.00  0.00     0.049 A 
ATOM     55  H   UNL A   1      46.016  29.243  27.664  1.00  0.00     0.167 HD
ATOM     56  C   UNL A   1      44.506  31.447  28.608  1.00  0.00     0.074 A 
ATOM     57  C   UNL A   1      43.406  32.228  29.138  1.00  0.00     0.031 C 
ATOM     58  C   UNL A   1      45.756  31.930  28.405  1.00  0.00     0.034 A 
BRANCH  45  59
ATOM     59  C   UNL A   1      49.797  27.698  26.413  1.00  0.00     0.023 A 
ATOM     60  C   UNL A   1      50.702  27.282  27.412  1.00  0.00     0.012 A 
ATOM     61  C   UNL A   1      50.226  27.751  25.073  1.00  0.00     0.148 A 
ATOM     62  C   UNL A   1      52.019  26.960  27.091  1.00  0.00     0.002 A 
ATOM     63  C   UNL A   1      51.530  27.386  24.754  1.00  0.00     0.091 A 
ATOM     64  F   UNL A   1      49.361  28.170  24.139  1.00  0.00    -0.205 F 
ATOM     65  C   UNL A   1      52.429  27.002  25.762  1.00  0.00     0.022 A 
BRANCH  63  66
ATOM     66  S   UNL A   1      52.133  27.335  23.062  1.00  0.00     0.127 S 
ATOM     67  O   UNL A   1      52.410  28.747  22.805  1.00  0.00    -0.237 OA
ATOM     68  O   UNL A   1      53.324  26.493  23.185  1.00  0.00    -0.237 OA
ATOM     69  O   UNL A   1      51.059  26.752  22.272  1.00  0.00    -0.744 OA
ENDBRANCH  63  66
ENDBRANCH  45  59
BRANCH  46  70
ATOM     70  C   UNL A   1      40.335  29.323  29.164  1.00  0.00     0.023 A 
ATOM     71  C   UNL A   1      39.348  29.661  28.218  1.00  0.00     0.012 A 
ATOM     72  C   UNL A   1      39.968  29.173  30.515  1.00  0.00     0.148 A 
ATOM     73  C   UNL A   1      38.027  29.874  28.613  1.00  0.00     0.002 A 
ATOM     74  C   UNL A   1      38.640  29.334  30.893  1.00  0.00     0.091 A 
ATOM     75  F   UNL A   1      40.924  28.864  31.402  1.00  0.00    -0.205 F 
ATOM     76  C   UNL A   1      37.671  29.701  29.947  1.00  0.00     0.022 A 
BRANCH  74  77
ATOM     77  S   UNL A   1      38.070  28.998  32.564  1.00  0.00     0.127 S 
ATOM     78  O   UNL A   1      38.387  27.581  32.709  1.00  0.00    -0.237 OA
ATOM     79  O   UNL A   1      38.905  29.901  33.356  1.00  0.00    -0.237 OA
ATOM     80  O   UNL A   1      36.653  29.338  32.568  1.00  0.00    -0.744 OA
ENDBRANCH  74  77
ENDBRANCH  46  70
BRANCH  58  81
ATOM     81  C   UNL A   1      46.006  33.380  28.726  1.00  0.00     0.023 A 
ATOM     82  C   UNL A   1      45.748  34.365  27.752  1.00  0.00     0.012 A 
ATOM     83  C   UNL A   1      46.416  33.773  30.015  1.00  0.00     0.148 A 
ATOM     84  C   UNL A   1      45.924  35.716  28.047  1.00  0.00     0.002 A 
ATOM     85  C   UNL A   1      46.544  35.124  30.316  1.00  0.00     0.091 A 
ATOM     86  F   UNL A   1      46.674  32.819  30.923  1.00  0.00    -0.205 F 
ATOM     87  C   UNL A   1      46.309  36.096  29.331  1.00  0.00     0.022 A 
BRANCH  85  88
ATOM     88  S   UNL A   1      46.945  35.705  31.969  1.00  0.00     0.127 S 
ATOM     89  O   UNL A   1      48.281  35.147  32.165  1.00  0.00    -0.237 OA
ATOM     90  O   UNL A   1      46.911  37.159  31.804  1.00  0.00    -0.237 OA
ATOM     91  O   UNL A   1      45.908  35.174  32.841  1.00  0.00    -0.744 OA
ENDBRANCH  85  88
ENDBRANCH  58  81
ENDBRANCH  32  33
ENDBRANCH  24  27
ENDBRANCH  22  23
ENDBRANCH  21  22
ENDBRANCH   1  21
TORSDOF 20
ENDMDL
