MODEL 1
REMARK VINA RESULT:     -12.0      0.000      0.000
REMARK SMILES O=C(Cc1ccc(F)cc1F)Nc1sccc1C(=O)NCCCCNC(=O)c1ccc(-c2c3nc(c(-c4cccc(S(=O)(=O)[O-])c4F)c4ccc([nH]4)c(-c4cccc(S(=O)(=O)[O-])c4F)c4nc(c(-c5cccc(S(=O)(=O)[O-])c5F)c5ccc2[nH]5)C=C4)C=C3)cc1
REMARK SMILES IDX 22 1 21 2 20 3 18 4 19 5 17 7 13 8 14 9 15 10 16 11 12 12
REMARK SMILES IDX 1 13 2 14 3 16 4 17 5 18 10 19 6 20 9 21 11 22 7 23 8 24
REMARK SMILES IDX 23 25 24 26 25 27 26 28 27 30 28 31 29 32 90 33 30 34 89 35
REMARK SMILES IDX 31 36 32 37 33 38 83 39 34 40 88 41 82 42 84 43 35 44 87 45
REMARK SMILES IDX 81 46 80 47 36 49 68 50 48 51 67 52 49 53 52 54 66 55 85 56
REMARK SMILES IDX 50 57 51 58 65 60 86 61 53 62 37 63 38 64 46 65 39 66 41 67
REMARK SMILES IDX 47 68 40 69 42 70 43 71 44 72 45 73 69 74 70 75 78 76 71 77
REMARK SMILES IDX 73 78 79 79 72 80 74 81 75 82 76 83 77 84 54 85 55 86 63 87
REMARK SMILES IDX 56 88 58 89 64 90 57 91 59 92 60 93 61 94 62 95
REMARK H PARENT 20 6 12 15 25 29 84 48 52 59
REMARK Flexibility Score: inf
ROOT
ATOM      1  C   UNL A   1      37.133  21.391  24.414  1.00  0.00     0.023 C 
ENDROOT
BRANCH   1   2
ATOM      2  C   UNL A   1      37.078  22.375  25.574  1.00  0.00     0.116 C 
BRANCH   2   3
ATOM      3  N   UNL A   1      35.980  22.234  26.492  1.00  0.00    -0.352 N 
ATOM      4  C   UNL A   1      34.681  22.686  26.376  1.00  0.00     0.254 C 
ATOM      5  O   UNL A   1      33.899  22.381  27.278  1.00  0.00    -0.269 OA
ATOM      6  H   UNL A   1      36.183  21.745  27.322  1.00  0.00     0.163 HD
BRANCH   4   7
ATOM      7  C   UNL A   1      34.283  23.655  25.345  1.00  0.00     0.074 A 
ATOM      8  C   UNL A   1      33.871  23.478  24.034  1.00  0.00     0.108 A 
ATOM      9  S   UNL A   1      33.786  24.941  23.152  1.00  0.00    -0.126 S 
ATOM     10  C   UNL A   1      34.034  25.874  24.554  1.00  0.00     0.068 A 
ATOM     11  C   UNL A   1      34.290  25.076  25.645  1.00  0.00     0.028 A 
BRANCH   8  12
ATOM     12  N   UNL A   1      33.546  22.407  23.229  1.00  0.00    -0.317 N 
ATOM     13  O   UNL A   1      31.262  22.684  23.214  1.00  0.00    -0.274 OA
ATOM     14  C   UNL A   1      32.255  21.998  22.984  1.00  0.00     0.229 C 
ATOM     15  H   UNL A   1      34.279  21.905  22.807  1.00  0.00     0.170 HD
BRANCH  14  16
ATOM     16  C   UNL A   1      32.120  20.531  22.603  1.00  0.00     0.139 C 
BRANCH  16  17
ATOM     17  C   UNL A   1      32.546  19.400  23.501  1.00  0.00    -0.003 A 
ATOM     18  C   UNL A   1      32.852  18.178  22.865  1.00  0.00     0.010 A 
ATOM     19  C   UNL A   1      32.479  19.404  24.896  1.00  0.00     0.129 A 
ATOM     20  C   UNL A   1      33.092  17.019  23.604  1.00  0.00     0.040 A 
ATOM     21  C   UNL A   1      32.719  18.253  25.642  1.00  0.00     0.078 A 
ATOM     22  F   UNL A   1      32.118  20.507  25.562  1.00  0.00    -0.207 F 
ATOM     23  C   UNL A   1      33.022  17.068  24.987  1.00  0.00     0.126 A 
ATOM     24  F   UNL A   1      33.221  15.952  25.700  1.00  0.00    -0.207 F 
ENDBRANCH  16  17
ENDBRANCH  14  16
ENDBRANCH   8  12
ENDBRANCH   4   7
ENDBRANCH   2   3
ENDBRANCH   1   2
BRANCH   1  25
ATOM     25  C   UNL A   1      37.782  20.036  24.698  1.00  0.00     0.023 C 
BRANCH  25  26
ATOM     26  C   UNL A   1      38.583  19.886  25.991  1.00  0.00     0.116 C 
BRANCH  26  27
ATOM     27  N   UNL A   1      39.825  19.136  25.861  1.00  0.00    -0.352 N 
ATOM     28  C   UNL A   1      41.119  19.533  26.127  1.00  0.00     0.251 C 
ATOM     29  H   UNL A   1      39.727  18.212  25.536  1.00  0.00     0.163 HD
ATOM     30  O   UNL A   1      42.037  18.727  25.994  1.00  0.00    -0.269 OA
BRANCH  28  31
ATOM     31  C   UNL A   1      41.412  20.934  26.517  1.00  0.00     0.039 A 
ATOM     32  C   UNL A   1      42.211  21.166  27.643  1.00  0.00     0.014 A 
ATOM     33  C   UNL A   1      40.943  22.012  25.766  1.00  0.00     0.014 A 
ATOM     34  C   UNL A   1      42.611  22.469  27.959  1.00  0.00     0.010 A 
ATOM     35  C   UNL A   1      41.405  23.300  26.037  1.00  0.00     0.010 A 
ATOM     36  C   UNL A   1      42.247  23.545  27.133  1.00  0.00    -0.014 A 
BRANCH  36  37
ATOM     37  C   UNL A   1      42.738  24.927  27.391  1.00  0.00     0.031 A 
ATOM     38  C   UNL A   1      41.841  25.939  28.054  1.00  0.00     0.074 A 
ATOM     39  C   UNL A   1      43.952  25.307  26.940  1.00  0.00     0.049 A 
ATOM     40  N   UNL A   1      42.061  27.206  28.297  1.00  0.00    -0.248 NA
ATOM     41  C   UNL A   1      40.508  25.474  28.474  1.00  0.00     0.031 C 
ATOM     42  C   UNL A   1      44.887  24.454  26.200  1.00  0.00     0.029 A 
ATOM     43  N   UNL A   1      44.598  26.517  27.010  1.00  0.00    -0.354 N 
ATOM     44  C   UNL A   1      40.885  27.698  28.850  1.00  0.00     0.074 A 
ATOM     45  C   UNL A   1      39.942  26.601  28.880  1.00  0.00     0.031 C 
ATOM     46  C   UNL A   1      45.983  25.166  25.891  1.00  0.00     0.029 A 
ATOM     47  C   UNL A   1      45.826  26.530  26.389  1.00  0.00     0.049 A 
ATOM     48  H   UNL A   1      44.216  27.304  27.465  1.00  0.00     0.167 HD
ATOM     49  C   UNL A   1      40.621  28.939  29.324  1.00  0.00     0.034 A 
ATOM     50  C   UNL A   1      46.725  27.523  26.240  1.00  0.00     0.034 A 
ATOM     51  C   UNL A   1      41.577  30.012  29.357  1.00  0.00     0.049 A 
ATOM     52  C   UNL A   1      46.440  28.869  26.854  1.00  0.00     0.074 A 
ATOM     53  C   UNL A   1      41.433  31.277  29.898  1.00  0.00     0.029 A 
ATOM     54  N   UNL A   1      42.858  29.943  28.835  1.00  0.00    -0.354 N 
ATOM     55  N   UNL A   1      45.383  29.264  27.521  1.00  0.00    -0.248 NA
ATOM     56  C   UNL A   1      47.490  29.893  26.735  1.00  0.00     0.031 C 
ATOM     57  C   UNL A   1      42.629  31.975  29.701  1.00  0.00     0.029 A 
ATOM     58  C   UNL A   1      43.521  31.140  29.048  1.00  0.00     0.049 A 
ATOM     59  H   UNL A   1      43.241  29.159  28.379  1.00  0.00     0.167 HD
ATOM     60  C   UNL A   1      45.658  30.561  27.939  1.00  0.00     0.074 A 
ATOM     61  C   UNL A   1      46.988  30.881  27.464  1.00  0.00     0.031 C 
ATOM     62  C   UNL A   1      44.873  31.417  28.639  1.00  0.00     0.034 A 
BRANCH  49  63
ATOM     63  C   UNL A   1      39.257  29.182  29.918  1.00  0.00     0.023 A 
ATOM     64  C   UNL A   1      38.972  28.697  31.211  1.00  0.00     0.012 A 
ATOM     65  C   UNL A   1      38.282  29.928  29.229  1.00  0.00     0.148 A 
ATOM     66  C   UNL A   1      37.727  28.918  31.795  1.00  0.00     0.002 A 
ATOM     67  C   UNL A   1      37.056  30.181  29.836  1.00  0.00     0.091 A 
ATOM     68  F   UNL A   1      38.562  30.363  27.993  1.00  0.00    -0.205 F 
ATOM     69  C   UNL A   1      36.773  29.667  31.112  1.00  0.00     0.022 A 
BRANCH  67  70
ATOM     70  S   UNL A   1      35.790  31.201  29.071  1.00  0.00     0.127 S 
ATOM     71  O   UNL A   1      35.102  30.231  28.222  1.00  0.00    -0.237 OA
ATOM     72  O   UNL A   1      35.017  31.655  30.229  1.00  0.00    -0.237 OA
ATOM     73  O   UNL A   1      36.501  32.261  28.368  1.00  0.00    -0.744 OA
ENDBRANCH  67  70
ENDBRANCH  49  63
BRANCH  50  74
ATOM     74  C   UNL A   1      48.027  27.258  25.563  1.00  0.00     0.023 A 
ATOM     75  C   UNL A   1      49.099  26.743  26.318  1.00  0.00     0.012 A 
ATOM     76  C   UNL A   1      48.208  27.488  24.186  1.00  0.00     0.148 A 
ATOM     77  C   UNL A   1      50.337  26.494  25.724  1.00  0.00     0.002 A 
ATOM     78  C   UNL A   1      49.428  27.189  23.588  1.00  0.00     0.091 A 
ATOM     79  F   UNL A   1      47.182  27.992  23.485  1.00  0.00    -0.205 F 
ATOM     80  C   UNL A   1      50.498  26.709  24.357  1.00  0.00     0.022 A 
BRANCH  78  81
ATOM     81  S   UNL A   1      49.681  27.312  21.813  1.00  0.00     0.127 S 
ATOM     82  O   UNL A   1      49.508  28.743  21.584  1.00  0.00    -0.237 OA
ATOM     83  O   UNL A   1      51.053  26.825  21.666  1.00  0.00    -0.237 OA
ATOM     84  O   UNL A   1      48.674  26.442  21.218  1.00  0.00    -0.744 OA
ENDBRANCH  78  81
ENDBRANCH  50  74
BRANCH  62  85
ATOM     85  C   UNL A   1      45.439  32.768  28.986  1.00  0.00     0.023 A 
ATOM     86  C   UNL A   1      46.139  32.944  30.194  1.00  0.00     0.012 A 
ATOM     87  C   UNL A   1      45.351  33.839  28.074  1.00  0.00     0.148 A 
ATOM     88  C   UNL A   1      46.720  34.174  30.503  1.00  0.00     0.002 A 
ATOM     89  C   UNL A   1      45.970  35.048  28.369  1.00  0.00     0.091 A 
ATOM     90  F   UNL A   1      44.660  33.659  26.938  1.00  0.00    -0.205 F 
ATOM     91  C   UNL A   1      46.646  35.221  29.588  1.00  0.00     0.022 A 
BRANCH  89  92
ATOM     92  S   UNL A   1      46.000  36.413  27.200  1.00  0.00     0.127 S 
ATOM     93  O   UNL A   1      46.550  35.773  26.007  1.00  0.00    -0.237 OA
ATOM     94  O   UNL A   1      44.585  36.774  27.101  1.00  0.00    -0.237 OA
ATOM     95  O   UNL A   1      46.838  37.437  27.811  1.00  0.00    -0.744 OA
ENDBRANCH  89  92
ENDBRANCH  62  85
ENDBRANCH  36  37
ENDBRANCH  28  31
ENDBRANCH  26  27
ENDBRANCH  25  26
ENDBRANCH   1  25
TORSDOF 17
ENDMDL
MODEL 2
REMARK VINA RESULT:     -11.7      6.220      9.751
REMARK SMILES O=C(Cc1ccc(F)cc1F)Nc1sccc1C(=O)NCCCCNC(=O)c1ccc(-c2c3nc(c(-c4cccc(S(=O)(=O)[O-])c4F)c4ccc([nH]4)c(-c4cccc(S(=O)(=O)[O-])c4F)c4nc(c(-c5cccc(S(=O)(=O)[O-])c5F)c5ccc2[nH]5)C=C4)C=C3)cc1
REMARK SMILES IDX 22 1 21 2 20 3 18 4 19 5 17 7 13 8 14 9 15 10 16 11 12 12
REMARK SMILES IDX 1 13 2 14 3 16 4 17 5 18 10 19 6 20 9 21 11 22 7 23 8 24
REMARK SMILES IDX 23 25 24 26 25 27 26 28 27 30 28 31 29 32 90 33 30 34 89 35
REMARK SMILES IDX 31 36 32 37 33 38 83 39 34 40 88 41 82 42 84 43 35 44 87 45
REMARK SMILES IDX 81 46 80 47 36 49 68 50 48 51 67 52 49 53 52 54 66 55 85 56
REMARK SMILES IDX 50 57 51 58 65 60 86 61 53 62 37 63 38 64 46 65 39 66 41 67
REMARK SMILES IDX 47 68 40 69 42 70 43 71 44 72 45 73 69 74 70 75 78 76 71 77
REMARK SMILES IDX 73 78 79 79 72 80 74 81 75 82 76 83 77 84 54 85 55 86 63 87
REMARK SMILES IDX 56 88 58 89 64 90 57 91 59 92 60 93 61 94 62 95
REMARK H PARENT 20 6 12 15 25 29 84 48 52 59
REMARK Flexibility Score: inf
ROOT
ATOM      1  C   UNL A   1      32.633  30.063  27.080  1.00  0.00     0.023 C 
ENDROOT
BRANCH   1   2
ATOM      2  C   UNL A   1      32.139  28.947  26.170  1.00  0.00     0.116 C 
BRANCH   2   3
ATOM      3  N   UNL A   1      32.953  28.637  25.024  1.00  0.00    -0.352 N 
ATOM      4  C   UNL A   1      33.234  27.409  24.461  1.00  0.00     0.254 C 
ATOM      5  O   UNL A   1      33.912  27.407  23.432  1.00  0.00    -0.269 OA
ATOM      6  H   UNL A   1      33.369  29.410  24.578  1.00  0.00     0.163 HD
BRANCH   4   7
ATOM      7  C   UNL A   1      32.925  26.147  25.148  1.00  0.00     0.074 A 
ATOM      8  C   UNL A   1      31.716  25.578  25.517  1.00  0.00     0.108 A 
ATOM      9  S   UNL A   1      31.897  24.225  26.547  1.00  0.00    -0.126 S 
ATOM     10  C   UNL A   1      33.583  24.195  26.317  1.00  0.00     0.068 A 
ATOM     11  C   UNL A   1      34.002  25.266  25.563  1.00  0.00     0.028 A 
BRANCH   8  12
ATOM     12  N   UNL A   1      30.383  25.848  25.299  1.00  0.00    -0.317 N 
ATOM     13  O   UNL A   1      30.201  24.948  23.190  1.00  0.00    -0.274 OA
ATOM     14  C   UNL A   1      29.745  25.639  24.098  1.00  0.00     0.229 C 
ATOM     15  H   UNL A   1      29.856  26.212  26.046  1.00  0.00     0.170 HD
BRANCH  14  16
ATOM     16  C   UNL A   1      28.518  26.510  23.875  1.00  0.00     0.139 C 
BRANCH  16  17
ATOM     17  C   UNL A   1      28.566  27.848  23.186  1.00  0.00    -0.003 A 
ATOM     18  C   UNL A   1      29.837  28.286  22.757  1.00  0.00     0.010 A 
ATOM     19  C   UNL A   1      27.509  28.758  23.109  1.00  0.00     0.129 A 
ATOM     20  C   UNL A   1      30.028  29.576  22.262  1.00  0.00     0.040 A 
ATOM     21  C   UNL A   1      27.689  30.047  22.614  1.00  0.00     0.078 A 
ATOM     22  F   UNL A   1      26.294  28.437  23.570  1.00  0.00    -0.207 F 
ATOM     23  C   UNL A   1      28.950  30.445  22.197  1.00  0.00     0.126 A 
ATOM     24  F   UNL A   1      29.133  31.695  21.751  1.00  0.00    -0.207 F 
ENDBRANCH  16  17
ENDBRANCH  14  16
ENDBRANCH   8  12
ENDBRANCH   4   7
ENDBRANCH   2   3
ENDBRANCH   1   2
BRANCH   1  25
ATOM     25  C   UNL A   1      31.826  31.361  27.069  1.00  0.00     0.023 C 
BRANCH  25  26
ATOM     26  C   UNL A   1      32.520  32.627  26.567  1.00  0.00     0.116 C 
BRANCH  26  27
ATOM     27  N   UNL A   1      32.367  33.794  27.426  1.00  0.00    -0.352 N 
ATOM     28  C   UNL A   1      33.177  34.238  28.450  1.00  0.00     0.251 C 
ATOM     29  H   UNL A   1      31.570  34.344  27.250  1.00  0.00     0.163 HD
ATOM     30  O   UNL A   1      32.895  35.283  29.032  1.00  0.00    -0.269 OA
BRANCH  28  31
ATOM     31  C   UNL A   1      34.349  33.439  28.886  1.00  0.00     0.039 A 
ATOM     32  C   UNL A   1      35.633  33.915  28.596  1.00  0.00     0.014 A 
ATOM     33  C   UNL A   1      34.194  32.254  29.605  1.00  0.00     0.014 A 
ATOM     34  C   UNL A   1      36.755  33.251  29.106  1.00  0.00     0.010 A 
ATOM     35  C   UNL A   1      35.308  31.639  30.176  1.00  0.00     0.010 A 
ATOM     36  C   UNL A   1      36.602  32.130  29.938  1.00  0.00    -0.014 A 
BRANCH  36  37
ATOM     37  C   UNL A   1      37.772  31.463  30.572  1.00  0.00     0.031 A 
ATOM     38  C   UNL A   1      38.153  31.792  31.993  1.00  0.00     0.074 A 
ATOM     39  C   UNL A   1      38.555  30.639  29.846  1.00  0.00     0.049 A 
ATOM     40  N   UNL A   1      39.176  31.373  32.692  1.00  0.00    -0.248 NA
ATOM     41  C   UNL A   1      37.287  32.741  32.713  1.00  0.00     0.031 C 
ATOM     42  C   UNL A   1      38.354  30.305  28.433  1.00  0.00     0.029 A 
ATOM     43  N   UNL A   1      39.695  29.953  30.186  1.00  0.00    -0.354 N 
ATOM     44  C   UNL A   1      39.104  32.039  33.910  1.00  0.00     0.074 A 
ATOM     45  C   UNL A   1      37.955  32.914  33.844  1.00  0.00     0.031 C 
ATOM     46  C   UNL A   1      39.333  29.478  28.032  1.00  0.00     0.029 A 
ATOM     47  C   UNL A   1      40.244  29.236  29.147  1.00  0.00     0.049 A 
ATOM     48  H   UNL A   1      40.085  29.973  31.091  1.00  0.00     0.167 HD
ATOM     49  C   UNL A   1      39.899  31.911  34.998  1.00  0.00     0.034 A 
ATOM     50  C   UNL A   1      41.351  28.468  29.098  1.00  0.00     0.034 A 
ATOM     51  C   UNL A   1      41.002  30.993  35.091  1.00  0.00     0.049 A 
ATOM     52  C   UNL A   1      42.167  28.276  30.349  1.00  0.00     0.074 A 
ATOM     53  C   UNL A   1      41.812  30.725  36.181  1.00  0.00     0.029 A 
ATOM     54  N   UNL A   1      41.445  30.185  34.056  1.00  0.00    -0.354 N 
ATOM     55  N   UNL A   1      41.983  28.790  31.541  1.00  0.00    -0.248 NA
ATOM     56  C   UNL A   1      43.317  27.363  30.263  1.00  0.00     0.031 C 
ATOM     57  C   UNL A   1      42.746  29.756  35.803  1.00  0.00     0.029 A 
ATOM     58  C   UNL A   1      42.511  29.412  34.483  1.00  0.00     0.049 A 
ATOM     59  H   UNL A   1      41.059  30.165  33.150  1.00  0.00     0.167 HD
ATOM     60  C   UNL A   1      42.962  28.229  32.354  1.00  0.00     0.074 A 
ATOM     61  C   UNL A   1      43.728  27.323  31.523  1.00  0.00     0.031 C 
ATOM     62  C   UNL A   1      43.215  28.457  33.667  1.00  0.00     0.034 A 
BRANCH  49  63
ATOM     63  C   UNL A   1      39.556  32.735  36.212  1.00  0.00     0.023 A 
ATOM     64  C   UNL A   1      40.118  34.022  36.352  1.00  0.00     0.012 A 
ATOM     65  C   UNL A   1      38.647  32.269  37.181  1.00  0.00     0.148 A 
ATOM     66  C   UNL A   1      39.810  34.817  37.454  1.00  0.00     0.002 A 
ATOM     67  C   UNL A   1      38.312  33.086  38.257  1.00  0.00     0.091 A 
ATOM     68  F   UNL A   1      38.139  31.037  37.043  1.00  0.00    -0.205 F 
ATOM     69  C   UNL A   1      38.901  34.352  38.400  1.00  0.00     0.022 A 
BRANCH  67  70
ATOM     70  S   UNL A   1      37.092  32.611  39.487  1.00  0.00     0.127 S 
ATOM     71  O   UNL A   1      35.856  32.651  38.708  1.00  0.00    -0.237 OA
ATOM     72  O   UNL A   1      37.535  31.266  39.859  1.00  0.00    -0.237 OA
ATOM     73  O   UNL A   1      37.196  33.598  40.554  1.00  0.00    -0.744 OA
ENDBRANCH  67  70
ENDBRANCH  49  63
BRANCH  50  74
ATOM     74  C   UNL A   1      41.702  27.741  27.844  1.00  0.00     0.023 A 
ATOM     75  C   UNL A   1      42.191  28.471  26.742  1.00  0.00     0.012 A 
ATOM     76  C   UNL A   1      41.578  26.343  27.738  1.00  0.00     0.148 A 
ATOM     77  C   UNL A   1      42.516  27.828  25.548  1.00  0.00     0.002 A 
ATOM     78  C   UNL A   1      41.954  25.701  26.562  1.00  0.00     0.091 A 
ATOM     79  F   UNL A   1      41.098  25.664  28.790  1.00  0.00    -0.205 F 
ATOM     80  C   UNL A   1      42.406  26.443  25.460  1.00  0.00     0.022 A 
BRANCH  78  81
ATOM     81  S   UNL A   1      41.968  23.911  26.409  1.00  0.00     0.127 S 
ATOM     82  O   UNL A   1      42.735  23.516  27.586  1.00  0.00    -0.237 OA
ATOM     83  O   UNL A   1      40.542  23.588  26.465  1.00  0.00    -0.237 OA
ATOM     84  O   UNL A   1      42.589  23.638  25.119  1.00  0.00    -0.744 OA
ENDBRANCH  78  81
ENDBRANCH  50  74
BRANCH  62  85
ATOM     85  C   UNL A   1      44.332  27.682  34.313  1.00  0.00     0.023 A 
ATOM     86  C   UNL A   1      45.644  28.189  34.282  1.00  0.00     0.012 A 
ATOM     87  C   UNL A   1      44.064  26.494  35.023  1.00  0.00     0.148 A 
ATOM     88  C   UNL A   1      46.680  27.512  34.926  1.00  0.00     0.002 A 
ATOM     89  C   UNL A   1      45.093  25.849  35.700  1.00  0.00     0.091 A 
ATOM     90  F   UNL A   1      42.812  26.014  35.021  1.00  0.00    -0.205 F 
ATOM     91  C   UNL A   1      46.404  26.351  35.644  1.00  0.00     0.022 A 
BRANCH  89  92
ATOM     92  S   UNL A   1      44.800  24.402  36.723  1.00  0.00     0.127 S 
ATOM     93  O   UNL A   1      43.913  24.938  37.753  1.00  0.00    -0.237 OA
ATOM     94  O   UNL A   1      44.158  23.478  35.786  1.00  0.00    -0.237 OA
ATOM     95  O   UNL A   1      46.114  23.971  37.184  1.00  0.00    -0.744 OA
ENDBRANCH  89  92
ENDBRANCH  62  85
ENDBRANCH  36  37
ENDBRANCH  28  31
ENDBRANCH  26  27
ENDBRANCH  25  26
ENDBRANCH   1  25
TORSDOF 17
ENDMDL
MODEL 3
REMARK VINA RESULT:     -11.4      2.418      3.899
REMARK SMILES O=C(Cc1ccc(F)cc1F)Nc1sccc1C(=O)NCCCCNC(=O)c1ccc(-c2c3nc(c(-c4cccc(S(=O)(=O)[O-])c4F)c4ccc([nH]4)c(-c4cccc(S(=O)(=O)[O-])c4F)c4nc(c(-c5cccc(S(=O)(=O)[O-])c5F)c5ccc2[nH]5)C=C4)C=C3)cc1
REMARK SMILES IDX 22 1 21 2 20 3 18 4 19 5 17 7 13 8 14 9 15 10 16 11 12 12
REMARK SMILES IDX 1 13 2 14 3 16 4 17 5 18 10 19 6 20 9 21 11 22 7 23 8 24
REMARK SMILES IDX 23 25 24 26 25 27 26 28 27 30 28 31 29 32 90 33 30 34 89 35
REMARK SMILES IDX 31 36 32 37 33 38 83 39 34 40 88 41 82 42 84 43 35 44 87 45
REMARK SMILES IDX 81 46 80 47 36 49 68 50 48 51 67 52 49 53 52 54 66 55 85 56
REMARK SMILES IDX 50 57 51 58 65 60 86 61 53 62 37 63 38 64 46 65 39 66 41 67
REMARK SMILES IDX 47 68 40 69 42 70 43 71 44 72 45 73 69 74 70 75 78 76 71 77
REMARK SMILES IDX 73 78 79 79 72 80 74 81 75 82 76 83 77 84 54 85 55 86 63 87
REMARK SMILES IDX 56 88 58 89 64 90 57 91 59 92 60 93 61 94 62 95
REMARK H PARENT 20 6 12 15 25 29 84 48 52 59
REMARK Flexibility Score: inf
ROOT
ATOM      1  C   UNL A   1      37.349  21.238  25.089  1.00  0.00     0.023 C 
ENDROOT
BRANCH   1   2
ATOM      2  C   UNL A   1      36.629  22.534  25.433  1.00  0.00     0.116 C 
BRANCH   2   3
ATOM      3  N   UNL A   1      35.762  22.510  26.580  1.00  0.00    -0.352 N 
ATOM      4  C   UNL A   1      34.398  22.313  26.639  1.00  0.00     0.254 C 
ATOM      5  O   UNL A   1      33.885  22.271  27.759  1.00  0.00    -0.269 OA
ATOM      6  H   UNL A   1      36.204  22.654  27.448  1.00  0.00     0.163 HD
BRANCH   4   7
ATOM      7  C   UNL A   1      33.552  22.355  25.437  1.00  0.00     0.074 A 
ATOM      8  C   UNL A   1      32.671  23.319  24.973  1.00  0.00     0.108 A 
ATOM      9  S   UNL A   1      31.713  22.778  23.663  1.00  0.00    -0.126 S 
ATOM     10  C   UNL A   1      32.625  21.349  23.504  1.00  0.00     0.068 A 
ATOM     11  C   UNL A   1      33.563  21.243  24.504  1.00  0.00     0.028 A 
BRANCH   8  12
ATOM     12  N   UNL A   1      32.329  24.607  25.324  1.00  0.00    -0.317 N 
ATOM     13  O   UNL A   1      31.108  24.123  27.213  1.00  0.00    -0.274 OA
ATOM     14  C   UNL A   1      31.457  24.917  26.342  1.00  0.00     0.229 C 
ATOM     15  H   UNL A   1      32.732  25.347  24.817  1.00  0.00     0.170 HD
BRANCH  14  16
ATOM     16  C   UNL A   1      30.770  26.266  26.194  1.00  0.00     0.139 C 
BRANCH  16  17
ATOM     17  C   UNL A   1      30.786  27.069  24.920  1.00  0.00    -0.003 A 
ATOM     18  C   UNL A   1      31.710  28.134  24.864  1.00  0.00     0.010 A 
ATOM     19  C   UNL A   1      29.851  26.969  23.888  1.00  0.00     0.129 A 
ATOM     20  C   UNL A   1      31.698  29.047  23.809  1.00  0.00     0.040 A 
ATOM     21  C   UNL A   1      29.833  27.873  22.829  1.00  0.00     0.078 A 
ATOM     22  F   UNL A   1      28.897  26.032  23.916  1.00  0.00    -0.207 F 
ATOM     23  C   UNL A   1      30.757  28.907  22.801  1.00  0.00     0.126 A 
ATOM     24  F   UNL A   1      30.721  29.798  21.802  1.00  0.00    -0.207 F 
ENDBRANCH  16  17
ENDBRANCH  14  16
ENDBRANCH   8  12
ENDBRANCH   4   7
ENDBRANCH   2   3
ENDBRANCH   1   2
BRANCH   1  25
ATOM     25  C   UNL A   1      38.859  21.212  25.324  1.00  0.00     0.023 C 
BRANCH  25  26
ATOM     26  C   UNL A   1      39.385  20.371  26.486  1.00  0.00     0.116 C 
BRANCH  26  27
ATOM     27  N   UNL A   1      40.351  19.345  26.115  1.00  0.00    -0.352 N 
ATOM     28  C   UNL A   1      41.728  19.410  26.087  1.00  0.00     0.251 C 
ATOM     29  H   UNL A   1      39.964  18.481  25.846  1.00  0.00     0.163 HD
ATOM     30  O   UNL A   1      42.374  18.408  25.784  1.00  0.00    -0.269 OA
BRANCH  28  31
ATOM     31  C   UNL A   1      42.429  20.687  26.364  1.00  0.00     0.039 A 
ATOM     32  C   UNL A   1      42.804  21.498  25.286  1.00  0.00     0.014 A 
ATOM     33  C   UNL A   1      42.685  21.108  27.670  1.00  0.00     0.014 A 
ATOM     34  C   UNL A   1      43.349  22.765  25.522  1.00  0.00     0.010 A 
ATOM     35  C   UNL A   1      43.156  22.400  27.903  1.00  0.00     0.010 A 
ATOM     36  C   UNL A   1      43.491  23.246  26.833  1.00  0.00    -0.014 A 
BRANCH  36  37
ATOM     37  C   UNL A   1      43.976  24.626  27.110  1.00  0.00     0.031 A 
ATOM     38  C   UNL A   1      43.032  25.668  27.652  1.00  0.00     0.074 A 
ATOM     39  C   UNL A   1      45.237  24.976  26.782  1.00  0.00     0.049 A 
ATOM     40  N   UNL A   1      43.248  26.937  27.888  1.00  0.00    -0.248 NA
ATOM     41  C   UNL A   1      41.654  25.233  27.939  1.00  0.00     0.031 C 
ATOM     42  C   UNL A   1      46.230  24.092  26.165  1.00  0.00     0.029 A 
ATOM     43  N   UNL A   1      45.893  26.178  26.893  1.00  0.00    -0.354 N 
ATOM     44  C   UNL A   1      42.029  27.459  28.303  1.00  0.00     0.074 A 
ATOM     45  C   UNL A   1      41.069  26.378  28.258  1.00  0.00     0.031 C 
ATOM     46  C   UNL A   1      47.365  24.780  25.957  1.00  0.00     0.029 A 
ATOM     47  C   UNL A   1      47.180  26.157  26.405  1.00  0.00     0.049 A 
ATOM     48  H   UNL A   1      45.480  26.982  27.287  1.00  0.00     0.167 HD
ATOM     49  C   UNL A   1      41.738  28.715  28.718  1.00  0.00     0.034 A 
ATOM     50  C   UNL A   1      48.107  27.133  26.330  1.00  0.00     0.034 A 
ATOM     51  C   UNL A   1      42.704  29.774  28.828  1.00  0.00     0.049 A 
ATOM     52  C   UNL A   1      47.784  28.497  26.880  1.00  0.00     0.074 A 
ATOM     53  C   UNL A   1      42.527  31.055  29.322  1.00  0.00     0.029 A 
ATOM     54  N   UNL A   1      44.032  29.673  28.447  1.00  0.00    -0.354 N 
ATOM     55  N   UNL A   1      46.669  28.925  27.423  1.00  0.00    -0.248 NA
ATOM     56  C   UNL A   1      48.858  29.502  26.850  1.00  0.00     0.031 C 
ATOM     57  C   UNL A   1      43.749  31.729  29.238  1.00  0.00     0.029 A 
ATOM     58  C   UNL A   1      44.690  30.864  28.702  1.00  0.00     0.049 A 
ATOM     59  H   UNL A   1      44.447  28.872  28.051  1.00  0.00     0.167 HD
ATOM     60  C   UNL A   1      46.921  30.227  27.838  1.00  0.00     0.074 A 
ATOM     61  C   UNL A   1      48.300  30.515  27.499  1.00  0.00     0.031 C 
ATOM     62  C   UNL A   1      46.082  31.111  28.432  1.00  0.00     0.034 A 
BRANCH  49  63
ATOM     63  C   UNL A   1      40.324  28.994  29.159  1.00  0.00     0.023 A 
ATOM     64  C   UNL A   1      39.355  29.333  28.192  1.00  0.00     0.012 A 
ATOM     65  C   UNL A   1      39.940  28.870  30.508  1.00  0.00     0.148 A 
ATOM     66  C   UNL A   1      38.036  29.582  28.563  1.00  0.00     0.002 A 
ATOM     67  C   UNL A   1      38.612  29.078  30.865  1.00  0.00     0.091 A 
ATOM     68  F   UNL A   1      40.877  28.567  31.416  1.00  0.00    -0.205 F 
ATOM     69  C   UNL A   1      37.663  29.445  29.897  1.00  0.00     0.022 A 
BRANCH  67  70
ATOM     70  S   UNL A   1      38.015  28.851  32.544  1.00  0.00     0.127 S 
ATOM     71  O   UNL A   1      38.206  27.414  32.733  1.00  0.00    -0.237 OA
ATOM     72  O   UNL A   1      38.929  29.695  33.315  1.00  0.00    -0.237 OA
ATOM     73  O   UNL A   1      36.630  29.306  32.541  1.00  0.00    -0.744 OA
ENDBRANCH  67  70
ENDBRANCH  49  63
BRANCH  50  74
ATOM     74  C   UNL A   1      49.469  26.832  25.801  1.00  0.00     0.023 A 
ATOM     75  C   UNL A   1      50.398  26.176  26.633  1.00  0.00     0.012 A 
ATOM     76  C   UNL A   1      49.844  27.164  24.486  1.00  0.00     0.148 A 
ATOM     77  C   UNL A   1      51.685  25.889  26.179  1.00  0.00     0.002 A 
ATOM     78  C   UNL A   1      51.112  26.829  24.021  1.00  0.00     0.091 A 
ATOM     79  F   UNL A   1      48.953  27.800  23.711  1.00  0.00    -0.205 F 
ATOM     80  C   UNL A   1      52.039  26.207  24.870  1.00  0.00     0.022 A 
BRANCH  78  81
ATOM     81  S   UNL A   1      51.604  27.084  22.311  1.00  0.00     0.127 S 
ATOM     82  O   UNL A   1      51.762  28.534  22.258  1.00  0.00    -0.237 OA
ATOM     83  O   UNL A   1      52.853  26.325  22.237  1.00  0.00    -0.237 OA
ATOM     84  O   UNL A   1      50.521  26.528  21.510  1.00  0.00    -0.744 OA
ENDBRANCH  78  81
ENDBRANCH  50  74
BRANCH  62  85
ATOM     85  C   UNL A   1      46.633  32.461  28.806  1.00  0.00     0.023 A 
ATOM     86  C   UNL A   1      47.228  32.649  30.068  1.00  0.00     0.012 A 
ATOM     87  C   UNL A   1      46.636  33.519  27.874  1.00  0.00     0.148 A 
ATOM     88  C   UNL A   1      47.794  33.878  30.408  1.00  0.00     0.002 A 
ATOM     89  C   UNL A   1      47.242  34.726  28.204  1.00  0.00     0.091 A 
ATOM     90  F   UNL A   1      46.044  33.328  26.686  1.00  0.00    -0.205 F 
ATOM     91  C   UNL A   1      47.812  34.910  29.474  1.00  0.00     0.022 A 
BRANCH  89  92
ATOM     92  S   UNL A   1      47.390  36.071  27.022  1.00  0.00     0.127 S 
ATOM     93  O   UNL A   1      45.989  36.401  26.766  1.00  0.00    -0.237 OA
ATOM     94  O   UNL A   1      48.125  37.081  27.785  1.00  0.00    -0.237 OA
ATOM     95  O   UNL A   1      48.126  35.523  25.890  1.00  0.00    -0.744 OA
ENDBRANCH  89  92
ENDBRANCH  62  85
ENDBRANCH  36  37
ENDBRANCH  28  31
ENDBRANCH  26  27
ENDBRANCH  25  26
ENDBRANCH   1  25
TORSDOF 17
ENDMDL
