MODEL 1
REMARK VINA RESULT:     -12.1      0.000      0.000
REMARK SMILES O=C(C[C@@H]1CN(c2nc3ccccc3s2)CCO1)NCCCCNC(=O)c1ccc(-c2c3nc(c(-c4cccc(S(=O)(=O)[O-])c4F)c4ccc([nH]4)c(-c4cccc(S(=O)(=O)[O-])c4F)c4nc(c(-c5cccc(S(=O)(=O)[O-])c5F)c5ccc2[nH]5)C=C4)C=C3)cc1
REMARK SMILES IDX 22 1 21 2 20 3 19 4 1 5 2 6 3 8 4 9 5 10 18 11 6 12 17 13
REMARK SMILES IDX 16 14 7 15 8 16 15 17 9 18 14 19 10 20 13 21 11 22 12 23
REMARK SMILES IDX 23 24 24 25 25 26 26 28 27 29 28 30 89 31 29 32 88 33 30 34
REMARK SMILES IDX 31 35 32 36 82 37 33 38 87 39 81 40 83 41 34 42 86 43 80 44
REMARK SMILES IDX 79 45 35 47 67 48 47 49 66 50 48 51 51 52 65 53 84 54 49 55
REMARK SMILES IDX 50 56 64 58 85 59 52 60 36 61 37 62 45 63 38 64 40 65 46 66
REMARK SMILES IDX 39 67 41 68 42 69 43 70 44 71 68 72 69 73 77 74 70 75 72 76
REMARK SMILES IDX 78 77 71 78 73 79 74 80 75 81 76 82 53 83 54 84 62 85 55 86
REMARK SMILES IDX 57 87 63 88 56 89 58 90 59 91 60 92 61 93
REMARK H PARENT 19 7 24 27 83 46 51 57
REMARK Flexibility Score: inf
ROOT
ATOM      1  C   UNL A   1      32.101  29.919  25.283  1.00  0.00     0.023 C 
ENDROOT
BRANCH   1   2
ATOM      2  C   UNL A   1      30.786  30.038  24.505  1.00  0.00     0.023 C 
BRANCH   2   3
ATOM      3  C   UNL A   1      30.317  28.752  23.825  1.00  0.00     0.116 C 
BRANCH   3   4
ATOM      4  N   UNL A   1      30.669  27.581  24.600  1.00  0.00    -0.356 N 
ATOM      5  O   UNL A   1      28.926  26.245  23.911  1.00  0.00    -0.275 OA
ATOM      6  C   UNL A   1      29.927  26.423  24.595  1.00  0.00     0.222 C 
ATOM      7  H   UNL A   1      31.478  27.616  25.160  1.00  0.00     0.163 HD
BRANCH   6   8
ATOM      8  C   UNL A   1      30.474  25.354  25.510  1.00  0.00     0.133 C 
BRANCH   8   9
ATOM      9  C   UNL A   1      31.689  24.684  24.880  1.00  0.00     0.147 C 
ATOM     10  C   UNL A   1      32.116  23.438  25.676  1.00  0.00     0.151 C 
ATOM     11  O   UNL A   1      32.766  25.650  24.840  1.00  0.00    -0.374 OA
ATOM     12  N   UNL A   1      33.330  22.900  25.071  1.00  0.00    -0.343 N 
ATOM     13  C   UNL A   1      33.930  25.087  24.198  1.00  0.00     0.182 C 
ATOM     14  C   UNL A   1      34.440  23.834  24.937  1.00  0.00     0.147 C 
BRANCH  12  15
ATOM     15  C   UNL A   1      33.465  21.589  24.776  1.00  0.00     0.186 A 
ATOM     16  N   UNL A   1      32.565  20.877  24.139  1.00  0.00    -0.220 NA
ATOM     17  S   UNL A   1      34.863  20.709  25.282  1.00  0.00    -0.097 S 
ATOM     18  C   UNL A   1      33.029  19.587  23.938  1.00  0.00     0.084 A 
ATOM     19  C   UNL A   1      34.258  19.294  24.529  1.00  0.00     0.056 A 
ATOM     20  C   UNL A   1      32.378  18.575  23.203  1.00  0.00     0.030 A 
ATOM     21  C   UNL A   1      34.839  18.018  24.455  1.00  0.00     0.021 A 
ATOM     22  C   UNL A   1      32.964  17.309  23.092  1.00  0.00     0.002 A 
ATOM     23  C   UNL A   1      34.173  17.032  23.723  1.00  0.00     0.002 A 
ENDBRANCH  12  15
ENDBRANCH   8   9
ENDBRANCH   6   8
ENDBRANCH   3   4
ENDBRANCH   2   3
ENDBRANCH   1   2
BRANCH   1  24
ATOM     24  C   UNL A   1      32.063  30.426  26.721  1.00  0.00     0.116 C 
BRANCH  24  25
ATOM     25  N   UNL A   1      32.146  31.876  26.807  1.00  0.00    -0.352 N 
ATOM     26  C   UNL A   1      33.096  32.661  27.416  1.00  0.00     0.251 C 
ATOM     27  H   UNL A   1      31.415  32.366  26.365  1.00  0.00     0.163 HD
ATOM     28  O   UNL A   1      32.911  33.873  27.512  1.00  0.00    -0.269 OA
BRANCH  26  29
ATOM     29  C   UNL A   1      34.324  32.054  27.977  1.00  0.00     0.039 A 
ATOM     30  C   UNL A   1      35.445  32.865  28.179  1.00  0.00     0.014 A 
ATOM     31  C   UNL A   1      34.380  30.696  28.303  1.00  0.00     0.014 A 
ATOM     32  C   UNL A   1      36.595  32.330  28.768  1.00  0.00     0.010 A 
ATOM     33  C   UNL A   1      35.497  30.184  28.961  1.00  0.00     0.010 A 
ATOM     34  C   UNL A   1      36.618  30.993  29.200  1.00  0.00    -0.014 A 
BRANCH  34  35
ATOM     35  C   UNL A   1      37.795  30.436  29.923  1.00  0.00     0.031 A 
ATOM     36  C   UNL A   1      38.125  30.897  31.318  1.00  0.00     0.074 A 
ATOM     37  C   UNL A   1      38.617  29.576  29.290  1.00  0.00     0.049 A 
ATOM     38  N   UNL A   1      39.140  30.568  32.075  1.00  0.00    -0.248 NA
ATOM     39  C   UNL A   1      37.210  31.870  31.934  1.00  0.00     0.031 C 
ATOM     40  C   UNL A   1      38.455  29.108  27.912  1.00  0.00     0.029 A 
ATOM     41  N   UNL A   1      39.773  28.963  29.713  1.00  0.00    -0.354 N 
ATOM     42  C   UNL A   1      39.006  31.314  33.240  1.00  0.00     0.074 A 
ATOM     43  C   UNL A   1      37.829  32.141  33.074  1.00  0.00     0.031 C 
ATOM     44  C   UNL A   1      39.469  28.283  27.603  1.00  0.00     0.029 A 
ATOM     45  C   UNL A   1      40.373  28.190  28.745  1.00  0.00     0.049 A 
ATOM     46  H   UNL A   1      40.135  29.066  30.621  1.00  0.00     0.167 HD
ATOM     47  C   UNL A   1      39.771  31.296  34.357  1.00  0.00     0.034 A 
ATOM     48  C   UNL A   1      41.528  27.496  28.765  1.00  0.00     0.034 A 
ATOM     49  C   UNL A   1      40.924  30.453  34.533  1.00  0.00     0.049 A 
ATOM     50  C   UNL A   1      42.350  27.474  30.026  1.00  0.00     0.074 A 
ATOM     51  C   UNL A   1      41.717  30.305  35.657  1.00  0.00     0.029 A 
ATOM     52  N   UNL A   1      41.456  29.624  33.558  1.00  0.00    -0.354 N 
ATOM     53  N   UNL A   1      42.121  28.072  31.171  1.00  0.00    -0.248 NA
ATOM     54  C   UNL A   1      43.569  26.653  30.012  1.00  0.00     0.031 C 
ATOM     55  C   UNL A   1      42.749  29.412  35.351  1.00  0.00     0.029 A 
ATOM     56  C   UNL A   1      42.575  28.971  34.050  1.00  0.00     0.049 A 
ATOM     57  H   UNL A   1      41.092  29.515  32.650  1.00  0.00     0.167 HD
ATOM     58  C   UNL A   1      43.144  27.670  32.021  1.00  0.00     0.074 A 
ATOM     59  C   UNL A   1      43.983  26.762  31.267  1.00  0.00     0.031 C 
ATOM     60  C   UNL A   1      43.375  28.031  33.308  1.00  0.00     0.034 A 
BRANCH  47  61
ATOM     61  C   UNL A   1      39.361  32.188  35.502  1.00  0.00     0.023 A 
ATOM     62  C   UNL A   1      38.521  31.679  36.515  1.00  0.00     0.012 A 
ATOM     63  C   UNL A   1      39.854  33.502  35.611  1.00  0.00     0.148 A 
ATOM     64  C   UNL A   1      38.145  32.477  37.595  1.00  0.00     0.002 A 
ATOM     65  C   UNL A   1      39.514  34.275  36.716  1.00  0.00     0.091 A 
ATOM     66  F   UNL A   1      40.638  33.975  34.632  1.00  0.00    -0.205 F 
ATOM     67  C   UNL A   1      38.650  33.770  37.700  1.00  0.00     0.022 A 
BRANCH  65  68
ATOM     68  S   UNL A   1      40.176  35.923  36.989  1.00  0.00     0.127 S 
ATOM     69  O   UNL A   1      39.776  36.608  35.759  1.00  0.00    -0.237 OA
ATOM     70  O   UNL A   1      39.452  36.350  38.187  1.00  0.00    -0.237 OA
ATOM     71  O   UNL A   1      41.610  35.757  37.171  1.00  0.00    -0.744 OA
ENDBRANCH  65  68
ENDBRANCH  47  61
BRANCH  48  72
ATOM     72  C   UNL A   1      41.956  26.726  27.563  1.00  0.00     0.023 A 
ATOM     73  C   UNL A   1      42.601  27.393  26.502  1.00  0.00     0.012 A 
ATOM     74  C   UNL A   1      41.747  25.337  27.474  1.00  0.00     0.148 A 
ATOM     75  C   UNL A   1      42.995  26.696  25.359  1.00  0.00     0.002 A 
ATOM     76  C   UNL A   1      42.194  24.639  26.358  1.00  0.00     0.091 A 
ATOM     77  F   UNL A   1      41.124  24.723  28.489  1.00  0.00    -0.205 F 
ATOM     78  C   UNL A   1      42.801  25.320  25.292  1.00  0.00     0.022 A 
BRANCH  76  79
ATOM     79  S   UNL A   1      42.108  22.849  26.244  1.00  0.00     0.127 S 
ATOM     80  O   UNL A   1      40.669  22.615  26.295  1.00  0.00    -0.237 OA
ATOM     81  O   UNL A   1      42.729  22.601  24.942  1.00  0.00    -0.237 OA
ATOM     82  O   UNL A   1      42.872  22.344  27.377  1.00  0.00    -0.744 OA
ENDBRANCH  76  79
ENDBRANCH  48  72
BRANCH  60  83
ATOM     83  C   UNL A   1      44.557  27.412  34.009  1.00  0.00     0.023 A 
ATOM     84  C   UNL A   1      45.824  28.027  33.938  1.00  0.00     0.012 A 
ATOM     85  C   UNL A   1      44.394  26.256  34.798  1.00  0.00     0.148 A 
ATOM     86  C   UNL A   1      46.916  27.480  34.611  1.00  0.00     0.002 A 
ATOM     87  C   UNL A   1      45.475  25.747  35.509  1.00  0.00     0.091 A 
ATOM     88  F   UNL A   1      43.186  25.676  34.839  1.00  0.00    -0.205 F 
ATOM     89  C   UNL A   1      46.739  26.350  35.406  1.00  0.00     0.022 A 
BRANCH  87  90
ATOM     90  S   UNL A   1      45.321  24.355  36.633  1.00  0.00     0.127 S 
ATOM     91  O   UNL A   1      44.354  24.864  37.605  1.00  0.00    -0.237 OA
ATOM     92  O   UNL A   1      44.808  23.304  35.755  1.00  0.00    -0.237 OA
ATOM     93  O   UNL A   1      46.658  24.110  37.156  1.00  0.00    -0.744 OA
ENDBRANCH  87  90
ENDBRANCH  60  83
ENDBRANCH  34  35
ENDBRANCH  26  29
ENDBRANCH  24  25
ENDBRANCH   1  24
TORSDOF 16
ENDMDL
MODEL 2
REMARK VINA RESULT:     -12.1      2.588      8.031
REMARK SMILES O=C(C[C@@H]1CN(c2nc3ccccc3s2)CCO1)NCCCCNC(=O)c1ccc(-c2c3nc(c(-c4cccc(S(=O)(=O)[O-])c4F)c4ccc([nH]4)c(-c4cccc(S(=O)(=O)[O-])c4F)c4nc(c(-c5cccc(S(=O)(=O)[O-])c5F)c5ccc2[nH]5)C=C4)C=C3)cc1
REMARK SMILES IDX 22 1 21 2 20 3 19 4 1 5 2 6 3 8 4 9 5 10 18 11 6 12 17 13
REMARK SMILES IDX 16 14 7 15 8 16 15 17 9 18 14 19 10 20 13 21 11 22 12 23
REMARK SMILES IDX 23 24 24 25 25 26 26 28 27 29 28 30 89 31 29 32 88 33 30 34
REMARK SMILES IDX 31 35 32 36 82 37 33 38 87 39 81 40 83 41 34 42 86 43 80 44
REMARK SMILES IDX 79 45 35 47 67 48 47 49 66 50 48 51 51 52 65 53 84 54 49 55
REMARK SMILES IDX 50 56 64 58 85 59 52 60 36 61 37 62 45 63 38 64 40 65 46 66
REMARK SMILES IDX 39 67 41 68 42 69 43 70 44 71 68 72 69 73 77 74 70 75 72 76
REMARK SMILES IDX 78 77 71 78 73 79 74 80 75 81 76 82 53 83 54 84 62 85 55 86
REMARK SMILES IDX 57 87 63 88 56 89 58 90 59 91 60 92 61 93
REMARK H PARENT 19 7 24 27 83 46 51 57
REMARK Flexibility Score: inf
ROOT
ATOM      1  C   UNL A   1      31.579  31.739  26.895  1.00  0.00     0.023 C 
ENDROOT
BRANCH   1   2
ATOM      2  C   UNL A   1      31.786  30.563  25.934  1.00  0.00     0.023 C 
BRANCH   2   3
ATOM      3  C   UNL A   1      30.778  30.478  24.788  1.00  0.00     0.116 C 
BRANCH   3   4
ATOM      4  N   UNL A   1      30.799  29.176  24.156  1.00  0.00    -0.356 N 
ATOM      5  O   UNL A   1      29.650  29.763  22.249  1.00  0.00    -0.275 OA
ATOM      6  C   UNL A   1      30.211  28.919  22.939  1.00  0.00     0.222 C 
ATOM      7  H   UNL A   1      31.256  28.438  24.620  1.00  0.00     0.163 HD
BRANCH   6   8
ATOM      8  C   UNL A   1      30.335  27.479  22.503  1.00  0.00     0.133 C 
BRANCH   8   9
ATOM      9  C   UNL A   1      30.864  26.621  23.646  1.00  0.00     0.147 C 
ATOM     10  C   UNL A   1      31.445  25.294  23.127  1.00  0.00     0.151 C 
ATOM     11  O   UNL A   1      29.772  26.368  24.562  1.00  0.00    -0.374 OA
ATOM     12  N   UNL A   1      31.849  24.489  24.274  1.00  0.00    -0.343 N 
ATOM     13  C   UNL A   1      30.227  25.604  25.699  1.00  0.00     0.182 C 
ATOM     14  C   UNL A   1      30.818  24.245  25.274  1.00  0.00     0.147 C 
BRANCH  12  15
ATOM     15  C   UNL A   1      33.060  23.894  24.343  1.00  0.00     0.186 A 
ATOM     16  N   UNL A   1      33.526  23.285  25.409  1.00  0.00    -0.220 NA
ATOM     17  S   UNL A   1      34.146  23.941  23.000  1.00  0.00    -0.097 S 
ATOM     18  C   UNL A   1      34.766  22.728  25.139  1.00  0.00     0.084 A 
ATOM     19  C   UNL A   1      35.289  23.015  23.878  1.00  0.00     0.056 A 
ATOM     20  C   UNL A   1      35.519  21.915  26.011  1.00  0.00     0.030 A 
ATOM     21  C   UNL A   1      36.555  22.563  23.473  1.00  0.00     0.021 A 
ATOM     22  C   UNL A   1      36.767  21.429  25.605  1.00  0.00     0.002 A 
ATOM     23  C   UNL A   1      37.282  21.761  24.355  1.00  0.00     0.002 A 
ENDBRANCH  12  15
ENDBRANCH   8   9
ENDBRANCH   6   8
ENDBRANCH   3   4
ENDBRANCH   2   3
ENDBRANCH   1   2
BRANCH   1  24
ATOM     24  C   UNL A   1      32.835  32.531  27.245  1.00  0.00     0.116 C 
BRANCH  24  25
ATOM     25  N   UNL A   1      32.548  33.917  27.583  1.00  0.00    -0.352 N 
ATOM     26  C   UNL A   1      33.108  34.712  28.554  1.00  0.00     0.251 C 
ATOM     27  H   UNL A   1      31.852  34.348  27.036  1.00  0.00     0.163 HD
ATOM     28  O   UNL A   1      32.624  35.818  28.788  1.00  0.00    -0.269 OA
BRANCH  26  29
ATOM     29  C   UNL A   1      34.271  34.235  29.337  1.00  0.00     0.039 A 
ATOM     30  C   UNL A   1      34.043  33.503  30.506  1.00  0.00     0.014 A 
ATOM     31  C   UNL A   1      35.581  34.506  28.931  1.00  0.00     0.014 A 
ATOM     32  C   UNL A   1      35.124  32.986  31.226  1.00  0.00     0.010 A 
ATOM     33  C   UNL A   1      36.653  33.926  29.605  1.00  0.00     0.010 A 
ATOM     34  C   UNL A   1      36.438  33.160  30.762  1.00  0.00    -0.014 A 
BRANCH  34  35
ATOM     35  C   UNL A   1      37.593  32.530  31.459  1.00  0.00     0.031 A 
ATOM     36  C   UNL A   1      38.330  31.377  30.831  1.00  0.00     0.074 A 
ATOM     37  C   UNL A   1      37.927  32.942  32.699  1.00  0.00     0.049 A 
ATOM     38  N   UNL A   1      39.317  30.667  31.317  1.00  0.00    -0.248 NA
ATOM     39  C   UNL A   1      37.887  30.948  29.495  1.00  0.00     0.031 C 
ATOM     40  C   UNL A   1      37.246  33.997  33.452  1.00  0.00     0.029 A 
ATOM     41  N   UNL A   1      38.906  32.502  33.558  1.00  0.00    -0.354 N 
ATOM     42  C   UNL A   1      39.591  29.693  30.364  1.00  0.00     0.074 A 
ATOM     43  C   UNL A   1      38.641  29.879  29.288  1.00  0.00     0.031 C 
ATOM     44  C   UNL A   1      37.825  34.123  34.657  1.00  0.00     0.029 A 
ATOM     45  C   UNL A   1      38.895  33.137  34.778  1.00  0.00     0.049 A 
ATOM     46  H   UNL A   1      39.553  31.800  33.322  1.00  0.00     0.167 HD
ATOM     47  C   UNL A   1      40.560  28.746  30.368  1.00  0.00     0.034 A 
ATOM     48  C   UNL A   1      39.648  32.942  35.878  1.00  0.00     0.034 A 
ATOM     49  C   UNL A   1      41.523  28.580  31.425  1.00  0.00     0.049 A 
ATOM     50  C   UNL A   1      40.733  31.898  35.850  1.00  0.00     0.074 A 
ATOM     51  C   UNL A   1      42.591  27.702  31.484  1.00  0.00     0.029 A 
ATOM     52  N   UNL A   1      41.529  29.295  32.612  1.00  0.00    -0.354 N 
ATOM     53  N   UNL A   1      41.072  31.087  34.877  1.00  0.00    -0.248 NA
ATOM     54  C   UNL A   1      41.563  31.768  37.055  1.00  0.00     0.031 C 
ATOM     55  C   UNL A   1      43.223  27.863  32.721  1.00  0.00     0.029 A 
ATOM     56  C   UNL A   1      42.574  28.871  33.416  1.00  0.00     0.049 A 
ATOM     57  H   UNL A   1      40.885  30.002  32.848  1.00  0.00     0.167 HD
ATOM     58  C   UNL A   1      42.175  30.379  35.339  1.00  0.00     0.074 A 
ATOM     59  C   UNL A   1      42.460  30.871  36.671  1.00  0.00     0.031 C 
ATOM     60  C   UNL A   1      42.881  29.400  34.720  1.00  0.00     0.034 A 
BRANCH  47  61
ATOM     61  C   UNL A   1      40.659  27.839  29.167  1.00  0.00     0.023 A 
ATOM     62  C   UNL A   1      39.817  26.711  29.075  1.00  0.00     0.012 A 
ATOM     63  C   UNL A   1      41.535  28.135  28.105  1.00  0.00     0.148 A 
ATOM     64  C   UNL A   1      39.875  25.868  27.965  1.00  0.00     0.002 A 
ATOM     65  C   UNL A   1      41.552  27.318  26.980  1.00  0.00     0.091 A 
ATOM     66  F   UNL A   1      42.339  29.201  28.217  1.00  0.00    -0.205 F 
ATOM     67  C   UNL A   1      40.734  26.178  26.914  1.00  0.00     0.022 A 
BRANCH  65  68
ATOM     68  S   UNL A   1      42.561  27.674  25.537  1.00  0.00     0.127 S 
ATOM     69  O   UNL A   1      42.312  26.496  24.705  1.00  0.00    -0.237 OA
ATOM     70  O   UNL A   1      41.959  28.910  25.038  1.00  0.00    -0.237 OA
ATOM     71  O   UNL A   1      43.926  27.815  26.024  1.00  0.00    -0.744 OA
ENDBRANCH  65  68
ENDBRANCH  47  61
BRANCH  48  72
ATOM     72  C   UNL A   1      39.431  33.782  37.090  1.00  0.00     0.023 A 
ATOM     73  C   UNL A   1      39.897  35.112  37.107  1.00  0.00     0.012 A 
ATOM     74  C   UNL A   1      38.751  33.279  38.215  1.00  0.00     0.148 A 
ATOM     75  C   UNL A   1      39.720  35.913  38.237  1.00  0.00     0.002 A 
ATOM     76  C   UNL A   1      38.527  34.099  39.314  1.00  0.00     0.091 A 
ATOM     77  F   UNL A   1      38.324  32.009  38.182  1.00  0.00    -0.205 F 
ATOM     78  C   UNL A   1      39.028  35.410  39.335  1.00  0.00     0.022 A 
BRANCH  76  79
ATOM     79  S   UNL A   1      37.530  33.581  40.716  1.00  0.00     0.127 S 
ATOM     80  O   UNL A   1      38.377  32.559  41.322  1.00  0.00    -0.237 OA
ATOM     81  O   UNL A   1      37.418  34.824  41.479  1.00  0.00    -0.237 OA
ATOM     82  O   UNL A   1      36.272  33.109  40.152  1.00  0.00    -0.744 OA
ENDBRANCH  76  79
ENDBRANCH  48  72
BRANCH  60  83
ATOM     83  C   UNL A   1      44.064  28.819  35.451  1.00  0.00     0.023 A 
ATOM     84  C   UNL A   1      45.353  29.352  35.247  1.00  0.00     0.012 A 
ATOM     85  C   UNL A   1      43.884  27.788  36.395  1.00  0.00     0.148 A 
ATOM     86  C   UNL A   1      46.449  28.843  35.944  1.00  0.00     0.002 A 
ATOM     87  C   UNL A   1      44.972  27.323  37.125  1.00  0.00     0.091 A 
ATOM     88  F   UNL A   1      42.654  27.283  36.563  1.00  0.00    -0.205 F 
ATOM     89  C   UNL A   1      46.257  27.840  36.891  1.00  0.00     0.022 A 
BRANCH  87  90
ATOM     90  S   UNL A   1      44.806  26.104  38.433  1.00  0.00     0.127 S 
ATOM     91  O   UNL A   1      44.210  24.978  37.716  1.00  0.00    -0.237 OA
ATOM     92  O   UNL A   1      46.195  25.900  38.843  1.00  0.00    -0.237 OA
ATOM     93  O   UNL A   1      43.958  26.714  39.448  1.00  0.00    -0.744 OA
ENDBRANCH  87  90
ENDBRANCH  60  83
ENDBRANCH  34  35
ENDBRANCH  26  29
ENDBRANCH  24  25
ENDBRANCH   1  24
TORSDOF 16
ENDMDL
MODEL 3
REMARK VINA RESULT:     -12.1      2.137      2.888
REMARK SMILES O=C(C[C@@H]1CN(c2nc3ccccc3s2)CCO1)NCCCCNC(=O)c1ccc(-c2c3nc(c(-c4cccc(S(=O)(=O)[O-])c4F)c4ccc([nH]4)c(-c4cccc(S(=O)(=O)[O-])c4F)c4nc(c(-c5cccc(S(=O)(=O)[O-])c5F)c5ccc2[nH]5)C=C4)C=C3)cc1
REMARK SMILES IDX 22 1 21 2 20 3 19 4 1 5 2 6 3 8 4 9 5 10 18 11 6 12 17 13
REMARK SMILES IDX 16 14 7 15 8 16 15 17 9 18 14 19 10 20 13 21 11 22 12 23
REMARK SMILES IDX 23 24 24 25 25 26 26 28 27 29 28 30 89 31 29 32 88 33 30 34
REMARK SMILES IDX 31 35 32 36 82 37 33 38 87 39 81 40 83 41 34 42 86 43 80 44
REMARK SMILES IDX 79 45 35 47 67 48 47 49 66 50 48 51 51 52 65 53 84 54 49 55
REMARK SMILES IDX 50 56 64 58 85 59 52 60 36 61 37 62 45 63 38 64 40 65 46 66
REMARK SMILES IDX 39 67 41 68 42 69 43 70 44 71 68 72 69 73 77 74 70 75 72 76
REMARK SMILES IDX 78 77 71 78 73 79 74 80 75 81 76 82 53 83 54 84 62 85 55 86
REMARK SMILES IDX 57 87 63 88 56 89 58 90 59 91 60 92 61 93
REMARK H PARENT 19 7 24 27 83 46 51 57
REMARK Flexibility Score: inf
ROOT
ATOM      1  C   UNL A   1      32.199  28.628  26.380  1.00  0.00     0.023 C 
ENDROOT
BRANCH   1   2
ATOM      2  C   UNL A   1      31.978  29.516  25.150  1.00  0.00     0.023 C 
BRANCH   2   3
ATOM      3  C   UNL A   1      30.912  29.016  24.175  1.00  0.00     0.116 C 
BRANCH   3   4
ATOM      4  N   UNL A   1      31.332  27.806  23.501  1.00  0.00    -0.356 N 
ATOM      5  O   UNL A   1      29.477  26.538  24.003  1.00  0.00    -0.275 OA
ATOM      6  C   UNL A   1      30.583  26.652  23.487  1.00  0.00     0.222 C 
ATOM      7  H   UNL A   1      32.196  27.809  23.029  1.00  0.00     0.163 HD
BRANCH   6   8
ATOM      8  C   UNL A   1      31.246  25.514  22.749  1.00  0.00     0.133 C 
BRANCH   8   9
ATOM      9  C   UNL A   1      32.142  24.719  23.691  1.00  0.00     0.147 C 
ATOM     10  C   UNL A   1      31.568  23.316  23.959  1.00  0.00     0.151 C 
ATOM     11  O   UNL A   1      32.262  25.458  24.930  1.00  0.00    -0.374 OA
ATOM     12  N   UNL A   1      32.424  22.647  24.931  1.00  0.00    -0.343 N 
ATOM     13  C   UNL A   1      33.150  24.779  25.844  1.00  0.00     0.182 C 
ATOM     14  C   UNL A   1      32.646  23.361  26.181  1.00  0.00     0.147 C 
BRANCH  12  15
ATOM     15  C   UNL A   1      32.876  21.387  24.744  1.00  0.00     0.186 A 
ATOM     16  N   UNL A   1      32.153  20.407  24.255  1.00  0.00    -0.220 NA
ATOM     17  S   UNL A   1      34.483  20.948  25.200  1.00  0.00    -0.097 S 
ATOM     18  C   UNL A   1      32.922  19.261  24.131  1.00  0.00     0.084 A 
ATOM     19  C   UNL A   1      34.219  19.352  24.634  1.00  0.00     0.056 A 
ATOM     20  C   UNL A   1      32.510  18.044  23.549  1.00  0.00     0.030 A 
ATOM     21  C   UNL A   1      35.105  18.263  24.623  1.00  0.00     0.021 A 
ATOM     22  C   UNL A   1      33.396  16.961  23.501  1.00  0.00     0.002 A 
ATOM     23  C   UNL A   1      34.673  17.068  24.044  1.00  0.00     0.002 A 
ENDBRANCH  12  15
ENDBRANCH   8   9
ENDBRANCH   6   8
ENDBRANCH   3   4
ENDBRANCH   2   3
ENDBRANCH   1   2
BRANCH   1  24
ATOM     24  C   UNL A   1      33.396  28.997  27.251  1.00  0.00     0.116 C 
BRANCH  24  25
ATOM     25  N   UNL A   1      33.538  30.434  27.429  1.00  0.00    -0.352 N 
ATOM     26  C   UNL A   1      34.565  31.144  28.002  1.00  0.00     0.251 C 
ATOM     27  H   UNL A   1      32.790  30.976  27.089  1.00  0.00     0.163 HD
ATOM     28  O   UNL A   1      34.433  32.352  28.198  1.00  0.00    -0.269 OA
BRANCH  26  29
ATOM     29  C   UNL A   1      35.816  30.463  28.408  1.00  0.00     0.039 A 
ATOM     30  C   UNL A   1      36.944  30.583  27.592  1.00  0.00     0.014 A 
ATOM     31  C   UNL A   1      35.882  29.706  29.581  1.00  0.00     0.014 A 
ATOM     32  C   UNL A   1      38.154  30.003  27.987  1.00  0.00     0.010 A 
ATOM     33  C   UNL A   1      37.106  29.196  30.011  1.00  0.00     0.010 A 
ATOM     34  C   UNL A   1      38.256  29.337  29.219  1.00  0.00    -0.014 A 
BRANCH  34  35
ATOM     35  C   UNL A   1      39.559  28.804  29.703  1.00  0.00     0.031 A 
ATOM     36  C   UNL A   1      40.311  29.502  30.805  1.00  0.00     0.074 A 
ATOM     37  C   UNL A   1      40.109  27.735  29.091  1.00  0.00     0.049 A 
ATOM     38  N   UNL A   1      41.484  29.218  31.311  1.00  0.00    -0.248 NA
ATOM     39  C   UNL A   1      39.675  30.688  31.400  1.00  0.00     0.031 C 
ATOM     40  C   UNL A   1      39.522  27.012  27.961  1.00  0.00     0.029 A 
ATOM     41  N   UNL A   1      41.301  27.088  29.314  1.00  0.00    -0.354 N 
ATOM     42  C   UNL A   1      41.740  30.203  32.258  1.00  0.00     0.074 A 
ATOM     43  C   UNL A   1      40.616  31.114  32.229  1.00  0.00     0.031 C 
ATOM     44  C   UNL A   1      40.352  26.024  27.591  1.00  0.00     0.029 A 
ATOM     45  C   UNL A   1      41.545  26.062  28.430  1.00  0.00     0.049 A 
ATOM     46  H   UNL A   1      41.920  27.334  30.038  1.00  0.00     0.167 HD
ATOM     47  C   UNL A   1      42.798  30.326  33.094  1.00  0.00     0.034 A 
ATOM     48  C   UNL A   1      42.613  25.251  28.298  1.00  0.00     0.034 A 
ATOM     49  C   UNL A   1      43.901  29.403  33.143  1.00  0.00     0.049 A 
ATOM     50  C   UNL A   1      43.767  25.393  29.254  1.00  0.00     0.074 A 
ATOM     51  C   UNL A   1      44.980  29.399  34.010  1.00  0.00     0.029 A 
ATOM     52  N   UNL A   1      44.075  28.329  32.284  1.00  0.00    -0.354 N 
ATOM     53  N   UNL A   1      43.920  26.241  30.243  1.00  0.00    -0.248 NA
ATOM     54  C   UNL A   1      44.879  24.445  29.102  1.00  0.00     0.031 C 
ATOM     55  C   UNL A   1      45.824  28.342  33.653  1.00  0.00     0.029 A 
ATOM     56  C   UNL A   1      45.250  27.662  32.591  1.00  0.00     0.049 A 
ATOM     57  H   UNL A   1      43.455  28.077  31.562  1.00  0.00     0.167 HD
ATOM     58  C   UNL A   1      45.123  25.905  30.851  1.00  0.00     0.074 A 
ATOM     59  C   UNL A   1      45.650  24.763  30.133  1.00  0.00     0.031 C 
ATOM     60  C   UNL A   1      45.742  26.497  31.902  1.00  0.00     0.034 A 
BRANCH  47  61
ATOM     61  C   UNL A   1      42.794  31.481  34.064  1.00  0.00     0.023 A 
ATOM     62  C   UNL A   1      43.406  32.699  33.700  1.00  0.00     0.012 A 
ATOM     63  C   UNL A   1      42.135  31.384  35.305  1.00  0.00     0.148 A 
ATOM     64  C   UNL A   1      43.397  33.788  34.571  1.00  0.00     0.002 A 
ATOM     65  C   UNL A   1      42.089  32.490  36.147  1.00  0.00     0.091 A 
ATOM     66  F   UNL A   1      41.574  30.214  35.642  1.00  0.00    -0.205 F 
ATOM     67  C   UNL A   1      42.730  33.686  35.789  1.00  0.00     0.022 A 
BRANCH  65  68
ATOM     68  S   UNL A   1      41.186  32.489  37.700  1.00  0.00     0.127 S 
ATOM     69  O   UNL A   1      39.889  31.953  37.288  1.00  0.00    -0.237 OA
ATOM     70  O   UNL A   1      41.987  31.581  38.521  1.00  0.00    -0.237 OA
ATOM     71  O   UNL A   1      41.172  33.871  38.159  1.00  0.00    -0.744 OA
ENDBRANCH  65  68
ENDBRANCH  47  61
BRANCH  48  72
ATOM     72  C   UNL A   1      42.625  24.200  27.241  1.00  0.00     0.023 A 
ATOM     73  C   UNL A   1      43.259  24.457  26.010  1.00  0.00     0.012 A 
ATOM     74  C   UNL A   1      42.029  22.943  27.457  1.00  0.00     0.148 A 
ATOM     75  C   UNL A   1      43.267  23.494  24.999  1.00  0.00     0.002 A 
ATOM     76  C   UNL A   1      42.091  21.968  26.468  1.00  0.00     0.091 A 
ATOM     77  F   UNL A   1      41.422  22.721  28.631  1.00  0.00    -0.205 F 
ATOM     78  C   UNL A   1      42.693  22.248  25.232  1.00  0.00     0.022 A 
BRANCH  76  79
ATOM     79  S   UNL A   1      41.498  20.293  26.729  1.00  0.00     0.127 S 
ATOM     80  O   UNL A   1      40.079  20.515  26.989  1.00  0.00    -0.237 OA
ATOM     81  O   UNL A   1      41.799  19.664  25.443  1.00  0.00    -0.237 OA
ATOM     82  O   UNL A   1      42.272  19.770  27.848  1.00  0.00    -0.744 OA
ENDBRANCH  76  79
ENDBRANCH  48  72
BRANCH  60  83
ATOM     83  C   UNL A   1      47.041  25.898  32.379  1.00  0.00     0.023 A 
ATOM     84  C   UNL A   1      48.266  26.354  31.852  1.00  0.00     0.012 A 
ATOM     85  C   UNL A   1      47.048  24.932  33.405  1.00  0.00     0.148 A 
ATOM     86  C   UNL A   1      49.474  25.830  32.311  1.00  0.00     0.002 A 
ATOM     87  C   UNL A   1      48.257  24.453  33.895  1.00  0.00     0.091 A 
ATOM     88  F   UNL A   1      45.872  24.498  33.882  1.00  0.00    -0.205 F 
ATOM     89  C   UNL A   1      49.471  24.891  33.340  1.00  0.00     0.022 A 
BRANCH  87  90
ATOM     90  S   UNL A   1      48.355  23.317  35.282  1.00  0.00     0.127 S 
ATOM     91  O   UNL A   1      49.799  23.220  35.486  1.00  0.00    -0.237 OA
ATOM     92  O   UNL A   1      47.639  24.046  36.329  1.00  0.00    -0.237 OA
ATOM     93  O   UNL A   1      47.704  22.090  34.845  1.00  0.00    -0.744 OA
ENDBRANCH  87  90
ENDBRANCH  60  83
ENDBRANCH  34  35
ENDBRANCH  26  29
ENDBRANCH  24  25
ENDBRANCH   1  24
TORSDOF 16
ENDMDL
