MODEL 1
REMARK VINA RESULT:     -10.6      0.000      0.000
REMARK SMILES CCN(CCC(=O)NCCCCNC(=O)c1ccc(-c2c3nc(c(-c4cccc(S(=O)(=O)[O-])c4F)c4ccc([nH]4)c(-c4cccc(S(=O)(=O)[O-])c4F)c4nc(c(-c5cccc(S(=O)(=O)[O-])c5F)c5ccc2[nH]5)C=C4)C=C3)cc1)C(=O)N(C)CCc1cccs1
REMARK SMILES IDX 6 1 7 2 8 3 5 5 4 6 3 7 2 8 1 9 79 10 80 11 81 12 82 13
REMARK SMILES IDX 83 14 84 15 85 16 86 17 89 18 87 19 88 20 9 21 10 22 11 23
REMARK SMILES IDX 12 24 13 25 14 26 15 28 16 29 17 30 78 31 18 32 77 33 19 34
REMARK SMILES IDX 20 35 21 36 71 37 22 38 76 39 70 40 72 41 23 42 75 43 69 44
REMARK SMILES IDX 68 45 24 47 56 48 36 49 55 50 37 51 40 52 54 53 73 54 38 55
REMARK SMILES IDX 39 56 53 58 74 59 41 60 25 61 26 62 34 63 27 64 29 65 35 66
REMARK SMILES IDX 28 67 30 68 31 69 32 70 33 71 57 72 58 73 66 74 59 75 61 76
REMARK SMILES IDX 67 77 60 78 62 79 63 80 64 81 65 82 42 83 43 84 51 85 44 86
REMARK SMILES IDX 46 87 52 88 45 89 47 90 48 91 49 92 50 93
REMARK H PARENT 8 4 13 27 72 46 40 57
REMARK Flexibility Score: inf
ROOT
ATOM      1  C   UNL A   1      32.030  26.358  21.835  1.00  0.00     0.221 C 
ATOM      2  O   UNL A   1      32.666  25.964  20.851  1.00  0.00    -0.275 OA
ATOM      3  N   UNL A   1      31.507  27.611  21.807  1.00  0.00    -0.356 N 
ATOM      4  H   UNL A   1      31.779  28.077  20.985  1.00  0.00     0.163 HD
ENDROOT
BRANCH   1   5
ATOM      5  C   UNL A   1      31.860  25.454  23.003  1.00  0.00     0.121 C 
BRANCH   5   6
ATOM      6  C   UNL A   1      33.161  25.345  23.762  1.00  0.00     0.131 C 
BRANCH   6   7
ATOM      7  N   UNL A   1      33.166  24.243  24.721  1.00  0.00    -0.324 N 
BRANCH   7   8
ATOM      8  C   UNL A   1      34.125  24.471  25.834  1.00  0.00     0.118 C 
ATOM      9  C   UNL A   1      35.511  23.852  25.899  1.00  0.00     0.027 C 
ENDBRANCH   7   8
BRANCH   7  10
ATOM     10  C   UNL A   1      32.374  23.084  24.550  1.00  0.00     0.319 C 
ATOM     11  O   UNL A   1      31.242  22.992  25.023  1.00  0.00    -0.248 OA
BRANCH  10  12
ATOM     12  N   UNL A   1      32.952  22.024  23.766  1.00  0.00    -0.327 N 
ATOM     13  C   UNL A   1      32.032  21.735  22.664  1.00  0.00     0.148 C 
BRANCH  12  14
ATOM     14  C   UNL A   1      33.465  20.733  24.425  1.00  0.00     0.126 C 
BRANCH  14  15
ATOM     15  C   UNL A   1      32.740  19.373  25.000  1.00  0.00     0.068 C 
BRANCH  15  16
ATOM     16  C   UNL A   1      33.059  17.810  25.053  1.00  0.00     0.006 A 
ATOM     17  C   UNL A   1      32.420  16.639  25.450  1.00  0.00     0.015 A 
ATOM     18  S   UNL A   1      34.654  17.301  24.519  1.00  0.00    -0.149 S 
ATOM     19  C   UNL A   1      33.183  15.437  25.469  1.00  0.00     0.012 A 
ATOM     20  C   UNL A   1      34.437  15.664  24.983  1.00  0.00     0.065 A 
ENDBRANCH  15  16
ENDBRANCH  14  15
ENDBRANCH  12  14
ENDBRANCH  10  12
ENDBRANCH   7  10
ENDBRANCH   6   7
ENDBRANCH   5   6
ENDBRANCH   1   5
BRANCH   3  21
ATOM     21  C   UNL A   1      30.652  28.489  22.639  1.00  0.00     0.116 C 
BRANCH  21  22
ATOM     22  C   UNL A   1      30.761  28.774  24.240  1.00  0.00     0.023 C 
BRANCH  22  23
ATOM     23  C   UNL A   1      31.756  28.858  25.479  1.00  0.00     0.023 C 
BRANCH  23  24
ATOM     24  C   UNL A   1      32.941  29.798  25.768  1.00  0.00     0.116 C 
BRANCH  24  25
ATOM     25  N   UNL A   1      32.576  31.076  26.340  1.00  0.00    -0.352 N 
ATOM     26  C   UNL A   1      33.280  31.837  27.255  1.00  0.00     0.251 C 
ATOM     27  H   UNL A   1      31.718  31.452  26.037  1.00  0.00     0.163 HD
ATOM     28  O   UNL A   1      32.826  32.880  27.661  1.00  0.00    -0.269 OA
BRANCH  26  29
ATOM     29  C   UNL A   1      34.565  31.317  27.791  1.00  0.00     0.039 A 
ATOM     30  C   UNL A   1      35.631  32.214  27.907  1.00  0.00     0.014 A 
ATOM     31  C   UNL A   1      34.715  29.986  28.184  1.00  0.00     0.014 A 
ATOM     32  C   UNL A   1      36.828  31.794  28.487  1.00  0.00     0.010 A 
ATOM     33  C   UNL A   1      35.891  29.582  28.815  1.00  0.00     0.010 A 
ATOM     34  C   UNL A   1      36.953  30.486  28.982  1.00  0.00    -0.014 A 
BRANCH  34  35
ATOM     35  C   UNL A   1      38.173  30.079  29.720  1.00  0.00     0.031 A 
ATOM     36  C   UNL A   1      38.412  30.566  31.121  1.00  0.00     0.074 A 
ATOM     37  C   UNL A   1      39.089  29.323  29.083  1.00  0.00     0.049 A 
ATOM     38  N   UNL A   1      39.400  30.293  31.930  1.00  0.00    -0.248 NA
ATOM     39  C   UNL A   1      37.429  31.514  31.673  1.00  0.00     0.031 C 
ATOM     40  C   UNL A   1      38.998  28.900  27.682  1.00  0.00     0.029 A 
ATOM     41  N   UNL A   1      40.275  28.785  29.512  1.00  0.00    -0.354 N 
ATOM     42  C   UNL A   1      39.181  31.058  33.070  1.00  0.00     0.074 A 
ATOM     43  C   UNL A   1      37.986  31.838  32.831  1.00  0.00     0.031 C 
ATOM     44  C   UNL A   1      40.069  28.151  27.375  1.00  0.00     0.029 A 
ATOM     45  C   UNL A   1      40.925  28.046  28.551  1.00  0.00     0.049 A 
ATOM     46  H   UNL A   1      40.627  28.915  30.422  1.00  0.00     0.167 HD
ATOM     47  C   UNL A   1      39.893  31.082  34.221  1.00  0.00     0.034 A 
ATOM     48  C   UNL A   1      42.073  27.344  28.622  1.00  0.00     0.034 A 
ATOM     49  C   UNL A   1      41.049  30.256  34.446  1.00  0.00     0.049 A 
ATOM     50  C   UNL A   1      42.778  27.283  29.949  1.00  0.00     0.074 A 
ATOM     51  C   UNL A   1      41.804  30.114  35.596  1.00  0.00     0.029 A 
ATOM     52  N   UNL A   1      41.613  29.421  33.489  1.00  0.00    -0.354 N 
ATOM     53  N   UNL A   1      42.462  27.880  31.075  1.00  0.00    -0.248 NA
ATOM     54  C   UNL A   1      43.962  26.420  30.038  1.00  0.00     0.031 C 
ATOM     55  C   UNL A   1      42.828  29.197  35.329  1.00  0.00     0.029 A 
ATOM     56  C   UNL A   1      42.702  28.756  34.019  1.00  0.00     0.049 A 
ATOM     57  H   UNL A   1      41.283  29.320  32.566  1.00  0.00     0.167 HD
ATOM     58  C   UNL A   1      43.389  27.449  32.012  1.00  0.00     0.074 A 
ATOM     59  C   UNL A   1      44.264  26.516  31.327  1.00  0.00     0.031 C 
ATOM     60  C   UNL A   1      43.521  27.801  33.315  1.00  0.00     0.034 A 
BRANCH  47  61
ATOM     61  C   UNL A   1      39.400  31.980  35.330  1.00  0.00     0.023 A 
ATOM     62  C   UNL A   1      38.407  31.507  36.215  1.00  0.00     0.012 A 
ATOM     63  C   UNL A   1      39.913  33.281  35.507  1.00  0.00     0.148 A 
ATOM     64  C   UNL A   1      37.894  32.328  37.219  1.00  0.00     0.002 A 
ATOM     65  C   UNL A   1      39.427  34.079  36.539  1.00  0.00     0.091 A 
ATOM     66  F   UNL A   1      40.845  33.723  34.652  1.00  0.00    -0.205 F 
ATOM     67  C   UNL A   1      38.408  33.611  37.384  1.00  0.00     0.022 A 
BRANCH  65  68
ATOM     68  S   UNL A   1      40.069  35.722  36.883  1.00  0.00     0.127 S 
ATOM     69  O   UNL A   1      39.623  36.466  35.708  1.00  0.00    -0.237 OA
ATOM     70  O   UNL A   1      39.375  36.070  38.125  1.00  0.00    -0.237 OA
ATOM     71  O   UNL A   1      41.511  35.568  37.019  1.00  0.00    -0.744 OA
ENDBRANCH  65  68
ENDBRANCH  47  61
BRANCH  48  72
ATOM     72  C   UNL A   1      42.537  26.557  27.442  1.00  0.00     0.023 A 
ATOM     73  C   UNL A   1      43.408  27.156  26.511  1.00  0.00     0.012 A 
ATOM     74  C   UNL A   1      42.186  25.203  27.275  1.00  0.00     0.148 A 
ATOM     75  C   UNL A   1      43.904  26.431  25.426  1.00  0.00     0.002 A 
ATOM     76  C   UNL A   1      42.724  24.470  26.220  1.00  0.00     0.091 A 
ATOM     77  F   UNL A   1      41.349  24.648  28.163  1.00  0.00    -0.205 F 
ATOM     78  C   UNL A   1      43.572  25.086  25.286  1.00  0.00     0.022 A 
BRANCH  76  79
ATOM     79  S   UNL A   1      42.459  22.701  26.046  1.00  0.00     0.127 S 
ATOM     80  O   UNL A   1      41.005  22.603  26.152  1.00  0.00    -0.237 OA
ATOM     81  O   UNL A   1      42.997  22.440  24.710  1.00  0.00    -0.237 OA
ATOM     82  O   UNL A   1      43.220  22.086  27.125  1.00  0.00    -0.744 OA
ENDBRANCH  76  79
ENDBRANCH  48  72
BRANCH  60  83
ATOM     83  C   UNL A   1      44.643  27.167  34.087  1.00  0.00     0.023 A 
ATOM     84  C   UNL A   1      45.868  27.850  34.218  1.00  0.00     0.012 A 
ATOM     85  C   UNL A   1      44.453  25.943  34.756  1.00  0.00     0.148 A 
ATOM     86  C   UNL A   1      46.897  27.312  34.988  1.00  0.00     0.002 A 
ATOM     87  C   UNL A   1      45.465  25.437  35.560  1.00  0.00     0.091 A 
ATOM     88  F   UNL A   1      43.286  25.300  34.596  1.00  0.00    -0.205 F 
ATOM     89  C   UNL A   1      46.691  26.114  35.669  1.00  0.00     0.022 A 
BRANCH  87  90
ATOM     90  S   UNL A   1      45.247  23.955  36.551  1.00  0.00     0.127 S 
ATOM     91  O   UNL A   1      44.225  23.237  35.792  1.00  0.00    -0.237 OA
ATOM     92  O   UNL A   1      46.579  23.350  36.505  1.00  0.00    -0.237 OA
ATOM     93  O   UNL A   1      44.843  24.416  37.873  1.00  0.00    -0.744 OA
ENDBRANCH  87  90
ENDBRANCH  60  83
ENDBRANCH  34  35
ENDBRANCH  26  29
ENDBRANCH  24  25
ENDBRANCH  23  24
ENDBRANCH  22  23
ENDBRANCH  21  22
ENDBRANCH   3  21
TORSDOF 22
ENDMDL
MODEL 2
REMARK VINA RESULT:     -10.4      2.031      2.690
REMARK SMILES CCN(CCC(=O)NCCCCNC(=O)c1ccc(-c2c3nc(c(-c4cccc(S(=O)(=O)[O-])c4F)c4ccc([nH]4)c(-c4cccc(S(=O)(=O)[O-])c4F)c4nc(c(-c5cccc(S(=O)(=O)[O-])c5F)c5ccc2[nH]5)C=C4)C=C3)cc1)C(=O)N(C)CCc1cccs1
REMARK SMILES IDX 6 1 7 2 8 3 5 5 4 6 3 7 2 8 1 9 79 10 80 11 81 12 82 13
REMARK SMILES IDX 83 14 84 15 85 16 86 17 89 18 87 19 88 20 9 21 10 22 11 23
REMARK SMILES IDX 12 24 13 25 14 26 15 28 16 29 17 30 78 31 18 32 77 33 19 34
REMARK SMILES IDX 20 35 21 36 71 37 22 38 76 39 70 40 72 41 23 42 75 43 69 44
REMARK SMILES IDX 68 45 24 47 56 48 36 49 55 50 37 51 40 52 54 53 73 54 38 55
REMARK SMILES IDX 39 56 53 58 74 59 41 60 25 61 26 62 34 63 27 64 29 65 35 66
REMARK SMILES IDX 28 67 30 68 31 69 32 70 33 71 57 72 58 73 66 74 59 75 61 76
REMARK SMILES IDX 67 77 60 78 62 79 63 80 64 81 65 82 42 83 43 84 51 85 44 86
REMARK SMILES IDX 46 87 52 88 45 89 47 90 48 91 49 92 50 93
REMARK H PARENT 8 4 13 27 72 46 40 57
REMARK Flexibility Score: inf
ROOT
ATOM      1  C   UNL A   1      32.926  26.284  22.319  1.00  0.00     0.221 C 
ATOM      2  O   UNL A   1      33.628  25.972  21.350  1.00  0.00    -0.275 OA
ATOM      3  N   UNL A   1      32.308  27.494  22.305  1.00  0.00    -0.356 N 
ATOM      4  H   UNL A   1      32.575  28.005  21.507  1.00  0.00     0.163 HD
ENDROOT
BRANCH   1   5
ATOM      5  C   UNL A   1      32.781  25.334  23.453  1.00  0.00     0.121 C 
BRANCH   5   6
ATOM      6  C   UNL A   1      34.026  25.362  24.307  1.00  0.00     0.131 C 
BRANCH   6   7
ATOM      7  N   UNL A   1      34.572  24.030  24.556  1.00  0.00    -0.324 N 
BRANCH   7   8
ATOM      8  C   UNL A   1      35.138  23.416  23.325  1.00  0.00     0.118 C 
ATOM      9  C   UNL A   1      36.550  22.864  23.228  1.00  0.00     0.027 C 
ENDBRANCH   7   8
BRANCH   7  10
ATOM     10  C   UNL A   1      34.507  23.407  25.824  1.00  0.00     0.319 C 
ATOM     11  O   UNL A   1      35.407  23.521  26.654  1.00  0.00    -0.248 OA
BRANCH  10  12
ATOM     12  N   UNL A   1      33.313  22.653  26.105  1.00  0.00    -0.327 N 
ATOM     13  C   UNL A   1      33.287  22.384  27.544  1.00  0.00     0.148 C 
BRANCH  12  14
ATOM     14  C   UNL A   1      32.950  21.400  25.291  1.00  0.00     0.126 C 
BRANCH  14  15
ATOM     15  C   UNL A   1      33.826  20.205  24.575  1.00  0.00     0.068 C 
BRANCH  15  16
ATOM     16  C   UNL A   1      33.935  18.616  24.674  1.00  0.00     0.006 A 
ATOM     17  C   UNL A   1      34.843  17.621  24.325  1.00  0.00     0.015 A 
ATOM     18  S   UNL A   1      32.566  17.761  25.369  1.00  0.00    -0.149 S 
ATOM     19  C   UNL A   1      34.432  16.264  24.462  1.00  0.00     0.012 A 
ATOM     20  C   UNL A   1      33.190  16.201  25.024  1.00  0.00     0.065 A 
ENDBRANCH  15  16
ENDBRANCH  14  15
ENDBRANCH  12  14
ENDBRANCH  10  12
ENDBRANCH   7  10
ENDBRANCH   6   7
ENDBRANCH   5   6
ENDBRANCH   1   5
BRANCH   3  21
ATOM     21  C   UNL A   1      31.355  28.277  23.125  1.00  0.00     0.116 C 
BRANCH  21  22
ATOM     22  C   UNL A   1      31.452  28.632  24.713  1.00  0.00     0.023 C 
BRANCH  22  23
ATOM     23  C   UNL A   1      32.253  28.354  26.060  1.00  0.00     0.023 C 
BRANCH  23  24
ATOM     24  C   UNL A   1      33.593  28.906  26.576  1.00  0.00     0.116 C 
BRANCH  24  25
ATOM     25  N   UNL A   1      33.565  30.299  26.967  1.00  0.00    -0.352 N 
ATOM     26  C   UNL A   1      34.525  31.014  27.660  1.00  0.00     0.251 C 
ATOM     27  H   UNL A   1      32.760  30.802  26.705  1.00  0.00     0.163 HD
ATOM     28  O   UNL A   1      34.341  32.176  27.936  1.00  0.00    -0.269 OA
BRANCH  26  29
ATOM     29  C   UNL A   1      35.750  30.314  28.125  1.00  0.00     0.039 A 
ATOM     30  C   UNL A   1      36.871  30.341  27.290  1.00  0.00     0.014 A 
ATOM     31  C   UNL A   1      35.803  29.661  29.358  1.00  0.00     0.014 A 
ATOM     32  C   UNL A   1      38.071  29.775  27.723  1.00  0.00     0.010 A 
ATOM     33  C   UNL A   1      37.017  29.146  29.814  1.00  0.00     0.010 A 
ATOM     34  C   UNL A   1      38.162  29.209  29.005  1.00  0.00    -0.014 A 
BRANCH  34  35
ATOM     35  C   UNL A   1      39.469  28.732  29.519  1.00  0.00     0.031 A 
ATOM     36  C   UNL A   1      40.110  29.398  30.702  1.00  0.00     0.074 A 
ATOM     37  C   UNL A   1      40.095  27.737  28.860  1.00  0.00     0.049 A 
ATOM     38  N   UNL A   1      41.228  29.101  31.309  1.00  0.00    -0.248 NA
ATOM     39  C   UNL A   1      39.422  30.576  31.256  1.00  0.00     0.031 C 
ATOM     40  C   UNL A   1      39.604  27.107  27.630  1.00  0.00     0.029 A 
ATOM     41  N   UNL A   1      41.275  27.086  29.113  1.00  0.00    -0.354 N 
ATOM     42  C   UNL A   1      41.398  30.071  32.290  1.00  0.00     0.074 A 
ATOM     43  C   UNL A   1      40.287  30.990  32.171  1.00  0.00     0.031 C 
ATOM     44  C   UNL A   1      40.463  26.148  27.249  1.00  0.00     0.029 A 
ATOM     45  C   UNL A   1      41.567  26.098  28.201  1.00  0.00     0.049 A 
ATOM     46  H   UNL A   1      41.857  27.304  29.876  1.00  0.00     0.167 HD
ATOM     47  C   UNL A   1      42.374  30.166  33.224  1.00  0.00     0.034 A 
ATOM     48  C   UNL A   1      42.600  25.234  28.154  1.00  0.00     0.034 A 
ATOM     49  C   UNL A   1      43.438  29.206  33.348  1.00  0.00     0.049 A 
ATOM     50  C   UNL A   1      43.603  25.278  29.275  1.00  0.00     0.074 A 
ATOM     51  C   UNL A   1      44.434  29.132  34.304  1.00  0.00     0.029 A 
ATOM     52  N   UNL A   1      43.636  28.141  32.478  1.00  0.00    -0.354 N 
ATOM     53  N   UNL A   1      43.655  26.099  30.298  1.00  0.00    -0.248 NA
ATOM     54  C   UNL A   1      44.655  24.254  29.270  1.00  0.00     0.031 C 
ATOM     55  C   UNL A   1      45.237  28.025  34.007  1.00  0.00     0.029 A 
ATOM     56  C   UNL A   1      44.733  27.400  32.875  1.00  0.00     0.049 A 
ATOM     57  H   UNL A   1      43.076  27.944  31.692  1.00  0.00     0.167 HD
ATOM     58  C   UNL A   1      44.727  25.680  31.072  1.00  0.00     0.074 A 
ATOM     59  C   UNL A   1      45.281  24.512  30.412  1.00  0.00     0.031 C 
ATOM     60  C   UNL A   1      45.225  26.216  32.214  1.00  0.00     0.034 A 
BRANCH  47  61
ATOM     61  C   UNL A   1      42.289  31.307  34.210  1.00  0.00     0.023 A 
ATOM     62  C   UNL A   1      43.223  32.363  34.129  1.00  0.00     0.012 A 
ATOM     63  C   UNL A   1      41.293  31.347  35.206  1.00  0.00     0.148 A 
ATOM     64  C   UNL A   1      43.204  33.406  35.053  1.00  0.00     0.002 A 
ATOM     65  C   UNL A   1      41.253  32.415  36.098  1.00  0.00     0.091 A 
ATOM     66  F   UNL A   1      40.422  30.332  35.281  1.00  0.00    -0.205 F 
ATOM     67  C   UNL A   1      42.216  33.435  36.033  1.00  0.00     0.022 A 
BRANCH  65  68
ATOM     68  S   UNL A   1      39.981  32.586  37.355  1.00  0.00     0.127 S 
ATOM     69  O   UNL A   1      39.146  31.415  37.092  1.00  0.00    -0.237 OA
ATOM     70  O   UNL A   1      40.759  32.513  38.593  1.00  0.00    -0.237 OA
ATOM     71  O   UNL A   1      39.348  33.875  37.113  1.00  0.00    -0.744 OA
ENDBRANCH  65  68
ENDBRANCH  47  61
BRANCH  48  72
ATOM     72  C   UNL A   1      42.653  24.195  27.085  1.00  0.00     0.023 A 
ATOM     73  C   UNL A   1      43.415  24.434  25.925  1.00  0.00     0.012 A 
ATOM     74  C   UNL A   1      42.019  22.946  27.239  1.00  0.00     0.148 A 
ATOM     75  C   UNL A   1      43.529  23.462  24.930  1.00  0.00     0.002 A 
ATOM     76  C   UNL A   1      42.177  21.961  26.268  1.00  0.00     0.091 A 
ATOM     77  F   UNL A   1      41.288  22.735  28.343  1.00  0.00    -0.205 F 
ATOM     78  C   UNL A   1      42.921  22.222  25.106  1.00  0.00     0.022 A 
BRANCH  76  79
ATOM     79  S   UNL A   1      41.544  20.292  26.479  1.00  0.00     0.127 S 
ATOM     80  O   UNL A   1      42.071  19.936  27.794  1.00  0.00    -0.237 OA
ATOM     81  O   UNL A   1      40.096  20.506  26.434  1.00  0.00    -0.237 OA
ATOM     82  O   UNL A   1      42.069  19.532  25.354  1.00  0.00    -0.744 OA
ENDBRANCH  76  79
ENDBRANCH  48  72
BRANCH  60  83
ATOM     83  C   UNL A   1      46.418  25.540  32.828  1.00  0.00     0.023 A 
ATOM     84  C   UNL A   1      47.712  25.998  32.515  1.00  0.00     0.012 A 
ATOM     85  C   UNL A   1      46.251  24.517  33.781  1.00  0.00     0.148 A 
ATOM     86  C   UNL A   1      48.828  25.431  33.126  1.00  0.00     0.002 A 
ATOM     87  C   UNL A   1      47.365  23.990  34.421  1.00  0.00     0.091 A 
ATOM     88  F   UNL A   1      45.010  24.082  34.044  1.00  0.00    -0.205 F 
ATOM     89  C   UNL A   1      48.654  24.438  34.088  1.00  0.00     0.022 A 
BRANCH  87  90
ATOM     90  S   UNL A   1      47.224  22.783  35.743  1.00  0.00     0.127 S 
ATOM     91  O   UNL A   1      47.818  23.503  36.868  1.00  0.00    -0.237 OA
ATOM     92  O   UNL A   1      45.776  22.591  35.837  1.00  0.00    -0.237 OA
ATOM     93  O   UNL A   1      47.956  21.608  35.290  1.00  0.00    -0.744 OA
ENDBRANCH  87  90
ENDBRANCH  60  83
ENDBRANCH  34  35
ENDBRANCH  26  29
ENDBRANCH  24  25
ENDBRANCH  23  24
ENDBRANCH  22  23
ENDBRANCH  21  22
ENDBRANCH   3  21
TORSDOF 22
ENDMDL
MODEL 3
REMARK VINA RESULT:     -10.2      1.801      2.421
REMARK SMILES CCN(CCC(=O)NCCCCNC(=O)c1ccc(-c2c3nc(c(-c4cccc(S(=O)(=O)[O-])c4F)c4ccc([nH]4)c(-c4cccc(S(=O)(=O)[O-])c4F)c4nc(c(-c5cccc(S(=O)(=O)[O-])c5F)c5ccc2[nH]5)C=C4)C=C3)cc1)C(=O)N(C)CCc1cccs1
REMARK SMILES IDX 6 1 7 2 8 3 5 5 4 6 3 7 2 8 1 9 79 10 80 11 81 12 82 13
REMARK SMILES IDX 83 14 84 15 85 16 86 17 89 18 87 19 88 20 9 21 10 22 11 23
REMARK SMILES IDX 12 24 13 25 14 26 15 28 16 29 17 30 78 31 18 32 77 33 19 34
REMARK SMILES IDX 20 35 21 36 71 37 22 38 76 39 70 40 72 41 23 42 75 43 69 44
REMARK SMILES IDX 68 45 24 47 56 48 36 49 55 50 37 51 40 52 54 53 73 54 38 55
REMARK SMILES IDX 39 56 53 58 74 59 41 60 25 61 26 62 34 63 27 64 29 65 35 66
REMARK SMILES IDX 28 67 30 68 31 69 32 70 33 71 57 72 58 73 66 74 59 75 61 76
REMARK SMILES IDX 67 77 60 78 62 79 63 80 64 81 65 82 42 83 43 84 51 85 44 86
REMARK SMILES IDX 46 87 52 88 45 89 47 90 48 91 49 92 50 93
REMARK H PARENT 8 4 13 27 72 46 40 57
REMARK Flexibility Score: inf
ROOT
ATOM      1  C   UNL A   1      33.135  26.496  22.252  1.00  0.00     0.221 C 
ATOM      2  O   UNL A   1      33.520  25.798  21.307  1.00  0.00    -0.275 OA
ATOM      3  N   UNL A   1      33.005  27.834  22.057  1.00  0.00    -0.356 N 
ATOM      4  H   UNL A   1      33.317  28.080  21.157  1.00  0.00     0.163 HD
ENDROOT
BRANCH   1   5
ATOM      5  C   UNL A   1      32.827  25.852  23.556  1.00  0.00     0.121 C 
BRANCH   5   6
ATOM      6  C   UNL A   1      31.742  24.817  23.374  1.00  0.00     0.131 C 
BRANCH   6   7
ATOM      7  N   UNL A   1      30.991  24.562  24.601  1.00  0.00    -0.324 N 
BRANCH   7   8
ATOM      8  C   UNL A   1      30.076  25.683  24.943  1.00  0.00     0.118 C 
ATOM      9  C   UNL A   1      29.270  26.461  23.917  1.00  0.00     0.027 C 
ENDBRANCH   7   8
BRANCH   7  10
ATOM     10  C   UNL A   1      31.176  23.393  25.375  1.00  0.00     0.319 C 
ATOM     11  O   UNL A   1      30.264  22.895  26.033  1.00  0.00    -0.248 OA
BRANCH  10  12
ATOM     12  N   UNL A   1      32.485  22.797  25.329  1.00  0.00    -0.327 N 
ATOM     13  C   UNL A   1      32.330  21.364  25.589  1.00  0.00     0.148 C 
BRANCH  12  14
ATOM     14  C   UNL A   1      33.660  23.389  26.124  1.00  0.00     0.126 C 
BRANCH  14  15
ATOM     15  C   UNL A   1      35.285  23.466  25.881  1.00  0.00     0.068 C 
BRANCH  15  16
ATOM     16  C   UNL A   1      36.490  22.436  25.693  1.00  0.00     0.006 A 
ATOM     17  C   UNL A   1      37.870  22.416  25.879  1.00  0.00     0.015 A 
ATOM     18  S   UNL A   1      36.096  20.854  25.036  1.00  0.00    -0.149 S 
ATOM     19  C   UNL A   1      38.590  21.283  25.403  1.00  0.00     0.012 A 
ATOM     20  C   UNL A   1      37.729  20.348  24.909  1.00  0.00     0.065 A 
ENDBRANCH  15  16
ENDBRANCH  14  15
ENDBRANCH  12  14
ENDBRANCH  10  12
ENDBRANCH   7  10
ENDBRANCH   6   7
ENDBRANCH   5   6
ENDBRANCH   1   5
BRANCH   3  21
ATOM     21  C   UNL A   1      32.539  29.035  22.789  1.00  0.00     0.116 C 
BRANCH  21  22
ATOM     22  C   UNL A   1      31.775  29.102  24.227  1.00  0.00     0.023 C 
BRANCH  22  23
ATOM     23  C   UNL A   1      31.851  29.668  25.712  1.00  0.00     0.023 C 
BRANCH  23  24
ATOM     24  C   UNL A   1      33.028  30.240  26.522  1.00  0.00     0.116 C 
BRANCH  24  25
ATOM     25  N   UNL A   1      32.848  31.603  26.974  1.00  0.00    -0.352 N 
ATOM     26  C   UNL A   1      33.708  32.374  27.736  1.00  0.00     0.251 C 
ATOM     27  H   UNL A   1      32.006  32.037  26.704  1.00  0.00     0.163 HD
ATOM     28  O   UNL A   1      33.400  33.496  28.058  1.00  0.00    -0.269 OA
BRANCH  26  29
ATOM     29  C   UNL A   1      34.980  31.774  28.217  1.00  0.00     0.039 A 
ATOM     30  C   UNL A   1      36.112  32.594  28.252  1.00  0.00     0.014 A 
ATOM     31  C   UNL A   1      35.056  30.445  28.638  1.00  0.00     0.014 A 
ATOM     32  C   UNL A   1      37.306  32.103  28.780  1.00  0.00     0.010 A 
ATOM     33  C   UNL A   1      36.234  29.972  29.217  1.00  0.00     0.010 A 
ATOM     34  C   UNL A   1      37.364  30.801  29.303  1.00  0.00    -0.014 A 
BRANCH  34  35
ATOM     35  C   UNL A   1      38.590  30.325  29.987  1.00  0.00     0.031 A 
ATOM     36  C   UNL A   1      38.918  30.793  31.376  1.00  0.00     0.074 A 
ATOM     37  C   UNL A   1      39.434  29.520  29.311  1.00  0.00     0.049 A 
ATOM     38  N   UNL A   1      39.923  30.463  32.142  1.00  0.00    -0.248 NA
ATOM     39  C   UNL A   1      38.015  31.793  31.971  1.00  0.00     0.031 C 
ATOM     40  C   UNL A   1      39.259  29.106  27.914  1.00  0.00     0.029 A 
ATOM     41  N   UNL A   1      40.605  28.916  29.687  1.00  0.00    -0.354 N 
ATOM     42  C   UNL A   1      39.797  31.236  33.290  1.00  0.00     0.074 A 
ATOM     43  C   UNL A   1      38.638  32.082  33.104  1.00  0.00     0.031 C 
ATOM     44  C   UNL A   1      40.271  28.300  27.560  1.00  0.00     0.029 A 
ATOM     45  C   UNL A   1      41.171  28.144  28.698  1.00  0.00     0.049 A 
ATOM     46  H   UNL A   1      41.004  29.023  30.580  1.00  0.00     0.167 HD
ATOM     47  C   UNL A   1      40.560  31.216  34.409  1.00  0.00     0.034 A 
ATOM     48  C   UNL A   1      42.280  27.379  28.718  1.00  0.00     0.034 A 
ATOM     49  C   UNL A   1      41.676  30.327  34.583  1.00  0.00     0.049 A 
ATOM     50  C   UNL A   1      43.037  27.275  30.013  1.00  0.00     0.074 A 
ATOM     51  C   UNL A   1      42.472  30.139  35.698  1.00  0.00     0.029 A 
ATOM     52  N   UNL A   1      42.150  29.464  33.601  1.00  0.00    -0.354 N 
ATOM     53  N   UNL A   1      42.805  27.885  31.151  1.00  0.00    -0.248 NA
ATOM     54  C   UNL A   1      44.174  26.346  30.049  1.00  0.00     0.031 C 
ATOM     55  C   UNL A   1      43.430  29.167  35.387  1.00  0.00     0.029 A 
ATOM     56  C   UNL A   1      43.222  28.738  34.083  1.00  0.00     0.049 A 
ATOM     57  H   UNL A   1      41.775  29.384  32.694  1.00  0.00     0.167 HD
ATOM     58  C   UNL A   1      43.746  27.400  32.048  1.00  0.00     0.074 A 
ATOM     59  C   UNL A   1      44.537  26.422  31.324  1.00  0.00     0.031 C 
ATOM     60  C   UNL A   1      43.955  27.740  33.344  1.00  0.00     0.034 A 
BRANCH  47  61
ATOM     61  C   UNL A   1      40.166  32.138  35.539  1.00  0.00     0.023 A 
ATOM     62  C   UNL A   1      40.849  33.363  35.703  1.00  0.00     0.012 A 
ATOM     63  C   UNL A   1      39.126  31.808  36.430  1.00  0.00     0.148 A 
ATOM     64  C   UNL A   1      40.544  34.215  36.764  1.00  0.00     0.002 A 
ATOM     65  C   UNL A   1      38.798  32.684  37.461  1.00  0.00     0.091 A 
ATOM     66  F   UNL A   1      38.496  30.636  36.272  1.00  0.00    -0.205 F 
ATOM     67  C   UNL A   1      39.516  33.878  37.639  1.00  0.00     0.022 A 
BRANCH  65  68
ATOM     68  S   UNL A   1      37.444  32.379  38.603  1.00  0.00     0.127 S 
ATOM     69  O   UNL A   1      37.815  33.226  39.735  1.00  0.00    -0.237 OA
ATOM     70  O   UNL A   1      36.287  32.853  37.842  1.00  0.00    -0.237 OA
ATOM     71  O   UNL A   1      37.453  30.946  38.861  1.00  0.00    -0.744 OA
ENDBRANCH  65  68
ENDBRANCH  47  61
BRANCH  48  72
ATOM     72  C   UNL A   1      42.647  26.570  27.519  1.00  0.00     0.023 A 
ATOM     73  C   UNL A   1      43.329  27.187  26.452  1.00  0.00     0.012 A 
ATOM     74  C   UNL A   1      42.395  25.185  27.458  1.00  0.00     0.148 A 
ATOM     75  C   UNL A   1      43.735  26.448  25.340  1.00  0.00     0.002 A 
ATOM     76  C   UNL A   1      42.847  24.444  26.370  1.00  0.00     0.091 A 
ATOM     77  F   UNL A   1      41.736  24.613  28.476  1.00  0.00    -0.205 F 
ATOM     78  C   UNL A   1      43.505  25.075  25.303  1.00  0.00     0.022 A 
BRANCH  76  79
ATOM     79  S   UNL A   1      42.715  22.652  26.307  1.00  0.00     0.127 S 
ATOM     80  O   UNL A   1      41.437  22.422  26.976  1.00  0.00    -0.237 OA
ATOM     81  O   UNL A   1      42.710  22.395  24.866  1.00  0.00    -0.237 OA
ATOM     82  O   UNL A   1      43.895  22.151  26.997  1.00  0.00    -0.744 OA
ENDBRANCH  76  79
ENDBRANCH  48  72
BRANCH  60  83
ATOM     83  C   UNL A   1      45.073  27.042  34.065  1.00  0.00     0.023 A 
ATOM     84  C   UNL A   1      46.346  27.643  34.119  1.00  0.00     0.012 A 
ATOM     85  C   UNL A   1      44.837  25.843  34.765  1.00  0.00     0.148 A 
ATOM     86  C   UNL A   1      47.376  27.047  34.842  1.00  0.00     0.002 A 
ATOM     87  C   UNL A   1      45.856  25.281  35.522  1.00  0.00     0.091 A 
ATOM     88  F   UNL A   1      43.623  25.279  34.679  1.00  0.00    -0.205 F 
ATOM     89  C   UNL A   1      47.128  25.875  35.553  1.00  0.00     0.022 A 
BRANCH  87  90
ATOM     90  S   UNL A   1      45.593  23.831  36.548  1.00  0.00     0.127 S 
ATOM     91  O   UNL A   1      44.941  22.918  35.613  1.00  0.00    -0.237 OA
ATOM     92  O   UNL A   1      46.960  23.456  36.915  1.00  0.00    -0.237 OA
ATOM     93  O   UNL A   1      44.774  24.278  37.667  1.00  0.00    -0.744 OA
ENDBRANCH  87  90
ENDBRANCH  60  83
ENDBRANCH  34  35
ENDBRANCH  26  29
ENDBRANCH  24  25
ENDBRANCH  23  24
ENDBRANCH  22  23
ENDBRANCH  21  22
ENDBRANCH   3  21
TORSDOF 22
ENDMDL
