MODEL 1
REMARK VINA RESULT:     -11.9      0.000      0.000
REMARK SMILES O=C(NCCCCNC(=O)[C@@H]1CC[C@H](CNC(=O)c2cccn2C2CC2)O1)c1ccc(-c2c3nc(c(-c4cccc(S(=O)(=O)[O-])c4F)c4ccc([nH]4)c(-c4cccc(S(=O)(=O)[O-])c4F)c4nc(c(-c5cccc(S(=O)(=O)[O-])c5F)c5ccc2[nH]5)C=C4)C=C3)cc1
REMARK SMILES IDX 6 1 5 2 4 3 3 4 1 5 2 6 28 8 29 9 90 10 30 11 89 12 31 13
REMARK SMILES IDX 32 14 33 15 83 16 34 17 88 18 82 19 84 20 35 21 87 22 81 23
REMARK SMILES IDX 80 24 36 26 68 27 48 28 67 29 49 30 52 31 66 32 85 33 50 34
REMARK SMILES IDX 51 35 65 37 86 38 53 39 37 40 38 41 46 42 39 43 41 44 47 45
REMARK SMILES IDX 40 46 42 47 43 48 44 49 45 50 69 51 70 52 78 53 71 54 73 55
REMARK SMILES IDX 79 56 72 57 74 58 75 59 76 60 77 61 54 62 55 63 63 64 56 65
REMARK SMILES IDX 58 66 64 67 57 68 59 69 60 70 61 71 62 72 7 73 8 74 9 75
REMARK SMILES IDX 10 77 11 78 12 79 27 80 13 81 14 82 15 83 16 84 17 85 18 87
REMARK SMILES IDX 19 88 20 89 23 90 21 91 22 92 24 93 25 94 26 95
REMARK H PARENT 3 7 84 25 52 36 8 76 16 86
REMARK Flexibility Score: inf
ROOT
ATOM      1  C   UNL A   1      32.210  29.905  26.270  1.00  0.00     0.023 C 
ENDROOT
BRANCH   1   2
ATOM      2  C   UNL A   1      33.580  29.243  26.115  1.00  0.00     0.023 C 
BRANCH   2   3
ATOM      3  C   UNL A   1      34.331  29.023  27.427  1.00  0.00     0.116 C 
BRANCH   3   4
ATOM      4  N   UNL A   1      34.654  30.233  28.158  1.00  0.00    -0.352 N 
ATOM      5  O   UNL A   1      35.785  31.741  29.349  1.00  0.00    -0.269 OA
ATOM      6  C   UNL A   1      35.812  30.662  28.760  1.00  0.00     0.251 C 
ATOM      7  H   UNL A   1      33.902  30.865  28.237  1.00  0.00     0.163 HD
BRANCH   6   8
ATOM      8  C   UNL A   1      37.050  29.844  28.759  1.00  0.00     0.039 A 
ATOM      9  C   UNL A   1      38.002  29.936  27.742  1.00  0.00     0.014 A 
ATOM     10  C   UNL A   1      37.288  28.998  29.854  1.00  0.00     0.014 A 
ATOM     11  C   UNL A   1      39.141  29.141  27.772  1.00  0.00     0.010 A 
ATOM     12  C   UNL A   1      38.455  28.229  29.912  1.00  0.00     0.010 A 
ATOM     13  C   UNL A   1      39.387  28.310  28.871  1.00  0.00    -0.014 A 
BRANCH  13  14
ATOM     14  C   UNL A   1      40.765  27.771  29.007  1.00  0.00     0.031 A 
ATOM     15  C   UNL A   1      40.858  26.321  28.521  1.00  0.00     0.074 A 
ATOM     16  C   UNL A   1      41.718  28.540  29.602  1.00  0.00     0.049 A 
ATOM     17  N   UNL A   1      41.532  25.319  29.013  1.00  0.00    -0.248 NA
ATOM     18  C   UNL A   1      39.939  25.881  27.439  1.00  0.00     0.031 C 
ATOM     19  C   UNL A   1      41.506  29.926  30.050  1.00  0.00     0.029 A 
ATOM     20  N   UNL A   1      43.037  28.323  29.959  1.00  0.00    -0.354 N 
ATOM     21  C   UNL A   1      41.279  24.215  28.172  1.00  0.00     0.074 A 
ATOM     22  C   UNL A   1      40.163  24.570  27.350  1.00  0.00     0.031 C 
ATOM     23  C   UNL A   1      42.613  30.402  30.658  1.00  0.00     0.029 A 
ATOM     24  C   UNL A   1      43.660  29.392  30.636  1.00  0.00     0.049 A 
ATOM     25  H   UNL A   1      43.507  27.481  29.755  1.00  0.00     0.167 HD
ATOM     26  C   UNL A   1      42.105  23.134  28.077  1.00  0.00     0.034 A 
ATOM     27  C   UNL A   1      44.915  29.472  31.178  1.00  0.00     0.034 A 
ATOM     28  C   UNL A   1      43.255  23.312  28.903  1.00  0.00     0.049 A 
ATOM     29  C   UNL A   1      45.613  28.212  30.874  1.00  0.00     0.074 A 
ATOM     30  C   UNL A   1      43.550  23.143  30.229  1.00  0.00     0.029 A 
ATOM     31  N   UNL A   1      44.310  23.937  28.288  1.00  0.00    -0.354 N 
ATOM     32  N   UNL A   1      46.127  27.897  29.720  1.00  0.00    -0.248 NA
ATOM     33  C   UNL A   1      45.703  27.182  31.920  1.00  0.00     0.031 C 
ATOM     34  C   UNL A   1      44.720  23.909  30.446  1.00  0.00     0.029 A 
ATOM     35  C   UNL A   1      45.071  24.545  29.252  1.00  0.00     0.049 A 
ATOM     36  H   UNL A   1      44.488  23.947  27.320  1.00  0.00     0.167 HD
ATOM     37  C   UNL A   1      46.278  26.534  29.827  1.00  0.00     0.074 A 
ATOM     38  C   UNL A   1      46.340  26.238  31.235  1.00  0.00     0.031 C 
ATOM     39  C   UNL A   1      45.802  25.725  28.847  1.00  0.00     0.034 A 
BRANCH  26  40
ATOM     40  C   UNL A   1      42.171  21.978  27.096  1.00  0.00     0.023 A 
ATOM     41  C   UNL A   1      41.109  21.034  27.200  1.00  0.00     0.012 A 
ATOM     42  C   UNL A   1      43.273  21.604  26.304  1.00  0.00     0.148 A 
ATOM     43  C   UNL A   1      41.180  19.754  26.652  1.00  0.00     0.002 A 
ATOM     44  C   UNL A   1      43.309  20.342  25.699  1.00  0.00     0.091 A 
ATOM     45  F   UNL A   1      44.331  22.415  26.205  1.00  0.00    -0.205 F 
ATOM     46  C   UNL A   1      42.288  19.405  25.904  1.00  0.00     0.022 A 
BRANCH  44  47
ATOM     47  S   UNL A   1      44.652  19.851  24.610  1.00  0.00     0.127 S 
ATOM     48  O   UNL A   1      44.529  20.798  23.513  1.00  0.00    -0.237 OA
ATOM     49  O   UNL A   1      45.833  20.049  25.456  1.00  0.00    -0.237 OA
ATOM     50  O   UNL A   1      44.386  18.446  24.305  1.00  0.00    -0.744 OA
ENDBRANCH  44  47
ENDBRANCH  26  40
BRANCH  27  51
ATOM     51  C   UNL A   1      45.629  30.477  32.055  1.00  0.00     0.023 A 
ATOM     52  C   UNL A   1      46.576  31.389  31.567  1.00  0.00     0.012 A 
ATOM     53  C   UNL A   1      45.355  30.563  33.453  1.00  0.00     0.148 A 
ATOM     54  C   UNL A   1      47.120  32.399  32.383  1.00  0.00     0.002 A 
ATOM     55  C   UNL A   1      45.828  31.607  34.243  1.00  0.00     0.091 A 
ATOM     56  F   UNL A   1      44.656  29.599  34.057  1.00  0.00    -0.205 F 
ATOM     57  C   UNL A   1      46.717  32.534  33.709  1.00  0.00     0.022 A 
BRANCH  55  58
ATOM     58  S   UNL A   1      45.241  31.874  35.928  1.00  0.00     0.127 S 
ATOM     59  O   UNL A   1      45.594  30.615  36.581  1.00  0.00    -0.237 OA
ATOM     60  O   UNL A   1      46.043  33.025  36.338  1.00  0.00    -0.237 OA
ATOM     61  O   UNL A   1      43.811  32.141  35.829  1.00  0.00    -0.744 OA
ENDBRANCH  55  58
ENDBRANCH  27  51
BRANCH  39  62
ATOM     62  C   UNL A   1      45.713  26.396  27.487  1.00  0.00     0.023 A 
ATOM     63  C   UNL A   1      44.453  26.829  27.044  1.00  0.00     0.012 A 
ATOM     64  C   UNL A   1      46.803  26.499  26.592  1.00  0.00     0.148 A 
ATOM     65  C   UNL A   1      44.282  27.349  25.758  1.00  0.00     0.002 A 
ATOM     66  C   UNL A   1      46.635  27.013  25.308  1.00  0.00     0.091 A 
ATOM     67  F   UNL A   1      47.996  26.075  27.004  1.00  0.00    -0.205 F 
ATOM     68  C   UNL A   1      45.369  27.443  24.892  1.00  0.00     0.022 A 
BRANCH  66  69
ATOM     69  S   UNL A   1      47.961  27.119  24.091  1.00  0.00     0.127 S 
ATOM     70  O   UNL A   1      48.382  25.722  23.965  1.00  0.00    -0.237 OA
ATOM     71  O   UNL A   1      47.261  27.642  22.921  1.00  0.00    -0.237 OA
ATOM     72  O   UNL A   1      48.978  28.001  24.652  1.00  0.00    -0.744 OA
ENDBRANCH  66  69
ENDBRANCH  39  62
ENDBRANCH  13  14
ENDBRANCH   6   8
ENDBRANCH   3   4
ENDBRANCH   2   3
ENDBRANCH   1   2
BRANCH   1  73
ATOM     73  C   UNL A   1      31.343  29.872  25.017  1.00  0.00     0.116 C 
BRANCH  73  74
ATOM     74  N   UNL A   1      32.071  29.371  23.862  1.00  0.00    -0.354 N 
ATOM     75  C   UNL A   1      31.911  28.180  23.212  1.00  0.00     0.249 C 
ATOM     76  H   UNL A   1      32.767  29.967  23.503  1.00  0.00     0.163 HD
ATOM     77  O   UNL A   1      32.602  27.953  22.218  1.00  0.00    -0.272 OA
BRANCH  75  78
ATOM     78  C   UNL A   1      30.893  27.174  23.770  1.00  0.00     0.207 C 
ATOM     79  C   UNL A   1      31.379  26.452  25.019  1.00  0.00     0.045 C 
ATOM     80  O   UNL A   1      30.590  26.157  22.794  1.00  0.00    -0.363 OA
ATOM     81  C   UNL A   1      30.748  25.089  24.878  1.00  0.00     0.037 C 
ATOM     82  C   UNL A   1      30.788  24.860  23.377  1.00  0.00     0.138 C 
BRANCH  82  83
ATOM     83  C   UNL A   1      32.116  24.285  22.858  1.00  0.00     0.148 C 
BRANCH  83  84
ATOM     84  N   UNL A   1      32.116  22.830  22.813  1.00  0.00    -0.348 N 
ATOM     85  C   UNL A   1      32.588  21.924  23.726  1.00  0.00     0.268 C 
ATOM     86  H   UNL A   1      31.717  22.439  22.004  1.00  0.00     0.163 HD
ATOM     87  O   UNL A   1      32.483  20.728  23.437  1.00  0.00    -0.268 OA
BRANCH  85  88
ATOM     88  C   UNL A   1      33.093  22.393  24.989  1.00  0.00     0.107 A 
ATOM     89  C   UNL A   1      32.480  22.216  26.229  1.00  0.00     0.033 A 
ATOM     90  N   UNL A   1      34.313  22.984  25.249  1.00  0.00    -0.340 N 
ATOM     91  C   UNL A   1      33.329  22.722  27.235  1.00  0.00     0.020 A 
ATOM     92  C   UNL A   1      34.463  23.172  26.603  1.00  0.00     0.086 A 
BRANCH  90  93
ATOM     93  C   UNL A   1      35.336  23.485  24.345  1.00  0.00     0.087 C 
ATOM     94  C   UNL A   1      36.833  23.481  24.551  1.00  0.00     0.027 C 
ATOM     95  C   UNL A   1      36.230  22.531  23.574  1.00  0.00     0.027 C 
ENDBRANCH  90  93
ENDBRANCH  85  88
ENDBRANCH  83  84
ENDBRANCH  82  83
ENDBRANCH  75  78
ENDBRANCH  73  74
ENDBRANCH   1  73
TORSDOF 18
ENDMDL
MODEL 2
REMARK VINA RESULT:     -11.5      2.680      8.630
REMARK SMILES O=C(NCCCCNC(=O)[C@@H]1CC[C@H](CNC(=O)c2cccn2C2CC2)O1)c1ccc(-c2c3nc(c(-c4cccc(S(=O)(=O)[O-])c4F)c4ccc([nH]4)c(-c4cccc(S(=O)(=O)[O-])c4F)c4nc(c(-c5cccc(S(=O)(=O)[O-])c5F)c5ccc2[nH]5)C=C4)C=C3)cc1
REMARK SMILES IDX 6 1 5 2 4 3 3 4 1 5 2 6 28 8 29 9 90 10 30 11 89 12 31 13
REMARK SMILES IDX 32 14 33 15 83 16 34 17 88 18 82 19 84 20 35 21 87 22 81 23
REMARK SMILES IDX 80 24 36 26 68 27 48 28 67 29 49 30 52 31 66 32 85 33 50 34
REMARK SMILES IDX 51 35 65 37 86 38 53 39 37 40 38 41 46 42 39 43 41 44 47 45
REMARK SMILES IDX 40 46 42 47 43 48 44 49 45 50 69 51 70 52 78 53 71 54 73 55
REMARK SMILES IDX 79 56 72 57 74 58 75 59 76 60 77 61 54 62 55 63 63 64 56 65
REMARK SMILES IDX 58 66 64 67 57 68 59 69 60 70 61 71 62 72 7 73 8 74 9 75
REMARK SMILES IDX 10 77 11 78 12 79 27 80 13 81 14 82 15 83 16 84 17 85 18 87
REMARK SMILES IDX 19 88 20 89 23 90 21 91 22 92 24 93 25 94 26 95
REMARK H PARENT 3 7 84 25 52 36 8 76 16 86
REMARK Flexibility Score: inf
ROOT
ATOM      1  C   UNL A   1      36.711  20.126  25.027  1.00  0.00     0.023 C 
ENDROOT
BRANCH   1   2
ATOM      2  C   UNL A   1      38.141  19.693  24.702  1.00  0.00     0.023 C 
BRANCH   2   3
ATOM      3  C   UNL A   1      39.128  19.844  25.858  1.00  0.00     0.116 C 
BRANCH   3   4
ATOM      4  N   UNL A   1      40.225  18.894  25.854  1.00  0.00    -0.352 N 
ATOM      5  O   UNL A   1      42.285  18.049  25.976  1.00  0.00    -0.269 OA
ATOM      6  C   UNL A   1      41.571  19.045  26.082  1.00  0.00     0.251 C 
ATOM      7  H   UNL A   1      39.954  17.970  25.650  1.00  0.00     0.163 HD
BRANCH   6   8
ATOM      8  C   UNL A   1      42.175  20.364  26.393  1.00  0.00     0.039 A 
ATOM      9  C   UNL A   1      42.621  21.233  25.395  1.00  0.00     0.014 A 
ATOM     10  C   UNL A   1      42.241  20.765  27.737  1.00  0.00     0.014 A 
ATOM     11  C   UNL A   1      43.195  22.453  25.731  1.00  0.00     0.010 A 
ATOM     12  C   UNL A   1      42.775  22.011  28.078  1.00  0.00     0.010 A 
ATOM     13  C   UNL A   1      43.245  22.860  27.068  1.00  0.00    -0.014 A 
BRANCH  13  14
ATOM     14  C   UNL A   1      43.535  24.295  27.321  1.00  0.00     0.031 A 
ATOM     15  C   UNL A   1      42.258  25.093  27.605  1.00  0.00     0.074 A 
ATOM     16  C   UNL A   1      44.814  24.742  27.186  1.00  0.00     0.049 A 
ATOM     17  N   UNL A   1      41.927  26.296  27.230  1.00  0.00    -0.248 NA
ATOM     18  C   UNL A   1      41.119  24.390  28.252  1.00  0.00     0.031 C 
ATOM     19  C   UNL A   1      45.969  23.879  26.889  1.00  0.00     0.029 A 
ATOM     20  N   UNL A   1      45.403  25.993  27.257  1.00  0.00    -0.354 N 
ATOM     21  C   UNL A   1      40.651  26.549  27.779  1.00  0.00     0.074 A 
ATOM     22  C   UNL A   1      40.138  25.292  28.228  1.00  0.00     0.031 C 
ATOM     23  C   UNL A   1      47.090  24.618  26.752  1.00  0.00     0.029 A 
ATOM     24  C   UNL A   1      46.785  26.022  26.978  1.00  0.00     0.049 A 
ATOM     25  H   UNL A   1      44.893  26.803  27.487  1.00  0.00     0.167 HD
ATOM     26  C   UNL A   1      40.157  27.803  27.991  1.00  0.00     0.034 A 
ATOM     27  C   UNL A   1      47.639  27.089  26.896  1.00  0.00     0.034 A 
ATOM     28  C   UNL A   1      41.123  28.787  27.623  1.00  0.00     0.049 A 
ATOM     29  C   UNL A   1      46.873  28.300  27.237  1.00  0.00     0.074 A 
ATOM     30  C   UNL A   1      41.526  29.383  26.459  1.00  0.00     0.029 A 
ATOM     31  N   UNL A   1      41.976  29.156  28.632  1.00  0.00    -0.354 N 
ATOM     32  N   UNL A   1      46.531  28.659  28.440  1.00  0.00    -0.248 NA
ATOM     33  C   UNL A   1      46.391  29.162  26.148  1.00  0.00     0.031 C 
ATOM     34  C   UNL A   1      42.799  29.931  26.748  1.00  0.00     0.029 A 
ATOM     35  C   UNL A   1      43.137  29.615  28.067  1.00  0.00     0.049 A 
ATOM     36  H   UNL A   1      41.786  29.101  29.596  1.00  0.00     0.167 HD
ATOM     37  C   UNL A   1      45.529  29.572  28.202  1.00  0.00     0.074 A 
ATOM     38  C   UNL A   1      45.738  30.069  26.866  1.00  0.00     0.031 C 
ATOM     39  C   UNL A   1      44.343  29.452  28.849  1.00  0.00     0.034 A 
BRANCH  26  40
ATOM     40  C   UNL A   1      38.959  28.313  28.769  1.00  0.00     0.023 A 
ATOM     41  C   UNL A   1      37.953  28.950  27.985  1.00  0.00     0.012 A 
ATOM     42  C   UNL A   1      38.859  28.463  30.165  1.00  0.00     0.148 A 
ATOM     43  C   UNL A   1      36.978  29.779  28.536  1.00  0.00     0.002 A 
ATOM     44  C   UNL A   1      37.836  29.242  30.718  1.00  0.00     0.091 A 
ATOM     45  F   UNL A   1      39.797  27.941  30.962  1.00  0.00    -0.205 F 
ATOM     46  C   UNL A   1      36.924  29.930  29.908  1.00  0.00     0.022 A 
BRANCH  44  47
ATOM     47  S   UNL A   1      37.615  29.394  32.496  1.00  0.00     0.127 S 
ATOM     48  O   UNL A   1      37.600  28.005  32.929  1.00  0.00    -0.237 OA
ATOM     49  O   UNL A   1      38.809  30.143  32.899  1.00  0.00    -0.237 OA
ATOM     50  O   UNL A   1      36.374  30.150  32.652  1.00  0.00    -0.744 OA
ENDBRANCH  44  47
ENDBRANCH  26  40
BRANCH  27  51
ATOM     51  C   UNL A   1      49.075  27.269  26.452  1.00  0.00     0.023 A 
ATOM     52  C   UNL A   1      50.171  27.134  27.317  1.00  0.00     0.012 A 
ATOM     53  C   UNL A   1      49.394  27.571  25.094  1.00  0.00     0.148 A 
ATOM     54  C   UNL A   1      51.496  27.172  26.843  1.00  0.00     0.002 A 
ATOM     55  C   UNL A   1      50.698  27.530  24.609  1.00  0.00     0.091 A 
ATOM     56  F   UNL A   1      48.431  27.949  24.250  1.00  0.00    -0.205 F 
ATOM     57  C   UNL A   1      51.760  27.330  25.485  1.00  0.00     0.022 A 
BRANCH  55  58
ATOM     58  S   UNL A   1      51.063  27.620  22.844  1.00  0.00     0.127 S 
ATOM     59  O   UNL A   1      50.959  29.053  22.579  1.00  0.00    -0.237 OA
ATOM     60  O   UNL A   1      52.424  27.085  22.800  1.00  0.00    -0.237 OA
ATOM     61  O   UNL A   1      50.070  26.791  22.174  1.00  0.00    -0.744 OA
ENDBRANCH  55  58
ENDBRANCH  27  51
BRANCH  39  62
ATOM     62  C   UNL A   1      44.440  28.731  30.182  1.00  0.00     0.023 A 
ATOM     63  C   UNL A   1      44.114  27.366  30.221  1.00  0.00     0.012 A 
ATOM     64  C   UNL A   1      44.722  29.383  31.405  1.00  0.00     0.148 A 
ATOM     65  C   UNL A   1      44.072  26.671  31.433  1.00  0.00     0.002 A 
ATOM     66  C   UNL A   1      44.677  28.693  32.615  1.00  0.00     0.091 A 
ATOM     67  F   UNL A   1      45.017  30.680  31.373  1.00  0.00    -0.205 F 
ATOM     68  C   UNL A   1      44.354  27.331  32.628  1.00  0.00     0.022 A 
BRANCH  66  69
ATOM     69  S   UNL A   1      44.962  29.467  34.219  1.00  0.00     0.127 S 
ATOM     70  O   UNL A   1      44.628  28.389  35.151  1.00  0.00    -0.237 OA
ATOM     71  O   UNL A   1      46.386  29.785  34.155  1.00  0.00    -0.237 OA
ATOM     72  O   UNL A   1      44.073  30.619  34.295  1.00  0.00    -0.744 OA
ENDBRANCH  66  69
ENDBRANCH  39  62
ENDBRANCH  13  14
ENDBRANCH   6   8
ENDBRANCH   3   4
ENDBRANCH   2   3
ENDBRANCH   1   2
BRANCH   1  73
ATOM     73  C   UNL A   1      36.532  21.626  25.229  1.00  0.00     0.116 C 
BRANCH  73  74
ATOM     74  N   UNL A   1      36.179  22.305  23.993  1.00  0.00    -0.354 N 
ATOM     75  C   UNL A   1      35.031  22.986  23.699  1.00  0.00     0.249 C 
ATOM     76  H   UNL A   1      36.854  22.270  23.277  1.00  0.00     0.163 HD
ATOM     77  O   UNL A   1      34.935  23.534  22.599  1.00  0.00    -0.272 OA
BRANCH  75  78
ATOM     78  C   UNL A   1      33.908  23.012  24.746  1.00  0.00     0.207 C 
ATOM     79  C   UNL A   1      32.815  21.984  24.486  1.00  0.00     0.045 C 
ATOM     80  O   UNL A   1      33.266  24.303  24.778  1.00  0.00    -0.363 OA
ATOM     81  C   UNL A   1      31.578  22.686  24.990  1.00  0.00     0.037 C 
ATOM     82  C   UNL A   1      31.848  24.136  24.625  1.00  0.00     0.138 C 
BRANCH  82  83
ATOM     83  C   UNL A   1      31.460  24.511  23.186  1.00  0.00     0.148 C 
BRANCH  83  84
ATOM     84  N   UNL A   1      32.559  25.122  22.452  1.00  0.00    -0.348 N 
ATOM     85  C   UNL A   1      32.842  26.447  22.241  1.00  0.00     0.268 C 
ATOM     86  H   UNL A   1      33.193  24.490  22.047  1.00  0.00     0.163 HD
ATOM     87  O   UNL A   1      33.838  26.706  21.558  1.00  0.00    -0.268 OA
BRANCH  85  88
ATOM     88  C   UNL A   1      32.036  27.452  22.881  1.00  0.00     0.107 A 
ATOM     89  C   UNL A   1      30.741  27.814  22.513  1.00  0.00     0.033 A 
ATOM     90  N   UNL A   1      32.314  28.154  24.036  1.00  0.00    -0.340 N 
ATOM     91  C   UNL A   1      30.248  28.754  23.441  1.00  0.00     0.020 A 
ATOM     92  C   UNL A   1      31.233  28.931  24.383  1.00  0.00     0.086 A 
BRANCH  90  93
ATOM     93  C   UNL A   1      33.537  28.251  24.817  1.00  0.00     0.087 C 
ATOM     94  C   UNL A   1      33.698  28.794  26.217  1.00  0.00     0.027 C 
ATOM     95  C   UNL A   1      33.786  27.323  25.992  1.00  0.00     0.027 C 
ENDBRANCH  90  93
ENDBRANCH  85  88
ENDBRANCH  83  84
ENDBRANCH  82  83
ENDBRANCH  75  78
ENDBRANCH  73  74
ENDBRANCH   1  73
TORSDOF 18
ENDMDL
MODEL 3
REMARK VINA RESULT:     -11.3      4.725      9.823
REMARK SMILES O=C(NCCCCNC(=O)[C@@H]1CC[C@H](CNC(=O)c2cccn2C2CC2)O1)c1ccc(-c2c3nc(c(-c4cccc(S(=O)(=O)[O-])c4F)c4ccc([nH]4)c(-c4cccc(S(=O)(=O)[O-])c4F)c4nc(c(-c5cccc(S(=O)(=O)[O-])c5F)c5ccc2[nH]5)C=C4)C=C3)cc1
REMARK SMILES IDX 6 1 5 2 4 3 3 4 1 5 2 6 28 8 29 9 90 10 30 11 89 12 31 13
REMARK SMILES IDX 32 14 33 15 83 16 34 17 88 18 82 19 84 20 35 21 87 22 81 23
REMARK SMILES IDX 80 24 36 26 68 27 48 28 67 29 49 30 52 31 66 32 85 33 50 34
REMARK SMILES IDX 51 35 65 37 86 38 53 39 37 40 38 41 46 42 39 43 41 44 47 45
REMARK SMILES IDX 40 46 42 47 43 48 44 49 45 50 69 51 70 52 78 53 71 54 73 55
REMARK SMILES IDX 79 56 72 57 74 58 75 59 76 60 77 61 54 62 55 63 63 64 56 65
REMARK SMILES IDX 58 66 64 67 57 68 59 69 60 70 61 71 62 72 7 73 8 74 9 75
REMARK SMILES IDX 10 77 11 78 12 79 27 80 13 81 14 82 15 83 16 84 17 85 18 87
REMARK SMILES IDX 19 88 20 89 23 90 21 91 22 92 24 93 25 94 26 95
REMARK H PARENT 3 7 84 25 52 36 8 76 16 86
REMARK Flexibility Score: inf
ROOT
ATOM      1  C   UNL A   1      36.252  23.491  25.169  1.00  0.00     0.023 C 
ENDROOT
BRANCH   1   2
ATOM      2  C   UNL A   1      37.674  23.120  25.594  1.00  0.00     0.023 C 
BRANCH   2   3
ATOM      3  C   UNL A   1      38.368  24.164  26.468  1.00  0.00     0.116 C 
BRANCH   3   4
ATOM      4  N   UNL A   1      39.747  24.441  26.111  1.00  0.00    -0.352 N 
ATOM      5  O   UNL A   1      41.737  25.440  25.996  1.00  0.00    -0.269 OA
ATOM      6  C   UNL A   1      40.614  25.434  26.497  1.00  0.00     0.251 C 
ATOM      7  H   UNL A   1      40.132  23.796  25.474  1.00  0.00     0.163 HD
BRANCH   6   8
ATOM      8  C   UNL A   1      40.214  26.506  27.442  1.00  0.00     0.039 A 
ATOM      9  C   UNL A   1      39.567  26.231  28.649  1.00  0.00     0.014 A 
ATOM     10  C   UNL A   1      40.558  27.831  27.128  1.00  0.00     0.014 A 
ATOM     11  C   UNL A   1      39.197  27.266  29.498  1.00  0.00     0.010 A 
ATOM     12  C   UNL A   1      40.228  28.872  28.001  1.00  0.00     0.010 A 
ATOM     13  C   UNL A   1      39.554  28.585  29.194  1.00  0.00    -0.014 A 
BRANCH  13  14
ATOM     14  C   UNL A   1      39.446  29.577  30.294  1.00  0.00     0.031 A 
ATOM     15  C   UNL A   1      40.353  29.218  31.475  1.00  0.00     0.074 A 
ATOM     16  C   UNL A   1      38.537  30.586  30.185  1.00  0.00     0.049 A 
ATOM     17  N   UNL A   1      40.134  29.323  32.756  1.00  0.00    -0.248 NA
ATOM     18  C   UNL A   1      41.612  28.480  31.196  1.00  0.00     0.031 C 
ATOM     19  C   UNL A   1      37.699  30.823  28.999  1.00  0.00     0.029 A 
ATOM     20  N   UNL A   1      38.126  31.599  31.034  1.00  0.00    -0.354 N 
ATOM     21  C   UNL A   1      41.304  28.868  33.401  1.00  0.00     0.074 A 
ATOM     22  C   UNL A   1      42.088  28.199  32.409  1.00  0.00     0.031 C 
ATOM     23  C   UNL A   1      36.855  31.854  29.215  1.00  0.00     0.029 A 
ATOM     24  C   UNL A   1      37.081  32.408  30.541  1.00  0.00     0.049 A 
ATOM     25  H   UNL A   1      38.534  31.744  31.918  1.00  0.00     0.167 HD
ATOM     26  C   UNL A   1      41.647  29.215  34.675  1.00  0.00     0.034 A 
ATOM     27  C   UNL A   1      36.407  33.433  31.148  1.00  0.00     0.034 A 
ATOM     28  C   UNL A   1      40.686  30.119  35.219  1.00  0.00     0.049 A 
ATOM     29  C   UNL A   1      37.018  33.646  32.471  1.00  0.00     0.074 A 
ATOM     30  C   UNL A   1      39.459  30.010  35.815  1.00  0.00     0.029 A 
ATOM     31  N   UNL A   1      40.952  31.445  34.987  1.00  0.00    -0.354 N 
ATOM     32  N   UNL A   1      38.148  34.253  32.688  1.00  0.00    -0.248 NA
ATOM     33  C   UNL A   1      36.349  33.088  33.656  1.00  0.00     0.031 C 
ATOM     34  C   UNL A   1      38.883  31.299  35.712  1.00  0.00     0.029 A 
ATOM     35  C   UNL A   1      39.768  32.134  35.024  1.00  0.00     0.049 A 
ATOM     36  H   UNL A   1      41.842  31.833  34.823  1.00  0.00     0.167 HD
ATOM     37  C   UNL A   1      38.464  33.841  33.962  1.00  0.00     0.074 A 
ATOM     38  C   UNL A   1      37.224  33.455  34.587  1.00  0.00     0.031 C 
ATOM     39  C   UNL A   1      39.695  33.334  34.220  1.00  0.00     0.034 A 
BRANCH  26  40
ATOM     40  C   UNL A   1      42.930  29.059  35.469  1.00  0.00     0.023 A 
ATOM     41  C   UNL A   1      44.022  29.857  35.019  1.00  0.00     0.012 A 
ATOM     42  C   UNL A   1      43.228  28.048  36.401  1.00  0.00     0.148 A 
ATOM     43  C   UNL A   1      45.344  29.598  35.377  1.00  0.00     0.002 A 
ATOM     44  C   UNL A   1      44.550  27.836  36.810  1.00  0.00     0.091 A 
ATOM     45  F   UNL A   1      42.266  27.225  36.826  1.00  0.00    -0.205 F 
ATOM     46  C   UNL A   1      45.609  28.579  36.272  1.00  0.00     0.022 A 
BRANCH  44  47
ATOM     47  S   UNL A   1      44.972  26.615  38.061  1.00  0.00     0.127 S 
ATOM     48  O   UNL A   1      44.601  27.291  39.295  1.00  0.00    -0.237 OA
ATOM     49  O   UNL A   1      44.110  25.486  37.703  1.00  0.00    -0.237 OA
ATOM     50  O   UNL A   1      46.395  26.349  37.854  1.00  0.00    -0.744 OA
ENDBRANCH  44  47
ENDBRANCH  26  40
BRANCH  27  51
ATOM     51  C   UNL A   1      35.184  34.253  30.798  1.00  0.00     0.023 A 
ATOM     52  C   UNL A   1      34.396  34.014  29.663  1.00  0.00     0.012 A 
ATOM     53  C   UNL A   1      34.750  35.324  31.636  1.00  0.00     0.148 A 
ATOM     54  C   UNL A   1      33.190  34.706  29.442  1.00  0.00     0.002 A 
ATOM     55  C   UNL A   1      33.521  35.954  31.463  1.00  0.00     0.091 A 
ATOM     56  F   UNL A   1      35.550  35.784  32.601  1.00  0.00    -0.205 F 
ATOM     57  C   UNL A   1      32.731  35.646  30.361  1.00  0.00     0.022 A 
BRANCH  55  58
ATOM     58  S   UNL A   1      32.850  37.093  32.692  1.00  0.00     0.127 S 
ATOM     59  O   UNL A   1      33.776  36.922  33.810  1.00  0.00    -0.237 OA
ATOM     60  O   UNL A   1      32.961  38.374  31.994  1.00  0.00    -0.237 OA
ATOM     61  O   UNL A   1      31.481  36.665  32.948  1.00  0.00    -0.744 OA
ENDBRANCH  55  58
ENDBRANCH  27  51
BRANCH  39  62
ATOM     62  C   UNL A   1      40.773  33.828  33.271  1.00  0.00     0.023 A 
ATOM     63  C   UNL A   1      41.070  33.046  32.143  1.00  0.00     0.012 A 
ATOM     64  C   UNL A   1      41.577  34.963  33.523  1.00  0.00     0.148 A 
ATOM     65  C   UNL A   1      42.126  33.383  31.291  1.00  0.00     0.002 A 
ATOM     66  C   UNL A   1      42.634  35.299  32.679  1.00  0.00     0.091 A 
ATOM     67  F   UNL A   1      41.308  35.697  34.600  1.00  0.00    -0.205 F 
ATOM     68  C   UNL A   1      42.906  34.507  31.557  1.00  0.00     0.022 A 
BRANCH  66  69
ATOM     69  S   UNL A   1      43.740  36.694  32.967  1.00  0.00     0.127 S 
ATOM     70  O   UNL A   1      44.869  36.061  33.651  1.00  0.00    -0.237 OA
ATOM     71  O   UNL A   1      44.034  37.136  31.607  1.00  0.00    -0.237 OA
ATOM     72  O   UNL A   1      43.006  37.651  33.786  1.00  0.00    -0.744 OA
ENDBRANCH  66  69
ENDBRANCH  39  62
ENDBRANCH  13  14
ENDBRANCH   6   8
ENDBRANCH   3   4
ENDBRANCH   2   3
ENDBRANCH   1   2
BRANCH   1  73
ATOM     73  C   UNL A   1      35.462  22.351  24.537  1.00  0.00     0.116 C 
BRANCH  73  74
ATOM     74  N   UNL A   1      34.459  22.835  23.601  1.00  0.00    -0.354 N 
ATOM     75  C   UNL A   1      33.146  23.125  23.843  1.00  0.00     0.249 C 
ATOM     76  H   UNL A   1      34.767  22.970  22.676  1.00  0.00     0.163 HD
ATOM     77  O   UNL A   1      32.460  23.566  22.920  1.00  0.00    -0.272 OA
BRANCH  75  78
ATOM     78  C   UNL A   1      32.586  22.862  25.248  1.00  0.00     0.207 C 
ATOM     79  C   UNL A   1      31.096  22.550  25.257  1.00  0.00     0.045 C 
ATOM     80  O   UNL A   1      32.775  24.011  26.099  1.00  0.00    -0.363 OA
ATOM     81  C   UNL A   1      30.642  23.151  26.565  1.00  0.00     0.037 C 
ATOM     82  C   UNL A   1      31.518  24.386  26.684  1.00  0.00     0.138 C 
BRANCH  82  83
ATOM     83  C   UNL A   1      30.979  25.620  25.944  1.00  0.00     0.148 C 
BRANCH  83  84
ATOM     84  N   UNL A   1      30.999  26.819  26.768  1.00  0.00    -0.348 N 
ATOM     85  C   UNL A   1      31.637  28.015  26.562  1.00  0.00     0.268 C 
ATOM     86  H   UNL A   1      30.477  26.763  27.600  1.00  0.00     0.163 HD
ATOM     87  O   UNL A   1      31.508  28.879  27.435  1.00  0.00    -0.268 OA
BRANCH  85  88
ATOM     88  C   UNL A   1      32.339  28.236  25.325  1.00  0.00     0.107 A 
ATOM     89  C   UNL A   1      33.688  27.969  25.095  1.00  0.00     0.033 A 
ATOM     90  N   UNL A   1      31.814  28.622  24.108  1.00  0.00    -0.340 N 
ATOM     91  C   UNL A   1      33.978  28.216  23.737  1.00  0.00     0.020 A 
ATOM     92  C   UNL A   1      32.798  28.598  23.147  1.00  0.00     0.086 A 
BRANCH  90  93
ATOM     93  C   UNL A   1      30.489  29.107  23.757  1.00  0.00     0.087 C 
ATOM     94  C   UNL A   1      29.902  29.272  22.375  1.00  0.00     0.027 C 
ATOM     95  C   UNL A   1      29.424  28.157  23.240  1.00  0.00     0.027 C 
ENDBRANCH  90  93
ENDBRANCH  85  88
ENDBRANCH  83  84
ENDBRANCH  82  83
ENDBRANCH  75  78
ENDBRANCH  73  74
ENDBRANCH   1  73
TORSDOF 18
ENDMDL
