MODEL 1
REMARK VINA RESULT:     -11.9      0.000      0.000
REMARK SMILES CC[C@H]1CC[C@@](C(=O)NCCCCNC(=O)c2ccc(-c3c4nc(c(-c5cccc(S(=O)(=O)[O-])c5F)c5ccc([nH]5)c(-c5cccc(S(=O)(=O)[O-])c5F)c5nc(c(-c6cccc(S(=O)(=O)[O-])c6F)c6ccc3[nH]6)C=C5)C=C4)cc2)(C2CCCC2)C1
REMARK SMILES IDX 12 1 11 2 10 3 9 4 7 5 8 6 6 8 3 9 4 10 85 11 5 12 2 13 1 14
REMARK SMILES IDX 80 15 81 16 84 17 82 18 83 19 13 20 14 21 15 22 16 24 17 25
REMARK SMILES IDX 18 26 79 27 19 28 78 29 20 30 21 31 22 32 72 33 23 34 77 35
REMARK SMILES IDX 71 36 73 37 24 38 76 39 70 40 69 41 25 43 57 44 37 45 56 46
REMARK SMILES IDX 38 47 41 48 55 49 74 50 39 51 40 52 54 54 75 55 42 56 26 57
REMARK SMILES IDX 27 58 35 59 28 60 30 61 36 62 29 63 31 64 32 65 33 66 34 67
REMARK SMILES IDX 58 68 59 69 67 70 60 71 62 72 68 73 61 74 63 75 64 76 65 77
REMARK SMILES IDX 66 78 43 79 44 80 52 81 45 82 47 83 53 84 46 85 48 86 49 87
REMARK SMILES IDX 50 88 51 89
REMARK H PARENT 9 7 14 23 73 42 41 53
REMARK Flexibility Score: inf
ROOT
ATOM      1  C   UNL A   1      32.251  29.552  25.206  1.00  0.00     0.023 C 
ENDROOT
BRANCH   1   2
ATOM      2  C   UNL A   1      33.304  28.973  24.257  1.00  0.00     0.023 C 
BRANCH   2   3
ATOM      3  C   UNL A   1      33.358  27.448  24.215  1.00  0.00     0.116 C 
BRANCH   3   4
ATOM      4  N   UNL A   1      33.432  26.937  22.864  1.00  0.00    -0.356 N 
ATOM      5  C   UNL A   1      33.427  25.682  22.347  1.00  0.00     0.226 C 
ATOM      6  O   UNL A   1      33.371  25.638  21.113  1.00  0.00    -0.274 OA
ATOM      7  H   UNL A   1      33.497  27.643  22.181  1.00  0.00     0.163 HD
BRANCH   5   8
ATOM      8  C   UNL A   1      33.428  24.377  23.205  1.00  0.00     0.052 C 
ATOM      9  C   UNL A   1      32.112  22.263  22.926  1.00  0.00    -0.010 C 
ATOM     10  C   UNL A   1      31.381  23.151  23.932  1.00  0.00     0.005 C 
ATOM     11  C   UNL A   1      33.177  23.162  22.279  1.00  0.00     0.020 C 
ATOM     12  C   UNL A   1      32.291  24.336  24.248  1.00  0.00     0.017 C 
BRANCH   9  13
ATOM     13  C   UNL A   1      32.692  20.988  23.559  1.00  0.00     0.000 C 
ATOM     14  C   UNL A   1      32.248  20.787  25.001  1.00  0.00     0.004 C 
ENDBRANCH   9  13
BRANCH   8  15
ATOM     15  C   UNL A   1      34.848  24.269  23.882  1.00  0.00     0.004 C 
ATOM     16  C   UNL A   1      34.851  24.112  25.412  1.00  0.00     0.005 C 
ATOM     17  C   UNL A   1      35.727  23.086  23.463  1.00  0.00     0.005 C 
ATOM     18  C   UNL A   1      36.278  23.689  25.754  1.00  0.00     0.000 C 
ATOM     19  C   UNL A   1      36.846  23.044  24.495  1.00  0.00     0.000 C 
ENDBRANCH   8  15
ENDBRANCH   5   8
ENDBRANCH   3   4
ENDBRANCH   2   3
ENDBRANCH   1   2
BRANCH   1  20
ATOM     20  C   UNL A   1      32.755  29.924  26.597  1.00  0.00     0.116 C 
BRANCH  20  21
ATOM     21  N   UNL A   1      32.706  31.355  26.862  1.00  0.00    -0.352 N 
ATOM     22  C   UNL A   1      33.597  32.134  27.562  1.00  0.00     0.251 C 
ATOM     23  H   UNL A   1      31.926  31.829  26.491  1.00  0.00     0.163 HD
ATOM     24  O   UNL A   1      33.339  33.310  27.788  1.00  0.00    -0.269 OA
BRANCH  22  25
ATOM     25  C   UNL A   1      34.852  31.534  28.064  1.00  0.00     0.039 A 
ATOM     26  C   UNL A   1      35.996  32.331  28.148  1.00  0.00     0.014 A 
ATOM     27  C   UNL A   1      34.889  30.200  28.479  1.00  0.00     0.014 A 
ATOM     28  C   UNL A   1      37.160  31.810  28.715  1.00  0.00     0.010 A 
ATOM     29  C   UNL A   1      36.027  29.706  29.109  1.00  0.00     0.010 A 
ATOM     30  C   UNL A   1      37.174  30.504  29.235  1.00  0.00    -0.014 A 
BRANCH  30  31
ATOM     31  C   UNL A   1      38.369  29.958  29.927  1.00  0.00     0.031 A 
ATOM     32  C   UNL A   1      38.746  30.462  31.295  1.00  0.00     0.074 A 
ATOM     33  C   UNL A   1      39.171  29.085  29.285  1.00  0.00     0.049 A 
ATOM     34  N   UNL A   1      39.793  30.168  32.021  1.00  0.00    -0.248 NA
ATOM     35  C   UNL A   1      37.842  31.445  31.916  1.00  0.00     0.031 C 
ATOM     36  C   UNL A   1      38.958  28.582  27.926  1.00  0.00     0.029 A 
ATOM     37  N   UNL A   1      40.344  28.489  29.678  1.00  0.00    -0.354 N 
ATOM     38  C   UNL A   1      39.695  30.955  33.163  1.00  0.00     0.074 A 
ATOM     39  C   UNL A   1      38.505  31.763  33.018  1.00  0.00     0.031 C 
ATOM     40  C   UNL A   1      39.964  27.755  27.600  1.00  0.00     0.029 A 
ATOM     41  C   UNL A   1      40.909  27.691  28.710  1.00  0.00     0.049 A 
ATOM     42  H   UNL A   1      40.744  28.622  30.567  1.00  0.00     0.167 HD
ATOM     43  C   UNL A   1      40.506  30.981  34.248  1.00  0.00     0.034 A 
ATOM     44  C   UNL A   1      42.061  26.991  28.715  1.00  0.00     0.034 A 
ATOM     45  C   UNL A   1      41.661  30.142  34.410  1.00  0.00     0.049 A 
ATOM     46  C   UNL A   1      42.920  27.004  29.952  1.00  0.00     0.074 A 
ATOM     47  C   UNL A   1      42.497  30.030  35.507  1.00  0.00     0.029 A 
ATOM     48  N   UNL A   1      42.148  29.270  33.447  1.00  0.00    -0.354 N 
ATOM     49  N   UNL A   1      42.726  27.635  31.083  1.00  0.00    -0.248 NA
ATOM     50  C   UNL A   1      44.136  26.179  29.925  1.00  0.00     0.031 C 
ATOM     51  C   UNL A   1      43.499  29.104  35.201  1.00  0.00     0.029 A 
ATOM     52  C   UNL A   1      43.274  28.621  33.922  1.00  0.00     0.049 A 
ATOM     53  H   UNL A   1      41.751  29.133  32.557  1.00  0.00     0.167 HD
ATOM     54  C   UNL A   1      43.770  27.253  31.917  1.00  0.00     0.074 A 
ATOM     55  C   UNL A   1      44.584  26.321  31.165  1.00  0.00     0.031 C 
ATOM     56  C   UNL A   1      44.038  27.648  33.186  1.00  0.00     0.034 A 
BRANCH  43  57
ATOM     57  C   UNL A   1      40.135  31.907  35.376  1.00  0.00     0.023 A 
ATOM     58  C   UNL A   1      40.768  33.164  35.477  1.00  0.00     0.012 A 
ATOM     59  C   UNL A   1      39.124  31.568  36.296  1.00  0.00     0.148 A 
ATOM     60  C   UNL A   1      40.426  34.054  36.493  1.00  0.00     0.002 A 
ATOM     61  C   UNL A   1      38.757  32.479  37.281  1.00  0.00     0.091 A 
ATOM     62  F   UNL A   1      38.547  30.362  36.198  1.00  0.00    -0.205 F 
ATOM     63  C   UNL A   1      39.414  33.716  37.388  1.00  0.00     0.022 A 
BRANCH  61  64
ATOM     64  S   UNL A   1      37.412  32.174  38.431  1.00  0.00     0.127 S 
ATOM     65  O   UNL A   1      37.958  32.717  39.675  1.00  0.00    -0.237 OA
ATOM     66  O   UNL A   1      36.324  32.961  37.850  1.00  0.00    -0.237 OA
ATOM     67  O   UNL A   1      37.193  30.735  38.421  1.00  0.00    -0.744 OA
ENDBRANCH  61  64
ENDBRANCH  43  57
BRANCH  44  68
ATOM     68  C   UNL A   1      42.434  26.160  27.535  1.00  0.00     0.023 A 
ATOM     69  C   UNL A   1      43.206  26.733  26.505  1.00  0.00     0.012 A 
ATOM     70  C   UNL A   1      42.051  24.808  27.434  1.00  0.00     0.148 A 
ATOM     71  C   UNL A   1      43.561  25.986  25.380  1.00  0.00     0.002 A 
ATOM     72  C   UNL A   1      42.455  24.055  26.337  1.00  0.00     0.091 A 
ATOM     73  F   UNL A   1      41.307  24.284  28.417  1.00  0.00    -0.205 F 
ATOM     74  C   UNL A   1      43.193  24.646  25.301  1.00  0.00     0.022 A 
BRANCH  72  75
ATOM     75  S   UNL A   1      42.140  22.290  26.215  1.00  0.00     0.127 S 
ATOM     76  O   UNL A   1      40.684  22.253  26.110  1.00  0.00    -0.237 OA
ATOM     77  O   UNL A   1      42.856  21.939  24.988  1.00  0.00    -0.237 OA
ATOM     78  O   UNL A   1      42.706  21.708  27.425  1.00  0.00    -0.744 OA
ENDBRANCH  72  75
ENDBRANCH  44  68
BRANCH  56  79
ATOM     79  C   UNL A   1      45.237  27.045  33.869  1.00  0.00     0.023 A 
ATOM     80  C   UNL A   1      46.487  27.691  33.796  1.00  0.00     0.012 A 
ATOM     81  C   UNL A   1      45.105  25.881  34.652  1.00  0.00     0.148 A 
ATOM     82  C   UNL A   1      47.593  27.173  34.467  1.00  0.00     0.002 A 
ATOM     83  C   UNL A   1      46.200  25.397  35.358  1.00  0.00     0.091 A 
ATOM     84  F   UNL A   1      43.912  25.270  34.694  1.00  0.00    -0.205 F 
ATOM     85  C   UNL A   1      47.448  26.035  35.257  1.00  0.00     0.022 A 
BRANCH  83  86
ATOM     86  S   UNL A   1      46.082  23.996  36.476  1.00  0.00     0.127 S 
ATOM     87  O   UNL A   1      45.511  22.969  35.608  1.00  0.00    -0.237 OA
ATOM     88  O   UNL A   1      47.479  23.775  36.847  1.00  0.00    -0.237 OA
ATOM     89  O   UNL A   1      45.229  24.432  37.575  1.00  0.00    -0.744 OA
ENDBRANCH  83  86
ENDBRANCH  56  79
ENDBRANCH  30  31
ENDBRANCH  22  25
ENDBRANCH  20  21
ENDBRANCH   1  20
TORSDOF 16
ENDMDL
MODEL 2
REMARK VINA RESULT:     -11.7      1.441      7.982
REMARK SMILES CC[C@H]1CC[C@@](C(=O)NCCCCNC(=O)c2ccc(-c3c4nc(c(-c5cccc(S(=O)(=O)[O-])c5F)c5ccc([nH]5)c(-c5cccc(S(=O)(=O)[O-])c5F)c5nc(c(-c6cccc(S(=O)(=O)[O-])c6F)c6ccc3[nH]6)C=C5)C=C4)cc2)(C2CCCC2)C1
REMARK SMILES IDX 12 1 11 2 10 3 9 4 7 5 8 6 6 8 3 9 4 10 85 11 5 12 2 13 1 14
REMARK SMILES IDX 80 15 81 16 84 17 82 18 83 19 13 20 14 21 15 22 16 24 17 25
REMARK SMILES IDX 18 26 79 27 19 28 78 29 20 30 21 31 22 32 72 33 23 34 77 35
REMARK SMILES IDX 71 36 73 37 24 38 76 39 70 40 69 41 25 43 57 44 37 45 56 46
REMARK SMILES IDX 38 47 41 48 55 49 74 50 39 51 40 52 54 54 75 55 42 56 26 57
REMARK SMILES IDX 27 58 35 59 28 60 30 61 36 62 29 63 31 64 32 65 33 66 34 67
REMARK SMILES IDX 58 68 59 69 67 70 60 71 62 72 68 73 61 74 63 75 64 76 65 77
REMARK SMILES IDX 66 78 43 79 44 80 52 81 45 82 47 83 53 84 46 85 48 86 49 87
REMARK SMILES IDX 50 88 51 89
REMARK H PARENT 9 7 14 23 73 42 41 53
REMARK Flexibility Score: inf
ROOT
ATOM      1  C   UNL A   1      31.478  28.942  25.832  1.00  0.00     0.023 C 
ENDROOT
BRANCH   1   2
ATOM      2  C   UNL A   1      31.649  27.861  26.904  1.00  0.00     0.023 C 
BRANCH   2   3
ATOM      3  C   UNL A   1      32.295  26.569  26.410  1.00  0.00     0.116 C 
BRANCH   3   4
ATOM      4  N   UNL A   1      31.470  25.409  26.667  1.00  0.00    -0.356 N 
ATOM      5  C   UNL A   1      31.601  24.093  26.361  1.00  0.00     0.226 C 
ATOM      6  O   UNL A   1      30.743  23.362  26.871  1.00  0.00    -0.274 OA
ATOM      7  H   UNL A   1      30.647  25.616  27.167  1.00  0.00     0.163 HD
BRANCH   5   8
ATOM      8  C   UNL A   1      32.758  23.502  25.495  1.00  0.00     0.052 C 
ATOM      9  C   UNL A   1      35.137  24.253  25.254  1.00  0.00    -0.010 C 
ATOM     10  C   UNL A   1      34.328  24.854  24.105  1.00  0.00     0.005 C 
ATOM     11  C   UNL A   1      34.100  23.697  26.243  1.00  0.00     0.020 C 
ATOM     12  C   UNL A   1      32.936  24.226  24.144  1.00  0.00     0.017 C 
BRANCH   9  13
ATOM     13  C   UNL A   1      36.158  23.204  24.788  1.00  0.00     0.000 C 
ATOM     14  C   UNL A   1      36.145  22.993  23.280  1.00  0.00     0.004 C 
ENDBRANCH   9  13
BRANCH   8  15
ATOM     15  C   UNL A   1      32.454  21.967  25.302  1.00  0.00     0.004 C 
ATOM     16  C   UNL A   1      32.497  21.453  23.852  1.00  0.00     0.005 C 
ATOM     17  C   UNL A   1      33.401  20.980  25.992  1.00  0.00     0.005 C 
ATOM     18  C   UNL A   1      32.519  19.931  23.983  1.00  0.00     0.000 C 
ATOM     19  C   UNL A   1      33.086  19.629  25.365  1.00  0.00     0.000 C 
ENDBRANCH   8  15
ENDBRANCH   5   8
ENDBRANCH   3   4
ENDBRANCH   2   3
ENDBRANCH   1   2
BRANCH   1  20
ATOM     20  C   UNL A   1      32.601  29.971  25.753  1.00  0.00     0.116 C 
BRANCH  20  21
ATOM     21  N   UNL A   1      32.202  31.294  26.210  1.00  0.00    -0.352 N 
ATOM     22  C   UNL A   1      32.826  32.120  27.116  1.00  0.00     0.251 C 
ATOM     23  H   UNL A   1      31.370  31.646  25.818  1.00  0.00     0.163 HD
ATOM     24  O   UNL A   1      32.286  33.159  27.474  1.00  0.00    -0.269 OA
BRANCH  22  25
ATOM     25  C   UNL A   1      34.137  31.727  27.677  1.00  0.00     0.039 A 
ATOM     26  C   UNL A   1      35.103  32.713  27.893  1.00  0.00     0.014 A 
ATOM     27  C   UNL A   1      34.399  30.397  28.015  1.00  0.00     0.014 A 
ATOM     28  C   UNL A   1      36.306  32.376  28.517  1.00  0.00     0.010 A 
ATOM     29  C   UNL A   1      35.567  30.077  28.700  1.00  0.00     0.010 A 
ATOM     30  C   UNL A   1      36.532  31.061  28.959  1.00  0.00    -0.014 A 
BRANCH  30  31
ATOM     31  C   UNL A   1      37.762  30.697  29.708  1.00  0.00     0.031 A 
ATOM     32  C   UNL A   1      38.769  29.760  29.097  1.00  0.00     0.074 A 
ATOM     33  C   UNL A   1      37.923  31.127  30.975  1.00  0.00     0.049 A 
ATOM     34  N   UNL A   1      39.857  29.262  29.624  1.00  0.00    -0.248 NA
ATOM     35  C   UNL A   1      38.504  29.300  27.723  1.00  0.00     0.031 C 
ATOM     36  C   UNL A   1      36.979  31.974  31.708  1.00  0.00     0.029 A 
ATOM     37  N   UNL A   1      38.924  30.886  31.884  1.00  0.00    -0.354 N 
ATOM     38  C   UNL A   1      40.385  28.405  28.666  1.00  0.00     0.074 A 
ATOM     39  C   UNL A   1      39.480  28.423  27.538  1.00  0.00     0.031 C 
ATOM     40  C   UNL A   1      37.446  32.182  32.950  1.00  0.00     0.029 A 
ATOM     41  C   UNL A   1      38.704  31.461  33.114  1.00  0.00     0.049 A 
ATOM     42  H   UNL A   1      39.724  30.351  31.674  1.00  0.00     0.167 HD
ATOM     43  C   UNL A   1      41.535  27.689  28.708  1.00  0.00     0.034 A 
ATOM     44  C   UNL A   1      39.430  31.409  34.248  1.00  0.00     0.034 A 
ATOM     45  C   UNL A   1      42.456  27.710  29.811  1.00  0.00     0.049 A 
ATOM     46  C   UNL A   1      40.727  30.642  34.252  1.00  0.00     0.074 A 
ATOM     47  C   UNL A   1      43.689  27.089  29.914  1.00  0.00     0.029 A 
ATOM     48  N   UNL A   1      42.247  28.385  31.004  1.00  0.00    -0.354 N 
ATOM     49  N   UNL A   1      41.286  29.964  33.280  1.00  0.00    -0.248 NA
ATOM     50  C   UNL A   1      41.509  30.663  35.496  1.00  0.00     0.031 C 
ATOM     51  C   UNL A   1      44.217  27.375  31.178  1.00  0.00     0.029 A 
ATOM     52  C   UNL A   1      43.324  28.193  31.852  1.00  0.00     0.049 A 
ATOM     53  H   UNL A   1      41.450  28.922  31.217  1.00  0.00     0.167 HD
ATOM     54  C   UNL A   1      42.502  29.514  33.779  1.00  0.00     0.074 A 
ATOM     55  C   UNL A   1      42.606  30.012  35.136  1.00  0.00     0.031 C 
ATOM     56  C   UNL A   1      43.443  28.747  33.175  1.00  0.00     0.034 A 
BRANCH  43  57
ATOM     57  C   UNL A   1      41.892  26.868  27.497  1.00  0.00     0.023 A 
ATOM     58  C   UNL A   1      42.470  27.500  26.376  1.00  0.00     0.012 A 
ATOM     59  C   UNL A   1      41.718  25.470  27.487  1.00  0.00     0.148 A 
ATOM     60  C   UNL A   1      42.836  26.762  25.253  1.00  0.00     0.002 A 
ATOM     61  C   UNL A   1      42.127  24.734  26.380  1.00  0.00     0.091 A 
ATOM     62  F   UNL A   1      41.149  24.888  28.553  1.00  0.00    -0.205 F 
ATOM     63  C   UNL A   1      42.675  25.379  25.259  1.00  0.00     0.022 A 
BRANCH  61  64
ATOM     64  S   UNL A   1      42.037  22.942  26.320  1.00  0.00     0.127 S 
ATOM     65  O   UNL A   1      40.592  22.717  26.344  1.00  0.00    -0.237 OA
ATOM     66  O   UNL A   1      42.679  22.643  25.039  1.00  0.00    -0.237 OA
ATOM     67  O   UNL A   1      42.763  22.463  27.489  1.00  0.00    -0.744 OA
ENDBRANCH  61  64
ENDBRANCH  43  57
BRANCH  44  68
ATOM     68  C   UNL A   1      38.987  32.163  35.455  1.00  0.00     0.023 A 
ATOM     69  C   UNL A   1      39.175  33.558  35.502  1.00  0.00     0.012 A 
ATOM     70  C   UNL A   1      38.364  31.517  36.541  1.00  0.00     0.148 A 
ATOM     71  C   UNL A   1      38.783  34.293  36.623  1.00  0.00     0.002 A 
ATOM     72  C   UNL A   1      37.927  32.263  37.630  1.00  0.00     0.091 A 
ATOM     73  F   UNL A   1      38.205  30.188  36.483  1.00  0.00    -0.205 F 
ATOM     74  C   UNL A   1      38.152  33.647  37.681  1.00  0.00     0.022 A 
BRANCH  72  75
ATOM     75  S   UNL A   1      36.987  31.535  38.978  1.00  0.00     0.127 S 
ATOM     76  O   UNL A   1      37.920  31.660  40.095  1.00  0.00    -0.237 OA
ATOM     77  O   UNL A   1      35.822  32.417  39.045  1.00  0.00    -0.237 OA
ATOM     78  O   UNL A   1      36.684  30.175  38.551  1.00  0.00    -0.744 OA
ENDBRANCH  72  75
ENDBRANCH  44  68
BRANCH  56  79
ATOM     79  C   UNL A   1      44.693  28.428  33.952  1.00  0.00     0.023 A 
ATOM     80  C   UNL A   1      45.805  29.289  33.879  1.00  0.00     0.012 A 
ATOM     81  C   UNL A   1      44.732  27.317  34.819  1.00  0.00     0.148 A 
ATOM     82  C   UNL A   1      46.948  29.035  34.635  1.00  0.00     0.002 A 
ATOM     83  C   UNL A   1      45.857  27.097  35.606  1.00  0.00     0.091 A 
ATOM     84  F   UNL A   1      43.671  26.499  34.860  1.00  0.00    -0.205 F 
ATOM     85  C   UNL A   1      46.971  27.948  35.506  1.00  0.00     0.022 A 
BRANCH  83  86
ATOM     86  S   UNL A   1      45.936  25.780  36.826  1.00  0.00     0.127 S 
ATOM     87  O   UNL A   1      47.323  25.873  37.274  1.00  0.00    -0.237 OA
ATOM     88  O   UNL A   1      44.945  26.210  37.811  1.00  0.00    -0.237 OA
ATOM     89  O   UNL A   1      45.588  24.556  36.116  1.00  0.00    -0.744 OA
ENDBRANCH  83  86
ENDBRANCH  56  79
ENDBRANCH  30  31
ENDBRANCH  22  25
ENDBRANCH  20  21
ENDBRANCH   1  20
TORSDOF 16
ENDMDL
MODEL 3
REMARK VINA RESULT:     -11.7      2.557      3.352
REMARK SMILES CC[C@H]1CC[C@@](C(=O)NCCCCNC(=O)c2ccc(-c3c4nc(c(-c5cccc(S(=O)(=O)[O-])c5F)c5ccc([nH]5)c(-c5cccc(S(=O)(=O)[O-])c5F)c5nc(c(-c6cccc(S(=O)(=O)[O-])c6F)c6ccc3[nH]6)C=C5)C=C4)cc2)(C2CCCC2)C1
REMARK SMILES IDX 12 1 11 2 10 3 9 4 7 5 8 6 6 8 3 9 4 10 85 11 5 12 2 13 1 14
REMARK SMILES IDX 80 15 81 16 84 17 82 18 83 19 13 20 14 21 15 22 16 24 17 25
REMARK SMILES IDX 18 26 79 27 19 28 78 29 20 30 21 31 22 32 72 33 23 34 77 35
REMARK SMILES IDX 71 36 73 37 24 38 76 39 70 40 69 41 25 43 57 44 37 45 56 46
REMARK SMILES IDX 38 47 41 48 55 49 74 50 39 51 40 52 54 54 75 55 42 56 26 57
REMARK SMILES IDX 27 58 35 59 28 60 30 61 36 62 29 63 31 64 32 65 33 66 34 67
REMARK SMILES IDX 58 68 59 69 67 70 60 71 62 72 68 73 61 74 63 75 64 76 65 77
REMARK SMILES IDX 66 78 43 79 44 80 52 81 45 82 47 83 53 84 46 85 48 86 49 87
REMARK SMILES IDX 50 88 51 89
REMARK H PARENT 9 7 14 23 73 42 41 53
REMARK Flexibility Score: inf
ROOT
ATOM      1  C   UNL A   1      33.295  28.357  27.172  1.00  0.00     0.023 C 
ENDROOT
BRANCH   1   2
ATOM      2  C   UNL A   1      31.767  28.309  27.254  1.00  0.00     0.023 C 
BRANCH   2   3
ATOM      3  C   UNL A   1      31.103  27.350  26.270  1.00  0.00     0.116 C 
BRANCH   3   4
ATOM      4  N   UNL A   1      31.054  25.994  26.772  1.00  0.00    -0.356 N 
ATOM      5  C   UNL A   1      31.770  24.876  26.491  1.00  0.00     0.226 C 
ATOM      6  O   UNL A   1      31.527  23.915  27.230  1.00  0.00    -0.274 OA
ATOM      7  H   UNL A   1      30.361  25.855  27.457  1.00  0.00     0.163 HD
BRANCH   5   8
ATOM      8  C   UNL A   1      32.864  24.787  25.381  1.00  0.00     0.052 C 
ATOM      9  C   UNL A   1      34.521  22.973  24.890  1.00  0.00    -0.010 C 
ATOM     10  C   UNL A   1      35.211  24.029  25.751  1.00  0.00     0.005 C 
ATOM     11  C   UNL A   1      33.022  23.310  24.943  1.00  0.00     0.020 C 
ATOM     12  C   UNL A   1      34.262  25.220  25.869  1.00  0.00     0.017 C 
BRANCH   9  13
ATOM     13  C   UNL A   1      35.080  22.903  23.460  1.00  0.00     0.000 C 
ATOM     14  C   UNL A   1      36.601  22.953  23.414  1.00  0.00     0.004 C 
ENDBRANCH   9  13
BRANCH   8  15
ATOM     15  C   UNL A   1      32.367  25.669  24.171  1.00  0.00     0.004 C 
ATOM     16  C   UNL A   1      33.421  26.596  23.541  1.00  0.00     0.005 C 
ATOM     17  C   UNL A   1      31.854  24.924  22.935  1.00  0.00     0.005 C 
ATOM     18  C   UNL A   1      32.796  27.050  22.223  1.00  0.00     0.000 C 
ATOM     19  C   UNL A   1      31.778  25.982  21.842  1.00  0.00     0.000 C 
ENDBRANCH   8  15
ENDBRANCH   5   8
ENDBRANCH   3   4
ENDBRANCH   2   3
ENDBRANCH   1   2
BRANCH   1  20
ATOM     20  C   UNL A   1      33.871  29.454  26.284  1.00  0.00     0.116 C 
BRANCH  20  21
ATOM     21  N   UNL A   1      33.835  30.772  26.902  1.00  0.00    -0.352 N 
ATOM     22  C   UNL A   1      34.679  31.306  27.848  1.00  0.00     0.251 C 
ATOM     23  H   UNL A   1      33.106  31.362  26.602  1.00  0.00     0.163 HD
ATOM     24  O   UNL A   1      34.433  32.397  28.345  1.00  0.00    -0.269 OA
BRANCH  22  25
ATOM     25  C   UNL A   1      35.868  30.538  28.280  1.00  0.00     0.039 A 
ATOM     26  C   UNL A   1      37.062  30.684  27.571  1.00  0.00     0.014 A 
ATOM     27  C   UNL A   1      35.809  29.702  29.398  1.00  0.00     0.014 A 
ATOM     28  C   UNL A   1      38.218  30.047  28.026  1.00  0.00     0.010 A 
ATOM     29  C   UNL A   1      36.976  29.127  29.890  1.00  0.00     0.010 A 
ATOM     30  C   UNL A   1      38.193  29.293  29.212  1.00  0.00    -0.014 A 
BRANCH  30  31
ATOM     31  C   UNL A   1      39.427  28.683  29.769  1.00  0.00     0.031 A 
ATOM     32  C   UNL A   1      40.083  29.281  30.984  1.00  0.00     0.074 A 
ATOM     33  C   UNL A   1      40.013  27.656  29.122  1.00  0.00     0.049 A 
ATOM     34  N   UNL A   1      41.203  28.942  31.567  1.00  0.00    -0.248 NA
ATOM     35  C   UNL A   1      39.404  30.427  31.613  1.00  0.00     0.031 C 
ATOM     36  C   UNL A   1      39.519  27.040  27.888  1.00  0.00     0.029 A 
ATOM     37  N   UNL A   1      41.170  26.968  29.395  1.00  0.00    -0.354 N 
ATOM     38  C   UNL A   1      41.384  29.852  32.601  1.00  0.00     0.074 A 
ATOM     39  C   UNL A   1      40.275  30.779  32.547  1.00  0.00     0.031 C 
ATOM     40  C   UNL A   1      40.365  26.067  27.513  1.00  0.00     0.029 A 
ATOM     41  C   UNL A   1      41.475  26.008  28.458  1.00  0.00     0.049 A 
ATOM     42  H   UNL A   1      41.728  27.146  30.186  1.00  0.00     0.167 HD
ATOM     43  C   UNL A   1      42.367  29.895  33.532  1.00  0.00     0.034 A 
ATOM     44  C   UNL A   1      42.534  25.178  28.367  1.00  0.00     0.034 A 
ATOM     45  C   UNL A   1      43.442  28.945  33.612  1.00  0.00     0.049 A 
ATOM     46  C   UNL A   1      43.590  25.219  29.441  1.00  0.00     0.074 A 
ATOM     47  C   UNL A   1      44.439  28.851  34.568  1.00  0.00     0.029 A 
ATOM     48  N   UNL A   1      43.664  27.923  32.702  1.00  0.00    -0.354 N 
ATOM     49  N   UNL A   1      43.658  25.986  30.501  1.00  0.00    -0.248 NA
ATOM     50  C   UNL A   1      44.693  24.255  29.325  1.00  0.00     0.031 C 
ATOM     51  C   UNL A   1      45.274  27.782  34.225  1.00  0.00     0.029 A 
ATOM     52  C   UNL A   1      44.784  27.196  33.070  1.00  0.00     0.049 A 
ATOM     53  H   UNL A   1      43.109  27.741  31.910  1.00  0.00     0.167 HD
ATOM     54  C   UNL A   1      44.786  25.572  31.199  1.00  0.00     0.074 A 
ATOM     55  C   UNL A   1      45.360  24.473  30.451  1.00  0.00     0.031 C 
ATOM     56  C   UNL A   1      45.307  26.065  32.350  1.00  0.00     0.034 A 
BRANCH  43  57
ATOM     57  C   UNL A   1      42.293  30.976  34.579  1.00  0.00     0.023 A 
ATOM     58  C   UNL A   1      41.649  30.709  35.805  1.00  0.00     0.012 A 
ATOM     59  C   UNL A   1      42.909  32.227  34.381  1.00  0.00     0.148 A 
ATOM     60  C   UNL A   1      41.588  31.679  36.803  1.00  0.00     0.002 A 
ATOM     61  C   UNL A   1      42.883  33.175  35.398  1.00  0.00     0.091 A 
ATOM     62  F   UNL A   1      43.499  32.470  33.202  1.00  0.00    -0.205 F 
ATOM     63  C   UNL A   1      42.214  32.907  36.604  1.00  0.00     0.022 A 
BRANCH  61  64
ATOM     64  S   UNL A   1      43.726  34.755  35.273  1.00  0.00     0.127 S 
ATOM     65  O   UNL A   1      42.876  35.469  34.321  1.00  0.00    -0.237 OA
ATOM     66  O   UNL A   1      43.654  35.253  36.647  1.00  0.00    -0.237 OA
ATOM     67  O   UNL A   1      45.073  34.457  34.805  1.00  0.00    -0.744 OA
ENDBRANCH  61  64
ENDBRANCH  43  57
BRANCH  44  68
ATOM     68  C   UNL A   1      42.612  24.187  27.257  1.00  0.00     0.023 A 
ATOM     69  C   UNL A   1      43.331  24.514  26.091  1.00  0.00     0.012 A 
ATOM     70  C   UNL A   1      42.002  22.921  27.354  1.00  0.00     0.148 A 
ATOM     71  C   UNL A   1      43.413  23.613  25.027  1.00  0.00     0.002 A 
ATOM     72  C   UNL A   1      42.134  22.008  26.314  1.00  0.00     0.091 A 
ATOM     73  F   UNL A   1      41.312  22.632  28.466  1.00  0.00    -0.205 F 
ATOM     74  C   UNL A   1      42.822  22.359  25.143  1.00  0.00     0.022 A 
BRANCH  72  75
ATOM     75  S   UNL A   1      41.519  20.324  26.429  1.00  0.00     0.127 S 
ATOM     76  O   UNL A   1      42.278  19.655  25.376  1.00  0.00    -0.237 OA
ATOM     77  O   UNL A   1      41.900  19.955  27.793  1.00  0.00    -0.237 OA
ATOM     78  O   UNL A   1      40.081  20.418  26.216  1.00  0.00    -0.744 OA
ENDBRANCH  72  75
ENDBRANCH  44  68
BRANCH  56  79
ATOM     79  C   UNL A   1      46.538  25.398  32.904  1.00  0.00     0.023 A 
ATOM     80  C   UNL A   1      47.814  25.906  32.592  1.00  0.00     0.012 A 
ATOM     81  C   UNL A   1      46.424  24.316  33.800  1.00  0.00     0.148 A 
ATOM     82  C   UNL A   1      48.959  25.331  33.141  1.00  0.00     0.002 A 
ATOM     83  C   UNL A   1      47.566  23.779  34.381  1.00  0.00     0.091 A 
ATOM     84  F   UNL A   1      45.202  23.834  34.069  1.00  0.00    -0.205 F 
ATOM     85  C   UNL A   1      48.836  24.278  34.043  1.00  0.00     0.022 A 
BRANCH  83  86
ATOM     86  S   UNL A   1      47.497  22.486  35.627  1.00  0.00     0.127 S 
ATOM     87  O   UNL A   1      46.644  23.098  36.643  1.00  0.00    -0.237 OA
ATOM     88  O   UNL A   1      46.878  21.381  34.894  1.00  0.00    -0.237 OA
ATOM     89  O   UNL A   1      48.876  22.244  36.030  1.00  0.00    -0.744 OA
ENDBRANCH  83  86
ENDBRANCH  56  79
ENDBRANCH  30  31
ENDBRANCH  22  25
ENDBRANCH  20  21
ENDBRANCH   1  20
TORSDOF 16
ENDMDL
