MODEL 1
REMARK VINA RESULT:     -11.3      0.000      0.000
REMARK SMILES O=C(C[C@@H](NC(=O)C1CCC1)c1ccc(Cl)cc1)NCCCCNC(=O)c1ccc(-c2c3nc(c(-c4cccc(S(=O)(=O)[O-])c4F)c4ccc([nH]4)c(-c4cccc(S(=O)(=O)[O-])c4F)c4nc(c(-c5cccc(S(=O)(=O)[O-])c5F)c5ccc2[nH]5)C=C4)C=C3)cc1
REMARK SMILES IDX 21 1 20 2 19 3 1 4 2 5 3 7 4 8 5 9 6 10 7 12 8 13 9 14 11 15
REMARK SMILES IDX 10 16 12 17 13 18 18 19 14 20 17 21 15 22 16 23 22 24 23 25
REMARK SMILES IDX 24 26 25 27 26 29 27 30 28 31 89 32 29 33 88 34 30 35 31 36
REMARK SMILES IDX 32 37 82 38 33 39 87 40 81 41 83 42 34 43 86 44 80 45 79 46
REMARK SMILES IDX 35 48 67 49 47 50 66 51 48 52 51 53 65 54 84 55 49 56 50 57
REMARK SMILES IDX 64 59 85 60 52 61 36 62 37 63 45 64 38 65 40 66 46 67 39 68
REMARK SMILES IDX 41 69 42 70 43 71 44 72 68 73 69 74 77 75 70 76 72 77 78 78
REMARK SMILES IDX 71 79 73 80 74 81 75 82 76 83 53 84 54 85 62 86 55 87 57 88
REMARK SMILES IDX 63 89 56 90 58 91 59 92 60 93 61 94
REMARK H PARENT 19 6 5 11 24 28 83 47 51 58
REMARK Flexibility Score: inf
ROOT
ATOM      1  C   UNL A   1      33.562  29.002  24.552  1.00  0.00     0.023 C 
ENDROOT
BRANCH   1   2
ATOM      2  C   UNL A   1      33.557  28.298  23.197  1.00  0.00     0.116 C 
BRANCH   2   3
ATOM      3  N   UNL A   1      33.490  26.859  23.354  1.00  0.00    -0.356 N 
ATOM      4  O   UNL A   1      33.525  26.347  21.111  1.00  0.00    -0.275 OA
ATOM      5  C   UNL A   1      33.444  25.996  22.282  1.00  0.00     0.222 C 
ATOM      6  H   UNL A   1      33.476  26.482  24.263  1.00  0.00     0.163 HD
BRANCH   5   7
ATOM      7  C   UNL A   1      33.297  24.548  22.680  1.00  0.00     0.129 C 
BRANCH   7   8
ATOM      8  C   UNL A   1      33.455  24.362  24.198  1.00  0.00     0.121 C 
BRANCH   8   9
ATOM      9  N   UNL A   1      32.346  23.550  24.737  1.00  0.00    -0.349 N 
ATOM     10  C   UNL A   1      32.063  22.219  24.927  1.00  0.00     0.223 C 
ATOM     11  H   UNL A   1      31.605  24.119  25.046  1.00  0.00     0.164 HD
ATOM     12  O   UNL A   1      31.021  22.005  25.561  1.00  0.00    -0.275 OA
BRANCH  10  13
ATOM     13  C   UNL A   1      32.964  21.102  24.371  1.00  0.00     0.078 C 
ATOM     14  C   UNL A   1      34.019  20.469  25.323  1.00  0.00     0.013 C 
ATOM     15  C   UNL A   1      32.402  19.652  24.247  1.00  0.00     0.013 C 
ATOM     16  C   UNL A   1      33.846  19.170  24.516  1.00  0.00     0.002 C 
ENDBRANCH  10  13
ENDBRANCH   8   9
BRANCH   8  17
ATOM     17  C   UNL A   1      34.862  23.885  24.496  1.00  0.00    -0.025 A 
ATOM     18  C   UNL A   1      35.648  23.234  23.530  1.00  0.00     0.007 A 
ATOM     19  C   UNL A   1      35.408  24.098  25.773  1.00  0.00     0.007 A 
ATOM     20  C   UNL A   1      36.894  22.699  23.870  1.00  0.00     0.021 A 
ATOM     21  C   UNL A   1      36.664  23.585  26.106  1.00  0.00     0.021 A 
ATOM     22  C   UNL A   1      37.387  22.861  25.162  1.00  0.00     0.041 A 
ATOM     23  Cl  UNL A   1      38.885  22.139  25.603  1.00  0.00    -0.084 Cl
ENDBRANCH   8  17
ENDBRANCH   7   8
ENDBRANCH   5   7
ENDBRANCH   2   3
ENDBRANCH   1   2
BRANCH   1  24
ATOM     24  C   UNL A   1      33.779  28.081  25.757  1.00  0.00     0.023 C 
BRANCH  24  25
ATOM     25  C   UNL A   1      33.345  28.657  27.101  1.00  0.00     0.116 C 
BRANCH  25  26
ATOM     26  N   UNL A   1      33.490  30.103  27.156  1.00  0.00    -0.352 N 
ATOM     27  C   UNL A   1      34.513  30.857  27.684  1.00  0.00     0.251 C 
ATOM     28  H   UNL A   1      32.751  30.616  26.758  1.00  0.00     0.163 HD
ATOM     29  O   UNL A   1      34.379  32.071  27.794  1.00  0.00    -0.269 OA
BRANCH  27  30
ATOM     30  C   UNL A   1      35.759  30.201  28.142  1.00  0.00     0.039 A 
ATOM     31  C   UNL A   1      36.856  30.159  27.277  1.00  0.00     0.014 A 
ATOM     32  C   UNL A   1      35.850  29.632  29.414  1.00  0.00     0.014 A 
ATOM     33  C   UNL A   1      38.062  29.604  27.712  1.00  0.00     0.010 A 
ATOM     34  C   UNL A   1      37.075  29.150  29.873  1.00  0.00     0.010 A 
ATOM     35  C   UNL A   1      38.194  29.127  29.027  1.00  0.00    -0.014 A 
BRANCH  35  36
ATOM     36  C   UNL A   1      39.496  28.622  29.537  1.00  0.00     0.031 A 
ATOM     37  C   UNL A   1      40.231  29.364  30.621  1.00  0.00     0.074 A 
ATOM     38  C   UNL A   1      40.060  27.538  28.967  1.00  0.00     0.049 A 
ATOM     39  N   UNL A   1      41.398  29.105  31.153  1.00  0.00    -0.248 NA
ATOM     40  C   UNL A   1      39.582  30.570  31.164  1.00  0.00     0.031 C 
ATOM     41  C   UNL A   1      39.488  26.774  27.856  1.00  0.00     0.029 A 
ATOM     42  N   UNL A   1      41.252  26.907  29.223  1.00  0.00    -0.354 N 
ATOM     43  C   UNL A   1      41.637  30.126  32.065  1.00  0.00     0.074 A 
ATOM     44  C   UNL A   1      40.511  31.030  31.989  1.00  0.00     0.031 C 
ATOM     45  C   UNL A   1      40.328  25.781  27.526  1.00  0.00     0.029 A 
ATOM     46  C   UNL A   1      41.512  25.855  28.376  1.00  0.00     0.049 A 
ATOM     47  H   UNL A   1      41.863  27.181  29.945  1.00  0.00     0.167 HD
ATOM     48  C   UNL A   1      42.685  30.286  32.909  1.00  0.00     0.034 A 
ATOM     49  C   UNL A   1      42.588  25.049  28.281  1.00  0.00     0.034 A 
ATOM     50  C   UNL A   1      43.792  29.371  33.002  1.00  0.00     0.049 A 
ATOM     51  C   UNL A   1      43.729  25.231  29.245  1.00  0.00     0.074 A 
ATOM     52  C   UNL A   1      44.862  29.402  33.880  1.00  0.00     0.029 A 
ATOM     53  N   UNL A   1      43.982  28.271  32.181  1.00  0.00    -0.354 N 
ATOM     54  N   UNL A   1      43.864  26.113  30.206  1.00  0.00    -0.248 NA
ATOM     55  C   UNL A   1      44.849  24.285  29.138  1.00  0.00     0.031 C 
ATOM     56  C   UNL A   1      45.716  28.340  33.567  1.00  0.00     0.029 A 
ATOM     57  C   UNL A   1      45.158  27.622  32.522  1.00  0.00     0.049 A 
ATOM     58  H   UNL A   1      43.373  27.991  31.461  1.00  0.00     0.167 HD
ATOM     59  C   UNL A   1      45.063  25.807  30.840  1.00  0.00     0.074 A 
ATOM     60  C   UNL A   1      45.606  24.645  30.166  1.00  0.00     0.031 C 
ATOM     61  C   UNL A   1      45.666  26.438  31.877  1.00  0.00     0.034 A 
BRANCH  48  62
ATOM     62  C   UNL A   1      42.662  31.474  33.836  1.00  0.00     0.023 A 
ATOM     63  C   UNL A   1      43.092  32.733  33.366  1.00  0.00     0.012 A 
ATOM     64  C   UNL A   1      42.166  31.363  35.149  1.00  0.00     0.148 A 
ATOM     65  C   UNL A   1      43.068  33.851  34.199  1.00  0.00     0.002 A 
ATOM     66  C   UNL A   1      42.099  32.492  35.959  1.00  0.00     0.091 A 
ATOM     67  F   UNL A   1      41.777  30.158  35.587  1.00  0.00    -0.205 F 
ATOM     68  C   UNL A   1      42.562  33.733  35.490  1.00  0.00     0.022 A 
BRANCH  66  69
ATOM     69  S   UNL A   1      41.387  32.464  37.607  1.00  0.00     0.127 S 
ATOM     70  O   UNL A   1      41.518  33.865  38.009  1.00  0.00    -0.237 OA
ATOM     71  O   UNL A   1      40.014  32.033  37.341  1.00  0.00    -0.237 OA
ATOM     72  O   UNL A   1      42.184  31.519  38.375  1.00  0.00    -0.744 OA
ENDBRANCH  66  69
ENDBRANCH  48  62
BRANCH  49  73
ATOM     73  C   UNL A   1      42.616  23.962  27.261  1.00  0.00     0.023 A 
ATOM     74  C   UNL A   1      43.173  24.212  25.992  1.00  0.00     0.012 A 
ATOM     75  C   UNL A   1      42.117  22.676  27.550  1.00  0.00     0.148 A 
ATOM     76  C   UNL A   1      43.201  23.214  25.017  1.00  0.00     0.002 A 
ATOM     77  C   UNL A   1      42.201  21.670  26.595  1.00  0.00     0.091 A 
ATOM     78  F   UNL A   1      41.583  22.460  28.760  1.00  0.00    -0.205 F 
ATOM     79  C   UNL A   1      42.724  21.942  25.321  1.00  0.00     0.022 A 
BRANCH  77  80
ATOM     80  S   UNL A   1      41.735  19.970  26.942  1.00  0.00     0.127 S 
ATOM     81  O   UNL A   1      40.435  20.142  27.585  1.00  0.00    -0.237 OA
ATOM     82  O   UNL A   1      41.686  19.393  25.598  1.00  0.00    -0.237 OA
ATOM     83  O   UNL A   1      42.792  19.434  27.788  1.00  0.00    -0.744 OA
ENDBRANCH  77  80
ENDBRANCH  49  73
BRANCH  61  84
ATOM     84  C   UNL A   1      46.964  25.866  32.387  1.00  0.00     0.023 A 
ATOM     85  C   UNL A   1      46.971  25.021  33.514  1.00  0.00     0.012 A 
ATOM     86  C   UNL A   1      48.171  26.113  31.701  1.00  0.00     0.148 A 
ATOM     87  C   UNL A   1      48.162  24.460  33.973  1.00  0.00     0.002 A 
ATOM     88  C   UNL A   1      49.345  25.507  32.131  1.00  0.00     0.091 A 
ATOM     89  F   UNL A   1      48.148  26.934  30.640  1.00  0.00    -0.205 F 
ATOM     90  C   UNL A   1      49.346  24.693  33.276  1.00  0.00     0.022 A 
BRANCH  88  91
ATOM     91  S   UNL A   1      50.897  25.670  31.241  1.00  0.00     0.127 S 
ATOM     92  O   UNL A   1      50.548  25.123  29.932  1.00  0.00    -0.237 OA
ATOM     93  O   UNL A   1      51.114  27.117  31.261  1.00  0.00    -0.237 OA
ATOM     94  O   UNL A   1      51.877  24.902  31.997  1.00  0.00    -0.744 OA
ENDBRANCH  88  91
ENDBRANCH  61  84
ENDBRANCH  35  36
ENDBRANCH  27  30
ENDBRANCH  25  26
ENDBRANCH  24  25
ENDBRANCH   1  24
TORSDOF 18
ENDMDL
MODEL 2
REMARK VINA RESULT:     -11.0      4.623      9.497
REMARK SMILES O=C(C[C@@H](NC(=O)C1CCC1)c1ccc(Cl)cc1)NCCCCNC(=O)c1ccc(-c2c3nc(c(-c4cccc(S(=O)(=O)[O-])c4F)c4ccc([nH]4)c(-c4cccc(S(=O)(=O)[O-])c4F)c4nc(c(-c5cccc(S(=O)(=O)[O-])c5F)c5ccc2[nH]5)C=C4)C=C3)cc1
REMARK SMILES IDX 21 1 20 2 19 3 1 4 2 5 3 7 4 8 5 9 6 10 7 12 8 13 9 14 11 15
REMARK SMILES IDX 10 16 12 17 13 18 18 19 14 20 17 21 15 22 16 23 22 24 23 25
REMARK SMILES IDX 24 26 25 27 26 29 27 30 28 31 89 32 29 33 88 34 30 35 31 36
REMARK SMILES IDX 32 37 82 38 33 39 87 40 81 41 83 42 34 43 86 44 80 45 79 46
REMARK SMILES IDX 35 48 67 49 47 50 66 51 48 52 51 53 65 54 84 55 49 56 50 57
REMARK SMILES IDX 64 59 85 60 52 61 36 62 37 63 45 64 38 65 40 66 46 67 39 68
REMARK SMILES IDX 41 69 42 70 43 71 44 72 68 73 69 74 77 75 70 76 72 77 78 78
REMARK SMILES IDX 71 79 73 80 74 81 75 82 76 83 53 84 54 85 62 86 55 87 57 88
REMARK SMILES IDX 63 89 56 90 58 91 59 92 60 93 61 94
REMARK H PARENT 19 6 5 11 24 28 83 47 51 58
REMARK Flexibility Score: inf
ROOT
ATOM      1  C   UNL A   1      35.054  23.140  23.637  1.00  0.00     0.023 C 
ENDROOT
BRANCH   1   2
ATOM      2  C   UNL A   1      33.903  23.162  22.634  1.00  0.00     0.116 C 
BRANCH   2   3
ATOM      3  N   UNL A   1      33.270  24.465  22.589  1.00  0.00    -0.356 N 
ATOM      4  O   UNL A   1      31.129  23.733  23.003  1.00  0.00    -0.275 OA
ATOM      5  C   UNL A   1      31.914  24.638  22.746  1.00  0.00     0.222 C 
ATOM      6  H   UNL A   1      33.833  25.259  22.441  1.00  0.00     0.163 HD
BRANCH   5   7
ATOM      7  C   UNL A   1      31.466  26.070  22.583  1.00  0.00     0.129 C 
BRANCH   7   8
ATOM      8  C   UNL A   1      30.186  26.354  23.386  1.00  0.00     0.121 C 
BRANCH   8   9
ATOM      9  N   UNL A   1      30.412  26.104  24.823  1.00  0.00    -0.349 N 
ATOM     10  C   UNL A   1      31.048  26.722  25.872  1.00  0.00     0.223 C 
ATOM     11  H   UNL A   1      29.990  25.262  25.109  1.00  0.00     0.164 HD
ATOM     12  O   UNL A   1      30.853  26.187  26.972  1.00  0.00    -0.275 OA
BRANCH  10  13
ATOM     13  C   UNL A   1      31.942  27.959  25.675  1.00  0.00     0.078 C 
ATOM     14  C   UNL A   1      32.464  28.696  26.943  1.00  0.00     0.013 C 
ATOM     15  C   UNL A   1      33.451  27.769  25.327  1.00  0.00     0.013 C 
ATOM     16  C   UNL A   1      33.699  29.079  26.109  1.00  0.00     0.002 C 
ENDBRANCH  10  13
ENDBRANCH   8   9
BRANCH   8  17
ATOM     17  C   UNL A   1      29.652  27.720  23.004  1.00  0.00    -0.025 A 
ATOM     18  C   UNL A   1      28.293  28.051  23.133  1.00  0.00     0.007 A 
ATOM     19  C   UNL A   1      30.536  28.694  22.509  1.00  0.00     0.007 A 
ATOM     20  C   UNL A   1      27.811  29.275  22.661  1.00  0.00     0.021 A 
ATOM     21  C   UNL A   1      30.058  29.927  22.059  1.00  0.00     0.021 A 
ATOM     22  C   UNL A   1      28.694  30.199  22.108  1.00  0.00     0.041 A 
ATOM     23  Cl  UNL A   1      28.093  31.674  21.458  1.00  0.00    -0.084 Cl
ENDBRANCH   8  17
ENDBRANCH   7   8
ENDBRANCH   5   7
ENDBRANCH   2   3
ENDBRANCH   1   2
BRANCH   1  24
ATOM     24  C   UNL A   1      35.032  21.962  24.618  1.00  0.00     0.023 C 
BRANCH  24  25
ATOM     25  C   UNL A   1      36.035  22.052  25.763  1.00  0.00     0.116 C 
BRANCH  25  26
ATOM     26  N   UNL A   1      37.085  21.052  25.659  1.00  0.00    -0.352 N 
ATOM     27  C   UNL A   1      38.446  21.199  25.802  1.00  0.00     0.251 C 
ATOM     28  H   UNL A   1      36.780  20.138  25.457  1.00  0.00     0.163 HD
ATOM     29  O   UNL A   1      39.192  20.272  25.506  1.00  0.00    -0.269 OA
BRANCH  27  30
ATOM     30  C   UNL A   1      39.008  22.482  26.284  1.00  0.00     0.039 A 
ATOM     31  C   UNL A   1      40.059  22.453  27.205  1.00  0.00     0.014 A 
ATOM     32  C   UNL A   1      38.506  23.705  25.835  1.00  0.00     0.014 A 
ATOM     33  C   UNL A   1      40.648  23.649  27.624  1.00  0.00     0.010 A 
ATOM     34  C   UNL A   1      39.145  24.891  26.193  1.00  0.00     0.010 A 
ATOM     35  C   UNL A   1      40.220  24.877  27.094  1.00  0.00    -0.014 A 
BRANCH  35  36
ATOM     36  C   UNL A   1      40.898  26.151  27.454  1.00  0.00     0.031 A 
ATOM     37  C   UNL A   1      42.336  26.385  27.074  1.00  0.00     0.074 A 
ATOM     38  C   UNL A   1      40.246  27.066  28.198  1.00  0.00     0.049 A 
ATOM     39  N   UNL A   1      43.105  27.407  27.346  1.00  0.00    -0.248 NA
ATOM     40  C   UNL A   1      43.006  25.322  26.306  1.00  0.00     0.031 C 
ATOM     41  C   UNL A   1      38.876  26.927  28.699  1.00  0.00     0.029 A 
ATOM     42  N   UNL A   1      40.654  28.282  28.688  1.00  0.00    -0.354 N 
ATOM     43  C   UNL A   1      44.353  27.099  26.815  1.00  0.00     0.074 A 
ATOM     44  C   UNL A   1      44.247  25.778  26.235  1.00  0.00     0.031 C 
ATOM     45  C   UNL A   1      38.559  28.011  29.422  1.00  0.00     0.029 A 
ATOM     46  C   UNL A   1      39.710  28.907  29.469  1.00  0.00     0.049 A 
ATOM     47  H   UNL A   1      41.539  28.670  28.498  1.00  0.00     0.167 HD
ATOM     48  C   UNL A   1      45.477  27.854  26.788  1.00  0.00     0.034 A 
ATOM     49  C   UNL A   1      39.767  30.064  30.159  1.00  0.00     0.034 A 
ATOM     50  C   UNL A   1      45.573  29.179  27.342  1.00  0.00     0.049 A 
ATOM     51  C   UNL A   1      41.018  30.896  30.094  1.00  0.00     0.074 A 
ATOM     52  C   UNL A   1      46.642  30.056  27.294  1.00  0.00     0.029 A 
ATOM     53  N   UNL A   1      44.569  29.812  28.058  1.00  0.00    -0.354 N 
ATOM     54  N   UNL A   1      42.137  30.655  29.454  1.00  0.00    -0.248 NA
ATOM     55  C   UNL A   1      41.004  32.178  30.814  1.00  0.00     0.031 C 
ATOM     56  C   UNL A   1      46.297  31.206  28.011  1.00  0.00     0.029 A 
ATOM     57  C   UNL A   1      44.997  31.064  28.470  1.00  0.00     0.049 A 
ATOM     58  H   UNL A   1      43.682  29.430  28.247  1.00  0.00     0.167 HD
ATOM     59  C   UNL A   1      42.944  31.767  29.663  1.00  0.00     0.074 A 
ATOM     60  C   UNL A   1      42.178  32.693  30.472  1.00  0.00     0.031 C 
ATOM     61  C   UNL A   1      44.210  31.997  29.234  1.00  0.00     0.034 A 
BRANCH  48  62
ATOM     62  C   UNL A   1      46.687  27.283  26.093  1.00  0.00     0.023 A 
ATOM     63  C   UNL A   1      46.815  27.415  24.695  1.00  0.00     0.012 A 
ATOM     64  C   UNL A   1      47.723  26.669  26.824  1.00  0.00     0.148 A 
ATOM     65  C   UNL A   1      47.931  26.908  24.030  1.00  0.00     0.002 A 
ATOM     66  C   UNL A   1      48.856  26.210  26.161  1.00  0.00     0.091 A 
ATOM     67  F   UNL A   1      47.580  26.538  28.150  1.00  0.00    -0.205 F 
ATOM     68  C   UNL A   1      48.955  26.315  24.763  1.00  0.00     0.022 A 
BRANCH  66  69
ATOM     69  S   UNL A   1      50.267  25.508  27.021  1.00  0.00     0.127 S 
ATOM     70  O   UNL A   1      50.641  26.603  27.916  1.00  0.00    -0.237 OA
ATOM     71  O   UNL A   1      49.674  24.350  27.691  1.00  0.00    -0.237 OA
ATOM     72  O   UNL A   1      51.245  25.182  25.994  1.00  0.00    -0.744 OA
ENDBRANCH  66  69
ENDBRANCH  48  62
BRANCH  49  73
ATOM     73  C   UNL A   1      38.581  30.526  30.935  1.00  0.00     0.023 A 
ATOM     74  C   UNL A   1      38.518  30.282  32.321  1.00  0.00     0.012 A 
ATOM     75  C   UNL A   1      37.530  31.227  30.313  1.00  0.00     0.148 A 
ATOM     76  C   UNL A   1      37.413  30.696  33.066  1.00  0.00     0.002 A 
ATOM     77  C   UNL A   1      36.460  31.689  31.072  1.00  0.00     0.091 A 
ATOM     78  F   UNL A   1      37.605  31.443  28.992  1.00  0.00    -0.205 F 
ATOM     79  C   UNL A   1      36.390  31.407  32.445  1.00  0.00     0.022 A 
BRANCH  77  80
ATOM     80  S   UNL A   1      35.165  32.725  30.383  1.00  0.00     0.127 S 
ATOM     81  O   UNL A   1      34.706  31.920  29.254  1.00  0.00    -0.237 OA
ATOM     82  O   UNL A   1      34.224  32.812  31.500  1.00  0.00    -0.237 OA
ATOM     83  O   UNL A   1      35.807  33.986  30.039  1.00  0.00    -0.744 OA
ENDBRANCH  77  80
ENDBRANCH  49  73
BRANCH  61  84
ATOM     84  C   UNL A   1      44.842  33.319  29.590  1.00  0.00     0.023 A 
ATOM     85  C   UNL A   1      45.596  33.446  30.773  1.00  0.00     0.012 A 
ATOM     86  C   UNL A   1      44.745  34.416  28.711  1.00  0.00     0.148 A 
ATOM     87  C   UNL A   1      46.214  34.655  31.094  1.00  0.00     0.002 A 
ATOM     88  C   UNL A   1      45.408  35.600  29.010  1.00  0.00     0.091 A 
ATOM     89  F   UNL A   1      44.009  34.281  27.597  1.00  0.00    -0.205 F 
ATOM     90  C   UNL A   1      46.130  35.727  30.208  1.00  0.00     0.022 A 
BRANCH  88  91
ATOM     91  S   UNL A   1      45.438  37.000  27.885  1.00  0.00     0.127 S 
ATOM     92  O   UNL A   1      44.016  37.318  27.765  1.00  0.00    -0.237 OA
ATOM     93  O   UNL A   1      46.222  37.983  28.635  1.00  0.00    -0.237 OA
ATOM     94  O   UNL A   1      46.075  36.523  26.665  1.00  0.00    -0.744 OA
ENDBRANCH  88  91
ENDBRANCH  61  84
ENDBRANCH  35  36
ENDBRANCH  27  30
ENDBRANCH  25  26
ENDBRANCH  24  25
ENDBRANCH   1  24
TORSDOF 18
ENDMDL
MODEL 3
REMARK VINA RESULT:     -10.9      3.006      3.973
REMARK SMILES O=C(C[C@@H](NC(=O)C1CCC1)c1ccc(Cl)cc1)NCCCCNC(=O)c1ccc(-c2c3nc(c(-c4cccc(S(=O)(=O)[O-])c4F)c4ccc([nH]4)c(-c4cccc(S(=O)(=O)[O-])c4F)c4nc(c(-c5cccc(S(=O)(=O)[O-])c5F)c5ccc2[nH]5)C=C4)C=C3)cc1
REMARK SMILES IDX 21 1 20 2 19 3 1 4 2 5 3 7 4 8 5 9 6 10 7 12 8 13 9 14 11 15
REMARK SMILES IDX 10 16 12 17 13 18 18 19 14 20 17 21 15 22 16 23 22 24 23 25
REMARK SMILES IDX 24 26 25 27 26 29 27 30 28 31 89 32 29 33 88 34 30 35 31 36
REMARK SMILES IDX 32 37 82 38 33 39 87 40 81 41 83 42 34 43 86 44 80 45 79 46
REMARK SMILES IDX 35 48 67 49 47 50 66 51 48 52 51 53 65 54 84 55 49 56 50 57
REMARK SMILES IDX 64 59 85 60 52 61 36 62 37 63 45 64 38 65 40 66 46 67 39 68
REMARK SMILES IDX 41 69 42 70 43 71 44 72 68 73 69 74 77 75 70 76 72 77 78 78
REMARK SMILES IDX 71 79 73 80 74 81 75 82 76 83 53 84 54 85 62 86 55 87 57 88
REMARK SMILES IDX 63 89 56 90 58 91 59 92 60 93 61 94
REMARK H PARENT 19 6 5 11 24 28 83 47 51 58
REMARK Flexibility Score: inf
ROOT
ATOM      1  C   UNL A   1      31.414  27.141  25.516  1.00  0.00     0.023 C 
ENDROOT
BRANCH   1   2
ATOM      2  C   UNL A   1      30.321  26.207  26.033  1.00  0.00     0.116 C 
BRANCH   2   3
ATOM      3  N   UNL A   1      30.411  24.901  25.413  1.00  0.00    -0.356 N 
ATOM      4  O   UNL A   1      31.098  23.764  27.292  1.00  0.00    -0.275 OA
ATOM      5  C   UNL A   1      30.830  23.781  26.096  1.00  0.00     0.222 C 
ATOM      6  H   UNL A   1      30.162  24.809  24.466  1.00  0.00     0.163 HD
BRANCH   5   7
ATOM      7  C   UNL A   1      30.922  22.547  25.233  1.00  0.00     0.129 C 
BRANCH   7   8
ATOM      8  C   UNL A   1      32.379  22.228  24.860  1.00  0.00     0.121 C 
BRANCH   8   9
ATOM      9  N   UNL A   1      33.307  22.839  25.833  1.00  0.00    -0.349 N 
ATOM     10  C   UNL A   1      34.658  23.054  25.949  1.00  0.00     0.223 C 
ATOM     11  H   UNL A   1      32.823  23.189  26.615  1.00  0.00     0.164 HD
ATOM     12  O   UNL A   1      34.982  23.752  26.919  1.00  0.00    -0.275 OA
BRANCH  10  13
ATOM     13  C   UNL A   1      35.672  22.450  24.960  1.00  0.00     0.078 C 
ATOM     14  C   UNL A   1      37.165  22.867  25.095  1.00  0.00     0.013 C 
ATOM     15  C   UNL A   1      36.195  20.998  25.186  1.00  0.00     0.013 C 
ATOM     16  C   UNL A   1      37.517  21.475  24.542  1.00  0.00     0.002 C 
ENDBRANCH  10  13
ENDBRANCH   8   9
BRANCH   8  17
ATOM     17  C   UNL A   1      32.518  20.738  24.625  1.00  0.00    -0.025 A 
ATOM     18  C   UNL A   1      32.852  19.848  25.660  1.00  0.00     0.007 A 
ATOM     19  C   UNL A   1      32.302  20.218  23.338  1.00  0.00     0.007 A 
ATOM     20  C   UNL A   1      33.090  18.498  25.389  1.00  0.00     0.021 A 
ATOM     21  C   UNL A   1      32.517  18.864  23.070  1.00  0.00     0.021 A 
ATOM     22  C   UNL A   1      32.940  18.017  24.091  1.00  0.00     0.041 A 
ATOM     23  Cl  UNL A   1      33.305  16.373  23.740  1.00  0.00    -0.084 Cl
ENDBRANCH   8  17
ENDBRANCH   7   8
ENDBRANCH   5   7
ENDBRANCH   2   3
ENDBRANCH   1   2
BRANCH   1  24
ATOM     24  C   UNL A   1      31.603  28.424  26.331  1.00  0.00     0.023 C 
BRANCH  24  25
ATOM     25  C   UNL A   1      32.732  29.334  25.857  1.00  0.00     0.116 C 
BRANCH  25  26
ATOM     26  N   UNL A   1      32.504  30.727  26.206  1.00  0.00    -0.352 N 
ATOM     27  C   UNL A   1      33.192  31.527  27.090  1.00  0.00     0.251 C 
ATOM     28  H   UNL A   1      31.751  31.161  25.745  1.00  0.00     0.163 HD
ATOM     29  O   UNL A   1      32.745  32.631  27.385  1.00  0.00    -0.269 OA
BRANCH  27  30
ATOM     30  C   UNL A   1      34.450  31.045  27.704  1.00  0.00     0.039 A 
ATOM     31  C   UNL A   1      35.469  31.966  27.963  1.00  0.00     0.014 A 
ATOM     32  C   UNL A   1      34.628  29.698  28.026  1.00  0.00     0.014 A 
ATOM     33  C   UNL A   1      36.639  31.545  28.601  1.00  0.00     0.010 A 
ATOM     34  C   UNL A   1      35.760  29.296  28.732  1.00  0.00     0.010 A 
ATOM     35  C   UNL A   1      36.781  30.214  29.024  1.00  0.00    -0.014 A 
BRANCH  35  36
ATOM     36  C   UNL A   1      37.975  29.770  29.790  1.00  0.00     0.031 A 
ATOM     37  C   UNL A   1      38.253  30.325  31.162  1.00  0.00     0.074 A 
ATOM     38  C   UNL A   1      38.859  28.928  29.218  1.00  0.00     0.049 A 
ATOM     39  N   UNL A   1      39.268  30.097  31.954  1.00  0.00    -0.248 NA
ATOM     40  C   UNL A   1      37.273  31.280  31.707  1.00  0.00     0.031 C 
ATOM     41  C   UNL A   1      38.748  28.379  27.864  1.00  0.00     0.029 A 
ATOM     42  N   UNL A   1      40.040  28.409  29.689  1.00  0.00    -0.354 N 
ATOM     43  C   UNL A   1      39.069  30.900  33.072  1.00  0.00     0.074 A 
ATOM     44  C   UNL A   1      37.853  31.648  32.840  1.00  0.00     0.031 C 
ATOM     45  C   UNL A   1      39.814  27.603  27.615  1.00  0.00     0.029 A 
ATOM     46  C   UNL A   1      40.702  27.624  28.774  1.00  0.00     0.049 A 
ATOM     47  H   UNL A   1      40.381  28.582  30.597  1.00  0.00     0.167 HD
ATOM     48  C   UNL A   1      39.813  30.988  34.200  1.00  0.00     0.034 A 
ATOM     49  C   UNL A   1      41.896  27.004  28.849  1.00  0.00     0.034 A 
ATOM     50  C   UNL A   1      41.008  30.223  34.441  1.00  0.00     0.049 A 
ATOM     51  C   UNL A   1      42.692  27.098  30.121  1.00  0.00     0.074 A 
ATOM     52  C   UNL A   1      41.787  30.182  35.584  1.00  0.00     0.029 A 
ATOM     53  N   UNL A   1      41.606  29.377  33.520  1.00  0.00    -0.354 N 
ATOM     54  N   UNL A   1      42.407  27.741  31.227  1.00  0.00    -0.248 NA
ATOM     55  C   UNL A   1      43.958  26.351  30.172  1.00  0.00     0.031 C 
ATOM     56  C   UNL A   1      42.875  29.337  35.341  1.00  0.00     0.029 A 
ATOM     57  C   UNL A   1      42.751  28.818  34.062  1.00  0.00     0.049 A 
ATOM     58  H   UNL A   1      41.267  29.199  32.613  1.00  0.00     0.167 HD
ATOM     59  C   UNL A   1      43.435  27.448  32.116  1.00  0.00     0.074 A 
ATOM     60  C   UNL A   1      44.341  26.552  31.426  1.00  0.00     0.031 C 
ATOM     61  C   UNL A   1      43.620  27.890  33.385  1.00  0.00     0.034 A 
BRANCH  48  62
ATOM     62  C   UNL A   1      39.330  31.915  35.287  1.00  0.00     0.023 A 
ATOM     63  C   UNL A   1      38.404  31.447  36.242  1.00  0.00     0.012 A 
ATOM     64  C   UNL A   1      39.830  33.227  35.399  1.00  0.00     0.148 A 
ATOM     65  C   UNL A   1      37.953  32.281  37.264  1.00  0.00     0.002 A 
ATOM     66  C   UNL A   1      39.413  34.037  36.449  1.00  0.00     0.091 A 
ATOM     67  F   UNL A   1      40.698  33.663  34.474  1.00  0.00    -0.205 F 
ATOM     68  C   UNL A   1      38.464  33.570  37.374  1.00  0.00     0.022 A 
BRANCH  66  69
ATOM     69  S   UNL A   1      40.074  35.683  36.729  1.00  0.00     0.127 S 
ATOM     70  O   UNL A   1      39.629  36.388  35.527  1.00  0.00    -0.237 OA
ATOM     71  O   UNL A   1      39.389  36.084  37.958  1.00  0.00    -0.237 OA
ATOM     72  O   UNL A   1      41.515  35.522  36.860  1.00  0.00    -0.744 OA
ENDBRANCH  66  69
ENDBRANCH  48  62
BRANCH  49  73
ATOM     73  C   UNL A   1      42.389  26.197  27.696  1.00  0.00     0.023 A 
ATOM     74  C   UNL A   1      43.296  26.769  26.783  1.00  0.00     0.012 A 
ATOM     75  C   UNL A   1      41.984  24.860  27.515  1.00  0.00     0.148 A 
ATOM     76  C   UNL A   1      43.763  26.037  25.691  1.00  0.00     0.002 A 
ATOM     77  C   UNL A   1      42.499  24.117  26.458  1.00  0.00     0.091 A 
ATOM     78  F   UNL A   1      41.115  24.335  28.390  1.00  0.00    -0.205 F 
ATOM     79  C   UNL A   1      43.373  24.710  25.534  1.00  0.00     0.022 A 
BRANCH  77  80
ATOM     80  S   UNL A   1      42.158  22.366  26.254  1.00  0.00     0.127 S 
ATOM     81  O   UNL A   1      40.703  22.358  26.123  1.00  0.00    -0.237 OA
ATOM     82  O   UNL A   1      42.888  22.059  25.023  1.00  0.00    -0.237 OA
ATOM     83  O   UNL A   1      42.688  21.716  27.445  1.00  0.00    -0.744 OA
ENDBRANCH  77  80
ENDBRANCH  49  73
BRANCH  61  84
ATOM     84  C   UNL A   1      44.824  27.383  34.136  1.00  0.00     0.023 A 
ATOM     85  C   UNL A   1      46.068  28.030  33.999  1.00  0.00     0.012 A 
ATOM     86  C   UNL A   1      44.703  26.303  35.034  1.00  0.00     0.148 A 
ATOM     87  C   UNL A   1      47.180  27.590  34.716  1.00  0.00     0.002 A 
ATOM     88  C   UNL A   1      45.801  25.904  35.785  1.00  0.00     0.091 A 
ATOM     89  F   UNL A   1      43.515  25.689  35.139  1.00  0.00    -0.205 F 
ATOM     90  C   UNL A   1      47.044  26.536  35.617  1.00  0.00     0.022 A 
BRANCH  88  91
ATOM     91  S   UNL A   1      45.698  24.623  37.040  1.00  0.00     0.127 S 
ATOM     92  O   UNL A   1      45.771  23.407  36.232  1.00  0.00    -0.237 OA
ATOM     93  O   UNL A   1      46.887  24.889  37.852  1.00  0.00    -0.237 OA
ATOM     94  O   UNL A   1      44.434  24.837  37.732  1.00  0.00    -0.744 OA
ENDBRANCH  88  91
ENDBRANCH  61  84
ENDBRANCH  35  36
ENDBRANCH  27  30
ENDBRANCH  25  26
ENDBRANCH  24  25
ENDBRANCH   1  24
TORSDOF 18
ENDMDL
