MODEL 1
REMARK VINA RESULT:     -12.1      0.000      0.000
REMARK SMILES O=C(/C=C/c1ccc(O)cc1)NC[C@@H]1CC[C@H](C(=O)NCCCCNC(=O)c2ccc(-c3c4nc(c(-c5cccc(S(=O)(=O)[O-])c5F)c5ccc([nH]5)c(-c5cccc(S(=O)(=O)[O-])c5F)c5nc(c(-c6cccc(S(=O)(=O)[O-])c6F)c6ccc3[nH]6)C=C5)C=C4)cc2)O1
REMARK SMILES IDX 21 1 20 2 18 3 19 4 17 6 14 7 15 8 91 9 16 10 13 11 12 12
REMARK SMILES IDX 1 13 2 14 3 16 4 17 5 18 6 19 11 20 7 21 10 22 8 23 9 24
REMARK SMILES IDX 22 26 23 27 24 28 25 29 26 30 27 32 28 33 29 34 90 35 30 36
REMARK SMILES IDX 89 37 31 38 32 39 33 40 83 41 34 42 88 43 82 44 84 45 35 46
REMARK SMILES IDX 87 47 81 48 80 49 36 51 68 52 48 53 67 54 49 55 52 56 66 57
REMARK SMILES IDX 85 58 50 59 51 60 65 62 86 63 53 64 37 65 38 66 46 67 39 68
REMARK SMILES IDX 41 69 47 70 40 71 42 72 43 73 44 74 45 75 69 76 70 77 78 78
REMARK SMILES IDX 71 79 73 80 79 81 72 82 74 83 75 84 76 85 77 86 54 87 55 88
REMARK SMILES IDX 63 89 56 90 58 91 64 92 57 93 59 94 60 95 61 96 62 97
REMARK H PARENT 20 5 12 15 9 25 25 31 84 50 52 61
REMARK Flexibility Score: inf
ROOT
ATOM      1  C   UNL A   1      31.806  29.588  25.422  1.00  0.00     0.116 C 
ENDROOT
BRANCH   1   2
ATOM      2  N   UNL A   1      32.988  29.576  24.591  1.00  0.00    -0.354 N 
ATOM      3  C   UNL A   1      33.343  28.712  23.596  1.00  0.00     0.249 C 
ATOM      4  O   UNL A   1      34.397  28.936  22.992  1.00  0.00    -0.272 OA
ATOM      5  H   UNL A   1      33.633  30.297  24.768  1.00  0.00     0.163 HD
BRANCH   3   6
ATOM      6  C   UNL A   1      32.500  27.460  23.252  1.00  0.00     0.207 C 
ATOM      7  C   UNL A   1      32.468  25.227  23.980  1.00  0.00     0.138 C 
ATOM      8  C   UNL A   1      33.334  25.258  22.731  1.00  0.00     0.037 C 
ATOM      9  O   UNL A   1      32.208  26.595  24.347  1.00  0.00    -0.363 OA
ATOM     10  C   UNL A   1      33.084  26.621  22.127  1.00  0.00     0.045 C 
BRANCH   7  11
ATOM     11  C   UNL A   1      33.127  24.532  25.184  1.00  0.00     0.148 C 
BRANCH  11  12
ATOM     12  N   UNL A   1      33.251  23.100  25.050  1.00  0.00    -0.350 N 
ATOM     13  O   UNL A   1      35.490  23.121  24.557  1.00  0.00    -0.270 OA
ATOM     14  C   UNL A   1      34.461  22.505  24.811  1.00  0.00     0.244 C 
ATOM     15  H   UNL A   1      32.447  22.538  25.133  1.00  0.00     0.163 HD
BRANCH  14  16
ATOM     16  C   UNL A   1      34.502  21.023  24.902  1.00  0.00     0.072 C 
ATOM     17  C   UNL A   1      33.438  20.215  25.020  1.00  0.00     0.014 C 
BRANCH  17  18
ATOM     18  C   UNL A   1      33.538  18.753  25.028  1.00  0.00    -0.025 A 
ATOM     19  C   UNL A   1      34.533  18.058  24.328  1.00  0.00     0.012 A 
ATOM     20  C   UNL A   1      32.620  18.034  25.805  1.00  0.00     0.012 A 
ATOM     21  C   UNL A   1      34.590  16.662  24.381  1.00  0.00     0.047 A 
ATOM     22  C   UNL A   1      32.674  16.642  25.856  1.00  0.00     0.047 A 
ATOM     23  C   UNL A   1      33.655  15.967  25.141  1.00  0.00     0.115 A 
BRANCH  23  24
ATOM     24  O   UNL A   1      33.668  14.606  25.214  1.00  0.00    -0.508 OA
ATOM     25  H   UNL A   1      33.850  14.098  24.449  1.00  0.00     0.293 HD
ENDBRANCH  23  24
ENDBRANCH  17  18
ENDBRANCH  14  16
ENDBRANCH  11  12
ENDBRANCH   7  11
ENDBRANCH   3   6
ENDBRANCH   1   2
BRANCH   1  26
ATOM     26  C   UNL A   1      32.058  30.219  26.789  1.00  0.00     0.023 C 
BRANCH  26  27
ATOM     27  C   UNL A   1      31.773  31.719  26.842  1.00  0.00     0.023 C 
BRANCH  27  28
ATOM     28  C   UNL A   1      32.936  32.572  27.340  1.00  0.00     0.116 C 
BRANCH  28  29
ATOM     29  N   UNL A   1      32.577  33.951  27.643  1.00  0.00    -0.352 N 
ATOM     30  C   UNL A   1      33.137  34.773  28.593  1.00  0.00     0.251 C 
ATOM     31  H   UNL A   1      31.849  34.338  27.104  1.00  0.00     0.163 HD
ATOM     32  O   UNL A   1      32.672  35.889  28.808  1.00  0.00    -0.269 OA
BRANCH  30  33
ATOM     33  C   UNL A   1      34.281  34.278  29.386  1.00  0.00     0.039 A 
ATOM     34  C   UNL A   1      34.033  33.553  30.554  1.00  0.00     0.014 A 
ATOM     35  C   UNL A   1      35.592  34.487  28.948  1.00  0.00     0.014 A 
ATOM     36  C   UNL A   1      35.102  32.988  31.253  1.00  0.00     0.010 A 
ATOM     37  C   UNL A   1      36.645  33.853  29.598  1.00  0.00     0.010 A 
ATOM     38  C   UNL A   1      36.414  33.110  30.765  1.00  0.00    -0.014 A 
BRANCH  38  39
ATOM     39  C   UNL A   1      37.560  32.482  31.470  1.00  0.00     0.031 A 
ATOM     40  C   UNL A   1      38.307  31.345  30.826  1.00  0.00     0.074 A 
ATOM     41  C   UNL A   1      37.873  32.873  32.721  1.00  0.00     0.049 A 
ATOM     42  N   UNL A   1      39.311  30.649  31.293  1.00  0.00    -0.248 NA
ATOM     43  C   UNL A   1      37.842  30.908  29.498  1.00  0.00     0.031 C 
ATOM     44  C   UNL A   1      37.159  33.891  33.494  1.00  0.00     0.029 A 
ATOM     45  N   UNL A   1      38.859  32.441  33.572  1.00  0.00    -0.354 N 
ATOM     46  C   UNL A   1      39.567  29.669  30.341  1.00  0.00     0.074 A 
ATOM     47  C   UNL A   1      38.587  29.833  29.291  1.00  0.00     0.031 C 
ATOM     48  C   UNL A   1      37.736  34.010  34.701  1.00  0.00     0.029 A 
ATOM     49  C   UNL A   1      38.848  33.069  34.795  1.00  0.00     0.049 A 
ATOM     50  H   UNL A   1      39.513  31.747  33.330  1.00  0.00     0.167 HD
ATOM     51  C   UNL A   1      40.552  28.740  30.323  1.00  0.00     0.034 A 
ATOM     52  C   UNL A   1      39.649  32.910  35.867  1.00  0.00     0.034 A 
ATOM     53  C   UNL A   1      41.563  28.624  31.336  1.00  0.00     0.049 A 
ATOM     54  C   UNL A   1      40.795  31.939  35.782  1.00  0.00     0.074 A 
ATOM     55  C   UNL A   1      42.668  27.792  31.360  1.00  0.00     0.029 A 
ATOM     56  N   UNL A   1      41.595  29.365  32.507  1.00  0.00    -0.354 N 
ATOM     57  N   UNL A   1      41.133  31.145  34.795  1.00  0.00    -0.248 NA
ATOM     58  C   UNL A   1      41.700  31.876  36.940  1.00  0.00     0.031 C 
ATOM     59  C   UNL A   1      43.362  28.023  32.554  1.00  0.00     0.029 A 
ATOM     60  C   UNL A   1      42.698  29.012  33.263  1.00  0.00     0.049 A 
ATOM     61  H   UNL A   1      40.928  30.044  32.764  1.00  0.00     0.167 HD
ATOM     62  C   UNL A   1      42.308  30.517  35.194  1.00  0.00     0.074 A 
ATOM     63  C   UNL A   1      42.633  31.039  36.506  1.00  0.00     0.031 C 
ATOM     64  C   UNL A   1      43.041  29.583  34.541  1.00  0.00     0.034 A 
BRANCH  51  65
ATOM     65  C   UNL A   1      40.617  27.821  29.130  1.00  0.00     0.023 A 
ATOM     66  C   UNL A   1      39.741  26.717  29.056  1.00  0.00     0.012 A 
ATOM     67  C   UNL A   1      41.514  28.061  28.072  1.00  0.00     0.148 A 
ATOM     68  C   UNL A   1      39.787  25.843  27.972  1.00  0.00     0.002 A 
ATOM     69  C   UNL A   1      41.522  27.212  26.972  1.00  0.00     0.091 A 
ATOM     70  F   UNL A   1      42.356  29.099  28.168  1.00  0.00    -0.205 F 
ATOM     71  C   UNL A   1      40.670  26.095  26.925  1.00  0.00     0.022 A 
BRANCH  69  72
ATOM     72  S   UNL A   1      42.566  27.500  25.538  1.00  0.00     0.127 S 
ATOM     73  O   UNL A   1      41.953  28.694  24.960  1.00  0.00    -0.237 OA
ATOM     74  O   UNL A   1      43.877  27.723  26.149  1.00  0.00    -0.237 OA
ATOM     75  O   UNL A   1      42.475  26.291  24.732  1.00  0.00    -0.744 OA
ENDBRANCH  69  72
ENDBRANCH  51  65
BRANCH  52  76
ATOM     76  C   UNL A   1      39.451  33.766  37.070  1.00  0.00     0.023 A 
ATOM     77  C   UNL A   1      39.864  35.113  37.034  1.00  0.00     0.012 A 
ATOM     78  C   UNL A   1      38.819  33.273  38.228  1.00  0.00     0.148 A 
ATOM     79  C   UNL A   1      39.679  35.945  38.138  1.00  0.00     0.002 A 
ATOM     80  C   UNL A   1      38.591  34.122  39.307  1.00  0.00     0.091 A 
ATOM     81  F   UNL A   1      38.441  31.987  38.247  1.00  0.00    -0.205 F 
ATOM     82  C   UNL A   1      39.034  35.453  39.269  1.00  0.00     0.022 A 
BRANCH  80  83
ATOM     83  S   UNL A   1      37.653  33.614  40.752  1.00  0.00     0.127 S 
ATOM     84  O   UNL A   1      38.577  32.686  41.397  1.00  0.00    -0.237 OA
ATOM     85  O   UNL A   1      37.466  34.886  41.453  1.00  0.00    -0.237 OA
ATOM     86  O   UNL A   1      36.423  33.029  40.236  1.00  0.00    -0.744 OA
ENDBRANCH  80  83
ENDBRANCH  52  76
BRANCH  64  87
ATOM     87  C   UNL A   1      44.294  29.084  35.211  1.00  0.00     0.023 A 
ATOM     88  C   UNL A   1      45.529  29.703  34.936  1.00  0.00     0.012 A 
ATOM     89  C   UNL A   1      44.235  28.054  36.169  1.00  0.00     0.148 A 
ATOM     90  C   UNL A   1      46.691  29.282  35.583  1.00  0.00     0.002 A 
ATOM     91  C   UNL A   1      45.388  27.672  36.844  1.00  0.00     0.091 A 
ATOM     92  F   UNL A   1      43.053  27.461  36.402  1.00  0.00    -0.205 F 
ATOM     93  C   UNL A   1      46.619  28.277  36.544  1.00  0.00     0.022 A 
BRANCH  91  94
ATOM     94  S   UNL A   1      45.362  26.454  38.164  1.00  0.00     0.127 S 
ATOM     95  O   UNL A   1      44.969  25.243  37.447  1.00  0.00    -0.237 OA
ATOM     96  O   UNL A   1      46.751  26.463  38.628  1.00  0.00    -0.237 OA
ATOM     97  O   UNL A   1      44.401  26.949  39.141  1.00  0.00    -0.744 OA
ENDBRANCH  91  94
ENDBRANCH  64  87
ENDBRANCH  38  39
ENDBRANCH  30  33
ENDBRANCH  28  29
ENDBRANCH  27  28
ENDBRANCH  26  27
ENDBRANCH   1  26
TORSDOF 19
ENDMDL
MODEL 2
REMARK VINA RESULT:     -12.0      3.669      9.513
REMARK SMILES O=C(/C=C/c1ccc(O)cc1)NC[C@@H]1CC[C@H](C(=O)NCCCCNC(=O)c2ccc(-c3c4nc(c(-c5cccc(S(=O)(=O)[O-])c5F)c5ccc([nH]5)c(-c5cccc(S(=O)(=O)[O-])c5F)c5nc(c(-c6cccc(S(=O)(=O)[O-])c6F)c6ccc3[nH]6)C=C5)C=C4)cc2)O1
REMARK SMILES IDX 21 1 20 2 18 3 19 4 17 6 14 7 15 8 91 9 16 10 13 11 12 12
REMARK SMILES IDX 1 13 2 14 3 16 4 17 5 18 6 19 11 20 7 21 10 22 8 23 9 24
REMARK SMILES IDX 22 26 23 27 24 28 25 29 26 30 27 32 28 33 29 34 90 35 30 36
REMARK SMILES IDX 89 37 31 38 32 39 33 40 83 41 34 42 88 43 82 44 84 45 35 46
REMARK SMILES IDX 87 47 81 48 80 49 36 51 68 52 48 53 67 54 49 55 52 56 66 57
REMARK SMILES IDX 85 58 50 59 51 60 65 62 86 63 53 64 37 65 38 66 46 67 39 68
REMARK SMILES IDX 41 69 47 70 40 71 42 72 43 73 44 74 45 75 69 76 70 77 78 78
REMARK SMILES IDX 71 79 73 80 79 81 72 82 74 83 75 84 76 85 77 86 54 87 55 88
REMARK SMILES IDX 63 89 56 90 58 91 64 92 57 93 59 94 60 95 61 96 62 97
REMARK H PARENT 20 5 12 15 9 25 25 31 84 50 52 61
REMARK Flexibility Score: inf
ROOT
ATOM      1  C   UNL A   1      33.562  25.945  24.579  1.00  0.00     0.116 C 
ENDROOT
BRANCH   1   2
ATOM      2  N   UNL A   1      34.132  25.147  23.518  1.00  0.00    -0.354 N 
ATOM      3  C   UNL A   1      34.338  23.799  23.458  1.00  0.00     0.249 C 
ATOM      4  O   UNL A   1      34.807  23.338  22.413  1.00  0.00    -0.272 OA
ATOM      5  H   UNL A   1      34.413  25.649  22.721  1.00  0.00     0.163 HD
BRANCH   3   6
ATOM      6  C   UNL A   1      34.051  22.867  24.660  1.00  0.00     0.207 C 
ATOM      7  C   UNL A   1      32.175  22.407  25.996  1.00  0.00     0.138 C 
ATOM      8  C   UNL A   1      32.973  23.473  26.730  1.00  0.00     0.037 C 
ATOM      9  O   UNL A   1      32.755  22.275  24.685  1.00  0.00    -0.363 OA
ATOM     10  C   UNL A   1      34.302  23.519  26.010  1.00  0.00     0.045 C 
BRANCH   7  11
ATOM     11  C   UNL A   1      30.685  22.747  25.821  1.00  0.00     0.148 C 
BRANCH  11  12
ATOM     12  N   UNL A   1      30.411  24.155  25.655  1.00  0.00    -0.350 N 
ATOM     13  O   UNL A   1      30.491  24.124  23.364  1.00  0.00    -0.270 OA
ATOM     14  C   UNL A   1      30.268  24.716  24.414  1.00  0.00     0.244 C 
ATOM     15  H   UNL A   1      30.324  24.725  26.453  1.00  0.00     0.163 HD
BRANCH  14  16
ATOM     16  C   UNL A   1      29.782  26.119  24.372  1.00  0.00     0.072 C 
ATOM     17  C   UNL A   1      29.851  26.941  23.315  1.00  0.00     0.014 C 
BRANCH  17  18
ATOM     18  C   UNL A   1      29.284  28.292  23.310  1.00  0.00    -0.025 A 
ATOM     19  C   UNL A   1      30.061  29.441  23.512  1.00  0.00     0.012 A 
ATOM     20  C   UNL A   1      27.914  28.430  23.051  1.00  0.00     0.012 A 
ATOM     21  C   UNL A   1      29.469  30.707  23.484  1.00  0.00     0.047 A 
ATOM     22  C   UNL A   1      27.323  29.693  23.025  1.00  0.00     0.047 A 
ATOM     23  C   UNL A   1      28.103  30.820  23.246  1.00  0.00     0.115 A 
BRANCH  23  24
ATOM     24  O   UNL A   1      27.484  32.034  23.219  1.00  0.00    -0.508 OA
ATOM     25  H   UNL A   1      27.946  32.802  23.489  1.00  0.00     0.293 HD
ENDBRANCH  23  24
ENDBRANCH  17  18
ENDBRANCH  14  16
ENDBRANCH  11  12
ENDBRANCH   7  11
ENDBRANCH   3   6
ENDBRANCH   1   2
BRANCH   1  26
ATOM     26  C   UNL A   1      33.303  27.388  24.153  1.00  0.00     0.023 C 
BRANCH  26  27
ATOM     27  C   UNL A   1      34.245  28.404  24.797  1.00  0.00     0.023 C 
BRANCH  27  28
ATOM     28  C   UNL A   1      34.073  28.568  26.303  1.00  0.00     0.116 C 
BRANCH  28  29
ATOM     29  N   UNL A   1      33.645  29.900  26.712  1.00  0.00    -0.352 N 
ATOM     30  C   UNL A   1      34.285  30.756  27.578  1.00  0.00     0.251 C 
ATOM     31  H   UNL A   1      32.801  30.223  26.323  1.00  0.00     0.163 HD
ATOM     32  O   UNL A   1      33.764  31.817  27.910  1.00  0.00    -0.269 OA
BRANCH  30  33
ATOM     33  C   UNL A   1      35.593  30.361  28.142  1.00  0.00     0.039 A 
ATOM     34  C   UNL A   1      35.630  29.718  29.381  1.00  0.00     0.014 A 
ATOM     35  C   UNL A   1      36.771  30.582  27.423  1.00  0.00     0.014 A 
ATOM     36  C   UNL A   1      36.848  29.243  29.874  1.00  0.00     0.010 A 
ATOM     37  C   UNL A   1      37.967  30.035  27.876  1.00  0.00     0.010 A 
ATOM     38  C   UNL A   1      38.021  29.374  29.112  1.00  0.00    -0.014 A 
BRANCH  38  39
ATOM     39  C   UNL A   1      39.319  28.841  29.598  1.00  0.00     0.031 A 
ATOM     40  C   UNL A   1      40.037  29.525  30.730  1.00  0.00     0.074 A 
ATOM     41  C   UNL A   1      39.892  27.797  28.967  1.00  0.00     0.049 A 
ATOM     42  N   UNL A   1      41.190  29.230  31.273  1.00  0.00    -0.248 NA
ATOM     43  C   UNL A   1      39.395  30.720  31.303  1.00  0.00     0.031 C 
ATOM     44  C   UNL A   1      39.347  27.114  27.792  1.00  0.00     0.029 A 
ATOM     45  N   UNL A   1      41.076  27.146  29.211  1.00  0.00    -0.354 N 
ATOM     46  C   UNL A   1      41.430  30.223  32.215  1.00  0.00     0.074 A 
ATOM     47  C   UNL A   1      40.325  31.151  32.141  1.00  0.00     0.031 C 
ATOM     48  C   UNL A   1      40.190  26.135  27.424  1.00  0.00     0.029 A 
ATOM     49  C   UNL A   1      41.340  26.130  28.323  1.00  0.00     0.049 A 
ATOM     50  H   UNL A   1      41.678  27.382  29.952  1.00  0.00     0.167 HD
ATOM     51  C   UNL A   1      42.457  30.333  33.090  1.00  0.00     0.034 A 
ATOM     52  C   UNL A   1      42.387  25.284  28.248  1.00  0.00     0.034 A 
ATOM     53  C   UNL A   1      43.518  29.372  33.205  1.00  0.00     0.049 A 
ATOM     54  C   UNL A   1      43.466  25.367  29.293  1.00  0.00     0.074 A 
ATOM     55  C   UNL A   1      44.547  29.330  34.130  1.00  0.00     0.029 A 
ATOM     56  N   UNL A   1      43.688  28.280  32.368  1.00  0.00    -0.354 N 
ATOM     57  N   UNL A   1      43.583  26.205  30.295  1.00  0.00    -0.248 NA
ATOM     58  C   UNL A   1      44.535  24.358  29.227  1.00  0.00     0.031 C 
ATOM     59  C   UNL A   1      45.346  28.217  33.842  1.00  0.00     0.029 A 
ATOM     60  C   UNL A   1      44.803  27.557  32.750  1.00  0.00     0.049 A 
ATOM     61  H   UNL A   1      43.100  28.054  31.610  1.00  0.00     0.167 HD
ATOM     62  C   UNL A   1      44.712  25.803  31.000  1.00  0.00     0.074 A 
ATOM     63  C   UNL A   1      45.232  24.634  30.321  1.00  0.00     0.031 C 
ATOM     64  C   UNL A   1      45.274  26.360  32.100  1.00  0.00     0.034 A 
BRANCH  51  65
ATOM     65  C   UNL A   1      42.439  31.505  34.039  1.00  0.00     0.023 A 
ATOM     66  C   UNL A   1      43.075  32.707  33.667  1.00  0.00     0.012 A 
ATOM     67  C   UNL A   1      41.771  31.432  35.275  1.00  0.00     0.148 A 
ATOM     68  C   UNL A   1      43.086  33.803  34.528  1.00  0.00     0.002 A 
ATOM     69  C   UNL A   1      41.745  32.544  36.109  1.00  0.00     0.091 A 
ATOM     70  F   UNL A   1      41.192  30.274  35.625  1.00  0.00    -0.205 F 
ATOM     71  C   UNL A   1      42.413  33.725  35.744  1.00  0.00     0.022 A 
BRANCH  69  72
ATOM     72  S   UNL A   1      40.838  32.566  37.660  1.00  0.00     0.127 S 
ATOM     73  O   UNL A   1      41.738  31.824  38.540  1.00  0.00    -0.237 OA
ATOM     74  O   UNL A   1      40.749  33.999  37.946  1.00  0.00    -0.237 OA
ATOM     75  O   UNL A   1      39.560  31.927  37.381  1.00  0.00    -0.744 OA
ENDBRANCH  69  72
ENDBRANCH  51  65
BRANCH  52  76
ATOM     76  C   UNL A   1      42.406  24.223  27.202  1.00  0.00     0.023 A 
ATOM     77  C   UNL A   1      43.276  24.357  26.101  1.00  0.00     0.012 A 
ATOM     78  C   UNL A   1      41.608  23.068  27.311  1.00  0.00     0.148 A 
ATOM     79  C   UNL A   1      43.329  23.374  25.113  1.00  0.00     0.002 A 
ATOM     80  C   UNL A   1      41.704  22.068  26.348  1.00  0.00     0.091 A 
ATOM     81  F   UNL A   1      40.781  22.964  28.361  1.00  0.00    -0.205 F 
ATOM     82  C   UNL A   1      42.552  22.226  25.241  1.00  0.00     0.022 A 
BRANCH  80  83
ATOM     83  S   UNL A   1      40.841  20.499  26.498  1.00  0.00     0.127 S 
ATOM     84  O   UNL A   1      39.496  20.856  26.056  1.00  0.00    -0.237 OA
ATOM     85  O   UNL A   1      41.591  19.652  25.569  1.00  0.00    -0.237 OA
ATOM     86  O   UNL A   1      40.968  20.113  27.897  1.00  0.00    -0.744 OA
ENDBRANCH  80  83
ENDBRANCH  52  76
BRANCH  64  87
ATOM     87  C   UNL A   1      46.500  25.697  32.670  1.00  0.00     0.023 A 
ATOM     88  C   UNL A   1      47.780  26.157  32.302  1.00  0.00     0.012 A 
ATOM     89  C   UNL A   1      46.383  24.672  33.629  1.00  0.00     0.148 A 
ATOM     90  C   UNL A   1      48.925  25.583  32.856  1.00  0.00     0.002 A 
ATOM     91  C   UNL A   1      47.526  24.138  34.211  1.00  0.00     0.091 A 
ATOM     92  F   UNL A   1      45.156  24.232  33.951  1.00  0.00    -0.205 F 
ATOM     93  C   UNL A   1      48.797  24.584  33.819  1.00  0.00     0.022 A 
BRANCH  91  94
ATOM     94  S   UNL A   1      47.445  22.918  35.528  1.00  0.00     0.127 S 
ATOM     95  O   UNL A   1      46.648  23.616  36.534  1.00  0.00    -0.237 OA
ATOM     96  O   UNL A   1      46.760  21.798  34.878  1.00  0.00    -0.237 OA
ATOM     97  O   UNL A   1      48.827  22.641  35.897  1.00  0.00    -0.744 OA
ENDBRANCH  91  94
ENDBRANCH  64  87
ENDBRANCH  38  39
ENDBRANCH  30  33
ENDBRANCH  28  29
ENDBRANCH  27  28
ENDBRANCH  26  27
ENDBRANCH   1  26
TORSDOF 19
ENDMDL
MODEL 3
REMARK VINA RESULT:     -11.9      3.118      8.389
REMARK SMILES O=C(/C=C/c1ccc(O)cc1)NC[C@@H]1CC[C@H](C(=O)NCCCCNC(=O)c2ccc(-c3c4nc(c(-c5cccc(S(=O)(=O)[O-])c5F)c5ccc([nH]5)c(-c5cccc(S(=O)(=O)[O-])c5F)c5nc(c(-c6cccc(S(=O)(=O)[O-])c6F)c6ccc3[nH]6)C=C5)C=C4)cc2)O1
REMARK SMILES IDX 21 1 20 2 18 3 19 4 17 6 14 7 15 8 91 9 16 10 13 11 12 12
REMARK SMILES IDX 1 13 2 14 3 16 4 17 5 18 6 19 11 20 7 21 10 22 8 23 9 24
REMARK SMILES IDX 22 26 23 27 24 28 25 29 26 30 27 32 28 33 29 34 90 35 30 36
REMARK SMILES IDX 89 37 31 38 32 39 33 40 83 41 34 42 88 43 82 44 84 45 35 46
REMARK SMILES IDX 87 47 81 48 80 49 36 51 68 52 48 53 67 54 49 55 52 56 66 57
REMARK SMILES IDX 85 58 50 59 51 60 65 62 86 63 53 64 37 65 38 66 46 67 39 68
REMARK SMILES IDX 41 69 47 70 40 71 42 72 43 73 44 74 45 75 69 76 70 77 78 78
REMARK SMILES IDX 71 79 73 80 79 81 72 82 74 83 75 84 76 85 77 86 54 87 55 88
REMARK SMILES IDX 63 89 56 90 58 91 64 92 57 93 59 94 60 95 61 96 62 97
REMARK H PARENT 20 5 12 15 9 25 25 31 84 50 52 61
REMARK Flexibility Score: inf
ROOT
ATOM      1  C   UNL A   1      31.556  29.406  24.185  1.00  0.00     0.116 C 
ENDROOT
BRANCH   1   2
ATOM      2  N   UNL A   1      32.701  29.179  23.334  1.00  0.00    -0.354 N 
ATOM      3  C   UNL A   1      33.006  28.099  22.556  1.00  0.00     0.249 C 
ATOM      4  O   UNL A   1      34.035  28.157  21.875  1.00  0.00    -0.272 OA
ATOM      5  H   UNL A   1      33.358  29.910  23.311  1.00  0.00     0.163 HD
BRANCH   3   6
ATOM      6  C   UNL A   1      32.139  26.817  22.549  1.00  0.00     0.207 C 
ATOM      7  C   UNL A   1      32.311  24.689  23.530  1.00  0.00     0.138 C 
ATOM      8  C   UNL A   1      32.896  24.566  22.132  1.00  0.00     0.037 C 
ATOM      9  O   UNL A   1      32.103  26.093  23.776  1.00  0.00    -0.363 OA
ATOM     10  C   UNL A   1      32.494  25.846  21.435  1.00  0.00     0.045 C 
BRANCH   7  11
ATOM     11  C   UNL A   1      33.223  24.145  24.643  1.00  0.00     0.148 C 
BRANCH  11  12
ATOM     12  N   UNL A   1      33.272  22.704  24.720  1.00  0.00    -0.350 N 
ATOM     13  O   UNL A   1      35.444  22.521  24.011  1.00  0.00    -0.270 OA
ATOM     14  C   UNL A   1      34.423  22.010  24.458  1.00  0.00     0.244 C 
ATOM     15  H   UNL A   1      32.458  22.208  24.969  1.00  0.00     0.163 HD
BRANCH  14  16
ATOM     16  C   UNL A   1      34.411  20.559  24.773  1.00  0.00     0.072 C 
ATOM     17  C   UNL A   1      33.484  19.677  24.370  1.00  0.00     0.014 C 
BRANCH  17  18
ATOM     18  C   UNL A   1      33.568  18.241  24.649  1.00  0.00    -0.025 A 
ATOM     19  C   UNL A   1      34.732  17.494  24.427  1.00  0.00     0.012 A 
ATOM     20  C   UNL A   1      32.445  17.610  25.200  1.00  0.00     0.012 A 
ATOM     21  C   UNL A   1      34.761  16.128  24.724  1.00  0.00     0.047 A 
ATOM     22  C   UNL A   1      32.473  16.248  25.494  1.00  0.00     0.047 A 
ATOM     23  C   UNL A   1      33.628  15.517  25.250  1.00  0.00     0.115 A 
BRANCH  23  24
ATOM     24  O   UNL A   1      33.609  14.187  25.546  1.00  0.00    -0.508 OA
ATOM     25  H   UNL A   1      33.661  13.904  26.438  1.00  0.00     0.293 HD
ENDBRANCH  23  24
ENDBRANCH  17  18
ENDBRANCH  14  16
ENDBRANCH  11  12
ENDBRANCH   7  11
ENDBRANCH   3   6
ENDBRANCH   1   2
BRANCH   1  26
ATOM     26  C   UNL A   1      31.942  29.585  25.651  1.00  0.00     0.023 C 
BRANCH  26  27
ATOM     27  C   UNL A   1      33.421  29.326  25.939  1.00  0.00     0.023 C 
BRANCH  27  28
ATOM     28  C   UNL A   1      33.803  29.392  27.415  1.00  0.00     0.116 C 
BRANCH  28  29
ATOM     29  N   UNL A   1      33.693  30.722  27.999  1.00  0.00    -0.352 N 
ATOM     30  C   UNL A   1      34.620  31.372  28.782  1.00  0.00     0.251 C 
ATOM     31  H   UNL A   1      32.860  31.211  27.812  1.00  0.00     0.163 HD
ATOM     32  O   UNL A   1      34.359  32.459  29.290  1.00  0.00    -0.269 OA
BRANCH  30  33
ATOM     33  C   UNL A   1      35.922  30.723  29.042  1.00  0.00     0.039 A 
ATOM     34  C   UNL A   1      37.060  31.203  28.388  1.00  0.00     0.014 A 
ATOM     35  C   UNL A   1      36.024  29.679  29.965  1.00  0.00     0.014 A 
ATOM     36  C   UNL A   1      38.311  30.671  28.706  1.00  0.00     0.010 A 
ATOM     37  C   UNL A   1      37.278  29.211  30.340  1.00  0.00     0.010 A 
ATOM     38  C   UNL A   1      38.433  29.690  29.704  1.00  0.00    -0.014 A 
BRANCH  38  39
ATOM     39  C   UNL A   1      39.758  29.141  30.087  1.00  0.00     0.031 A 
ATOM     40  C   UNL A   1      40.548  29.784  31.195  1.00  0.00     0.074 A 
ATOM     41  C   UNL A   1      40.289  28.121  29.383  1.00  0.00     0.049 A 
ATOM     42  N   UNL A   1      41.733  29.471  31.652  1.00  0.00    -0.248 NA
ATOM     43  C   UNL A   1      39.945  30.957  31.850  1.00  0.00     0.031 C 
ATOM     44  C   UNL A   1      39.670  27.480  28.222  1.00  0.00     0.029 A 
ATOM     45  N   UNL A   1      41.485  27.462  29.528  1.00  0.00    -0.354 N 
ATOM     46  C   UNL A   1      42.033  30.430  32.613  1.00  0.00     0.074 A 
ATOM     47  C   UNL A   1      40.926  31.359  32.643  1.00  0.00     0.031 C 
ATOM     48  C   UNL A   1      40.486  26.516  27.765  1.00  0.00     0.029 A 
ATOM     49  C   UNL A   1      41.691  26.479  28.589  1.00  0.00     0.049 A 
ATOM     50  H   UNL A   1      42.133  27.673  30.237  1.00  0.00     0.167 HD
ATOM     51  C   UNL A   1      43.114  30.509  33.424  1.00  0.00     0.034 A 
ATOM     52  C   UNL A   1      42.730  25.638  28.417  1.00  0.00     0.034 A 
ATOM     53  C   UNL A   1      44.179  29.546  33.436  1.00  0.00     0.049 A 
ATOM     54  C   UNL A   1      43.874  25.684  29.394  1.00  0.00     0.074 A 
ATOM     55  C   UNL A   1      45.264  29.472  34.292  1.00  0.00     0.029 A 
ATOM     56  N   UNL A   1      44.294  28.486  32.551  1.00  0.00    -0.354 N 
ATOM     57  N   UNL A   1      44.055  26.486  30.416  1.00  0.00    -0.248 NA
ATOM     58  C   UNL A   1      44.935  24.680  29.224  1.00  0.00     0.031 C 
ATOM     59  C   UNL A   1      46.042  28.371  33.914  1.00  0.00     0.029 A 
ATOM     60  C   UNL A   1      45.430  27.750  32.836  1.00  0.00     0.049 A 
ATOM     61  H   UNL A   1      43.659  28.286  31.824  1.00  0.00     0.167 HD
ATOM     62  C   UNL A   1      45.226  26.060  31.032  1.00  0.00     0.074 A 
ATOM     63  C   UNL A   1      45.701  24.917  30.280  1.00  0.00     0.031 C 
ATOM     64  C   UNL A   1      45.858  26.578  32.114  1.00  0.00     0.034 A 
BRANCH  51  65
ATOM     65  C   UNL A   1      43.157  31.646  34.414  1.00  0.00     0.023 A 
ATOM     66  C   UNL A   1      43.779  32.859  34.049  1.00  0.00     0.012 A 
ATOM     67  C   UNL A   1      42.561  31.531  35.683  1.00  0.00     0.148 A 
ATOM     68  C   UNL A   1      43.846  33.922  34.947  1.00  0.00     0.002 A 
ATOM     69  C   UNL A   1      42.590  32.612  36.556  1.00  0.00     0.091 A 
ATOM     70  F   UNL A   1      41.996  30.364  36.023  1.00  0.00    -0.205 F 
ATOM     71  C   UNL A   1      43.244  33.803  36.196  1.00  0.00     0.022 A 
BRANCH  69  72
ATOM     72  S   UNL A   1      41.773  32.583  38.156  1.00  0.00     0.127 S 
ATOM     73  O   UNL A   1      41.980  33.954  38.619  1.00  0.00    -0.237 OA
ATOM     74  O   UNL A   1      40.391  32.264  37.793  1.00  0.00    -0.237 OA
ATOM     75  O   UNL A   1      42.447  31.548  38.927  1.00  0.00    -0.744 OA
ENDBRANCH  69  72
ENDBRANCH  51  65
BRANCH  52  76
ATOM     76  C   UNL A   1      42.682  24.616  27.334  1.00  0.00     0.023 A 
ATOM     77  C   UNL A   1      43.297  24.893  26.097  1.00  0.00     0.012 A 
ATOM     78  C   UNL A   1      42.073  23.362  27.534  1.00  0.00     0.148 A 
ATOM     79  C   UNL A   1      43.283  23.951  25.069  1.00  0.00     0.002 A 
ATOM     80  C   UNL A   1      42.108  22.407  26.521  1.00  0.00     0.091 A 
ATOM     81  F   UNL A   1      41.486  23.121  28.714  1.00  0.00    -0.205 F 
ATOM     82  C   UNL A   1      42.698  22.706  25.283  1.00  0.00     0.022 A 
BRANCH  80  83
ATOM     83  S   UNL A   1      41.498  20.734  26.752  1.00  0.00     0.127 S 
ATOM     84  O   UNL A   1      42.255  20.299  27.923  1.00  0.00    -0.237 OA
ATOM     85  O   UNL A   1      40.072  20.963  26.991  1.00  0.00    -0.237 OA
ATOM     86  O   UNL A   1      41.794  20.033  25.510  1.00  0.00    -0.744 OA
ENDBRANCH  80  83
ENDBRANCH  52  76
BRANCH  64  87
ATOM     87  C   UNL A   1      47.117  25.896  32.581  1.00  0.00     0.023 A 
ATOM     88  C   UNL A   1      48.366  26.319  32.087  1.00  0.00     0.012 A 
ATOM     89  C   UNL A   1      47.067  24.890  33.566  1.00  0.00     0.148 A 
ATOM     90  C   UNL A   1      49.545  25.728  32.543  1.00  0.00     0.002 A 
ATOM     91  C   UNL A   1      48.247  24.340  34.050  1.00  0.00     0.091 A 
ATOM     92  F   UNL A   1      45.866  24.486  34.009  1.00  0.00    -0.205 F 
ATOM     93  C   UNL A   1      49.486  24.749  33.532  1.00  0.00     0.022 A 
BRANCH  91  94
ATOM     94  S   UNL A   1      48.262  23.145  35.392  1.00  0.00     0.127 S 
ATOM     95  O   UNL A   1      49.546  22.477  35.183  1.00  0.00    -0.237 OA
ATOM     96  O   UNL A   1      48.208  24.002  36.577  1.00  0.00    -0.237 OA
ATOM     97  O   UNL A   1      47.080  22.316  35.197  1.00  0.00    -0.744 OA
ENDBRANCH  91  94
ENDBRANCH  64  87
ENDBRANCH  38  39
ENDBRANCH  30  33
ENDBRANCH  28  29
ENDBRANCH  27  28
ENDBRANCH  26  27
ENDBRANCH   1  26
TORSDOF 19
ENDMDL
