MODEL 1
REMARK VINA RESULT:     -12.4      0.000      0.000
REMARK SMILES Cc1cc(F)ccc1S(=O)(=O)N1CCO[C@H](CC(=O)NCCCCNC(=O)c2ccc(-c3c4nc(c(-c5cccc(S(=O)(=O)[O-])c5F)c5ccc([nH]5)c(-c5cccc(S(=O)(=O)[O-])c5F)c5nc(c(-c6cccc(S(=O)(=O)[O-])c6F)c6ccc3[nH]6)C=C5)C=C4)cc2)C1
REMARK SMILES IDX 22 1 21 2 20 3 18 4 19 5 17 7 16 8 12 9 13 10 91 11 14 12
REMARK SMILES IDX 15 13 9 14 10 15 11 16 8 17 1 18 2 19 3 20 4 21 7 22 5 23
REMARK SMILES IDX 6 24 23 25 24 26 25 27 26 28 27 30 28 31 29 32 90 33 30 34
REMARK SMILES IDX 89 35 31 36 32 37 33 38 83 39 34 40 88 41 82 42 84 43 35 44
REMARK SMILES IDX 87 45 81 46 80 47 36 49 68 50 48 51 67 52 49 53 52 54 66 55
REMARK SMILES IDX 85 56 50 57 51 58 65 60 86 61 53 62 37 63 38 64 46 65 39 66
REMARK SMILES IDX 41 67 47 68 40 69 42 70 43 71 44 72 45 73 69 74 70 75 78 76
REMARK SMILES IDX 71 77 73 78 79 79 72 80 74 81 75 82 76 83 77 84 54 85 55 86
REMARK SMILES IDX 63 87 56 88 58 89 64 90 57 91 59 92 60 93 61 94 62 95
REMARK H PARENT 20 6 25 29 84 48 52 59
REMARK Flexibility Score: inf
ROOT
ATOM      1  C   UNL A   1      32.163  30.648  26.843  1.00  0.00     0.023 C 
ENDROOT
BRANCH   1   2
ATOM      2  C   UNL A   1      31.690  30.038  25.528  1.00  0.00     0.116 C 
BRANCH   2   3
ATOM      3  N   UNL A   1      32.817  29.705  24.682  1.00  0.00    -0.356 N 
ATOM      4  C   UNL A   1      33.222  28.472  24.280  1.00  0.00     0.222 C 
ATOM      5  O   UNL A   1      34.317  28.325  23.743  1.00  0.00    -0.275 OA
ATOM      6  H   UNL A   1      33.355  30.464  24.359  1.00  0.00     0.163 HD
BRANCH   4   7
ATOM      7  C   UNL A   1      32.292  27.308  24.471  1.00  0.00     0.133 C 
BRANCH   7   8
ATOM      8  C   UNL A   1      32.637  26.491  25.721  1.00  0.00     0.142 C 
ATOM      9  N   UNL A   1      32.479  24.407  24.492  1.00  0.00    -0.193 NA
ATOM     10  C   UNL A   1      31.375  23.903  25.337  1.00  0.00     0.131 C 
ATOM     11  C   UNL A   1      33.414  25.239  25.290  1.00  0.00     0.135 C 
ATOM     12  C   UNL A   1      30.643  25.096  25.986  1.00  0.00     0.177 C 
ATOM     13  O   UNL A   1      31.494  26.117  26.528  1.00  0.00    -0.375 OA
BRANCH   9  14
ATOM     14  S   UNL A   1      33.022  23.523  23.176  1.00  0.00     0.243 S 
ATOM     15  O   UNL A   1      33.538  24.437  22.182  1.00  0.00    -0.207 OA
ATOM     16  O   UNL A   1      31.981  22.569  22.849  1.00  0.00    -0.207 OA
BRANCH  14  17
ATOM     17  C   UNL A   1      34.447  22.564  23.745  1.00  0.00     0.085 A 
ATOM     18  C   UNL A   1      33.107  20.869  25.155  1.00  0.00     0.046 C 
ATOM     19  C   UNL A   1      34.370  21.445  24.605  1.00  0.00    -0.028 A 
ATOM     20  C   UNL A   1      35.567  20.852  25.055  1.00  0.00     0.044 A 
ATOM     21  C   UNL A   1      36.801  21.372  24.692  1.00  0.00     0.123 A 
ATOM     22  C   UNL A   1      35.713  23.065  23.379  1.00  0.00     0.025 A 
ATOM     23  F   UNL A   1      37.919  20.814  25.176  1.00  0.00    -0.207 F 
ATOM     24  C   UNL A   1      36.885  22.476  23.861  1.00  0.00     0.040 A 
ENDBRANCH  14  17
ENDBRANCH   9  14
ENDBRANCH   7   8
ENDBRANCH   4   7
ENDBRANCH   2   3
ENDBRANCH   1   2
BRANCH   1  25
ATOM     25  C   UNL A   1      31.868  32.143  26.968  1.00  0.00     0.023 C 
BRANCH  25  26
ATOM     26  C   UNL A   1      33.032  32.977  27.485  1.00  0.00     0.116 C 
BRANCH  26  27
ATOM     27  N   UNL A   1      32.638  34.331  27.852  1.00  0.00    -0.352 N 
ATOM     28  C   UNL A   1      33.103  35.083  28.904  1.00  0.00     0.251 C 
ATOM     29  H   UNL A   1      31.960  34.756  27.278  1.00  0.00     0.163 HD
ATOM     30  O   UNL A   1      32.595  36.163  29.181  1.00  0.00    -0.269 OA
BRANCH  28  31
ATOM     31  C   UNL A   1      34.209  34.538  29.713  1.00  0.00     0.039 A 
ATOM     32  C   UNL A   1      33.920  33.899  30.921  1.00  0.00     0.014 A 
ATOM     33  C   UNL A   1      35.515  34.579  29.217  1.00  0.00     0.014 A 
ATOM     34  C   UNL A   1      34.940  33.238  31.607  1.00  0.00     0.010 A 
ATOM     35  C   UNL A   1      36.512  33.864  29.868  1.00  0.00     0.010 A 
ATOM     36  C   UNL A   1      36.235  33.184  31.065  1.00  0.00    -0.014 A 
BRANCH  36  37
ATOM     37  C   UNL A   1      37.329  32.422  31.715  1.00  0.00     0.031 A 
ATOM     38  C   UNL A   1      37.864  32.879  33.042  1.00  0.00     0.074 A 
ATOM     39  C   UNL A   1      37.924  31.409  31.054  1.00  0.00     0.049 A 
ATOM     40  N   UNL A   1      38.914  32.462  33.698  1.00  0.00    -0.248 NA
ATOM     41  C   UNL A   1      37.140  33.978  33.704  1.00  0.00     0.031 C 
ATOM     42  C   UNL A   1      37.537  30.915  29.731  1.00  0.00     0.029 A 
ATOM     43  N   UNL A   1      39.011  30.640  31.389  1.00  0.00    -0.354 N 
ATOM     44  C   UNL A   1      39.008  33.276  34.819  1.00  0.00     0.074 A 
ATOM     45  C   UNL A   1      37.920  34.228  34.745  1.00  0.00     0.031 C 
ATOM     46  C   UNL A   1      38.380  29.936  29.362  1.00  0.00     0.029 A 
ATOM     47  C   UNL A   1      39.388  29.757  30.403  1.00  0.00     0.049 A 
ATOM     48  H   UNL A   1      39.479  30.713  32.252  1.00  0.00     0.167 HD
ATOM     49  C   UNL A   1      39.903  33.221  35.833  1.00  0.00     0.034 A 
ATOM     50  C   UNL A   1      40.438  28.914  30.335  1.00  0.00     0.034 A 
ATOM     51  C   UNL A   1      40.944  32.236  35.929  1.00  0.00     0.049 A 
ATOM     52  C   UNL A   1      41.395  28.844  31.496  1.00  0.00     0.074 A 
ATOM     53  C   UNL A   1      41.844  32.037  36.962  1.00  0.00     0.029 A 
ATOM     54  N   UNL A   1      41.227  31.287  34.961  1.00  0.00    -0.354 N 
ATOM     55  N   UNL A   1      41.380  29.524  32.617  1.00  0.00    -0.248 NA
ATOM     56  C   UNL A   1      42.493  27.872  31.398  1.00  0.00     0.031 C 
ATOM     57  C   UNL A   1      42.682  30.974  36.609  1.00  0.00     0.029 A 
ATOM     58  C   UNL A   1      42.289  30.499  35.367  1.00  0.00     0.049 A 
ATOM     59  H   UNL A   1      40.743  31.187  34.109  1.00  0.00     0.167 HD
ATOM     60  C   UNL A   1      42.437  29.032  33.374  1.00  0.00     0.074 A 
ATOM     61  C   UNL A   1      43.067  27.991  32.589  1.00  0.00     0.031 C 
ATOM     62  C   UNL A   1      42.857  29.418  34.604  1.00  0.00     0.034 A 
BRANCH  49  63
ATOM     63  C   UNL A   1      39.758  34.219  36.950  1.00  0.00     0.023 A 
ATOM     64  C   UNL A   1      40.091  35.570  36.722  1.00  0.00     0.012 A 
ATOM     65  C   UNL A   1      39.243  33.836  38.203  1.00  0.00     0.148 A 
ATOM     66  C   UNL A   1      39.944  36.518  37.733  1.00  0.00     0.002 A 
ATOM     67  C   UNL A   1      39.056  34.796  39.192  1.00  0.00     0.091 A 
ATOM     68  F   UNL A   1      38.954  32.543  38.410  1.00  0.00    -0.205 F 
ATOM     69  C   UNL A   1      39.417  36.134  38.962  1.00  0.00     0.022 A 
BRANCH  67  70
ATOM     70  S   UNL A   1      38.313  34.413  40.782  1.00  0.00     0.127 S 
ATOM     71  O   UNL A   1      37.244  33.496  40.394  1.00  0.00    -0.237 OA
ATOM     72  O   UNL A   1      39.424  33.786  41.499  1.00  0.00    -0.237 OA
ATOM     73  O   UNL A   1      37.876  35.687  41.336  1.00  0.00    -0.744 OA
ENDBRANCH  67  70
ENDBRANCH  49  63
BRANCH  50  74
ATOM     74  C   UNL A   1      40.604  28.023  29.152  1.00  0.00     0.023 A 
ATOM     75  C   UNL A   1      39.832  26.847  29.064  1.00  0.00     0.012 A 
ATOM     76  C   UNL A   1      41.488  28.343  28.103  1.00  0.00     0.148 A 
ATOM     77  C   UNL A   1      39.961  25.991  27.970  1.00  0.00     0.002 A 
ATOM     78  C   UNL A   1      41.571  27.513  26.991  1.00  0.00     0.091 A 
ATOM     79  F   UNL A   1      42.222  29.460  28.210  1.00  0.00    -0.205 F 
ATOM     80  C   UNL A   1      40.821  26.328  26.930  1.00  0.00     0.022 A 
BRANCH  78  81
ATOM     81  S   UNL A   1      42.553  27.935  25.547  1.00  0.00     0.127 S 
ATOM     82  O   UNL A   1      42.394  26.743  24.718  1.00  0.00    -0.237 OA
ATOM     83  O   UNL A   1      41.866  29.128  25.050  1.00  0.00    -0.237 OA
ATOM     84  O   UNL A   1      43.898  28.185  26.049  1.00  0.00    -0.744 OA
ENDBRANCH  78  81
ENDBRANCH  50  74
BRANCH  62  85
ATOM     85  C   UNL A   1      44.019  28.685  35.217  1.00  0.00     0.023 A 
ATOM     86  C   UNL A   1      45.335  29.119  34.961  1.00  0.00     0.012 A 
ATOM     87  C   UNL A   1      43.798  27.642  36.139  1.00  0.00     0.148 A 
ATOM     88  C   UNL A   1      46.415  28.513  35.601  1.00  0.00     0.002 A 
ATOM     89  C   UNL A   1      44.876  27.076  36.808  1.00  0.00     0.091 A 
ATOM     90  F   UNL A   1      42.539  27.236  36.354  1.00  0.00    -0.205 F 
ATOM     91  C   UNL A   1      46.185  27.503  36.534  1.00  0.00     0.022 A 
BRANCH  89  92
ATOM     92  S   UNL A   1      44.670  25.840  38.096  1.00  0.00     0.127 S 
ATOM     93  O   UNL A   1      46.054  25.601  38.502  1.00  0.00    -0.237 OA
ATOM     94  O   UNL A   1      43.858  26.554  39.082  1.00  0.00    -0.237 OA
ATOM     95  O   UNL A   1      44.003  24.709  37.466  1.00  0.00    -0.744 OA
ENDBRANCH  89  92
ENDBRANCH  62  85
ENDBRANCH  36  37
ENDBRANCH  28  31
ENDBRANCH  26  27
ENDBRANCH  25  26
ENDBRANCH   1  25
TORSDOF 17
ENDMDL
MODEL 2
REMARK VINA RESULT:     -12.3      0.595      7.691
REMARK SMILES Cc1cc(F)ccc1S(=O)(=O)N1CCO[C@H](CC(=O)NCCCCNC(=O)c2ccc(-c3c4nc(c(-c5cccc(S(=O)(=O)[O-])c5F)c5ccc([nH]5)c(-c5cccc(S(=O)(=O)[O-])c5F)c5nc(c(-c6cccc(S(=O)(=O)[O-])c6F)c6ccc3[nH]6)C=C5)C=C4)cc2)C1
REMARK SMILES IDX 22 1 21 2 20 3 18 4 19 5 17 7 16 8 12 9 13 10 91 11 14 12
REMARK SMILES IDX 15 13 9 14 10 15 11 16 8 17 1 18 2 19 3 20 4 21 7 22 5 23
REMARK SMILES IDX 6 24 23 25 24 26 25 27 26 28 27 30 28 31 29 32 90 33 30 34
REMARK SMILES IDX 89 35 31 36 32 37 33 38 83 39 34 40 88 41 82 42 84 43 35 44
REMARK SMILES IDX 87 45 81 46 80 47 36 49 68 50 48 51 67 52 49 53 52 54 66 55
REMARK SMILES IDX 85 56 50 57 51 58 65 60 86 61 53 62 37 63 38 64 46 65 39 66
REMARK SMILES IDX 41 67 47 68 40 69 42 70 43 71 44 72 45 73 69 74 70 75 78 76
REMARK SMILES IDX 71 77 73 78 79 79 72 80 74 81 75 82 76 83 77 84 54 85 55 86
REMARK SMILES IDX 63 87 56 88 58 89 64 90 57 91 59 92 60 93 61 94 62 95
REMARK H PARENT 20 6 25 29 84 48 52 59
REMARK Flexibility Score: inf
ROOT
ATOM      1  C   UNL A   1      32.458  30.002  26.941  1.00  0.00     0.023 C 
ENDROOT
BRANCH   1   2
ATOM      2  C   UNL A   1      31.713  29.163  25.909  1.00  0.00     0.116 C 
BRANCH   2   3
ATOM      3  N   UNL A   1      32.635  28.602  24.943  1.00  0.00    -0.356 N 
ATOM      4  C   UNL A   1      32.782  27.297  24.592  1.00  0.00     0.222 C 
ATOM      5  O   UNL A   1      33.747  26.942  23.920  1.00  0.00    -0.275 OA
ATOM      6  H   UNL A   1      33.226  29.242  24.485  1.00  0.00     0.163 HD
BRANCH   4   7
ATOM      7  C   UNL A   1      31.727  26.313  25.009  1.00  0.00     0.133 C 
BRANCH   7   8
ATOM      8  C   UNL A   1      32.171  25.459  26.201  1.00  0.00     0.142 C 
ATOM      9  N   UNL A   1      32.221  23.454  24.838  1.00  0.00    -0.193 NA
ATOM     10  C   UNL A   1      31.187  22.781  25.653  1.00  0.00     0.131 C 
ATOM     11  C   UNL A   1      33.072  24.328  25.685  1.00  0.00     0.135 C 
ATOM     12  C   UNL A   1      30.339  23.844  26.382  1.00  0.00     0.177 C 
ATOM     13  O   UNL A   1      31.084  24.913  26.986  1.00  0.00    -0.375 OA
BRANCH   9  14
ATOM     14  S   UNL A   1      32.840  22.721  23.464  1.00  0.00     0.243 S 
ATOM     15  O   UNL A   1      33.041  23.728  22.448  1.00  0.00    -0.207 OA
ATOM     16  O   UNL A   1      32.027  21.548  23.208  1.00  0.00    -0.207 OA
BRANCH  14  17
ATOM     17  C   UNL A   1      34.494  22.123  23.893  1.00  0.00     0.085 A 
ATOM     18  C   UNL A   1      33.715  20.178  25.399  1.00  0.00     0.046 C 
ATOM     19  C   UNL A   1      34.756  21.025  24.744  1.00  0.00    -0.028 A 
ATOM     20  C   UNL A   1      36.093  20.731  25.079  1.00  0.00     0.044 A 
ATOM     21  C   UNL A   1      37.136  21.518  24.613  1.00  0.00     0.123 A 
ATOM     22  C   UNL A   1      35.572  22.900  23.421  1.00  0.00     0.025 A 
ATOM     23  F   UNL A   1      38.390  21.239  24.989  1.00  0.00    -0.207 F 
ATOM     24  C   UNL A   1      36.886  22.604  23.790  1.00  0.00     0.040 A 
ENDBRANCH  14  17
ENDBRANCH   9  14
ENDBRANCH   7   8
ENDBRANCH   4   7
ENDBRANCH   2   3
ENDBRANCH   1   2
BRANCH   1  25
ATOM     25  C   UNL A   1      32.087  31.485  26.911  1.00  0.00     0.023 C 
BRANCH  25  26
ATOM     26  C   UNL A   1      33.169  32.419  27.436  1.00  0.00     0.116 C 
BRANCH  26  27
ATOM     27  N   UNL A   1      32.684  33.774  27.662  1.00  0.00    -0.352 N 
ATOM     28  C   UNL A   1      33.124  34.675  28.602  1.00  0.00     0.251 C 
ATOM     29  H   UNL A   1      31.957  34.079  27.073  1.00  0.00     0.163 HD
ATOM     30  O   UNL A   1      32.544  35.741  28.775  1.00  0.00    -0.269 OA
BRANCH  28  31
ATOM     31  C   UNL A   1      34.295  34.310  29.422  1.00  0.00     0.039 A 
ATOM     32  C   UNL A   1      34.102  33.601  30.609  1.00  0.00     0.014 A 
ATOM     33  C   UNL A   1      35.582  34.590  28.953  1.00  0.00     0.014 A 
ATOM     34  C   UNL A   1      35.211  33.109  31.300  1.00  0.00     0.010 A 
ATOM     35  C   UNL A   1      36.677  34.043  29.608  1.00  0.00     0.010 A 
ATOM     36  C   UNL A   1      36.504  33.295  30.784  1.00  0.00    -0.014 A 
BRANCH  36  37
ATOM     37  C   UNL A   1      37.703  32.717  31.438  1.00  0.00     0.031 A 
ATOM     38  C   UNL A   1      38.416  31.563  30.792  1.00  0.00     0.074 A 
ATOM     39  C   UNL A   1      38.066  33.140  32.666  1.00  0.00     0.049 A 
ATOM     40  N   UNL A   1      39.372  30.811  31.269  1.00  0.00    -0.248 NA
ATOM     41  C   UNL A   1      37.969  31.182  29.441  1.00  0.00     0.031 C 
ATOM     42  C   UNL A   1      37.410  34.208  33.424  1.00  0.00     0.029 A 
ATOM     43  N   UNL A   1      39.050  32.690  33.511  1.00  0.00    -0.354 N 
ATOM     44  C   UNL A   1      39.606  29.841  30.304  1.00  0.00     0.074 A 
ATOM     45  C   UNL A   1      38.676  30.084  29.222  1.00  0.00     0.031 C 
ATOM     46  C   UNL A   1      38.002  34.322  34.624  1.00  0.00     0.029 A 
ATOM     47  C   UNL A   1      39.052  33.314  34.737  1.00  0.00     0.049 A 
ATOM     48  H   UNL A   1      39.693  31.987  33.265  1.00  0.00     0.167 HD
ATOM     49  C   UNL A   1      40.529  28.851  30.306  1.00  0.00     0.034 A 
ATOM     50  C   UNL A   1      39.801  33.088  35.835  1.00  0.00     0.034 A 
ATOM     51  C   UNL A   1      41.488  28.651  31.356  1.00  0.00     0.049 A 
ATOM     52  C   UNL A   1      40.849  32.006  35.795  1.00  0.00     0.074 A 
ATOM     53  C   UNL A   1      42.524  27.735  31.410  1.00  0.00     0.029 A 
ATOM     54  N   UNL A   1      41.530  29.375  32.537  1.00  0.00    -0.354 N 
ATOM     55  N   UNL A   1      41.153  31.193  34.813  1.00  0.00    -0.248 NA
ATOM     56  C   UNL A   1      41.676  31.833  36.998  1.00  0.00     0.031 C 
ATOM     57  C   UNL A   1      43.184  27.897  32.633  1.00  0.00     0.029 A 
ATOM     58  C   UNL A   1      42.571  28.927  33.329  1.00  0.00     0.049 A 
ATOM     59  H   UNL A   1      40.910  30.102  32.776  1.00  0.00     0.167 HD
ATOM     60  C   UNL A   1      42.233  30.440  35.264  1.00  0.00     0.074 A 
ATOM     61  C   UNL A   1      42.536  30.902  36.602  1.00  0.00     0.031 C 
ATOM     62  C   UNL A   1      42.905  29.448  34.630  1.00  0.00     0.034 A 
BRANCH  49  63
ATOM     63  C   UNL A   1      40.585  27.943  29.106  1.00  0.00     0.023 A 
ATOM     64  C   UNL A   1      39.672  26.874  29.002  1.00  0.00     0.012 A 
ATOM     65  C   UNL A   1      41.498  28.178  28.060  1.00  0.00     0.148 A 
ATOM     66  C   UNL A   1      39.687  26.032  27.891  1.00  0.00     0.002 A 
ATOM     67  C   UNL A   1      41.476  27.362  26.935  1.00  0.00     0.091 A 
ATOM     68  F   UNL A   1      42.374  29.184  28.187  1.00  0.00    -0.205 F 
ATOM     69  C   UNL A   1      40.581  26.283  26.853  1.00  0.00     0.022 A 
BRANCH  67  70
ATOM     70  S   UNL A   1      42.536  27.650  25.513  1.00  0.00     0.127 S 
ATOM     71  O   UNL A   1      42.246  26.479  24.687  1.00  0.00    -0.237 OA
ATOM     72  O   UNL A   1      42.010  28.911  24.987  1.00  0.00    -0.237 OA
ATOM     73  O   UNL A   1      43.893  27.730  26.034  1.00  0.00    -0.744 OA
ENDBRANCH  67  70
ENDBRANCH  49  63
BRANCH  50  74
ATOM     74  C   UNL A   1      39.630  33.942  37.044  1.00  0.00     0.023 A 
ATOM     75  C   UNL A   1      40.067  35.281  37.006  1.00  0.00     0.012 A 
ATOM     76  C   UNL A   1      39.013  33.455  38.213  1.00  0.00     0.148 A 
ATOM     77  C   UNL A   1      39.921  36.110  38.119  1.00  0.00     0.002 A 
ATOM     78  C   UNL A   1      38.822  34.302  39.299  1.00  0.00     0.091 A 
ATOM     79  F   UNL A   1      38.615  32.175  38.234  1.00  0.00    -0.205 F 
ATOM     80  C   UNL A   1      39.290  35.625  39.260  1.00  0.00     0.022 A 
BRANCH  78  81
ATOM     81  S   UNL A   1      37.904  33.801  40.760  1.00  0.00     0.127 S 
ATOM     82  O   UNL A   1      37.743  35.072  41.462  1.00  0.00    -0.237 OA
ATOM     83  O   UNL A   1      36.677  33.259  40.176  1.00  0.00    -0.237 OA
ATOM     84  O   UNL A   1      38.740  32.809  41.424  1.00  0.00    -0.744 OA
ENDBRANCH  78  81
ENDBRANCH  50  74
BRANCH  62  85
ATOM     85  C   UNL A   1      44.072  28.818  35.340  1.00  0.00     0.023 A 
ATOM     86  C   UNL A   1      45.357  29.379  35.209  1.00  0.00     0.012 A 
ATOM     87  C   UNL A   1      43.871  27.742  36.228  1.00  0.00     0.148 A 
ATOM     88  C   UNL A   1      46.429  28.868  35.939  1.00  0.00     0.002 A 
ATOM     89  C   UNL A   1      44.933  27.269  36.988  1.00  0.00     0.091 A 
ATOM     90  F   UNL A   1      42.642  27.215  36.323  1.00  0.00    -0.205 F 
ATOM     91  C   UNL A   1      46.215  27.824  36.838  1.00  0.00     0.022 A 
BRANCH  89  92
ATOM     92  S   UNL A   1      44.732  25.997  38.241  1.00  0.00     0.127 S 
ATOM     93  O   UNL A   1      46.118  25.601  38.486  1.00  0.00    -0.237 OA
ATOM     94  O   UNL A   1      44.104  26.738  39.335  1.00  0.00    -0.237 OA
ATOM     95  O   UNL A   1      43.890  24.971  37.641  1.00  0.00    -0.744 OA
ENDBRANCH  89  92
ENDBRANCH  62  85
ENDBRANCH  36  37
ENDBRANCH  28  31
ENDBRANCH  26  27
ENDBRANCH  25  26
ENDBRANCH   1  25
TORSDOF 17
ENDMDL
MODEL 3
REMARK VINA RESULT:     -12.3      5.920     10.195
REMARK SMILES Cc1cc(F)ccc1S(=O)(=O)N1CCO[C@H](CC(=O)NCCCCNC(=O)c2ccc(-c3c4nc(c(-c5cccc(S(=O)(=O)[O-])c5F)c5ccc([nH]5)c(-c5cccc(S(=O)(=O)[O-])c5F)c5nc(c(-c6cccc(S(=O)(=O)[O-])c6F)c6ccc3[nH]6)C=C5)C=C4)cc2)C1
REMARK SMILES IDX 22 1 21 2 20 3 18 4 19 5 17 7 16 8 12 9 13 10 91 11 14 12
REMARK SMILES IDX 15 13 9 14 10 15 11 16 8 17 1 18 2 19 3 20 4 21 7 22 5 23
REMARK SMILES IDX 6 24 23 25 24 26 25 27 26 28 27 30 28 31 29 32 90 33 30 34
REMARK SMILES IDX 89 35 31 36 32 37 33 38 83 39 34 40 88 41 82 42 84 43 35 44
REMARK SMILES IDX 87 45 81 46 80 47 36 49 68 50 48 51 67 52 49 53 52 54 66 55
REMARK SMILES IDX 85 56 50 57 51 58 65 60 86 61 53 62 37 63 38 64 46 65 39 66
REMARK SMILES IDX 41 67 47 68 40 69 42 70 43 71 44 72 45 73 69 74 70 75 78 76
REMARK SMILES IDX 71 77 73 78 79 79 72 80 74 81 75 82 76 83 77 84 54 85 55 86
REMARK SMILES IDX 63 87 56 88 58 89 64 90 57 91 59 92 60 93 61 94 62 95
REMARK H PARENT 20 6 25 29 84 48 52 59
REMARK Flexibility Score: inf
ROOT
ATOM      1  C   UNL A   1      37.161  21.970  25.282  1.00  0.00     0.023 C 
ENDROOT
BRANCH   1   2
ATOM      2  C   UNL A   1      35.898  21.588  26.046  1.00  0.00     0.116 C 
BRANCH   2   3
ATOM      3  N   UNL A   1      35.341  20.353  25.533  1.00  0.00    -0.356 N 
ATOM      4  C   UNL A   1      34.245  20.198  24.746  1.00  0.00     0.222 C 
ATOM      5  O   UNL A   1      33.766  19.080  24.566  1.00  0.00    -0.275 OA
ATOM      6  H   UNL A   1      35.815  19.528  25.785  1.00  0.00     0.163 HD
BRANCH   4   7
ATOM      7  C   UNL A   1      33.659  21.407  24.075  1.00  0.00     0.133 C 
BRANCH   7   8
ATOM      8  C   UNL A   1      32.137  21.303  23.924  1.00  0.00     0.142 C 
ATOM      9  N   UNL A   1      31.914  23.714  23.798  1.00  0.00    -0.193 NA
ATOM     10  C   UNL A   1      31.075  23.777  25.014  1.00  0.00     0.131 C 
ATOM     11  C   UNL A   1      31.652  22.463  23.043  1.00  0.00     0.135 C 
ATOM     12  C   UNL A   1      31.345  22.534  25.887  1.00  0.00     0.177 C 
ATOM     13  O   UNL A   1      31.410  21.289  25.176  1.00  0.00    -0.375 OA
BRANCH   9  14
ATOM     14  S   UNL A   1      32.381  25.115  23.006  1.00  0.00     0.243 S 
ATOM     15  O   UNL A   1      31.274  25.590  22.207  1.00  0.00    -0.207 OA
ATOM     16  O   UNL A   1      33.677  24.854  22.412  1.00  0.00    -0.207 OA
BRANCH  14  17
ATOM     17  C   UNL A   1      32.637  26.374  24.281  1.00  0.00     0.085 A 
ATOM     18  C   UNL A   1      34.553  25.154  25.506  1.00  0.00     0.046 C 
ATOM     19  C   UNL A   1      33.594  26.284  25.317  1.00  0.00    -0.028 A 
ATOM     20  C   UNL A   1      33.618  27.287  26.308  1.00  0.00     0.044 A 
ATOM     21  C   UNL A   1      32.701  28.328  26.291  1.00  0.00     0.123 A 
ATOM     22  C   UNL A   1      31.725  27.449  24.278  1.00  0.00     0.025 A 
ATOM     23  F   UNL A   1      32.720  29.237  27.274  1.00  0.00    -0.207 F 
ATOM     24  C   UNL A   1      31.751  28.415  25.288  1.00  0.00     0.040 A 
ENDBRANCH  14  17
ENDBRANCH   9  14
ENDBRANCH   7   8
ENDBRANCH   4   7
ENDBRANCH   2   3
ENDBRANCH   1   2
BRANCH   1  25
ATOM     25  C   UNL A   1      38.143  20.812  25.100  1.00  0.00     0.023 C 
BRANCH  25  26
ATOM     26  C   UNL A   1      39.296  20.799  26.096  1.00  0.00     0.116 C 
BRANCH  26  27
ATOM     27  N   UNL A   1      40.115  19.598  25.994  1.00  0.00    -0.352 N 
ATOM     28  C   UNL A   1      41.485  19.511  26.063  1.00  0.00     0.251 C 
ATOM     29  H   UNL A   1      39.631  18.752  25.861  1.00  0.00     0.163 HD
ATOM     30  O   UNL A   1      42.062  18.454  25.833  1.00  0.00    -0.269 OA
BRANCH  28  31
ATOM     31  C   UNL A   1      42.245  20.733  26.388  1.00  0.00     0.039 A 
ATOM     32  C   UNL A   1      42.725  21.534  25.350  1.00  0.00     0.014 A 
ATOM     33  C   UNL A   1      42.387  21.124  27.722  1.00  0.00     0.014 A 
ATOM     34  C   UNL A   1      43.297  22.771  25.649  1.00  0.00     0.010 A 
ATOM     35  C   UNL A   1      42.896  22.383  28.010  1.00  0.00     0.010 A 
ATOM     36  C   UNL A   1      43.352  23.220  26.978  1.00  0.00    -0.014 A 
BRANCH  36  37
ATOM     37  C   UNL A   1      43.872  24.563  27.335  1.00  0.00     0.031 A 
ATOM     38  C   UNL A   1      42.925  25.614  27.842  1.00  0.00     0.074 A 
ATOM     39  C   UNL A   1      45.158  24.874  27.078  1.00  0.00     0.049 A 
ATOM     40  N   UNL A   1      43.137  26.886  28.052  1.00  0.00    -0.248 NA
ATOM     41  C   UNL A   1      41.543  25.181  28.117  1.00  0.00     0.031 C 
ATOM     42  C   UNL A   1      46.158  23.959  26.524  1.00  0.00     0.029 A 
ATOM     43  N   UNL A   1      45.834  26.062  27.208  1.00  0.00    -0.354 N 
ATOM     44  C   UNL A   1      41.911  27.415  28.432  1.00  0.00     0.074 A 
ATOM     45  C   UNL A   1      40.952  26.332  28.403  1.00  0.00     0.031 C 
ATOM     46  C   UNL A   1      47.314  24.622  26.351  1.00  0.00     0.029 A 
ATOM     47  C   UNL A   1      47.129  26.015  26.746  1.00  0.00     0.049 A 
ATOM     48  H   UNL A   1      45.430  26.873  27.595  1.00  0.00     0.167 HD
ATOM     49  C   UNL A   1      41.614  28.684  28.798  1.00  0.00     0.034 A 
ATOM     50  C   UNL A   1      48.056  26.987  26.634  1.00  0.00     0.034 A 
ATOM     51  C   UNL A   1      42.583  29.742  28.880  1.00  0.00     0.049 A 
ATOM     52  C   UNL A   1      47.711  28.381  27.087  1.00  0.00     0.074 A 
ATOM     53  C   UNL A   1      42.402  31.038  29.329  1.00  0.00     0.029 A 
ATOM     54  N   UNL A   1      43.912  29.627  28.508  1.00  0.00    -0.354 N 
ATOM     55  N   UNL A   1      46.584  28.830  27.583  1.00  0.00    -0.248 NA
ATOM     56  C   UNL A   1      48.772  29.395  26.994  1.00  0.00     0.031 C 
ATOM     57  C   UNL A   1      43.622  31.712  29.212  1.00  0.00     0.029 A 
ATOM     58  C   UNL A   1      44.565  30.829  28.712  1.00  0.00     0.049 A 
ATOM     59  H   UNL A   1      44.330  28.810  28.151  1.00  0.00     0.167 HD
ATOM     60  C   UNL A   1      46.812  30.164  27.902  1.00  0.00     0.074 A 
ATOM     61  C   UNL A   1      48.188  30.449  27.551  1.00  0.00     0.031 C 
ATOM     62  C   UNL A   1      45.955  31.075  28.425  1.00  0.00     0.034 A 
BRANCH  49  63
ATOM     63  C   UNL A   1      40.193  28.986  29.193  1.00  0.00     0.023 A 
ATOM     64  C   UNL A   1      39.230  29.227  28.192  1.00  0.00     0.012 A 
ATOM     65  C   UNL A   1      39.798  28.974  30.545  1.00  0.00     0.148 A 
ATOM     66  C   UNL A   1      37.903  29.485  28.530  1.00  0.00     0.002 A 
ATOM     67  C   UNL A   1      38.464  29.188  30.871  1.00  0.00     0.091 A 
ATOM     68  F   UNL A   1      40.731  28.767  31.484  1.00  0.00    -0.205 F 
ATOM     69  C   UNL A   1      37.518  29.455  29.868  1.00  0.00     0.022 A 
BRANCH  67  70
ATOM     70  S   UNL A   1      37.855  29.093  32.559  1.00  0.00     0.127 S 
ATOM     71  O   UNL A   1      36.466  29.516  32.396  1.00  0.00    -0.237 OA
ATOM     72  O   UNL A   1      38.026  27.672  32.869  1.00  0.00    -0.237 OA
ATOM     73  O   UNL A   1      38.697  29.988  33.339  1.00  0.00    -0.744 OA
ENDBRANCH  67  70
ENDBRANCH  49  63
BRANCH  50  74
ATOM     74  C   UNL A   1      49.419  26.662  26.127  1.00  0.00     0.023 A 
ATOM     75  C   UNL A   1      50.275  25.869  26.918  1.00  0.00     0.012 A 
ATOM     76  C   UNL A   1      49.863  27.101  24.865  1.00  0.00     0.148 A 
ATOM     77  C   UNL A   1      51.557  25.545  26.474  1.00  0.00     0.002 A 
ATOM     78  C   UNL A   1      51.121  26.728  24.406  1.00  0.00     0.091 A 
ATOM     79  F   UNL A   1      49.039  27.864  24.132  1.00  0.00    -0.205 F 
ATOM     80  C   UNL A   1      51.977  25.965  25.216  1.00  0.00     0.022 A 
BRANCH  78  81
ATOM     81  S   UNL A   1      51.693  27.113  22.746  1.00  0.00     0.127 S 
ATOM     82  O   UNL A   1      50.582  26.633  21.928  1.00  0.00    -0.237 OA
ATOM     83  O   UNL A   1      51.833  28.568  22.804  1.00  0.00    -0.237 OA
ATOM     84  O   UNL A   1      52.952  26.397  22.592  1.00  0.00    -0.744 OA
ENDBRANCH  78  81
ENDBRANCH  50  74
BRANCH  62  85
ATOM     85  C   UNL A   1      46.478  32.457  28.709  1.00  0.00     0.023 A 
ATOM     86  C   UNL A   1      47.148  32.717  29.920  1.00  0.00     0.012 A 
ATOM     87  C   UNL A   1      46.406  33.463  27.724  1.00  0.00     0.148 A 
ATOM     88  C   UNL A   1      47.726  33.964  30.154  1.00  0.00     0.002 A 
ATOM     89  C   UNL A   1      47.024  34.687  27.945  1.00  0.00     0.091 A 
ATOM     90  F   UNL A   1      45.748  33.196  26.587  1.00  0.00    -0.205 F 
ATOM     91  C   UNL A   1      47.676  34.943  29.162  1.00  0.00     0.022 A 
BRANCH  89  92
ATOM     92  S   UNL A   1      47.098  35.970  26.690  1.00  0.00     0.127 S 
ATOM     93  O   UNL A   1      47.683  35.249  25.561  1.00  0.00    -0.237 OA
ATOM     94  O   UNL A   1      45.688  36.322  26.526  1.00  0.00    -0.237 OA
ATOM     95  O   UNL A   1      47.927  37.031  27.246  1.00  0.00    -0.744 OA
ENDBRANCH  89  92
ENDBRANCH  62  85
ENDBRANCH  36  37
ENDBRANCH  28  31
ENDBRANCH  26  27
ENDBRANCH  25  26
ENDBRANCH   1  25
TORSDOF 17
ENDMDL
