MODEL 1
REMARK VINA RESULT:     -12.5      0.000      0.000
REMARK SMILES O=C(CSc1nc(O)cc(=O)[nH]1)Nc1cccc(C(=O)NCCCCNC(=O)c2ccc(-c3c4nc(c(-c5cccc(S(=O)(=O)[O-])c5F)c5ccc([nH]5)c(-c5cccc(S(=O)(=O)[O-])c5F)c5nc(c(-c6cccc(S(=O)(=O)[O-])c6F)c6ccc3[nH]6)C=C5)C=C4)cc2)c1
REMARK SMILES IDX 22 1 21 2 19 3 20 4 18 6 14 7 15 8 92 9 16 10 17 11 13 12
REMARK SMILES IDX 1 13 2 14 3 16 4 17 5 18 6 19 12 20 7 21 10 22 9 24 11 25
REMARK SMILES IDX 8 26 23 28 24 29 25 30 26 31 27 32 28 34 29 35 30 36 91 37
REMARK SMILES IDX 31 38 90 39 32 40 33 41 34 42 84 43 35 44 89 45 83 46 85 47
REMARK SMILES IDX 36 48 88 49 82 50 81 51 37 53 69 54 49 55 68 56 50 57 53 58
REMARK SMILES IDX 67 59 86 60 51 61 52 62 66 64 87 65 54 66 38 67 39 68 47 69
REMARK SMILES IDX 40 70 42 71 48 72 41 73 43 74 44 75 45 76 46 77 70 78 71 79
REMARK SMILES IDX 79 80 72 81 74 82 80 83 73 84 75 85 76 86 77 87 78 88 55 89
REMARK SMILES IDX 56 90 64 91 57 92 59 93 65 94 58 95 60 96 61 97 62 98 63 99
REMARK H PARENT 21 5 13 15 12 23 8 27 26 33 85 52 53 63
REMARK Flexibility Score: inf
ROOT
ATOM      1  C   UNL A   1      33.305  29.438  26.571  1.00  0.00     0.116 C 
ENDROOT
BRANCH   1   2
ATOM      2  N   UNL A   1      33.592  29.424  25.141  1.00  0.00    -0.352 N 
ATOM      3  C   UNL A   1      32.969  28.730  24.122  1.00  0.00     0.251 C 
ATOM      4  O   UNL A   1      33.363  28.852  22.964  1.00  0.00    -0.269 OA
ATOM      5  H   UNL A   1      34.342  29.995  24.860  1.00  0.00     0.163 HD
BRANCH   3   6
ATOM      6  C   UNL A   1      31.879  27.764  24.414  1.00  0.00     0.041 A 
ATOM      7  C   UNL A   1      31.228  25.525  25.020  1.00  0.00     0.041 A 
ATOM      8  C   UNL A   1      29.951  25.763  24.499  1.00  0.00     0.026 A 
ATOM      9  C   UNL A   1      32.129  26.579  25.103  1.00  0.00     0.040 A 
ATOM     10  C   UNL A   1      29.626  27.017  23.974  1.00  0.00     0.003 A 
ATOM     11  C   UNL A   1      30.604  28.008  23.893  1.00  0.00     0.014 A 
BRANCH   7  12
ATOM     12  N   UNL A   1      31.582  24.194  25.320  1.00  0.00    -0.325 N 
ATOM     13  O   UNL A   1      31.385  23.151  23.243  1.00  0.00    -0.274 OA
ATOM     14  C   UNL A   1      31.599  23.110  24.450  1.00  0.00     0.234 C 
ATOM     15  H   UNL A   1      31.847  24.013  26.250  1.00  0.00     0.169 HD
BRANCH  14  16
ATOM     16  C   UNL A   1      31.860  21.772  25.128  1.00  0.00     0.178 C 
BRANCH  16  17
ATOM     17  S   UNL A   1      33.579  21.218  24.954  1.00  0.00    -0.078 SA
BRANCH  17  18
ATOM     18  C   UNL A   1      33.344  19.576  24.432  1.00  0.00     0.172 A 
ATOM     19  N   UNL A   1      32.710  19.348  23.332  1.00  0.00    -0.189 NA
ATOM     20  N   UNL A   1      33.799  18.608  25.273  1.00  0.00    -0.301 N 
ATOM     21  C   UNL A   1      32.500  18.037  23.020  1.00  0.00     0.218 A 
ATOM     22  C   UNL A   1      33.622  17.290  24.995  1.00  0.00     0.255 A 
ATOM     23  H   UNL A   1      34.265  18.868  26.100  1.00  0.00     0.172 HD
ATOM     24  C   UNL A   1      32.906  16.998  23.751  1.00  0.00     0.139 A 
ATOM     25  O   UNL A   1      34.007  16.396  25.744  1.00  0.00    -0.269 OA
BRANCH  21  26
ATOM     26  O   UNL A   1      31.788  17.821  21.872  1.00  0.00    -0.493 OA
ATOM     27  H   UNL A   1      30.863  17.972  21.859  1.00  0.00     0.295 HD
ENDBRANCH  21  26
ENDBRANCH  17  18
ENDBRANCH  16  17
ENDBRANCH  14  16
ENDBRANCH   7  12
ENDBRANCH   3   6
ENDBRANCH   1   2
BRANCH   1  28
ATOM     28  C   UNL A   1      32.002  30.115  26.968  1.00  0.00     0.023 C 
BRANCH  28  29
ATOM     29  C   UNL A   1      31.903  31.607  26.686  1.00  0.00     0.023 C 
BRANCH  29  30
ATOM     30  C   UNL A   1      32.997  32.476  27.290  1.00  0.00     0.116 C 
BRANCH  30  31
ATOM     31  N   UNL A   1      32.573  33.835  27.606  1.00  0.00    -0.352 N 
ATOM     32  C   UNL A   1      33.069  34.713  28.547  1.00  0.00     0.251 C 
ATOM     33  H   UNL A   1      31.821  34.175  27.069  1.00  0.00     0.163 HD
ATOM     34  O   UNL A   1      32.527  35.794  28.726  1.00  0.00    -0.269 OA
BRANCH  32  35
ATOM     35  C   UNL A   1      34.239  34.322  29.369  1.00  0.00     0.039 A 
ATOM     36  C   UNL A   1      34.021  33.702  30.603  1.00  0.00     0.014 A 
ATOM     37  C   UNL A   1      35.540  34.524  28.906  1.00  0.00     0.014 A 
ATOM     38  C   UNL A   1      35.107  33.197  31.326  1.00  0.00     0.010 A 
ATOM     39  C   UNL A   1      36.609  33.946  29.583  1.00  0.00     0.010 A 
ATOM     40  C   UNL A   1      36.406  33.271  30.797  1.00  0.00    -0.014 A 
BRANCH  40  41
ATOM     41  C   UNL A   1      37.566  32.633  31.475  1.00  0.00     0.031 A 
ATOM     42  C   UNL A   1      38.284  31.483  30.821  1.00  0.00     0.074 A 
ATOM     43  C   UNL A   1      37.896  33.006  32.729  1.00  0.00     0.049 A 
ATOM     44  N   UNL A   1      39.242  30.730  31.297  1.00  0.00    -0.248 NA
ATOM     45  C   UNL A   1      37.845  31.108  29.466  1.00  0.00     0.031 C 
ATOM     46  C   UNL A   1      37.220  34.046  33.510  1.00  0.00     0.029 A 
ATOM     47  N   UNL A   1      38.861  32.529  33.581  1.00  0.00    -0.354 N 
ATOM     48  C   UNL A   1      39.484  29.766  30.326  1.00  0.00     0.074 A 
ATOM     49  C   UNL A   1      38.554  30.011  29.246  1.00  0.00     0.031 C 
ATOM     50  C   UNL A   1      37.791  34.126  34.723  1.00  0.00     0.029 A 
ATOM     51  C   UNL A   1      38.852  33.129  34.819  1.00  0.00     0.049 A 
ATOM     52  H   UNL A   1      39.499  31.823  33.329  1.00  0.00     0.167 HD
ATOM     53  C   UNL A   1      40.418  28.786  30.317  1.00  0.00     0.034 A 
ATOM     54  C   UNL A   1      39.609  32.900  35.911  1.00  0.00     0.034 A 
ATOM     55  C   UNL A   1      41.385  28.586  31.362  1.00  0.00     0.049 A 
ATOM     56  C   UNL A   1      40.688  31.851  35.847  1.00  0.00     0.074 A 
ATOM     57  C   UNL A   1      42.437  27.688  31.399  1.00  0.00     0.029 A 
ATOM     58  N   UNL A   1      41.422  29.295  32.552  1.00  0.00    -0.354 N 
ATOM     59  N   UNL A   1      41.012  31.062  34.852  1.00  0.00    -0.248 NA
ATOM     60  C   UNL A   1      41.530  31.688  37.042  1.00  0.00     0.031 C 
ATOM     61  C   UNL A   1      43.106  27.849  32.616  1.00  0.00     0.029 A 
ATOM     62  C   UNL A   1      42.477  28.857  33.331  1.00  0.00     0.049 A 
ATOM     63  H   UNL A   1      40.790  30.006  32.804  1.00  0.00     0.167 HD
ATOM     64  C   UNL A   1      42.116  30.336  35.285  1.00  0.00     0.074 A 
ATOM     65  C   UNL A   1      42.417  30.794  36.626  1.00  0.00     0.031 C 
ATOM     66  C   UNL A   1      42.807  29.367  34.637  1.00  0.00     0.034 A 
BRANCH  53  67
ATOM     67  C   UNL A   1      40.484  27.895  29.104  1.00  0.00     0.023 A 
ATOM     68  C   UNL A   1      39.575  26.825  28.983  1.00  0.00     0.012 A 
ATOM     69  C   UNL A   1      41.401  28.145  28.065  1.00  0.00     0.148 A 
ATOM     70  C   UNL A   1      39.600  25.993  27.864  1.00  0.00     0.002 A 
ATOM     71  C   UNL A   1      41.391  27.338  26.932  1.00  0.00     0.091 A 
ATOM     72  F   UNL A   1      42.273  29.154  28.208  1.00  0.00    -0.205 F 
ATOM     73  C   UNL A   1      40.500  26.257  26.835  1.00  0.00     0.022 A 
BRANCH  71  74
ATOM     74  S   UNL A   1      42.458  27.644  25.519  1.00  0.00     0.127 S 
ATOM     75  O   UNL A   1      41.913  28.897  25.003  1.00  0.00    -0.237 OA
ATOM     76  O   UNL A   1      43.775  27.766  26.147  1.00  0.00    -0.237 OA
ATOM     77  O   UNL A   1      42.308  26.486  24.648  1.00  0.00    -0.744 OA
ENDBRANCH  71  74
ENDBRANCH  53  67
BRANCH  54  78
ATOM     78  C   UNL A   1      39.429  33.738  37.131  1.00  0.00     0.023 A 
ATOM     79  C   UNL A   1      39.923  35.057  37.135  1.00  0.00     0.012 A 
ATOM     80  C   UNL A   1      38.749  33.256  38.266  1.00  0.00     0.148 A 
ATOM     81  C   UNL A   1      39.772  35.871  38.258  1.00  0.00     0.002 A 
ATOM     82  C   UNL A   1      38.555  34.090  39.362  1.00  0.00     0.091 A 
ATOM     83  F   UNL A   1      38.298  31.994  38.249  1.00  0.00    -0.205 F 
ATOM     84  C   UNL A   1      39.080  35.392  39.367  1.00  0.00     0.022 A 
BRANCH  82  85
ATOM     85  S   UNL A   1      37.563  33.601  40.779  1.00  0.00     0.127 S 
ATOM     86  O   UNL A   1      36.362  33.077  40.136  1.00  0.00    -0.237 OA
ATOM     87  O   UNL A   1      38.413  32.591  41.412  1.00  0.00    -0.237 OA
ATOM     88  O   UNL A   1      37.387  34.812  41.568  1.00  0.00    -0.744 OA
ENDBRANCH  82  85
ENDBRANCH  54  78
BRANCH  66  89
ATOM     89  C   UNL A   1      43.985  28.752  35.344  1.00  0.00     0.023 A 
ATOM     90  C   UNL A   1      45.275  29.280  35.140  1.00  0.00     0.012 A 
ATOM     91  C   UNL A   1      43.802  27.712  36.277  1.00  0.00     0.148 A 
ATOM     92  C   UNL A   1      46.369  28.766  35.835  1.00  0.00     0.002 A 
ATOM     93  C   UNL A   1      44.889  27.236  36.999  1.00  0.00     0.091 A 
ATOM     94  F   UNL A   1      42.569  27.209  36.442  1.00  0.00    -0.205 F 
ATOM     95  C   UNL A   1      46.174  27.754  36.773  1.00  0.00     0.022 A 
BRANCH  93  96
ATOM     96  S   UNL A   1      44.715  26.002  38.294  1.00  0.00     0.127 S 
ATOM     97  O   UNL A   1      44.208  24.853  37.545  1.00  0.00    -0.237 OA
ATOM     98  O   UNL A   1      46.089  25.857  38.777  1.00  0.00    -0.237 OA
ATOM     99  O   UNL A   1      43.794  26.572  39.268  1.00  0.00    -0.744 OA
ENDBRANCH  93  96
ENDBRANCH  66  89
ENDBRANCH  40  41
ENDBRANCH  32  35
ENDBRANCH  30  31
ENDBRANCH  29  30
ENDBRANCH  28  29
ENDBRANCH   1  28
TORSDOF 19
ENDMDL
MODEL 2
REMARK VINA RESULT:     -12.4      1.665      7.712
REMARK SMILES O=C(CSc1nc(O)cc(=O)[nH]1)Nc1cccc(C(=O)NCCCCNC(=O)c2ccc(-c3c4nc(c(-c5cccc(S(=O)(=O)[O-])c5F)c5ccc([nH]5)c(-c5cccc(S(=O)(=O)[O-])c5F)c5nc(c(-c6cccc(S(=O)(=O)[O-])c6F)c6ccc3[nH]6)C=C5)C=C4)cc2)c1
REMARK SMILES IDX 22 1 21 2 19 3 20 4 18 6 14 7 15 8 92 9 16 10 17 11 13 12
REMARK SMILES IDX 1 13 2 14 3 16 4 17 5 18 6 19 12 20 7 21 10 22 9 24 11 25
REMARK SMILES IDX 8 26 23 28 24 29 25 30 26 31 27 32 28 34 29 35 30 36 91 37
REMARK SMILES IDX 31 38 90 39 32 40 33 41 34 42 84 43 35 44 89 45 83 46 85 47
REMARK SMILES IDX 36 48 88 49 82 50 81 51 37 53 69 54 49 55 68 56 50 57 53 58
REMARK SMILES IDX 67 59 86 60 51 61 52 62 66 64 87 65 54 66 38 67 39 68 47 69
REMARK SMILES IDX 40 70 42 71 48 72 41 73 43 74 44 75 45 76 46 77 70 78 71 79
REMARK SMILES IDX 79 80 72 81 74 82 80 83 73 84 75 85 76 86 77 87 78 88 55 89
REMARK SMILES IDX 56 90 64 91 57 92 59 93 65 94 58 95 60 96 61 97 62 98 63 99
REMARK H PARENT 21 5 13 15 12 23 8 27 26 33 85 52 53 63
REMARK Flexibility Score: inf
ROOT
ATOM      1  C   UNL A   1      32.800  29.808  26.039  1.00  0.00     0.116 C 
ENDROOT
BRANCH   1   2
ATOM      2  N   UNL A   1      33.211  29.562  24.661  1.00  0.00    -0.352 N 
ATOM      3  C   UNL A   1      32.589  28.825  23.671  1.00  0.00     0.251 C 
ATOM      4  O   UNL A   1      33.101  28.735  22.557  1.00  0.00    -0.269 OA
ATOM      5  H   UNL A   1      34.059  29.984  24.397  1.00  0.00     0.163 HD
BRANCH   3   6
ATOM      6  C   UNL A   1      31.347  28.062  23.957  1.00  0.00     0.041 A 
ATOM      7  C   UNL A   1      30.307  25.951  24.472  1.00  0.00     0.041 A 
ATOM      8  C   UNL A   1      29.082  26.452  24.017  1.00  0.00     0.026 A 
ATOM      9  C   UNL A   1      31.392  26.813  24.573  1.00  0.00     0.040 A 
ATOM     10  C   UNL A   1      28.982  27.772  23.571  1.00  0.00     0.003 A 
ATOM     11  C   UNL A   1      30.125  28.568  23.502  1.00  0.00     0.014 A 
BRANCH   7  12
ATOM     12  N   UNL A   1      30.415  24.563  24.688  1.00  0.00    -0.325 N 
ATOM     13  O   UNL A   1      30.908  24.454  26.965  1.00  0.00    -0.274 OA
ATOM     14  C   UNL A   1      30.740  23.917  25.876  1.00  0.00     0.234 C 
ATOM     15  H   UNL A   1      30.239  23.985  23.910  1.00  0.00     0.169 HD
BRANCH  14  16
ATOM     16  C   UNL A   1      30.945  22.416  25.732  1.00  0.00     0.178 C 
BRANCH  16  17
ATOM     17  S   UNL A   1      32.685  21.925  25.890  1.00  0.00    -0.078 SA
BRANCH  17  18
ATOM     18  C   UNL A   1      32.657  20.364  25.124  1.00  0.00     0.172 A 
ATOM     19  N   UNL A   1      32.411  20.285  23.861  1.00  0.00    -0.189 NA
ATOM     20  N   UNL A   1      32.837  19.291  25.942  1.00  0.00    -0.301 N 
ATOM     21  C   UNL A   1      32.334  19.027  23.341  1.00  0.00     0.218 A 
ATOM     22  C   UNL A   1      32.781  18.020  25.464  1.00  0.00     0.255 A 
ATOM     23  H   UNL A   1      33.010  19.438  26.900  1.00  0.00     0.172 HD
ATOM     24  C   UNL A   1      32.505  17.898  24.031  1.00  0.00     0.139 A 
ATOM     25  O   UNL A   1      32.922  17.035  26.181  1.00  0.00    -0.269 OA
BRANCH  21  26
ATOM     26  O   UNL A   1      32.030  18.967  22.008  1.00  0.00    -0.493 OA
ATOM     27  H   UNL A   1      32.579  18.482  21.424  1.00  0.00     0.295 HD
ENDBRANCH  21  26
ENDBRANCH  17  18
ENDBRANCH  16  17
ENDBRANCH  14  16
ENDBRANCH   7  12
ENDBRANCH   3   6
ENDBRANCH   1   2
BRANCH   1  28
ATOM     28  C   UNL A   1      31.396  30.369  26.209  1.00  0.00     0.023 C 
BRANCH  28  29
ATOM     29  C   UNL A   1      31.295  31.850  26.538  1.00  0.00     0.023 C 
BRANCH  29  30
ATOM     30  C   UNL A   1      32.614  32.601  26.655  1.00  0.00     0.116 C 
BRANCH  30  31
ATOM     31  N   UNL A   1      32.540  33.815  27.458  1.00  0.00    -0.352 N 
ATOM     32  C   UNL A   1      33.351  34.234  28.493  1.00  0.00     0.251 C 
ATOM     33  H   UNL A   1      31.802  34.425  27.230  1.00  0.00     0.163 HD
ATOM     34  O   UNL A   1      33.083  35.256  29.110  1.00  0.00    -0.269 OA
BRANCH  32  35
ATOM     35  C   UNL A   1      34.525  33.418  28.880  1.00  0.00     0.039 A 
ATOM     36  C   UNL A   1      35.801  33.984  28.792  1.00  0.00     0.014 A 
ATOM     37  C   UNL A   1      34.367  32.120  29.368  1.00  0.00     0.014 A 
ATOM     38  C   UNL A   1      36.905  33.283  29.287  1.00  0.00     0.010 A 
ATOM     39  C   UNL A   1      35.452  31.461  29.937  1.00  0.00     0.010 A 
ATOM     40  C   UNL A   1      36.733  32.036  29.909  1.00  0.00    -0.014 A 
BRANCH  40  41
ATOM     41  C   UNL A   1      37.863  31.322  30.560  1.00  0.00     0.031 A 
ATOM     42  C   UNL A   1      38.232  31.632  31.985  1.00  0.00     0.074 A 
ATOM     43  C   UNL A   1      38.632  30.485  29.833  1.00  0.00     0.049 A 
ATOM     44  N   UNL A   1      39.245  31.197  32.689  1.00  0.00    -0.248 NA
ATOM     45  C   UNL A   1      37.368  32.583  32.705  1.00  0.00     0.031 C 
ATOM     46  C   UNL A   1      38.436  30.168  28.416  1.00  0.00     0.029 A 
ATOM     47  N   UNL A   1      39.755  29.774  30.177  1.00  0.00    -0.354 N 
ATOM     48  C   UNL A   1      39.170  31.856  33.910  1.00  0.00     0.074 A 
ATOM     49  C   UNL A   1      38.028  32.742  33.843  1.00  0.00     0.031 C 
ATOM     50  C   UNL A   1      39.405  29.329  28.014  1.00  0.00     0.029 A 
ATOM     51  C   UNL A   1      40.305  29.069  29.132  1.00  0.00     0.049 A 
ATOM     52  H   UNL A   1      40.132  29.770  31.087  1.00  0.00     0.167 HD
ATOM     53  C   UNL A   1      39.957  31.714  35.002  1.00  0.00     0.034 A 
ATOM     54  C   UNL A   1      41.413  28.302  29.077  1.00  0.00     0.034 A 
ATOM     55  C   UNL A   1      41.051  30.784  35.091  1.00  0.00     0.049 A 
ATOM     56  C   UNL A   1      42.230  28.105  30.326  1.00  0.00     0.074 A 
ATOM     57  C   UNL A   1      41.843  30.491  36.187  1.00  0.00     0.029 A 
ATOM     58  N   UNL A   1      41.505  29.996  34.045  1.00  0.00    -0.354 N 
ATOM     59  N   UNL A   1      42.041  28.609  31.522  1.00  0.00    -0.248 NA
ATOM     60  C   UNL A   1      43.390  27.206  30.230  1.00  0.00     0.031 C 
ATOM     61  C   UNL A   1      42.782  29.529  35.801  1.00  0.00     0.029 A 
ATOM     62  C   UNL A   1      42.566  29.215  34.469  1.00  0.00     0.049 A 
ATOM     63  H   UNL A   1      41.127  29.992  33.137  1.00  0.00     0.167 HD
ATOM     64  C   UNL A   1      43.033  28.059  32.328  1.00  0.00     0.074 A 
ATOM     65  C   UNL A   1      43.809  27.169  31.488  1.00  0.00     0.031 C 
ATOM     66  C   UNL A   1      43.287  28.284  33.640  1.00  0.00     0.034 A 
BRANCH  53  67
ATOM     67  C   UNL A   1      39.621  32.536  36.219  1.00  0.00     0.023 A 
ATOM     68  C   UNL A   1      40.241  33.789  36.399  1.00  0.00     0.012 A 
ATOM     69  C   UNL A   1      38.657  32.100  37.150  1.00  0.00     0.148 A 
ATOM     70  C   UNL A   1      39.937  34.580  37.506  1.00  0.00     0.002 A 
ATOM     71  C   UNL A   1      38.327  32.915  38.227  1.00  0.00     0.091 A 
ATOM     72  F   UNL A   1      38.094  30.896  36.973  1.00  0.00    -0.205 F 
ATOM     73  C   UNL A   1      38.974  34.149  38.413  1.00  0.00     0.022 A 
BRANCH  71  74
ATOM     74  S   UNL A   1      37.043  32.482  39.407  1.00  0.00     0.127 S 
ATOM     75  O   UNL A   1      37.417  31.115  39.763  1.00  0.00    -0.237 OA
ATOM     76  O   UNL A   1      37.255  33.467  40.470  1.00  0.00    -0.237 OA
ATOM     77  O   UNL A   1      35.782  32.625  38.694  1.00  0.00    -0.744 OA
ENDBRANCH  71  74
ENDBRANCH  53  67
BRANCH  54  78
ATOM     78  C   UNL A   1      41.768  27.595  27.813  1.00  0.00     0.023 A 
ATOM     79  C   UNL A   1      42.242  28.345  26.718  1.00  0.00     0.012 A 
ATOM     80  C   UNL A   1      41.674  26.195  27.697  1.00  0.00     0.148 A 
ATOM     81  C   UNL A   1      42.584  27.717  25.520  1.00  0.00     0.002 A 
ATOM     82  C   UNL A   1      42.067  25.570  26.518  1.00  0.00     0.091 A 
ATOM     83  F   UNL A   1      41.208  25.500  28.744  1.00  0.00    -0.205 F 
ATOM     84  C   UNL A   1      42.507  26.331  25.423  1.00  0.00     0.022 A 
BRANCH  82  85
ATOM     85  S   UNL A   1      42.126  23.782  26.350  1.00  0.00     0.127 S 
ATOM     86  O   UNL A   1      42.880  23.395  27.538  1.00  0.00    -0.237 OA
ATOM     87  O   UNL A   1      40.706  23.427  26.378  1.00  0.00    -0.237 OA
ATOM     88  O   UNL A   1      42.778  23.532  25.072  1.00  0.00    -0.744 OA
ENDBRANCH  82  85
ENDBRANCH  54  78
BRANCH  66  89
ATOM     89  C   UNL A   1      44.428  27.533  34.273  1.00  0.00     0.023 A 
ATOM     90  C   UNL A   1      45.731  28.065  34.215  1.00  0.00     0.012 A 
ATOM     91  C   UNL A   1      44.194  26.349  35.001  1.00  0.00     0.148 A 
ATOM     92  C   UNL A   1      46.789  27.416  34.851  1.00  0.00     0.002 A 
ATOM     93  C   UNL A   1      45.245  25.734  35.670  1.00  0.00     0.091 A 
ATOM     94  F   UNL A   1      42.950  25.849  35.027  1.00  0.00    -0.205 F 
ATOM     95  C   UNL A   1      46.544  26.260  35.588  1.00  0.00     0.022 A 
BRANCH  93  96
ATOM     96  S   UNL A   1      45.002  24.296  36.719  1.00  0.00     0.127 S 
ATOM     97  O   UNL A   1      44.125  24.829  37.760  1.00  0.00    -0.237 OA
ATOM     98  O   UNL A   1      44.361  23.347  35.807  1.00  0.00    -0.237 OA
ATOM     99  O   UNL A   1      46.332  23.896  37.162  1.00  0.00    -0.744 OA
ENDBRANCH  93  96
ENDBRANCH  66  89
ENDBRANCH  40  41
ENDBRANCH  32  35
ENDBRANCH  30  31
ENDBRANCH  29  30
ENDBRANCH  28  29
ENDBRANCH   1  28
TORSDOF 19
ENDMDL
MODEL 3
REMARK VINA RESULT:     -12.2      2.732      8.000
REMARK SMILES O=C(CSc1nc(O)cc(=O)[nH]1)Nc1cccc(C(=O)NCCCCNC(=O)c2ccc(-c3c4nc(c(-c5cccc(S(=O)(=O)[O-])c5F)c5ccc([nH]5)c(-c5cccc(S(=O)(=O)[O-])c5F)c5nc(c(-c6cccc(S(=O)(=O)[O-])c6F)c6ccc3[nH]6)C=C5)C=C4)cc2)c1
REMARK SMILES IDX 22 1 21 2 19 3 20 4 18 6 14 7 15 8 92 9 16 10 17 11 13 12
REMARK SMILES IDX 1 13 2 14 3 16 4 17 5 18 6 19 12 20 7 21 10 22 9 24 11 25
REMARK SMILES IDX 8 26 23 28 24 29 25 30 26 31 27 32 28 34 29 35 30 36 91 37
REMARK SMILES IDX 31 38 90 39 32 40 33 41 34 42 84 43 35 44 89 45 83 46 85 47
REMARK SMILES IDX 36 48 88 49 82 50 81 51 37 53 69 54 49 55 68 56 50 57 53 58
REMARK SMILES IDX 67 59 86 60 51 61 52 62 66 64 87 65 54 66 38 67 39 68 47 69
REMARK SMILES IDX 40 70 42 71 48 72 41 73 43 74 44 75 45 76 46 77 70 78 71 79
REMARK SMILES IDX 79 80 72 81 74 82 80 83 73 84 75 85 76 86 77 87 78 88 55 89
REMARK SMILES IDX 56 90 64 91 57 92 59 93 65 94 58 95 60 96 61 97 62 98 63 99
REMARK H PARENT 21 5 13 15 12 23 8 27 26 33 85 52 53 63
REMARK Flexibility Score: inf
ROOT
ATOM      1  C   UNL A   1      31.129  28.405  23.735  1.00  0.00     0.116 C 
ENDROOT
BRANCH   1   2
ATOM      2  N   UNL A   1      32.290  28.645  22.885  1.00  0.00    -0.352 N 
ATOM      3  C   UNL A   1      33.236  27.758  22.411  1.00  0.00     0.251 C 
ATOM      4  O   UNL A   1      34.154  28.159  21.697  1.00  0.00    -0.269 OA
ATOM      5  H   UNL A   1      32.418  29.581  22.608  1.00  0.00     0.163 HD
BRANCH   3   6
ATOM      6  C   UNL A   1      33.215  26.330  22.822  1.00  0.00     0.041 A 
ATOM      7  C   UNL A   1      34.341  24.481  23.878  1.00  0.00     0.041 A 
ATOM      8  C   UNL A   1      33.500  23.591  23.201  1.00  0.00     0.026 A 
ATOM      9  C   UNL A   1      34.090  25.845  23.792  1.00  0.00     0.040 A 
ATOM     10  C   UNL A   1      32.489  24.074  22.366  1.00  0.00     0.003 A 
ATOM     11  C   UNL A   1      32.372  25.446  22.143  1.00  0.00     0.014 A 
BRANCH   7  12
ATOM     12  N   UNL A   1      35.483  23.956  24.517  1.00  0.00    -0.325 N 
ATOM     13  O   UNL A   1      36.697  23.090  22.723  1.00  0.00    -0.274 OA
ATOM     14  C   UNL A   1      36.542  23.276  23.925  1.00  0.00     0.234 C 
ATOM     15  H   UNL A   1      35.537  24.087  25.491  1.00  0.00     0.169 HD
BRANCH  14  16
ATOM     16  C   UNL A   1      37.534  22.686  24.917  1.00  0.00     0.178 C 
BRANCH  16  17
ATOM     17  S   UNL A   1      37.323  20.897  25.144  1.00  0.00    -0.078 SA
BRANCH  17  18
ATOM     18  C   UNL A   1      35.622  20.808  25.492  1.00  0.00     0.172 A 
ATOM     19  N   UNL A   1      34.834  20.235  24.647  1.00  0.00    -0.189 NA
ATOM     20  N   UNL A   1      35.210  21.423  26.634  1.00  0.00    -0.301 N 
ATOM     21  C   UNL A   1      33.505  20.264  24.949  1.00  0.00     0.218 A 
ATOM     22  C   UNL A   1      33.896  21.465  26.980  1.00  0.00     0.255 A 
ATOM     23  H   UNL A   1      35.877  21.847  27.221  1.00  0.00     0.172 HD
ATOM     24  C   UNL A   1      32.976  20.820  26.041  1.00  0.00     0.139 A 
ATOM     25  O   UNL A   1      33.495  22.027  27.995  1.00  0.00    -0.269 OA
BRANCH  21  26
ATOM     26  O   UNL A   1      32.684  19.688  24.018  1.00  0.00    -0.493 OA
ATOM     27  H   UNL A   1      33.052  19.194  23.312  1.00  0.00     0.295 HD
ENDBRANCH  21  26
ENDBRANCH  17  18
ENDBRANCH  16  17
ENDBRANCH  14  16
ENDBRANCH   7  12
ENDBRANCH   3   6
ENDBRANCH   1   2
BRANCH   1  28
ATOM     28  C   UNL A   1      31.442  27.967  25.158  1.00  0.00     0.023 C 
BRANCH  28  29
ATOM     29  C   UNL A   1      31.615  29.076  26.184  1.00  0.00     0.023 C 
BRANCH  29  30
ATOM     30  C   UNL A   1      32.799  30.009  25.969  1.00  0.00     0.116 C 
BRANCH  30  31
ATOM     31  N   UNL A   1      32.600  31.355  26.493  1.00  0.00    -0.352 N 
ATOM     32  C   UNL A   1      33.379  32.078  27.372  1.00  0.00     0.251 C 
ATOM     33  H   UNL A   1      31.791  31.814  26.172  1.00  0.00     0.163 HD
ATOM     34  O   UNL A   1      33.006  33.175  27.764  1.00  0.00    -0.269 OA
BRANCH  32  35
ATOM     35  C   UNL A   1      34.649  31.502  27.872  1.00  0.00     0.039 A 
ATOM     36  C   UNL A   1      35.760  32.338  28.017  1.00  0.00     0.014 A 
ATOM     37  C   UNL A   1      34.732  30.157  28.236  1.00  0.00     0.014 A 
ATOM     38  C   UNL A   1      36.922  31.846  28.621  1.00  0.00     0.010 A 
ATOM     39  C   UNL A   1      35.855  29.694  28.913  1.00  0.00     0.010 A 
ATOM     40  C   UNL A   1      36.962  30.534  29.120  1.00  0.00    -0.014 A 
BRANCH  40  41
ATOM     41  C   UNL A   1      38.131  30.018  29.880  1.00  0.00     0.031 A 
ATOM     42  C   UNL A   1      38.401  30.512  31.275  1.00  0.00     0.074 A 
ATOM     43  C   UNL A   1      39.016  29.201  29.273  1.00  0.00     0.049 A 
ATOM     44  N   UNL A   1      39.423  30.266  32.055  1.00  0.00    -0.248 NA
ATOM     45  C   UNL A   1      37.410  31.431  31.861  1.00  0.00     0.031 C 
ATOM     46  C   UNL A   1      38.918  28.721  27.891  1.00  0.00     0.029 A 
ATOM     47  N   UNL A   1      40.192  28.658  29.727  1.00  0.00    -0.354 N 
ATOM     48  C   UNL A   1      39.224  31.034  33.195  1.00  0.00     0.074 A 
ATOM     49  C   UNL A   1      37.999  31.777  32.996  1.00  0.00     0.031 C 
ATOM     50  C   UNL A   1      39.988  27.958  27.613  1.00  0.00     0.029 A 
ATOM     51  C   UNL A   1      40.860  27.914  28.782  1.00  0.00     0.049 A 
ATOM     52  H   UNL A   1      40.526  28.789  30.644  1.00  0.00     0.167 HD
ATOM     53  C   UNL A   1      39.972  31.092  34.322  1.00  0.00     0.034 A 
ATOM     54  C   UNL A   1      42.044  27.273  28.846  1.00  0.00     0.034 A 
ATOM     55  C   UNL A   1      41.153  30.302  34.545  1.00  0.00     0.049 A 
ATOM     56  C   UNL A   1      42.821  27.296  30.135  1.00  0.00     0.074 A 
ATOM     57  C   UNL A   1      41.923  30.212  35.692  1.00  0.00     0.029 A 
ATOM     58  N   UNL A   1      41.734  29.466  33.606  1.00  0.00    -0.354 N 
ATOM     59  N   UNL A   1      42.527  27.895  31.264  1.00  0.00    -0.248 NA
ATOM     60  C   UNL A   1      44.073  26.525  30.174  1.00  0.00     0.031 C 
ATOM     61  C   UNL A   1      42.975  29.326  35.442  1.00  0.00     0.029 A 
ATOM     62  C   UNL A   1      42.852  28.854  34.144  1.00  0.00     0.049 A 
ATOM     63  H   UNL A   1      41.400  29.327  32.690  1.00  0.00     0.167 HD
ATOM     64  C   UNL A   1      43.535  27.544  32.156  1.00  0.00     0.074 A 
ATOM     65  C   UNL A   1      44.437  26.664  31.442  1.00  0.00     0.031 C 
ATOM     66  C   UNL A   1      43.705  27.929  33.444  1.00  0.00     0.034 A 
BRANCH  53  67
ATOM     67  C   UNL A   1      39.497  31.992  35.432  1.00  0.00     0.023 A 
ATOM     68  C   UNL A   1      38.630  31.475  36.417  1.00  0.00     0.012 A 
ATOM     69  C   UNL A   1      39.945  33.324  35.534  1.00  0.00     0.148 A 
ATOM     70  C   UNL A   1      38.187  32.279  37.466  1.00  0.00     0.002 A 
ATOM     71  C   UNL A   1      39.533  34.106  36.608  1.00  0.00     0.091 A 
ATOM     72  F   UNL A   1      40.750  33.804  34.577  1.00  0.00    -0.205 F 
ATOM     73  C   UNL A   1      38.646  33.588  37.567  1.00  0.00     0.022 A 
BRANCH  71  74
ATOM     74  S   UNL A   1      40.130  35.780  36.869  1.00  0.00     0.127 S 
ATOM     75  O   UNL A   1      41.577  35.579  36.877  1.00  0.00    -0.237 OA
ATOM     76  O   UNL A   1      39.619  36.478  35.688  1.00  0.00    -0.237 OA
ATOM     77  O   UNL A   1      39.548  36.219  38.130  1.00  0.00    -0.744 OA
ENDBRANCH  71  74
ENDBRANCH  53  67
BRANCH  54  78
ATOM     78  C   UNL A   1      42.528  26.484  27.677  1.00  0.00     0.023 A 
ATOM     79  C   UNL A   1      43.424  27.082  26.769  1.00  0.00     0.012 A 
ATOM     80  C   UNL A   1      42.140  25.145  27.476  1.00  0.00     0.148 A 
ATOM     81  C   UNL A   1      43.898  26.374  25.665  1.00  0.00     0.002 A 
ATOM     82  C   UNL A   1      42.658  24.428  26.402  1.00  0.00     0.091 A 
ATOM     83  F   UNL A   1      41.276  24.596  28.342  1.00  0.00    -0.205 F 
ATOM     84  C   UNL A   1      43.524  25.045  25.487  1.00  0.00     0.022 A 
BRANCH  82  85
ATOM     85  S   UNL A   1      42.334  22.676  26.171  1.00  0.00     0.127 S 
ATOM     86  O   UNL A   1      40.879  22.624  26.275  1.00  0.00    -0.237 OA
ATOM     87  O   UNL A   1      42.865  22.442  24.827  1.00  0.00    -0.237 OA
ATOM     88  O   UNL A   1      43.072  22.000  27.229  1.00  0.00    -0.744 OA
ENDBRANCH  82  85
ENDBRANCH  54  78
BRANCH  66  89
ATOM     89  C   UNL A   1      44.890  27.377  34.191  1.00  0.00     0.023 A 
ATOM     90  C   UNL A   1      46.115  28.071  34.167  1.00  0.00     0.012 A 
ATOM     91  C   UNL A   1      44.763  26.222  34.989  1.00  0.00     0.148 A 
ATOM     92  C   UNL A   1      47.205  27.610  34.905  1.00  0.00     0.002 A 
ATOM     93  C   UNL A   1      45.839  25.795  35.756  1.00  0.00     0.091 A 
ATOM     94  F   UNL A   1      43.594  25.564  34.982  1.00  0.00    -0.205 F 
ATOM     95  C   UNL A   1      47.063  26.481  35.709  1.00  0.00     0.022 A 
BRANCH  93  96
ATOM     96  S   UNL A   1      45.716  24.407  36.891  1.00  0.00     0.127 S 
ATOM     97  O   UNL A   1      46.986  24.494  37.609  1.00  0.00    -0.237 OA
ATOM     98  O   UNL A   1      44.540  24.757  37.689  1.00  0.00    -0.237 OA
ATOM     99  O   UNL A   1      45.545  23.223  36.058  1.00  0.00    -0.744 OA
ENDBRANCH  93  96
ENDBRANCH  66  89
ENDBRANCH  40  41
ENDBRANCH  32  35
ENDBRANCH  30  31
ENDBRANCH  29  30
ENDBRANCH  28  29
ENDBRANCH   1  28
TORSDOF 19
ENDMDL
