MODEL 1
REMARK VINA RESULT:     -12.8      0.000      0.000
REMARK SMILES O=C(NCCCCNC(=O)[C@@H]1[C@@H](C(=O)Nc2cccc(C(F)(F)F)c2)[C@@H]2C=C[C@H]1O2)c1ccc(-c2c3nc(c(-c4cccc(S(=O)(=O)[O-])c4F)c4ccc([nH]4)c(-c4cccc(S(=O)(=O)[O-])c4F)c4nc(c(-c5cccc(S(=O)(=O)[O-])c5F)c5ccc2[nH]5)C=C4)C=C3)cc1
REMARK SMILES IDX 5 1 4 2 3 3 1 4 2 5 31 7 32 8 93 9 33 10 92 11 34 12 35 13
REMARK SMILES IDX 36 14 86 15 37 16 91 17 85 18 87 19 38 20 90 21 84 22 83 23
REMARK SMILES IDX 39 25 71 26 51 27 70 28 52 29 55 30 69 31 88 32 53 33 54 34
REMARK SMILES IDX 68 36 89 37 56 38 40 39 41 40 49 41 42 42 44 43 50 44 43 45
REMARK SMILES IDX 45 46 46 47 47 48 48 49 72 50 73 51 81 52 74 53 76 54 82 55
REMARK SMILES IDX 75 56 77 57 78 58 79 59 80 60 57 61 58 62 66 63 59 64 61 65
REMARK SMILES IDX 67 66 60 67 62 68 63 69 64 70 65 71 6 72 7 73 8 74 9 75
REMARK SMILES IDX 10 77 11 78 12 79 29 80 26 81 28 82 30 83 27 84 13 85 14 86
REMARK SMILES IDX 15 87 16 89 17 90 25 91 18 92 20 93 19 94 21 95 22 96 23 97
REMARK SMILES IDX 24 98
REMARK H PARENT 3 6 87 24 55 35 8 76 15 88
REMARK Flexibility Score: inf
ROOT
ATOM      1  C   UNL A   1      36.811  21.924  24.143  1.00  0.00     0.023 C 
ENDROOT
BRANCH   1   2
ATOM      2  C   UNL A   1      37.351  21.833  25.563  1.00  0.00     0.116 C 
BRANCH   2   3
ATOM      3  N   UNL A   1      38.343  20.783  25.746  1.00  0.00    -0.352 N 
ATOM      4  O   UNL A   1      40.367  19.931  26.276  1.00  0.00    -0.269 OA
ATOM      5  C   UNL A   1      39.609  20.895  26.272  1.00  0.00     0.251 C 
ATOM      6  H   UNL A   1      38.075  19.881  25.456  1.00  0.00     0.163 HD
BRANCH   5   7
ATOM      7  C   UNL A   1      40.043  22.208  26.784  1.00  0.00     0.039 A 
ATOM      8  C   UNL A   1      39.580  23.382  26.180  1.00  0.00     0.014 A 
ATOM      9  C   UNL A   1      40.986  22.256  27.811  1.00  0.00     0.014 A 
ATOM     10  C   UNL A   1      40.174  24.596  26.501  1.00  0.00     0.010 A 
ATOM     11  C   UNL A   1      41.522  23.488  28.187  1.00  0.00     0.010 A 
ATOM     12  C   UNL A   1      41.149  24.659  27.508  1.00  0.00    -0.014 A 
BRANCH  12  13
ATOM     13  C   UNL A   1      41.739  25.965  27.887  1.00  0.00     0.031 A 
ATOM     14  C   UNL A   1      40.927  26.995  28.616  1.00  0.00     0.074 A 
ATOM     15  C   UNL A   1      43.008  26.226  27.521  1.00  0.00     0.049 A 
ATOM     16  N   UNL A   1      41.251  28.221  28.936  1.00  0.00    -0.248 NA
ATOM     17  C   UNL A   1      39.569  26.607  29.032  1.00  0.00     0.031 C 
ATOM     18  C   UNL A   1      43.874  25.304  26.784  1.00  0.00     0.029 A 
ATOM     19  N   UNL A   1      43.779  27.345  27.692  1.00  0.00    -0.354 N 
ATOM     20  C   UNL A   1      40.127  28.768  29.541  1.00  0.00     0.074 A 
ATOM     21  C   UNL A   1      39.111  27.739  29.551  1.00  0.00     0.031 C 
ATOM     22  C   UNL A   1      45.055  25.895  26.559  1.00  0.00     0.029 A 
ATOM     23  C   UNL A   1      45.008  27.255  27.084  1.00  0.00     0.049 A 
ATOM     24  H   UNL A   1      43.483  28.135  28.200  1.00  0.00     0.167 HD
ATOM     25  C   UNL A   1      39.964  30.013  30.049  1.00  0.00     0.034 A 
ATOM     26  C   UNL A   1      45.979  28.175  26.930  1.00  0.00     0.034 A 
ATOM     27  C   UNL A   1      41.000  31.012  30.073  1.00  0.00     0.049 A 
ATOM     28  C   UNL A   1      45.786  29.536  27.527  1.00  0.00     0.074 A 
ATOM     29  C   UNL A   1      40.961  32.280  30.626  1.00  0.00     0.029 A 
ATOM     30  N   UNL A   1      42.262  30.857  29.517  1.00  0.00    -0.354 N 
ATOM     31  N   UNL A   1      44.758  30.001  28.194  1.00  0.00    -0.248 NA
ATOM     32  C   UNL A   1      46.892  30.492  27.379  1.00  0.00     0.031 C 
ATOM     33  C   UNL A   1      42.197  32.895  30.396  1.00  0.00     0.029 A 
ATOM     34  C   UNL A   1      43.010  32.005  29.710  1.00  0.00     0.049 A 
ATOM     35  H   UNL A   1      42.580  30.048  29.055  1.00  0.00     0.167 HD
ATOM     36  C   UNL A   1      45.098  31.294  28.567  1.00  0.00     0.074 A 
ATOM     37  C   UNL A   1      46.437  31.533  28.065  1.00  0.00     0.031 C 
ATOM     38  C   UNL A   1      44.362  32.204  29.250  1.00  0.00     0.034 A 
BRANCH  25  39
ATOM     39  C   UNL A   1      38.629  30.357  30.654  1.00  0.00     0.023 A 
ATOM     40  C   UNL A   1      38.360  30.004  31.991  1.00  0.00     0.012 A 
ATOM     41  C   UNL A   1      37.663  31.073  29.921  1.00  0.00     0.148 A 
ATOM     42  C   UNL A   1      37.140  30.333  32.581  1.00  0.00     0.002 A 
ATOM     43  C   UNL A   1      36.462  31.429  30.528  1.00  0.00     0.091 A 
ATOM     44  F   UNL A   1      37.920  31.377  28.642  1.00  0.00    -0.205 F 
ATOM     45  C   UNL A   1      36.195  31.054  31.854  1.00  0.00     0.022 A 
BRANCH  43  46
ATOM     46  S   UNL A   1      35.226  32.418  29.676  1.00  0.00     0.127 S 
ATOM     47  O   UNL A   1      34.781  31.499  28.631  1.00  0.00    -0.237 OA
ATOM     48  O   UNL A   1      34.238  32.667  30.727  1.00  0.00    -0.237 OA
ATOM     49  O   UNL A   1      35.929  33.610  29.222  1.00  0.00    -0.744 OA
ENDBRANCH  43  46
ENDBRANCH  25  39
BRANCH  26  50
ATOM     50  C   UNL A   1      47.223  27.791  26.208  1.00  0.00     0.023 A 
ATOM     51  C   UNL A   1      48.231  27.091  26.896  1.00  0.00     0.012 A 
ATOM     52  C   UNL A   1      47.351  28.004  24.821  1.00  0.00     0.148 A 
ATOM     53  C   UNL A   1      49.351  26.612  26.213  1.00  0.00     0.002 A 
ATOM     54  C   UNL A   1      48.439  27.473  24.138  1.00  0.00     0.091 A 
ATOM     55  F   UNL A   1      46.383  28.682  24.190  1.00  0.00    -0.205 F 
ATOM     56  C   UNL A   1      49.445  26.788  24.835  1.00  0.00     0.022 A 
BRANCH  54  57
ATOM     57  S   UNL A   1      48.560  27.512  22.345  1.00  0.00     0.127 S 
ATOM     58  O   UNL A   1      49.752  28.331  22.144  1.00  0.00    -0.237 OA
ATOM     59  O   UNL A   1      48.724  26.094  22.023  1.00  0.00    -0.237 OA
ATOM     60  O   UNL A   1      47.306  28.089  21.880  1.00  0.00    -0.744 OA
ENDBRANCH  54  57
ENDBRANCH  26  50
BRANCH  38  61
ATOM     61  C   UNL A   1      44.991  33.541  29.524  1.00  0.00     0.023 A 
ATOM     62  C   UNL A   1      45.733  33.730  30.705  1.00  0.00     0.012 A 
ATOM     63  C   UNL A   1      44.927  34.574  28.569  1.00  0.00     0.148 A 
ATOM     64  C   UNL A   1      46.393  34.935  30.940  1.00  0.00     0.002 A 
ATOM     65  C   UNL A   1      45.619  35.759  28.792  1.00  0.00     0.091 A 
ATOM     66  F   UNL A   1      44.195  34.378  27.463  1.00  0.00    -0.205 F 
ATOM     67  C   UNL A   1      46.346  35.944  29.979  1.00  0.00     0.022 A 
BRANCH  65  68
ATOM     68  S   UNL A   1      45.685  37.075  27.571  1.00  0.00     0.127 S 
ATOM     69  O   UNL A   1      46.587  38.031  28.213  1.00  0.00    -0.237 OA
ATOM     70  O   UNL A   1      46.249  36.392  26.406  1.00  0.00    -0.237 OA
ATOM     71  O   UNL A   1      44.313  37.530  27.398  1.00  0.00    -0.744 OA
ENDBRANCH  65  68
ENDBRANCH  38  61
ENDBRANCH  12  13
ENDBRANCH   5   7
ENDBRANCH   2   3
ENDBRANCH   1   2
BRANCH   1  72
ATOM     72  C   UNL A   1      36.462  23.331  23.672  1.00  0.00     0.023 C 
BRANCH  72  73
ATOM     73  C   UNL A   1      35.317  23.996  24.433  1.00  0.00     0.116 C 
BRANCH  73  74
ATOM     74  N   UNL A   1      34.234  24.357  23.542  1.00  0.00    -0.356 N 
ATOM     75  C   UNL A   1      32.938  23.983  23.440  1.00  0.00     0.227 C 
ATOM     76  H   UNL A   1      34.499  25.018  22.861  1.00  0.00     0.163 HD
ATOM     77  O   UNL A   1      32.354  24.384  22.425  1.00  0.00    -0.275 OA
BRANCH  75  78
ATOM     78  C   UNL A   1      32.172  23.114  24.422  1.00  0.00     0.127 C 
ATOM     79  C   UNL A   1      32.559  23.095  25.930  1.00  0.00     0.127 C 
ATOM     80  C   UNL A   1      32.096  21.623  24.074  1.00  0.00     0.155 C 
ATOM     81  C   UNL A   1      32.558  21.575  26.203  1.00  0.00     0.155 C 
ATOM     82  C   UNL A   1      33.396  20.895  24.207  1.00  0.00     0.004 C 
ATOM     83  O   UNL A   1      31.485  21.146  25.311  1.00  0.00    -0.365 OA
ATOM     84  C   UNL A   1      33.696  20.886  25.512  1.00  0.00     0.004 C 
BRANCH  79  85
ATOM     85  C   UNL A   1      31.507  23.747  26.820  1.00  0.00     0.231 C 
ATOM     86  O   UNL A   1      30.797  23.095  27.588  1.00  0.00    -0.274 OA
ATOM     87  N   UNL A   1      31.334  25.103  26.840  1.00  0.00    -0.326 N 
ATOM     88  H   UNL A   1      30.853  25.419  27.639  1.00  0.00     0.169 HD
BRANCH  87  89
ATOM     89  C   UNL A   1      31.694  26.140  25.967  1.00  0.00     0.041 A 
ATOM     90  C   UNL A   1      32.958  26.713  26.162  1.00  0.00     0.026 A 
ATOM     91  C   UNL A   1      30.847  26.686  25.004  1.00  0.00     0.039 A 
ATOM     92  C   UNL A   1      33.389  27.781  25.375  1.00  0.00     0.003 A 
ATOM     93  C   UNL A   1      31.260  27.780  24.218  1.00  0.00     0.058 A 
ATOM     94  C   UNL A   1      32.543  28.313  24.405  1.00  0.00     0.013 A 
BRANCH  93  95
ATOM     95  C   UNL A   1      30.325  28.418  23.217  1.00  0.00     0.416 C 
ATOM     96  F   UNL A   1      30.522  27.948  21.956  1.00  0.00    -0.166 F 
ATOM     97  F   UNL A   1      29.017  28.184  23.509  1.00  0.00    -0.166 F 
ATOM     98  F   UNL A   1      30.459  29.771  23.144  1.00  0.00    -0.166 F 
ENDBRANCH  93  95
ENDBRANCH  87  89
ENDBRANCH  79  85
ENDBRANCH  75  78
ENDBRANCH  73  74
ENDBRANCH  72  73
ENDBRANCH   1  72
TORSDOF 17
ENDMDL
MODEL 2
REMARK VINA RESULT:     -12.8      2.566      8.235
REMARK SMILES O=C(NCCCCNC(=O)[C@@H]1[C@@H](C(=O)Nc2cccc(C(F)(F)F)c2)[C@@H]2C=C[C@H]1O2)c1ccc(-c2c3nc(c(-c4cccc(S(=O)(=O)[O-])c4F)c4ccc([nH]4)c(-c4cccc(S(=O)(=O)[O-])c4F)c4nc(c(-c5cccc(S(=O)(=O)[O-])c5F)c5ccc2[nH]5)C=C4)C=C3)cc1
REMARK SMILES IDX 5 1 4 2 3 3 1 4 2 5 31 7 32 8 93 9 33 10 92 11 34 12 35 13
REMARK SMILES IDX 36 14 86 15 37 16 91 17 85 18 87 19 38 20 90 21 84 22 83 23
REMARK SMILES IDX 39 25 71 26 51 27 70 28 52 29 55 30 69 31 88 32 53 33 54 34
REMARK SMILES IDX 68 36 89 37 56 38 40 39 41 40 49 41 42 42 44 43 50 44 43 45
REMARK SMILES IDX 45 46 46 47 47 48 48 49 72 50 73 51 81 52 74 53 76 54 82 55
REMARK SMILES IDX 75 56 77 57 78 58 79 59 80 60 57 61 58 62 66 63 59 64 61 65
REMARK SMILES IDX 67 66 60 67 62 68 63 69 64 70 65 71 6 72 7 73 8 74 9 75
REMARK SMILES IDX 10 77 11 78 12 79 29 80 26 81 28 82 30 83 27 84 13 85 14 86
REMARK SMILES IDX 15 87 16 89 17 90 25 91 18 92 20 93 19 94 21 95 22 96 23 97
REMARK SMILES IDX 24 98
REMARK H PARENT 3 6 87 24 55 35 8 76 15 88
REMARK Flexibility Score: inf
ROOT
ATOM      1  C   UNL A   1      36.158  21.626  24.255  1.00  0.00     0.023 C 
ENDROOT
BRANCH   1   2
ATOM      2  C   UNL A   1      36.901  21.676  25.583  1.00  0.00     0.116 C 
BRANCH   2   3
ATOM      3  N   UNL A   1      37.934  20.659  25.713  1.00  0.00    -0.352 N 
ATOM      4  O   UNL A   1      40.020  19.878  26.095  1.00  0.00    -0.269 OA
ATOM      5  C   UNL A   1      39.237  20.821  26.125  1.00  0.00     0.251 C 
ATOM      6  H   UNL A   1      37.668  19.741  25.478  1.00  0.00     0.163 HD
BRANCH   5   7
ATOM      7  C   UNL A   1      39.676  22.163  26.553  1.00  0.00     0.039 A 
ATOM      8  C   UNL A   1      39.133  23.302  25.950  1.00  0.00     0.014 A 
ATOM      9  C   UNL A   1      40.698  22.271  27.497  1.00  0.00     0.014 A 
ATOM     10  C   UNL A   1      39.718  24.541  26.179  1.00  0.00     0.010 A 
ATOM     11  C   UNL A   1      41.229  23.528  27.785  1.00  0.00     0.010 A 
ATOM     12  C   UNL A   1      40.770  24.665  27.099  1.00  0.00    -0.014 A 
BRANCH  12  13
ATOM     13  C   UNL A   1      41.353  25.997  27.383  1.00  0.00     0.031 A 
ATOM     14  C   UNL A   1      42.746  26.339  26.940  1.00  0.00     0.074 A 
ATOM     15  C   UNL A   1      40.623  26.879  28.090  1.00  0.00     0.049 A 
ATOM     16  N   UNL A   1      43.445  27.416  27.188  1.00  0.00    -0.248 NA
ATOM     17  C   UNL A   1      43.453  25.341  26.121  1.00  0.00     0.031 C 
ATOM     18  C   UNL A   1      39.270  26.635  28.593  1.00  0.00     0.029 A 
ATOM     19  N   UNL A   1      40.920  28.143  28.529  1.00  0.00    -0.354 N 
ATOM     20  C   UNL A   1      44.689  27.206  26.605  1.00  0.00     0.074 A 
ATOM     21  C   UNL A   1      44.648  25.901  25.983  1.00  0.00     0.031 C 
ATOM     22  C   UNL A   1      38.855  27.709  29.278  1.00  0.00     0.029 A 
ATOM     23  C   UNL A   1      39.933  28.691  29.312  1.00  0.00     0.049 A 
ATOM     24  H   UNL A   1      41.757  28.611  28.307  1.00  0.00     0.167 HD
ATOM     25  C   UNL A   1      45.761  28.034  26.585  1.00  0.00     0.034 A 
ATOM     26  C   UNL A   1      39.907  29.841  30.012  1.00  0.00     0.034 A 
ATOM     27  C   UNL A   1      45.771  29.349  27.169  1.00  0.00     0.049 A 
ATOM     28  C   UNL A   1      41.095  30.753  29.948  1.00  0.00     0.074 A 
ATOM     29  C   UNL A   1      46.781  30.294  27.144  1.00  0.00     0.029 A 
ATOM     30  N   UNL A   1      44.721  29.904  27.886  1.00  0.00    -0.354 N 
ATOM     31  N   UNL A   1      42.222  30.587  29.299  1.00  0.00    -0.248 NA
ATOM     32  C   UNL A   1      41.003  32.019  30.686  1.00  0.00     0.031 C 
ATOM     33  C   UNL A   1      46.345  31.418  27.855  1.00  0.00     0.029 A 
ATOM     34  C   UNL A   1      45.059  31.177  28.312  1.00  0.00     0.049 A 
ATOM     35  H   UNL A   1      43.862  29.459  28.066  1.00  0.00     0.167 HD
ATOM     36  C   UNL A   1      42.966  31.736  29.529  1.00  0.00     0.074 A 
ATOM     37  C   UNL A   1      42.153  32.599  30.365  1.00  0.00     0.031 C 
ATOM     38  C   UNL A   1      44.214  32.041  29.098  1.00  0.00     0.034 A 
BRANCH  25  39
ATOM     39  C   UNL A   1      47.003  27.558  25.878  1.00  0.00     0.023 A 
ATOM     40  C   UNL A   1      47.954  26.794  26.581  1.00  0.00     0.012 A 
ATOM     41  C   UNL A   1      47.204  27.820  24.509  1.00  0.00     0.148 A 
ATOM     42  C   UNL A   1      49.099  26.321  25.942  1.00  0.00     0.002 A 
ATOM     43  C   UNL A   1      48.332  27.315  23.869  1.00  0.00     0.091 A 
ATOM     44  F   UNL A   1      46.305  28.572  23.858  1.00  0.00    -0.205 F 
ATOM     45  C   UNL A   1      49.284  26.573  24.585  1.00  0.00     0.022 A 
BRANCH  43  46
ATOM     46  S   UNL A   1      48.601  27.539  22.106  1.00  0.00     0.127 S 
ATOM     47  O   UNL A   1      49.787  28.394  22.094  1.00  0.00    -0.237 OA
ATOM     48  O   UNL A   1      48.835  26.169  21.643  1.00  0.00    -0.237 OA
ATOM     49  O   UNL A   1      47.375  28.139  21.599  1.00  0.00    -0.744 OA
ENDBRANCH  43  46
ENDBRANCH  25  39
BRANCH  26  50
ATOM     50  C   UNL A   1      38.683  30.180  30.788  1.00  0.00     0.023 A 
ATOM     51  C   UNL A   1      38.628  29.870  32.159  1.00  0.00     0.012 A 
ATOM     52  C   UNL A   1      37.634  30.918  30.203  1.00  0.00     0.148 A 
ATOM     53  C   UNL A   1      37.546  30.288  32.936  1.00  0.00     0.002 A 
ATOM     54  C   UNL A   1      36.590  31.381  30.995  1.00  0.00     0.091 A 
ATOM     55  F   UNL A   1      37.704  31.192  28.893  1.00  0.00    -0.205 F 
ATOM     56  C   UNL A   1      36.538  31.056  32.358  1.00  0.00     0.022 A 
BRANCH  54  57
ATOM     57  S   UNL A   1      35.338  32.508  30.370  1.00  0.00     0.127 S 
ATOM     58  O   UNL A   1      34.796  31.758  29.241  1.00  0.00    -0.237 OA
ATOM     59  O   UNL A   1      34.439  32.629  31.519  1.00  0.00    -0.237 OA
ATOM     60  O   UNL A   1      36.048  33.736  30.035  1.00  0.00    -0.744 OA
ENDBRANCH  54  57
ENDBRANCH  26  50
BRANCH  38  61
ATOM     61  C   UNL A   1      44.779  33.376  29.497  1.00  0.00     0.023 A 
ATOM     62  C   UNL A   1      45.523  33.488  30.686  1.00  0.00     0.012 A 
ATOM     63  C   UNL A   1      44.654  34.492  28.646  1.00  0.00     0.148 A 
ATOM     64  C   UNL A   1      46.125  34.696  31.032  1.00  0.00     0.002 A 
ATOM     65  C   UNL A   1      45.288  35.683  28.979  1.00  0.00     0.091 A 
ATOM     66  F   UNL A   1      43.921  34.367  27.530  1.00  0.00    -0.205 F 
ATOM     67  C   UNL A   1      46.018  35.789  30.174  1.00  0.00     0.022 A 
BRANCH  65  68
ATOM     68  S   UNL A   1      45.276  37.113  27.891  1.00  0.00     0.127 S 
ATOM     69  O   UNL A   1      45.935  36.584  26.698  1.00  0.00    -0.237 OA
ATOM     70  O   UNL A   1      43.845  37.372  27.733  1.00  0.00    -0.237 OA
ATOM     71  O   UNL A   1      46.004  38.159  28.596  1.00  0.00    -0.744 OA
ENDBRANCH  65  68
ENDBRANCH  38  61
ENDBRANCH  12  13
ENDBRANCH   5   7
ENDBRANCH   2   3
ENDBRANCH   1   2
BRANCH   1  72
ATOM     72  C   UNL A   1      36.055  22.958  23.520  1.00  0.00     0.023 C 
BRANCH  72  73
ATOM     73  C   UNL A   1      34.660  23.579  23.512  1.00  0.00     0.116 C 
BRANCH  73  74
ATOM     74  N   UNL A   1      34.645  24.846  24.213  1.00  0.00    -0.356 N 
ATOM     75  C   UNL A   1      33.975  25.315  25.291  1.00  0.00     0.227 C 
ATOM     76  H   UNL A   1      35.254  25.512  23.818  1.00  0.00     0.163 HD
ATOM     77  O   UNL A   1      34.096  26.529  25.497  1.00  0.00    -0.275 OA
BRANCH  75  78
ATOM     78  C   UNL A   1      33.090  24.506  26.222  1.00  0.00     0.127 C 
ATOM     79  C   UNL A   1      32.738  23.025  25.891  1.00  0.00     0.127 C 
ATOM     80  C   UNL A   1      31.720  25.116  26.537  1.00  0.00     0.155 C 
ATOM     81  C   UNL A   1      31.217  23.030  26.156  1.00  0.00     0.155 C 
ATOM     82  C   UNL A   1      30.768  25.116  25.382  1.00  0.00     0.004 C 
ATOM     83  O   UNL A   1      31.143  23.985  27.258  1.00  0.00    -0.365 OA
ATOM     84  C   UNL A   1      30.476  23.834  25.129  1.00  0.00     0.004 C 
BRANCH  79  85
ATOM     85  C   UNL A   1      33.393  22.033  26.846  1.00  0.00     0.231 C 
ATOM     86  O   UNL A   1      33.884  22.380  27.922  1.00  0.00    -0.274 OA
ATOM     87  N   UNL A   1      33.423  20.695  26.571  1.00  0.00    -0.326 N 
ATOM     88  H   UNL A   1      33.597  20.141  27.366  1.00  0.00     0.169 HD
BRANCH  87  89
ATOM     89  C   UNL A   1      33.259  19.941  25.399  1.00  0.00     0.041 A 
ATOM     90  C   UNL A   1      32.424  20.486  24.415  1.00  0.00     0.026 A 
ATOM     91  C   UNL A   1      33.788  18.666  25.205  1.00  0.00     0.039 A 
ATOM     92  C   UNL A   1      32.161  19.791  23.234  1.00  0.00     0.003 A 
ATOM     93  C   UNL A   1      33.512  17.943  24.027  1.00  0.00     0.058 A 
ATOM     94  C   UNL A   1      32.704  18.524  23.040  1.00  0.00     0.013 A 
BRANCH  93  95
ATOM     95  C   UNL A   1      34.029  16.536  23.837  1.00  0.00     0.416 C 
ATOM     96  F   UNL A   1      33.092  15.598  24.138  1.00  0.00    -0.166 F 
ATOM     97  F   UNL A   1      34.411  16.295  22.554  1.00  0.00    -0.166 F 
ATOM     98  F   UNL A   1      35.112  16.253  24.613  1.00  0.00    -0.166 F 
ENDBRANCH  93  95
ENDBRANCH  87  89
ENDBRANCH  79  85
ENDBRANCH  75  78
ENDBRANCH  73  74
ENDBRANCH  72  73
ENDBRANCH   1  72
TORSDOF 17
ENDMDL
MODEL 3
REMARK VINA RESULT:     -12.7      2.169      3.390
REMARK SMILES O=C(NCCCCNC(=O)[C@@H]1[C@@H](C(=O)Nc2cccc(C(F)(F)F)c2)[C@@H]2C=C[C@H]1O2)c1ccc(-c2c3nc(c(-c4cccc(S(=O)(=O)[O-])c4F)c4ccc([nH]4)c(-c4cccc(S(=O)(=O)[O-])c4F)c4nc(c(-c5cccc(S(=O)(=O)[O-])c5F)c5ccc2[nH]5)C=C4)C=C3)cc1
REMARK SMILES IDX 5 1 4 2 3 3 1 4 2 5 31 7 32 8 93 9 33 10 92 11 34 12 35 13
REMARK SMILES IDX 36 14 86 15 37 16 91 17 85 18 87 19 38 20 90 21 84 22 83 23
REMARK SMILES IDX 39 25 71 26 51 27 70 28 52 29 55 30 69 31 88 32 53 33 54 34
REMARK SMILES IDX 68 36 89 37 56 38 40 39 41 40 49 41 42 42 44 43 50 44 43 45
REMARK SMILES IDX 45 46 46 47 47 48 48 49 72 50 73 51 81 52 74 53 76 54 82 55
REMARK SMILES IDX 75 56 77 57 78 58 79 59 80 60 57 61 58 62 66 63 59 64 61 65
REMARK SMILES IDX 67 66 60 67 62 68 63 69 64 70 65 71 6 72 7 73 8 74 9 75
REMARK SMILES IDX 10 77 11 78 12 79 29 80 26 81 28 82 30 83 27 84 13 85 14 86
REMARK SMILES IDX 15 87 16 89 17 90 25 91 18 92 20 93 19 94 21 95 22 96 23 97
REMARK SMILES IDX 24 98
REMARK H PARENT 3 6 87 24 55 35 8 76 15 88
REMARK Flexibility Score: inf
ROOT
ATOM      1  C   UNL A   1      35.852  21.446  24.660  1.00  0.00     0.023 C 
ENDROOT
BRANCH   1   2
ATOM      2  C   UNL A   1      36.973  21.719  25.653  1.00  0.00     0.116 C 
BRANCH   2   3
ATOM      3  N   UNL A   1      37.971  20.661  25.712  1.00  0.00    -0.352 N 
ATOM      4  O   UNL A   1      40.030  19.787  26.032  1.00  0.00    -0.269 OA
ATOM      5  C   UNL A   1      39.279  20.752  26.126  1.00  0.00     0.251 C 
ATOM      6  H   UNL A   1      37.673  19.770  25.420  1.00  0.00     0.163 HD
BRANCH   5   7
ATOM      7  C   UNL A   1      39.765  22.048  26.637  1.00  0.00     0.039 A 
ATOM      8  C   UNL A   1      39.276  23.241  26.097  1.00  0.00     0.014 A 
ATOM      9  C   UNL A   1      40.778  22.060  27.597  1.00  0.00     0.014 A 
ATOM     10  C   UNL A   1      39.906  24.440  26.405  1.00  0.00     0.010 A 
ATOM     11  C   UNL A   1      41.355  23.275  27.965  1.00  0.00     0.010 A 
ATOM     12  C   UNL A   1      40.950  24.467  27.342  1.00  0.00    -0.014 A 
BRANCH  12  13
ATOM     13  C   UNL A   1      41.582  25.756  27.710  1.00  0.00     0.031 A 
ATOM     14  C   UNL A   1      40.817  26.801  28.468  1.00  0.00     0.074 A 
ATOM     15  C   UNL A   1      42.845  25.989  27.307  1.00  0.00     0.049 A 
ATOM     16  N   UNL A   1      41.180  28.017  28.785  1.00  0.00    -0.248 NA
ATOM     17  C   UNL A   1      39.463  26.442  28.922  1.00  0.00     0.031 C 
ATOM     18  C   UNL A   1      43.667  25.052  26.539  1.00  0.00     0.029 A 
ATOM     19  N   UNL A   1      43.648  27.090  27.461  1.00  0.00    -0.354 N 
ATOM     20  C   UNL A   1      40.087  28.587  29.426  1.00  0.00     0.074 A 
ATOM     21  C   UNL A   1      39.047  27.582  29.461  1.00  0.00     0.031 C 
ATOM     22  C   UNL A   1      44.854  25.616  26.283  1.00  0.00     0.029 A 
ATOM     23  C   UNL A   1      44.855  26.974  26.816  1.00  0.00     0.049 A 
ATOM     24  H   UNL A   1      43.386  27.883  27.982  1.00  0.00     0.167 HD
ATOM     25  C   UNL A   1      39.969  29.832  29.945  1.00  0.00     0.034 A 
ATOM     26  C   UNL A   1      45.843  27.871  26.638  1.00  0.00     0.034 A 
ATOM     27  C   UNL A   1      41.029  30.806  29.944  1.00  0.00     0.049 A 
ATOM     28  C   UNL A   1      45.700  29.234  27.248  1.00  0.00     0.074 A 
ATOM     29  C   UNL A   1      41.036  32.071  30.504  1.00  0.00     0.029 A 
ATOM     30  N   UNL A   1      42.270  30.624  29.350  1.00  0.00    -0.354 N 
ATOM     31  N   UNL A   1      44.703  29.718  27.948  1.00  0.00    -0.248 NA
ATOM     32  C   UNL A   1      46.823  30.164  27.072  1.00  0.00     0.031 C 
ATOM     33  C   UNL A   1      42.279  32.658  30.241  1.00  0.00     0.029 A 
ATOM     34  C   UNL A   1      43.050  31.754  29.527  1.00  0.00     0.049 A 
ATOM     35  H   UNL A   1      42.554  29.811  28.874  1.00  0.00     0.167 HD
ATOM     36  C   UNL A   1      45.085  31.000  28.318  1.00  0.00     0.074 A 
ATOM     37  C   UNL A   1      46.414  31.211  27.777  1.00  0.00     0.031 C 
ATOM     38  C   UNL A   1      44.391  31.923  29.027  1.00  0.00     0.034 A 
BRANCH  25  39
ATOM     39  C   UNL A   1      38.661  30.203  30.592  1.00  0.00     0.023 A 
ATOM     40  C   UNL A   1      38.403  29.805  31.918  1.00  0.00     0.012 A 
ATOM     41  C   UNL A   1      37.711  30.989  29.910  1.00  0.00     0.148 A 
ATOM     42  C   UNL A   1      37.209  30.158  32.547  1.00  0.00     0.002 A 
ATOM     43  C   UNL A   1      36.538  31.366  30.556  1.00  0.00     0.091 A 
ATOM     44  F   UNL A   1      37.957  31.336  28.639  1.00  0.00    -0.205 F 
ATOM     45  C   UNL A   1      36.282  30.946  31.870  1.00  0.00     0.022 A 
BRANCH  43  46
ATOM     46  S   UNL A   1      35.328  32.440  29.772  1.00  0.00     0.127 S 
ATOM     47  O   UNL A   1      34.808  31.577  28.714  1.00  0.00    -0.237 OA
ATOM     48  O   UNL A   1      34.384  32.703  30.860  1.00  0.00    -0.237 OA
ATOM     49  O   UNL A   1      36.075  33.611  29.333  1.00  0.00    -0.744 OA
ENDBRANCH  43  46
ENDBRANCH  25  39
BRANCH  26  50
ATOM     50  C   UNL A   1      47.055  27.463  25.877  1.00  0.00     0.023 A 
ATOM     51  C   UNL A   1      47.965  26.563  26.461  1.00  0.00     0.012 A 
ATOM     52  C   UNL A   1      47.240  27.862  24.538  1.00  0.00     0.148 A 
ATOM     53  C   UNL A   1      49.043  26.069  25.724  1.00  0.00     0.002 A 
ATOM     54  C   UNL A   1      48.280  27.320  23.793  1.00  0.00     0.091 A 
ATOM     55  F   UNL A   1      46.366  28.728  24.007  1.00  0.00    -0.205 F 
ATOM     56  C   UNL A   1      49.189  26.433  24.388  1.00  0.00     0.022 A 
BRANCH  54  57
ATOM     57  S   UNL A   1      48.448  27.608  22.027  1.00  0.00     0.127 S 
ATOM     58  O   UNL A   1      48.653  26.254  21.521  1.00  0.00    -0.237 OA
ATOM     59  O   UNL A   1      47.153  28.203  21.693  1.00  0.00    -0.237 OA
ATOM     60  O   UNL A   1      49.578  28.518  21.884  1.00  0.00    -0.744 OA
ENDBRANCH  54  57
ENDBRANCH  26  50
BRANCH  38  61
ATOM     61  C   UNL A   1      45.060  33.244  29.289  1.00  0.00     0.023 A 
ATOM     62  C   UNL A   1      45.834  33.411  30.454  1.00  0.00     0.012 A 
ATOM     63  C   UNL A   1      45.000  34.281  28.338  1.00  0.00     0.148 A 
ATOM     64  C   UNL A   1      46.528  34.599  30.675  1.00  0.00     0.002 A 
ATOM     65  C   UNL A   1      45.727  35.447  28.547  1.00  0.00     0.091 A 
ATOM     66  F   UNL A   1      44.239  34.106  27.248  1.00  0.00    -0.205 F 
ATOM     67  C   UNL A   1      46.485  35.611  29.718  1.00  0.00     0.022 A 
BRANCH  65  68
ATOM     68  S   UNL A   1      45.798  36.765  27.328  1.00  0.00     0.127 S 
ATOM     69  O   UNL A   1      44.409  37.220  27.301  1.00  0.00    -0.237 OA
ATOM     70  O   UNL A   1      46.736  37.706  27.941  1.00  0.00    -0.237 OA
ATOM     71  O   UNL A   1      46.279  36.148  26.100  1.00  0.00    -0.744 OA
ENDBRANCH  65  68
ENDBRANCH  38  61
ENDBRANCH  12  13
ENDBRANCH   5   7
ENDBRANCH   2   3
ENDBRANCH   1   2
BRANCH   1  72
ATOM     72  C   UNL A   1      35.407  22.652  23.839  1.00  0.00     0.023 C 
BRANCH  72  73
ATOM     73  C   UNL A   1      35.030  23.883  24.660  1.00  0.00     0.116 C 
BRANCH  73  74
ATOM     74  N   UNL A   1      34.372  24.880  23.841  1.00  0.00    -0.356 N 
ATOM     75  C   UNL A   1      33.216  25.573  23.954  1.00  0.00     0.227 C 
ATOM     76  H   UNL A   1      34.875  25.099  23.023  1.00  0.00     0.163 HD
ATOM     77  O   UNL A   1      32.894  26.224  22.952  1.00  0.00    -0.275 OA
BRANCH  75  78
ATOM     78  C   UNL A   1      32.294  25.595  25.161  1.00  0.00     0.127 C 
ATOM     79  C   UNL A   1      31.159  24.538  25.308  1.00  0.00     0.127 C 
ATOM     80  C   UNL A   1      31.561  26.916  25.415  1.00  0.00     0.155 C 
ATOM     81  C   UNL A   1      29.976  25.448  25.705  1.00  0.00     0.155 C 
ATOM     82  C   UNL A   1      30.502  27.235  24.408  1.00  0.00     0.004 C 
ATOM     83  O   UNL A   1      30.674  26.466  26.485  1.00  0.00    -0.365 OA
ATOM     84  C   UNL A   1      29.538  26.319  24.566  1.00  0.00     0.004 C 
BRANCH  79  85
ATOM     85  C   UNL A   1      31.412  23.551  26.441  1.00  0.00     0.231 C 
ATOM     86  O   UNL A   1      31.403  23.891  27.626  1.00  0.00    -0.274 OA
ATOM     87  N   UNL A   1      31.615  22.222  26.194  1.00  0.00    -0.326 N 
ATOM     88  H   UNL A   1      31.475  21.656  26.988  1.00  0.00     0.169 HD
BRANCH  87  89
ATOM     89  C   UNL A   1      31.980  21.492  25.054  1.00  0.00     0.041 A 
ATOM     90  C   UNL A   1      31.778  22.118  23.817  1.00  0.00     0.026 A 
ATOM     91  C   UNL A   1      32.429  20.171  25.077  1.00  0.00     0.039 A 
ATOM     92  C   UNL A   1      32.067  21.456  22.623  1.00  0.00     0.003 A 
ATOM     93  C   UNL A   1      32.702  19.483  23.879  1.00  0.00     0.058 A 
ATOM     94  C   UNL A   1      32.528  20.142  22.653  1.00  0.00     0.013 A 
BRANCH  93  95
ATOM     95  C   UNL A   1      33.127  18.033  23.893  1.00  0.00     0.416 C 
ATOM     96  F   UNL A   1      34.446  17.886  24.189  1.00  0.00    -0.166 F 
ATOM     97  F   UNL A   1      32.446  17.303  24.817  1.00  0.00    -0.166 F 
ATOM     98  F   UNL A   1      32.933  17.406  22.699  1.00  0.00    -0.166 F 
ENDBRANCH  93  95
ENDBRANCH  87  89
ENDBRANCH  79  85
ENDBRANCH  75  78
ENDBRANCH  73  74
ENDBRANCH  72  73
ENDBRANCH   1  72
TORSDOF 17
ENDMDL
