MODEL 1
REMARK VINA RESULT:     -12.1      0.000      0.000
REMARK SMILES Cc1nsc(NC(=O)C2([NH3+])CCCCC2)c1C(=O)NCCCCNC(=O)c1ccc(-c2c3nc(c(-c4cccc(S(=O)(=O)[O-])c4F)c4ccc([nH]4)c(-c4cccc(S(=O)(=O)[O-])c4F)c4nc(c(-c5cccc(S(=O)(=O)[O-])c5F)c5ccc2[nH]5)C=C4)C=C3)cc1
REMARK SMILES IDX 21 1 20 2 19 3 17 4 18 5 16 7 1 8 2 9 3 10 4 11 5 12 6 13
REMARK SMILES IDX 7 14 8 16 9 17 11 18 15 19 12 20 14 21 13 22 10 23 22 27
REMARK SMILES IDX 23 28 24 29 25 30 26 32 27 33 28 34 89 35 29 36 88 37 30 38
REMARK SMILES IDX 31 39 32 40 82 41 33 42 87 43 81 44 83 45 34 46 86 47 80 48
REMARK SMILES IDX 79 49 35 51 67 52 47 53 66 54 48 55 51 56 65 57 84 58 49 59
REMARK SMILES IDX 50 60 64 62 85 63 52 64 36 65 37 66 45 67 38 68 40 69 46 70
REMARK SMILES IDX 39 71 41 72 42 73 43 74 44 75 68 76 69 77 77 78 70 79 72 80
REMARK SMILES IDX 78 81 71 82 73 83 74 84 75 85 76 86 53 87 54 88 62 89 55 90
REMARK SMILES IDX 57 91 63 92 56 93 58 94 59 95 60 96 61 97
REMARK H PARENT 19 6 6 15 10 24 10 25 10 26 24 31 83 50 51 61
REMARK Flexibility Score: inf
ROOT
ATOM      1  C   UNL A   1      37.102  21.005  24.521  1.00  0.00     0.023 C 
ENDROOT
BRANCH   1   2
ATOM      2  C   UNL A   1      36.751  22.137  25.482  1.00  0.00     0.116 C 
BRANCH   2   3
ATOM      3  N   UNL A   1      35.772  21.850  26.489  1.00  0.00    -0.352 N 
ATOM      4  C   UNL A   1      34.436  21.532  26.387  1.00  0.00     0.256 C 
ATOM      5  O   UNL A   1      33.841  21.524  27.472  1.00  0.00    -0.269 OA
ATOM      6  H   UNL A   1      36.113  21.886  27.412  1.00  0.00     0.163 HD
BRANCH   4   7
ATOM      7  C   UNL A   1      33.687  21.252  25.135  1.00  0.00     0.097 A 
ATOM      8  C   UNL A   1      33.225  18.587  24.847  1.00  0.00     0.069 C 
ATOM      9  C   UNL A   1      33.158  20.033  24.494  1.00  0.00     0.066 A 
ATOM     10  N   UNL A   1      32.476  20.218  23.363  1.00  0.00    -0.195 NA
ATOM     11  S   UNL A   1      32.270  21.807  23.117  1.00  0.00    -0.017 S 
ATOM     12  C   UNL A   1      33.340  22.343  24.305  1.00  0.00     0.129 A 
BRANCH  12  13
ATOM     13  N   UNL A   1      33.708  23.677  24.447  1.00  0.00    -0.310 N 
ATOM     14  C   UNL A   1      33.174  24.788  25.045  1.00  0.00     0.286 C 
ATOM     15  H   UNL A   1      34.567  23.872  24.006  1.00  0.00     0.171 HD
ATOM     16  O   UNL A   1      33.857  25.822  24.950  1.00  0.00    -0.267 OA
BRANCH  14  17
ATOM     17  C   UNL A   1      31.780  24.875  25.768  1.00  0.00     0.174 C 
ATOM     18  C   UNL A   1      31.468  26.326  26.247  1.00  0.00     0.079 C 
ATOM     19  C   UNL A   1      30.633  24.378  24.859  1.00  0.00     0.079 C 
ATOM     20  C   UNL A   1      31.024  27.287  25.146  1.00  0.00     0.007 C 
ATOM     21  C   UNL A   1      30.250  25.365  23.757  1.00  0.00     0.007 C 
ATOM     22  C   UNL A   1      29.871  26.716  24.336  1.00  0.00     0.001 C 
BRANCH  17  23
ATOM     23  N   UNL A   1      31.866  24.097  27.027  1.00  0.00    -0.345 N 
ATOM     24  H   UNL A   1      32.845  23.983  27.291  1.00  0.00     0.345 HD
ATOM     25  H   UNL A   1      31.442  23.180  26.889  1.00  0.00     0.345 HD
ATOM     26  H   UNL A   1      31.370  24.593  27.768  1.00  0.00     0.345 HD
ENDBRANCH  17  23
ENDBRANCH  14  17
ENDBRANCH  12  13
ENDBRANCH   4   7
ENDBRANCH   2   3
ENDBRANCH   1   2
BRANCH   1  27
ATOM     27  C   UNL A   1      37.958  19.849  25.035  1.00  0.00     0.023 C 
BRANCH  27  28
ATOM     28  C   UNL A   1      39.189  20.255  25.831  1.00  0.00     0.116 C 
BRANCH  28  29
ATOM     29  N   UNL A   1      40.271  19.271  25.793  1.00  0.00    -0.352 N 
ATOM     30  C   UNL A   1      41.633  19.521  25.914  1.00  0.00     0.251 C 
ATOM     31  H   UNL A   1      40.007  18.331  25.670  1.00  0.00     0.163 HD
ATOM     32  O   UNL A   1      42.459  18.716  25.527  1.00  0.00    -0.269 OA
BRANCH  30  33
ATOM     33  C   UNL A   1      42.047  20.796  26.533  1.00  0.00     0.039 A 
ATOM     34  C   UNL A   1      42.498  21.873  25.764  1.00  0.00     0.014 A 
ATOM     35  C   UNL A   1      41.916  20.907  27.916  1.00  0.00     0.014 A 
ATOM     36  C   UNL A   1      42.725  23.095  26.395  1.00  0.00     0.010 A 
ATOM     37  C   UNL A   1      41.992  22.141  28.506  1.00  0.00     0.010 A 
ATOM     38  C   UNL A   1      42.445  23.226  27.765  1.00  0.00    -0.014 A 
BRANCH  38  39
ATOM     39  C   UNL A   1      42.493  24.526  28.424  1.00  0.00     0.031 A 
ATOM     40  C   UNL A   1      41.271  25.354  28.234  1.00  0.00     0.074 A 
ATOM     41  C   UNL A   1      43.448  24.850  29.324  1.00  0.00     0.049 A 
ATOM     42  N   UNL A   1      41.152  26.427  27.526  1.00  0.00    -0.248 NA
ATOM     43  C   UNL A   1      39.990  24.844  28.752  1.00  0.00     0.031 C 
ATOM     44  C   UNL A   1      44.509  23.988  29.861  1.00  0.00     0.029 A 
ATOM     45  N   UNL A   1      43.580  25.980  30.070  1.00  0.00    -0.354 N 
ATOM     46  C   UNL A   1      39.845  26.870  27.727  1.00  0.00     0.074 A 
ATOM     47  C   UNL A   1      39.131  25.749  28.275  1.00  0.00     0.031 C 
ATOM     48  C   UNL A   1      44.987  24.522  31.007  1.00  0.00     0.029 A 
ATOM     49  C   UNL A   1      44.398  25.833  31.189  1.00  0.00     0.049 A 
ATOM     50  H   UNL A   1      43.136  26.828  29.839  1.00  0.00     0.167 HD
ATOM     51  C   UNL A   1      39.539  28.199  27.683  1.00  0.00     0.034 A 
ATOM     52  C   UNL A   1      44.537  26.711  32.213  1.00  0.00     0.034 A 
ATOM     53  C   UNL A   1      40.642  28.956  27.138  1.00  0.00     0.049 A 
ATOM     54  C   UNL A   1      44.054  28.023  31.729  1.00  0.00     0.074 A 
ATOM     55  C   UNL A   1      41.354  28.952  25.957  1.00  0.00     0.029 A 
ATOM     56  N   UNL A   1      41.416  29.637  28.047  1.00  0.00    -0.354 N 
ATOM     57  N   UNL A   1      44.661  28.717  30.809  1.00  0.00    -0.248 NA
ATOM     58  C   UNL A   1      42.661  28.365  31.960  1.00  0.00     0.031 C 
ATOM     59  C   UNL A   1      42.703  29.209  26.342  1.00  0.00     0.029 A 
ATOM     60  C   UNL A   1      42.727  29.437  27.718  1.00  0.00     0.049 A 
ATOM     61  H   UNL A   1      41.084  30.173  28.803  1.00  0.00     0.167 HD
ATOM     62  C   UNL A   1      43.628  29.219  30.030  1.00  0.00     0.074 A 
ATOM     63  C   UNL A   1      42.427  29.078  30.854  1.00  0.00     0.031 C 
ATOM     64  C   UNL A   1      43.797  29.416  28.691  1.00  0.00     0.034 A 
BRANCH  51  65
ATOM     65  C   UNL A   1      38.452  28.900  28.480  1.00  0.00     0.023 A 
ATOM     66  C   UNL A   1      37.614  29.788  27.761  1.00  0.00     0.012 A 
ATOM     67  C   UNL A   1      38.385  28.971  29.889  1.00  0.00     0.148 A 
ATOM     68  C   UNL A   1      36.831  30.753  28.404  1.00  0.00     0.002 A 
ATOM     69  C   UNL A   1      37.548  29.882  30.526  1.00  0.00     0.091 A 
ATOM     70  F   UNL A   1      39.215  28.247  30.641  1.00  0.00    -0.205 F 
ATOM     71  C   UNL A   1      36.798  30.801  29.789  1.00  0.00     0.022 A 
BRANCH  69  72
ATOM     72  S   UNL A   1      37.424  29.961  32.319  1.00  0.00     0.127 S 
ATOM     73  O   UNL A   1      37.091  28.580  32.651  1.00  0.00    -0.237 OA
ATOM     74  O   UNL A   1      38.776  30.382  32.690  1.00  0.00    -0.237 OA
ATOM     75  O   UNL A   1      36.392  30.952  32.600  1.00  0.00    -0.744 OA
ENDBRANCH  69  72
ENDBRANCH  51  65
BRANCH  52  76
ATOM     76  C   UNL A   1      44.838  26.495  33.648  1.00  0.00     0.023 A 
ATOM     77  C   UNL A   1      46.124  26.808  34.136  1.00  0.00     0.012 A 
ATOM     78  C   UNL A   1      43.801  26.293  34.582  1.00  0.00     0.148 A 
ATOM     79  C   UNL A   1      46.356  26.974  35.507  1.00  0.00     0.002 A 
ATOM     80  C   UNL A   1      44.037  26.459  35.945  1.00  0.00     0.091 A 
ATOM     81  F   UNL A   1      42.566  26.040  34.130  1.00  0.00    -0.205 F 
ATOM     82  C   UNL A   1      45.311  26.813  36.410  1.00  0.00     0.022 A 
BRANCH  80  83
ATOM     83  S   UNL A   1      42.725  26.317  37.166  1.00  0.00     0.127 S 
ATOM     84  O   UNL A   1      41.859  27.442  36.814  1.00  0.00    -0.237 OA
ATOM     85  O   UNL A   1      42.174  25.000  36.860  1.00  0.00    -0.237 OA
ATOM     86  O   UNL A   1      43.380  26.447  38.462  1.00  0.00    -0.744 OA
ENDBRANCH  80  83
ENDBRANCH  52  76
BRANCH  64  87
ATOM     87  C   UNL A   1      45.199  29.384  28.140  1.00  0.00     0.023 A 
ATOM     88  C   UNL A   1      46.071  30.492  28.178  1.00  0.00     0.012 A 
ATOM     89  C   UNL A   1      45.695  28.145  27.704  1.00  0.00     0.148 A 
ATOM     90  C   UNL A   1      47.400  30.369  27.764  1.00  0.00     0.002 A 
ATOM     91  C   UNL A   1      47.028  28.015  27.343  1.00  0.00     0.091 A 
ATOM     92  F   UNL A   1      44.853  27.101  27.669  1.00  0.00    -0.205 F 
ATOM     93  C   UNL A   1      47.883  29.126  27.360  1.00  0.00     0.022 A 
BRANCH  91  94
ATOM     94  S   UNL A   1      47.718  26.409  26.940  1.00  0.00     0.127 S 
ATOM     95  O   UNL A   1      49.137  26.718  26.780  1.00  0.00    -0.237 OA
ATOM     96  O   UNL A   1      47.394  25.616  28.128  1.00  0.00    -0.237 OA
ATOM     97  O   UNL A   1      47.025  25.973  25.734  1.00  0.00    -0.744 OA
ENDBRANCH  91  94
ENDBRANCH  64  87
ENDBRANCH  38  39
ENDBRANCH  30  33
ENDBRANCH  28  29
ENDBRANCH  27  28
ENDBRANCH   1  27
TORSDOF 17
ENDMDL
MODEL 2
REMARK VINA RESULT:     -12.1      1.848      2.171
REMARK SMILES Cc1nsc(NC(=O)C2([NH3+])CCCCC2)c1C(=O)NCCCCNC(=O)c1ccc(-c2c3nc(c(-c4cccc(S(=O)(=O)[O-])c4F)c4ccc([nH]4)c(-c4cccc(S(=O)(=O)[O-])c4F)c4nc(c(-c5cccc(S(=O)(=O)[O-])c5F)c5ccc2[nH]5)C=C4)C=C3)cc1
REMARK SMILES IDX 21 1 20 2 19 3 17 4 18 5 16 7 1 8 2 9 3 10 4 11 5 12 6 13
REMARK SMILES IDX 7 14 8 16 9 17 11 18 15 19 12 20 14 21 13 22 10 23 22 27
REMARK SMILES IDX 23 28 24 29 25 30 26 32 27 33 28 34 89 35 29 36 88 37 30 38
REMARK SMILES IDX 31 39 32 40 82 41 33 42 87 43 81 44 83 45 34 46 86 47 80 48
REMARK SMILES IDX 79 49 35 51 67 52 47 53 66 54 48 55 51 56 65 57 84 58 49 59
REMARK SMILES IDX 50 60 64 62 85 63 52 64 36 65 37 66 45 67 38 68 40 69 46 70
REMARK SMILES IDX 39 71 41 72 42 73 43 74 44 75 68 76 69 77 77 78 70 79 72 80
REMARK SMILES IDX 78 81 71 82 73 83 74 84 75 85 76 86 53 87 54 88 62 89 55 90
REMARK SMILES IDX 57 91 63 92 56 93 58 94 59 95 60 96 61 97
REMARK H PARENT 19 6 6 15 10 24 10 25 10 26 24 31 83 50 51 61
REMARK Flexibility Score: inf
ROOT
ATOM      1  C   UNL A   1      38.980  22.302  26.141  1.00  0.00     0.023 C 
ENDROOT
BRANCH   1   2
ATOM      2  C   UNL A   1      37.700  23.069  25.823  1.00  0.00     0.116 C 
BRANCH   2   3
ATOM      3  N   UNL A   1      37.404  23.288  24.438  1.00  0.00    -0.352 N 
ATOM      4  C   UNL A   1      36.375  22.824  23.649  1.00  0.00     0.256 C 
ATOM      5  O   UNL A   1      36.524  23.063  22.444  1.00  0.00    -0.269 OA
ATOM      6  H   UNL A   1      38.046  23.868  23.970  1.00  0.00     0.163 HD
BRANCH   4   7
ATOM      7  C   UNL A   1      35.181  22.067  24.107  1.00  0.00     0.097 A 
ATOM      8  C   UNL A   1      35.864  19.558  24.908  1.00  0.00     0.069 C 
ATOM      9  C   UNL A   1      34.959  20.714  24.654  1.00  0.00     0.066 A 
ATOM     10  N   UNL A   1      33.705  20.426  25.003  1.00  0.00    -0.195 NA
ATOM     11  S   UNL A   1      32.795  21.762  24.883  1.00  0.00    -0.017 S 
ATOM     12  C   UNL A   1      33.923  22.710  24.061  1.00  0.00     0.129 A 
BRANCH  12  13
ATOM     13  N   UNL A   1      33.619  23.958  23.529  1.00  0.00    -0.310 N 
ATOM     14  C   UNL A   1      33.450  25.225  24.021  1.00  0.00     0.286 C 
ATOM     15  H   UNL A   1      33.492  23.922  22.552  1.00  0.00     0.171 HD
ATOM     16  O   UNL A   1      33.192  26.095  23.173  1.00  0.00    -0.267 OA
BRANCH  14  17
ATOM     17  C   UNL A   1      33.493  25.646  25.537  1.00  0.00     0.174 C 
ATOM     18  C   UNL A   1      33.812  27.163  25.704  1.00  0.00     0.079 C 
ATOM     19  C   UNL A   1      32.166  25.319  26.259  1.00  0.00     0.079 C 
ATOM     20  C   UNL A   1      32.643  28.104  25.414  1.00  0.00     0.007 C 
ATOM     21  C   UNL A   1      31.024  26.272  25.909  1.00  0.00     0.007 C 
ATOM     22  C   UNL A   1      31.402  27.713  26.200  1.00  0.00     0.001 C 
BRANCH  17  23
ATOM     23  N   UNL A   1      34.649  24.968  26.169  1.00  0.00    -0.345 N 
ATOM     24  H   UNL A   1      35.082  24.335  25.497  1.00  0.00     0.345 HD
ATOM     25  H   UNL A   1      34.330  24.439  26.980  1.00  0.00     0.345 HD
ATOM     26  H   UNL A   1      35.332  25.666  26.466  1.00  0.00     0.345 HD
ENDBRANCH  17  23
ENDBRANCH  14  17
ENDBRANCH  12  13
ENDBRANCH   4   7
ENDBRANCH   2   3
ENDBRANCH   1   2
BRANCH   1  27
ATOM     27  C   UNL A   1      39.205  20.947  25.476  1.00  0.00     0.023 C 
BRANCH  27  28
ATOM     28  C   UNL A   1      39.693  19.842  26.400  1.00  0.00     0.116 C 
BRANCH  28  29
ATOM     29  N   UNL A   1      40.875  19.134  25.907  1.00  0.00    -0.352 N 
ATOM     30  C   UNL A   1      42.137  19.670  25.681  1.00  0.00     0.251 C 
ATOM     31  H   UNL A   1      40.764  18.174  25.714  1.00  0.00     0.163 HD
ATOM     32  O   UNL A   1      42.940  19.112  24.957  1.00  0.00    -0.269 OA
BRANCH  30  33
ATOM     33  C   UNL A   1      42.477  20.939  26.354  1.00  0.00     0.039 A 
ATOM     34  C   UNL A   1      42.915  22.056  25.637  1.00  0.00     0.014 A 
ATOM     35  C   UNL A   1      42.289  21.000  27.733  1.00  0.00     0.014 A 
ATOM     36  C   UNL A   1      43.069  23.266  26.313  1.00  0.00     0.010 A 
ATOM     37  C   UNL A   1      42.295  22.217  28.364  1.00  0.00     0.010 A 
ATOM     38  C   UNL A   1      42.732  23.341  27.674  1.00  0.00    -0.014 A 
BRANCH  38  39
ATOM     39  C   UNL A   1      42.705  24.621  28.374  1.00  0.00     0.031 A 
ATOM     40  C   UNL A   1      41.445  25.392  28.190  1.00  0.00     0.074 A 
ATOM     41  C   UNL A   1      43.629  24.964  29.299  1.00  0.00     0.049 A 
ATOM     42  N   UNL A   1      41.283  26.479  27.513  1.00  0.00    -0.248 NA
ATOM     43  C   UNL A   1      40.184  24.802  28.670  1.00  0.00     0.031 C 
ATOM     44  C   UNL A   1      44.724  24.140  29.826  1.00  0.00     0.029 A 
ATOM     45  N   UNL A   1      43.691  26.075  30.082  1.00  0.00    -0.354 N 
ATOM     46  C   UNL A   1      39.952  26.850  27.706  1.00  0.00     0.074 A 
ATOM     47  C   UNL A   1      39.288  25.677  28.207  1.00  0.00     0.031 C 
ATOM     48  C   UNL A   1      45.156  24.661  30.996  1.00  0.00     0.029 A 
ATOM     49  C   UNL A   1      44.499  25.934  31.209  1.00  0.00     0.049 A 
ATOM     50  H   UNL A   1      43.209  26.906  29.870  1.00  0.00     0.167 HD
ATOM     51  C   UNL A   1      39.579  28.162  27.698  1.00  0.00     0.034 A 
ATOM     52  C   UNL A   1      44.578  26.785  32.262  1.00  0.00     0.034 A 
ATOM     53  C   UNL A   1      40.650  28.991  27.195  1.00  0.00     0.049 A 
ATOM     54  C   UNL A   1      44.036  28.085  31.810  1.00  0.00     0.074 A 
ATOM     55  C   UNL A   1      41.379  29.060  26.026  1.00  0.00     0.029 A 
ATOM     56  N   UNL A   1      41.375  29.681  28.138  1.00  0.00    -0.354 N 
ATOM     57  N   UNL A   1      44.620  28.838  30.923  1.00  0.00    -0.248 NA
ATOM     58  C   UNL A   1      42.624  28.350  32.029  1.00  0.00     0.031 C 
ATOM     59  C   UNL A   1      42.707  29.373  26.441  1.00  0.00     0.029 A 
ATOM     60  C   UNL A   1      42.699  29.558  27.824  1.00  0.00     0.049 A 
ATOM     61  H   UNL A   1      41.005  30.175  28.904  1.00  0.00     0.167 HD
ATOM     62  C   UNL A   1      43.575  29.312  30.143  1.00  0.00     0.074 A 
ATOM     63  C   UNL A   1      42.371  29.084  30.942  1.00  0.00     0.031 C 
ATOM     64  C   UNL A   1      43.754  29.560  28.813  1.00  0.00     0.034 A 
BRANCH  51  65
ATOM     65  C   UNL A   1      38.446  28.782  28.498  1.00  0.00     0.023 A 
ATOM     66  C   UNL A   1      37.512  29.563  27.772  1.00  0.00     0.012 A 
ATOM     67  C   UNL A   1      38.401  28.891  29.906  1.00  0.00     0.148 A 
ATOM     68  C   UNL A   1      36.653  30.469  28.403  1.00  0.00     0.002 A 
ATOM     69  C   UNL A   1      37.493  29.738  30.534  1.00  0.00     0.091 A 
ATOM     70  F   UNL A   1      39.310  28.274  30.659  1.00  0.00    -0.205 F 
ATOM     71  C   UNL A   1      36.644  30.558  29.787  1.00  0.00     0.022 A 
BRANCH  69  72
ATOM     72  S   UNL A   1      37.397  29.863  32.326  1.00  0.00     0.127 S 
ATOM     73  O   UNL A   1      38.666  30.510  32.643  1.00  0.00    -0.237 OA
ATOM     74  O   UNL A   1      36.211  30.703  32.500  1.00  0.00    -0.237 OA
ATOM     75  O   UNL A   1      37.238  28.497  32.809  1.00  0.00    -0.744 OA
ENDBRANCH  69  72
ENDBRANCH  51  65
BRANCH  52  76
ATOM     76  C   UNL A   1      44.868  26.539  33.694  1.00  0.00     0.023 A 
ATOM     77  C   UNL A   1      46.146  26.854  34.201  1.00  0.00     0.012 A 
ATOM     78  C   UNL A   1      43.825  26.304  34.614  1.00  0.00     0.148 A 
ATOM     79  C   UNL A   1      46.364  26.990  35.577  1.00  0.00     0.002 A 
ATOM     80  C   UNL A   1      44.046  26.442  35.982  1.00  0.00     0.091 A 
ATOM     81  F   UNL A   1      42.596  26.049  34.144  1.00  0.00    -0.205 F 
ATOM     82  C   UNL A   1      45.312  26.798  36.467  1.00  0.00     0.022 A 
BRANCH  80  83
ATOM     83  S   UNL A   1      42.725  26.258  37.187  1.00  0.00     0.127 S 
ATOM     84  O   UNL A   1      42.257  24.897  36.919  1.00  0.00    -0.237 OA
ATOM     85  O   UNL A   1      43.445  26.421  38.446  1.00  0.00    -0.237 OA
ATOM     86  O   UNL A   1      41.756  27.299  36.869  1.00  0.00    -0.744 OA
ENDBRANCH  80  83
ENDBRANCH  52  76
BRANCH  64  87
ATOM     87  C   UNL A   1      45.164  29.615  28.285  1.00  0.00     0.023 A 
ATOM     88  C   UNL A   1      45.883  28.472  27.878  1.00  0.00     0.012 A 
ATOM     89  C   UNL A   1      45.720  30.884  28.055  1.00  0.00     0.148 A 
ATOM     90  C   UNL A   1      47.141  28.596  27.281  1.00  0.00     0.002 A 
ATOM     91  C   UNL A   1      46.946  31.004  27.416  1.00  0.00     0.091 A 
ATOM     92  F   UNL A   1      45.026  31.962  28.452  1.00  0.00    -0.205 F 
ATOM     93  C   UNL A   1      47.666  29.862  27.037  1.00  0.00     0.022 A 
BRANCH  91  94
ATOM     94  S   UNL A   1      47.594  32.615  26.970  1.00  0.00     0.127 S 
ATOM     95  O   UNL A   1      47.667  33.284  28.266  1.00  0.00    -0.237 OA
ATOM     96  O   UNL A   1      48.892  32.283  26.378  1.00  0.00    -0.237 OA
ATOM     97  O   UNL A   1      46.640  33.175  26.021  1.00  0.00    -0.744 OA
ENDBRANCH  91  94
ENDBRANCH  64  87
ENDBRANCH  38  39
ENDBRANCH  30  33
ENDBRANCH  28  29
ENDBRANCH  27  28
ENDBRANCH   1  27
TORSDOF 17
ENDMDL
MODEL 3
REMARK VINA RESULT:     -12.0      1.266      3.019
REMARK SMILES Cc1nsc(NC(=O)C2([NH3+])CCCCC2)c1C(=O)NCCCCNC(=O)c1ccc(-c2c3nc(c(-c4cccc(S(=O)(=O)[O-])c4F)c4ccc([nH]4)c(-c4cccc(S(=O)(=O)[O-])c4F)c4nc(c(-c5cccc(S(=O)(=O)[O-])c5F)c5ccc2[nH]5)C=C4)C=C3)cc1
REMARK SMILES IDX 21 1 20 2 19 3 17 4 18 5 16 7 1 8 2 9 3 10 4 11 5 12 6 13
REMARK SMILES IDX 7 14 8 16 9 17 11 18 15 19 12 20 14 21 13 22 10 23 22 27
REMARK SMILES IDX 23 28 24 29 25 30 26 32 27 33 28 34 89 35 29 36 88 37 30 38
REMARK SMILES IDX 31 39 32 40 82 41 33 42 87 43 81 44 83 45 34 46 86 47 80 48
REMARK SMILES IDX 79 49 35 51 67 52 47 53 66 54 48 55 51 56 65 57 84 58 49 59
REMARK SMILES IDX 50 60 64 62 85 63 52 64 36 65 37 66 45 67 38 68 40 69 46 70
REMARK SMILES IDX 39 71 41 72 42 73 43 74 44 75 68 76 69 77 77 78 70 79 72 80
REMARK SMILES IDX 78 81 71 82 73 83 74 84 75 85 76 86 53 87 54 88 62 89 55 90
REMARK SMILES IDX 57 91 63 92 56 93 58 94 59 95 60 96 61 97
REMARK H PARENT 19 6 6 15 10 24 10 25 10 26 24 31 83 50 51 61
REMARK Flexibility Score: inf
ROOT
ATOM      1  C   UNL A   1      37.739  21.486  24.612  1.00  0.00     0.023 C 
ENDROOT
BRANCH   1   2
ATOM      2  C   UNL A   1      36.248  21.797  24.700  1.00  0.00     0.116 C 
BRANCH   2   3
ATOM      3  N   UNL A   1      35.653  22.436  23.563  1.00  0.00    -0.352 N 
ATOM      4  C   UNL A   1      34.391  22.953  23.374  1.00  0.00     0.256 C 
ATOM      5  O   UNL A   1      34.152  23.272  22.203  1.00  0.00    -0.269 OA
ATOM      6  H   UNL A   1      36.247  22.520  22.783  1.00  0.00     0.163 HD
BRANCH   4   7
ATOM      7  C   UNL A   1      33.336  23.111  24.409  1.00  0.00     0.097 A 
ATOM      8  C   UNL A   1      33.802  25.302  25.953  1.00  0.00     0.069 C 
ATOM      9  C   UNL A   1      33.068  24.097  25.474  1.00  0.00     0.066 A 
ATOM     10  N   UNL A   1      31.952  23.906  26.178  1.00  0.00    -0.195 NA
ATOM     11  S   UNL A   1      31.097  22.701  25.509  1.00  0.00    -0.017 S 
ATOM     12  C   UNL A   1      32.296  22.154  24.456  1.00  0.00     0.129 A 
BRANCH  12  13
ATOM     13  N   UNL A   1      32.175  20.985  23.713  1.00  0.00    -0.310 N 
ATOM     14  C   UNL A   1      32.523  19.670  23.881  1.00  0.00     0.286 C 
ATOM     15  H   UNL A   1      31.729  21.140  22.850  1.00  0.00     0.171 HD
ATOM     16  O   UNL A   1      32.206  18.913  22.949  1.00  0.00    -0.267 OA
BRANCH  14  17
ATOM     17  C   UNL A   1      33.322  19.068  25.096  1.00  0.00     0.174 C 
ATOM     18  C   UNL A   1      32.549  17.892  25.768  1.00  0.00     0.079 C 
ATOM     19  C   UNL A   1      34.726  18.581  24.670  1.00  0.00     0.079 C 
ATOM     20  C   UNL A   1      32.595  16.570  25.004  1.00  0.00     0.007 C 
ATOM     21  C   UNL A   1      34.711  17.271  23.884  1.00  0.00     0.007 C 
ATOM     22  C   UNL A   1      34.022  16.168  24.667  1.00  0.00     0.001 C 
BRANCH  17  23
ATOM     23  N   UNL A   1      33.392  20.100  26.157  1.00  0.00    -0.345 N 
ATOM     24  H   UNL A   1      32.861  20.922  25.869  1.00  0.00     0.345 HD
ATOM     25  H   UNL A   1      34.365  20.361  26.314  1.00  0.00     0.345 HD
ATOM     26  H   UNL A   1      32.997  19.727  27.021  1.00  0.00     0.345 HD
ENDBRANCH  17  23
ENDBRANCH  14  17
ENDBRANCH  12  13
ENDBRANCH   4   7
ENDBRANCH   2   3
ENDBRANCH   1   2
BRANCH   1  27
ATOM     27  C   UNL A   1      38.222  20.098  25.024  1.00  0.00     0.023 C 
BRANCH  27  28
ATOM     28  C   UNL A   1      39.244  20.072  26.151  1.00  0.00     0.116 C 
BRANCH  28  29
ATOM     29  N   UNL A   1      40.392  19.204  25.892  1.00  0.00    -0.352 N 
ATOM     30  C   UNL A   1      41.726  19.584  25.804  1.00  0.00     0.251 C 
ATOM     31  H   UNL A   1      40.200  18.246  25.765  1.00  0.00     0.163 HD
ATOM     32  O   UNL A   1      42.549  18.879  25.251  1.00  0.00    -0.269 OA
BRANCH  30  33
ATOM     33  C   UNL A   1      42.116  20.872  26.411  1.00  0.00     0.039 A 
ATOM     34  C   UNL A   1      42.345  22.011  25.633  1.00  0.00     0.014 A 
ATOM     35  C   UNL A   1      42.191  20.926  27.801  1.00  0.00     0.014 A 
ATOM     36  C   UNL A   1      42.558  23.228  26.277  1.00  0.00     0.010 A 
ATOM     37  C   UNL A   1      42.248  22.143  28.429  1.00  0.00     0.010 A 
ATOM     38  C   UNL A   1      42.482  23.289  27.678  1.00  0.00    -0.014 A 
BRANCH  38  39
ATOM     39  C   UNL A   1      42.516  24.567  28.381  1.00  0.00     0.031 A 
ATOM     40  C   UNL A   1      41.299  25.402  28.190  1.00  0.00     0.074 A 
ATOM     41  C   UNL A   1      43.451  24.859  29.312  1.00  0.00     0.049 A 
ATOM     42  N   UNL A   1      41.198  26.498  27.515  1.00  0.00    -0.248 NA
ATOM     43  C   UNL A   1      40.007  24.877  28.661  1.00  0.00     0.031 C 
ATOM     44  C   UNL A   1      44.498  23.978  29.845  1.00  0.00     0.029 A 
ATOM     45  N   UNL A   1      43.566  25.963  30.098  1.00  0.00    -0.354 N 
ATOM     46  C   UNL A   1      39.887  26.936  27.700  1.00  0.00     0.074 A 
ATOM     47  C   UNL A   1      39.160  25.799  28.195  1.00  0.00     0.031 C 
ATOM     48  C   UNL A   1      44.949  24.473  31.019  1.00  0.00     0.029 A 
ATOM     49  C   UNL A   1      44.358  25.779  31.231  1.00  0.00     0.049 A 
ATOM     50  H   UNL A   1      43.128  26.819  29.886  1.00  0.00     0.167 HD
ATOM     51  C   UNL A   1      39.583  28.266  27.693  1.00  0.00     0.034 A 
ATOM     52  C   UNL A   1      44.473  26.622  32.286  1.00  0.00     0.034 A 
ATOM     53  C   UNL A   1      40.699  29.039  27.200  1.00  0.00     0.049 A 
ATOM     54  C   UNL A   1      44.002  27.950  31.835  1.00  0.00     0.074 A 
ATOM     55  C   UNL A   1      41.438  29.073  26.035  1.00  0.00     0.029 A 
ATOM     56  N   UNL A   1      41.452  29.689  28.148  1.00  0.00    -0.354 N 
ATOM     57  N   UNL A   1      44.631  28.673  30.953  1.00  0.00    -0.248 NA
ATOM     58  C   UNL A   1      42.605  28.287  32.044  1.00  0.00     0.031 C 
ATOM     59  C   UNL A   1      42.778  29.316  26.460  1.00  0.00     0.029 A 
ATOM     60  C   UNL A   1      42.770  29.498  27.844  1.00  0.00     0.049 A 
ATOM     61  H   UNL A   1      41.103  30.200  28.914  1.00  0.00     0.167 HD
ATOM     62  C   UNL A   1      43.617  29.202  30.167  1.00  0.00     0.074 A 
ATOM     63  C   UNL A   1      42.397  29.035  30.958  1.00  0.00     0.031 C 
ATOM     64  C   UNL A   1      43.818  29.443  28.839  1.00  0.00     0.034 A 
BRANCH  51  65
ATOM     65  C   UNL A   1      38.478  28.942  28.488  1.00  0.00     0.023 A 
ATOM     66  C   UNL A   1      37.633  29.825  27.770  1.00  0.00     0.012 A 
ATOM     67  C   UNL A   1      38.398  28.997  29.897  1.00  0.00     0.148 A 
ATOM     68  C   UNL A   1      36.829  30.771  28.416  1.00  0.00     0.002 A 
ATOM     69  C   UNL A   1      37.540  29.888  30.536  1.00  0.00     0.091 A 
ATOM     70  F   UNL A   1      39.231  28.278  30.648  1.00  0.00    -0.205 F 
ATOM     71  C   UNL A   1      36.784  30.804  29.802  1.00  0.00     0.022 A 
BRANCH  69  72
ATOM     72  S   UNL A   1      37.399  29.947  32.328  1.00  0.00     0.127 S 
ATOM     73  O   UNL A   1      38.677  30.541  32.704  1.00  0.00    -0.237 OA
ATOM     74  O   UNL A   1      36.233  30.815  32.503  1.00  0.00    -0.237 OA
ATOM     75  O   UNL A   1      37.186  28.568  32.753  1.00  0.00    -0.744 OA
ENDBRANCH  69  72
ENDBRANCH  51  65
BRANCH  52  76
ATOM     76  C   UNL A   1      44.740  26.358  33.719  1.00  0.00     0.023 A 
ATOM     77  C   UNL A   1      46.040  26.567  34.227  1.00  0.00     0.012 A 
ATOM     78  C   UNL A   1      43.681  26.215  34.639  1.00  0.00     0.148 A 
ATOM     79  C   UNL A   1      46.268  26.691  35.603  1.00  0.00     0.002 A 
ATOM     80  C   UNL A   1      43.912  26.339  36.007  1.00  0.00     0.091 A 
ATOM     81  F   UNL A   1      42.436  26.061  34.169  1.00  0.00    -0.205 F 
ATOM     82  C   UNL A   1      45.202  26.590  36.492  1.00  0.00     0.022 A 
BRANCH  80  83
ATOM     83  S   UNL A   1      42.579  26.270  37.211  1.00  0.00     0.127 S 
ATOM     84  O   UNL A   1      43.305  26.400  38.476  1.00  0.00    -0.237 OA
ATOM     85  O   UNL A   1      41.781  27.434  36.840  1.00  0.00    -0.237 OA
ATOM     86  O   UNL A   1      41.941  24.974  37.018  1.00  0.00    -0.744 OA
ENDBRANCH  80  83
ENDBRANCH  52  76
BRANCH  64  87
ATOM     87  C   UNL A   1      45.232  29.427  28.320  1.00  0.00     0.023 A 
ATOM     88  C   UNL A   1      46.105  30.530  28.421  1.00  0.00     0.012 A 
ATOM     89  C   UNL A   1      45.734  28.204  27.848  1.00  0.00     0.148 A 
ATOM     90  C   UNL A   1      47.444  30.417  28.034  1.00  0.00     0.002 A 
ATOM     91  C   UNL A   1      47.075  28.083  27.513  1.00  0.00     0.091 A 
ATOM     92  F   UNL A   1      44.890  27.165  27.753  1.00  0.00    -0.205 F 
ATOM     93  C   UNL A   1      47.932  29.190  27.593  1.00  0.00     0.022 A 
BRANCH  91  94
ATOM     94  S   UNL A   1      47.769  26.492  27.065  1.00  0.00     0.127 S 
ATOM     95  O   UNL A   1      47.123  26.227  25.781  1.00  0.00    -0.237 OA
ATOM     96  O   UNL A   1      49.203  26.781  26.981  1.00  0.00    -0.237 OA
ATOM     97  O   UNL A   1      47.414  25.586  28.151  1.00  0.00    -0.744 OA
ENDBRANCH  91  94
ENDBRANCH  64  87
ENDBRANCH  38  39
ENDBRANCH  30  33
ENDBRANCH  28  29
ENDBRANCH  27  28
ENDBRANCH   1  27
TORSDOF 17
ENDMDL
