MODEL 1
REMARK VINA RESULT:     -11.9      0.000      0.000
REMARK SMILES C[C@H](C(=O)NCCCCNC(=O)c1ccc(-c2c3nc(c(-c4cccc(S(=O)(=O)[O-])c4F)c4ccc([nH]4)c(-c4cccc(S(=O)(=O)[O-])c4F)c4nc(c(-c5cccc(S(=O)(=O)[O-])c5F)c5ccc2[nH]5)C=C4)C=C3)cc1)[C@@H](C)[NH2+]Cc1ccc(F)c(F)c1
REMARK SMILES IDX 7 1 6 2 5 3 3 4 4 5 2 7 1 8 76 9 77 10 78 11 79 14 80 15
REMARK SMILES IDX 81 16 87 17 82 18 85 19 83 20 86 21 84 22 8 23 9 24 10 25
REMARK SMILES IDX 11 26 12 28 13 29 14 30 75 31 15 32 74 33 16 34 17 35 18 36
REMARK SMILES IDX 68 37 19 38 73 39 67 40 69 41 20 42 72 43 66 44 65 45 21 47
REMARK SMILES IDX 53 48 33 49 52 50 34 51 37 52 51 53 70 54 35 55 36 56 50 58
REMARK SMILES IDX 71 59 38 60 22 61 23 62 31 63 24 64 26 65 32 66 25 67 27 68
REMARK SMILES IDX 28 69 29 70 30 71 54 72 55 73 63 74 56 75 58 76 64 77 57 78
REMARK SMILES IDX 59 79 60 80 61 81 62 82 39 83 40 84 48 85 41 86 43 87 49 88
REMARK SMILES IDX 42 89 44 90 45 91 46 92 47 93
REMARK H PARENT 5 6 78 12 78 13 10 27 69 46 37 57
REMARK Flexibility Score: inf
ROOT
ATOM      1  C   UNL A   1      31.379  30.369  25.366  1.00  0.00     0.023 C 
ENDROOT
BRANCH   1   2
ATOM      2  C   UNL A   1      32.744  29.688  25.499  1.00  0.00     0.116 C 
BRANCH   2   3
ATOM      3  N   UNL A   1      33.381  29.423  24.218  1.00  0.00    -0.356 N 
ATOM      4  C   UNL A   1      33.589  28.384  23.381  1.00  0.00     0.228 C 
ATOM      5  O   UNL A   1      34.099  28.739  22.304  1.00  0.00    -0.275 OA
ATOM      6  H   UNL A   1      33.778  30.246  23.852  1.00  0.00     0.163 HD
BRANCH   4   7
ATOM      7  C   UNL A   1      33.185  26.896  23.567  1.00  0.00     0.133 C 
ATOM      8  C   UNL A   1      33.749  26.482  24.952  1.00  0.00     0.024 C 
BRANCH   7   9
ATOM      9  C   UNL A   1      31.677  26.529  23.407  1.00  0.00     0.191 C 
ATOM     10  C   UNL A   1      31.063  26.450  24.817  1.00  0.00     0.076 C 
BRANCH   9  11
ATOM     11  N   UNL A   1      30.910  27.556  22.657  1.00  0.00    -0.340 N 
ATOM     12  H   UNL A   1      30.825  27.231  21.694  1.00  0.00     0.346 HD
ATOM     13  H   UNL A   1      31.440  28.418  22.781  1.00  0.00     0.346 HD
BRANCH  11  14
ATOM     14  C   UNL A   1      29.561  27.877  23.133  1.00  0.00     0.297 C 
BRANCH  14  15
ATOM     15  C   UNL A   1      29.038  29.223  22.691  1.00  0.00     0.009 A 
ATOM     16  C   UNL A   1      29.609  29.901  21.597  1.00  0.00     0.013 A 
ATOM     17  C   UNL A   1      28.050  29.867  23.453  1.00  0.00     0.052 A 
ATOM     18  C   UNL A   1      29.274  31.233  21.341  1.00  0.00     0.043 A 
ATOM     19  C   UNL A   1      27.713  31.189  23.179  1.00  0.00     0.159 A 
ATOM     20  C   UNL A   1      28.338  31.874  22.146  1.00  0.00     0.158 A 
ATOM     21  F   UNL A   1      26.814  31.807  23.956  1.00  0.00    -0.204 F 
ATOM     22  F   UNL A   1      28.064  33.166  21.928  1.00  0.00    -0.204 F 
ENDBRANCH  14  15
ENDBRANCH  11  14
ENDBRANCH   9  11
ENDBRANCH   7   9
ENDBRANCH   4   7
ENDBRANCH   2   3
ENDBRANCH   1   2
BRANCH   1  23
ATOM     23  C   UNL A   1      31.259  31.674  26.157  1.00  0.00     0.023 C 
BRANCH  23  24
ATOM     24  C   UNL A   1      32.333  31.880  27.221  1.00  0.00     0.116 C 
BRANCH  24  25
ATOM     25  N   UNL A   1      32.604  33.282  27.526  1.00  0.00    -0.352 N 
ATOM     26  C   UNL A   1      33.777  33.827  28.008  1.00  0.00     0.251 C 
ATOM     27  H   UNL A   1      31.863  33.912  27.370  1.00  0.00     0.163 HD
ATOM     28  O   UNL A   1      33.862  35.021  28.275  1.00  0.00    -0.269 OA
BRANCH  26  29
ATOM     29  C   UNL A   1      34.923  32.925  28.254  1.00  0.00     0.039 A 
ATOM     30  C   UNL A   1      36.215  33.456  28.250  1.00  0.00     0.014 A 
ATOM     31  C   UNL A   1      34.697  31.600  28.632  1.00  0.00     0.014 A 
ATOM     32  C   UNL A   1      37.273  32.689  28.744  1.00  0.00     0.010 A 
ATOM     33  C   UNL A   1      35.740  30.866  29.188  1.00  0.00     0.010 A 
ATOM     34  C   UNL A   1      37.030  31.414  29.280  1.00  0.00    -0.014 A 
BRANCH  34  35
ATOM     35  C   UNL A   1      38.075  30.665  30.026  1.00  0.00     0.031 A 
ATOM     36  C   UNL A   1      38.388  31.016  31.454  1.00  0.00     0.074 A 
ATOM     37  C   UNL A   1      38.852  29.780  29.364  1.00  0.00     0.049 A 
ATOM     38  N   UNL A   1      39.352  30.576  32.217  1.00  0.00    -0.248 NA
ATOM     39  C   UNL A   1      37.523  32.019  32.098  1.00  0.00     0.031 C 
ATOM     40  C   UNL A   1      38.720  29.428  27.947  1.00  0.00     0.029 A 
ATOM     41  N   UNL A   1      39.939  29.050  29.783  1.00  0.00    -0.354 N 
ATOM     42  C   UNL A   1      39.250  31.286  33.406  1.00  0.00     0.074 A 
ATOM     43  C   UNL A   1      38.134  32.196  33.261  1.00  0.00     0.031 C 
ATOM     44  C   UNL A   1      39.694  28.566  27.612  1.00  0.00     0.029 A 
ATOM     45  C   UNL A   1      40.538  28.324  28.777  1.00  0.00     0.049 A 
ATOM     46  H   UNL A   1      40.260  29.047  30.713  1.00  0.00     0.167 HD
ATOM     47  C   UNL A   1      40.001  31.172  34.526  1.00  0.00     0.034 A 
ATOM     48  C   UNL A   1      41.652  27.565  28.784  1.00  0.00     0.034 A 
ATOM     49  C   UNL A   1      41.054  30.211  34.696  1.00  0.00     0.049 A 
ATOM     50  C   UNL A   1      42.422  27.405  30.067  1.00  0.00     0.074 A 
ATOM     51  C   UNL A   1      41.761  29.908  35.846  1.00  0.00     0.029 A 
ATOM     52  N   UNL A   1      41.559  29.403  33.691  1.00  0.00    -0.354 N 
ATOM     53  N   UNL A   1      42.174  27.924  31.246  1.00  0.00    -0.248 NA
ATOM     54  C   UNL A   1      43.607  26.534  30.032  1.00  0.00     0.031 C 
ATOM     55  C   UNL A   1      42.707  28.928  35.532  1.00  0.00     0.029 A 
ATOM     56  C   UNL A   1      42.583  28.616  34.187  1.00  0.00     0.049 A 
ATOM     57  H   UNL A   1      41.237  29.390  32.761  1.00  0.00     0.167 HD
ATOM     58  C   UNL A   1      43.156  27.425  32.095  1.00  0.00     0.074 A 
ATOM     59  C   UNL A   1      43.985  26.540  31.304  1.00  0.00     0.031 C 
ATOM     60  C   UNL A   1      43.366  27.697  33.405  1.00  0.00     0.034 A 
BRANCH  47  61
ATOM     61  C   UNL A   1      39.670  32.062  35.692  1.00  0.00     0.023 A 
ATOM     62  C   UNL A   1      40.274  33.331  35.787  1.00  0.00     0.012 A 
ATOM     63  C   UNL A   1      38.696  31.683  36.637  1.00  0.00     0.148 A 
ATOM     64  C   UNL A   1      39.930  34.204  36.817  1.00  0.00     0.002 A 
ATOM     65  C   UNL A   1      38.332  32.573  37.640  1.00  0.00     0.091 A 
ATOM     66  F   UNL A   1      38.149  30.463  36.538  1.00  0.00    -0.205 F 
ATOM     67  C   UNL A   1      38.953  33.830  37.735  1.00  0.00     0.022 A 
BRANCH  65  68
ATOM     68  S   UNL A   1      37.035  32.218  38.832  1.00  0.00     0.127 S 
ATOM     69  O   UNL A   1      37.561  32.857  40.038  1.00  0.00    -0.237 OA
ATOM     70  O   UNL A   1      35.880  32.892  38.239  1.00  0.00    -0.237 OA
ATOM     71  O   UNL A   1      36.930  30.767  38.891  1.00  0.00    -0.744 OA
ENDBRANCH  65  68
ENDBRANCH  47  61
BRANCH  48  72
ATOM     72  C   UNL A   1      42.086  26.855  27.546  1.00  0.00     0.023 A 
ATOM     73  C   UNL A   1      42.687  27.590  26.506  1.00  0.00     0.012 A 
ATOM     74  C   UNL A   1      41.922  25.465  27.397  1.00  0.00     0.148 A 
ATOM     75  C   UNL A   1      43.084  26.959  25.325  1.00  0.00     0.002 A 
ATOM     76  C   UNL A   1      42.370  24.834  26.241  1.00  0.00     0.091 A 
ATOM     77  F   UNL A   1      41.330  24.781  28.386  1.00  0.00    -0.205 F 
ATOM     78  C   UNL A   1      42.935  25.581  25.196  1.00  0.00     0.022 A 
BRANCH  76  79
ATOM     79  S   UNL A   1      42.332  23.046  26.069  1.00  0.00     0.127 S 
ATOM     80  O   UNL A   1      40.903  22.764  26.148  1.00  0.00    -0.237 OA
ATOM     81  O   UNL A   1      42.928  22.846  24.746  1.00  0.00    -0.237 OA
ATOM     82  O   UNL A   1      43.150  22.546  27.167  1.00  0.00    -0.744 OA
ENDBRANCH  76  79
ENDBRANCH  48  72
BRANCH  60  83
ATOM     83  C   UNL A   1      44.530  27.026  34.083  1.00  0.00     0.023 A 
ATOM     84  C   UNL A   1      45.761  27.704  34.169  1.00  0.00     0.012 A 
ATOM     85  C   UNL A   1      44.381  25.776  34.714  1.00  0.00     0.148 A 
ATOM     86  C   UNL A   1      46.834  27.141  34.858  1.00  0.00     0.002 A 
ATOM     87  C   UNL A   1      45.440  25.239  35.435  1.00  0.00     0.091 A 
ATOM     88  F   UNL A   1      43.205  25.140  34.604  1.00  0.00    -0.205 F 
ATOM     89  C   UNL A   1      46.669  25.916  35.501  1.00  0.00     0.022 A 
BRANCH  87  90
ATOM     90  S   UNL A   1      45.292  23.714  36.373  1.00  0.00     0.127 S 
ATOM     91  O   UNL A   1      44.233  23.019  35.645  1.00  0.00    -0.237 OA
ATOM     92  O   UNL A   1      46.623  23.126  36.225  1.00  0.00    -0.237 OA
ATOM     93  O   UNL A   1      44.958  24.112  37.734  1.00  0.00    -0.744 OA
ENDBRANCH  87  90
ENDBRANCH  60  83
ENDBRANCH  34  35
ENDBRANCH  26  29
ENDBRANCH  24  25
ENDBRANCH  23  24
ENDBRANCH   1  23
TORSDOF 18
ENDMDL
MODEL 2
REMARK VINA RESULT:     -11.6      1.281      7.704
REMARK SMILES C[C@H](C(=O)NCCCCNC(=O)c1ccc(-c2c3nc(c(-c4cccc(S(=O)(=O)[O-])c4F)c4ccc([nH]4)c(-c4cccc(S(=O)(=O)[O-])c4F)c4nc(c(-c5cccc(S(=O)(=O)[O-])c5F)c5ccc2[nH]5)C=C4)C=C3)cc1)[C@@H](C)[NH2+]Cc1ccc(F)c(F)c1
REMARK SMILES IDX 7 1 6 2 5 3 3 4 4 5 2 7 1 8 76 9 77 10 78 11 79 14 80 15
REMARK SMILES IDX 81 16 87 17 82 18 85 19 83 20 86 21 84 22 8 23 9 24 10 25
REMARK SMILES IDX 11 26 12 28 13 29 14 30 75 31 15 32 74 33 16 34 17 35 18 36
REMARK SMILES IDX 68 37 19 38 73 39 67 40 69 41 20 42 72 43 66 44 65 45 21 47
REMARK SMILES IDX 53 48 33 49 52 50 34 51 37 52 51 53 70 54 35 55 36 56 50 58
REMARK SMILES IDX 71 59 38 60 22 61 23 62 31 63 24 64 26 65 32 66 25 67 27 68
REMARK SMILES IDX 28 69 29 70 30 71 54 72 55 73 63 74 56 75 58 76 64 77 57 78
REMARK SMILES IDX 59 79 60 80 61 81 62 82 39 83 40 84 48 85 41 86 43 87 49 88
REMARK SMILES IDX 42 89 44 90 45 91 46 92 47 93
REMARK H PARENT 5 6 78 12 78 13 10 27 69 46 37 57
REMARK Flexibility Score: inf
ROOT
ATOM      1  C   UNL A   1      31.740  28.136  27.312  1.00  0.00     0.023 C 
ENDROOT
BRANCH   1   2
ATOM      2  C   UNL A   1      31.097  26.991  26.525  1.00  0.00     0.116 C 
BRANCH   2   3
ATOM      3  N   UNL A   1      31.984  25.854  26.336  1.00  0.00    -0.356 N 
ATOM      4  C   UNL A   1      32.677  25.257  25.343  1.00  0.00     0.228 C 
ATOM      5  O   UNL A   1      33.419  24.352  25.760  1.00  0.00    -0.275 OA
ATOM      6  H   UNL A   1      32.121  25.377  27.187  1.00  0.00     0.163 HD
BRANCH   4   7
ATOM      7  C   UNL A   1      32.723  25.632  23.836  1.00  0.00     0.133 C 
ATOM      8  C   UNL A   1      34.018  24.979  23.283  1.00  0.00     0.024 C 
BRANCH   7   9
ATOM      9  C   UNL A   1      31.472  25.293  22.967  1.00  0.00     0.191 C 
ATOM     10  C   UNL A   1      30.913  23.944  23.457  1.00  0.00     0.076 C 
BRANCH   9  11
ATOM     11  N   UNL A   1      30.382  26.292  23.110  1.00  0.00    -0.340 N 
ATOM     12  H   UNL A   1      30.159  26.362  24.103  1.00  0.00     0.346 HD
ATOM     13  H   UNL A   1      29.629  25.942  22.518  1.00  0.00     0.346 HD
BRANCH  11  14
ATOM     14  C   UNL A   1      30.639  27.650  22.621  1.00  0.00     0.297 C 
BRANCH  14  15
ATOM     15  C   UNL A   1      29.628  28.683  23.060  1.00  0.00     0.009 A 
ATOM     16  C   UNL A   1      28.247  28.459  22.905  1.00  0.00     0.013 A 
ATOM     17  C   UNL A   1      30.071  29.936  23.516  1.00  0.00     0.052 A 
ATOM     18  C   UNL A   1      27.338  29.502  23.100  1.00  0.00     0.043 A 
ATOM     19  C   UNL A   1      29.155  30.962  23.721  1.00  0.00     0.159 A 
ATOM     20  C   UNL A   1      27.801  30.754  23.492  1.00  0.00     0.158 A 
ATOM     21  F   UNL A   1      29.601  32.168  24.096  1.00  0.00    -0.204 F 
ATOM     22  F   UNL A   1      26.930  31.762  23.623  1.00  0.00    -0.204 F 
ENDBRANCH  14  15
ENDBRANCH  11  14
ENDBRANCH   9  11
ENDBRANCH   7   9
ENDBRANCH   4   7
ENDBRANCH   2   3
ENDBRANCH   1   2
BRANCH   1  23
ATOM     23  C   UNL A   1      31.411  29.526  26.762  1.00  0.00     0.023 C 
BRANCH  23  24
ATOM     24  C   UNL A   1      32.619  30.435  26.552  1.00  0.00     0.116 C 
BRANCH  24  25
ATOM     25  N   UNL A   1      32.411  31.810  26.998  1.00  0.00    -0.352 N 
ATOM     26  C   UNL A   1      33.326  32.644  27.606  1.00  0.00     0.251 C 
ATOM     27  H   UNL A   1      31.513  32.185  26.846  1.00  0.00     0.163 HD
ATOM     28  O   UNL A   1      33.011  33.769  27.981  1.00  0.00    -0.269 OA
BRANCH  26  29
ATOM     29  C   UNL A   1      34.692  32.133  27.851  1.00  0.00     0.039 A 
ATOM     30  C   UNL A   1      35.749  33.041  27.943  1.00  0.00     0.014 A 
ATOM     31  C   UNL A   1      34.888  30.779  28.134  1.00  0.00     0.014 A 
ATOM     32  C   UNL A   1      36.982  32.610  28.441  1.00  0.00     0.010 A 
ATOM     33  C   UNL A   1      36.093  30.370  28.693  1.00  0.00     0.010 A 
ATOM     34  C   UNL A   1      37.141  31.287  28.883  1.00  0.00    -0.014 A 
BRANCH  34  35
ATOM     35  C   UNL A   1      38.349  30.850  29.630  1.00  0.00     0.031 A 
ATOM     36  C   UNL A   1      39.257  29.798  29.057  1.00  0.00     0.074 A 
ATOM     37  C   UNL A   1      38.536  31.284  30.896  1.00  0.00     0.049 A 
ATOM     38  N   UNL A   1      40.270  29.191  29.616  1.00  0.00    -0.248 NA
ATOM     39  C   UNL A   1      38.968  29.343  27.686  1.00  0.00     0.031 C 
ATOM     40  C   UNL A   1      37.666  32.225  31.607  1.00  0.00     0.029 A 
ATOM     41  N   UNL A   1      39.491  30.954  31.827  1.00  0.00    -0.354 N 
ATOM     42  C   UNL A   1      40.702  28.246  28.696  1.00  0.00     0.074 A 
ATOM     43  C   UNL A   1      39.835  28.350  27.542  1.00  0.00     0.031 C 
ATOM     44  C   UNL A   1      38.117  32.384  32.861  1.00  0.00     0.029 A 
ATOM     45  C   UNL A   1      39.288  31.537  33.058  1.00  0.00     0.049 A 
ATOM     46  H   UNL A   1      40.249  30.357  31.632  1.00  0.00     0.167 HD
ATOM     47  C   UNL A   1      41.744  27.387  28.792  1.00  0.00     0.034 A 
ATOM     48  C   UNL A   1      39.956  31.393  34.220  1.00  0.00     0.034 A 
ATOM     49  C   UNL A   1      42.653  27.343  29.903  1.00  0.00     0.049 A 
ATOM     50  C   UNL A   1      41.152  30.481  34.270  1.00  0.00     0.074 A 
ATOM     51  C   UNL A   1      43.829  26.625  30.020  1.00  0.00     0.029 A 
ATOM     52  N   UNL A   1      42.486  28.037  31.090  1.00  0.00    -0.354 N 
ATOM     53  N   UNL A   1      41.675  29.756  33.311  1.00  0.00    -0.248 NA
ATOM     54  C   UNL A   1      41.871  30.390  35.550  1.00  0.00     0.031 C 
ATOM     55  C   UNL A   1      44.366  26.870  31.288  1.00  0.00     0.029 A 
ATOM     56  C   UNL A   1      43.527  27.748  31.955  1.00  0.00     0.049 A 
ATOM     57  H   UNL A   1      41.739  28.645  31.289  1.00  0.00     0.167 HD
ATOM     58  C   UNL A   1      42.792  29.141  33.864  1.00  0.00     0.074 A 
ATOM     59  C   UNL A   1      42.890  29.601  35.233  1.00  0.00     0.031 C 
ATOM     60  C   UNL A   1      43.645  28.255  33.296  1.00  0.00     0.034 A 
BRANCH  47  61
ATOM     61  C   UNL A   1      42.008  26.464  27.634  1.00  0.00     0.023 A 
ATOM     62  C   UNL A   1      42.783  26.920  26.550  1.00  0.00     0.012 A 
ATOM     63  C   UNL A   1      41.572  25.125  27.663  1.00  0.00     0.148 A 
ATOM     64  C   UNL A   1      43.104  26.063  25.499  1.00  0.00     0.002 A 
ATOM     65  C   UNL A   1      41.927  24.266  26.630  1.00  0.00     0.091 A 
ATOM     66  F   UNL A   1      40.820  24.719  28.696  1.00  0.00    -0.205 F 
ATOM     67  C   UNL A   1      42.686  24.736  25.544  1.00  0.00     0.022 A 
BRANCH  65  68
ATOM     68  S   UNL A   1      41.499  22.522  26.624  1.00  0.00     0.127 S 
ATOM     69  O   UNL A   1      40.038  22.577  26.618  1.00  0.00    -0.237 OA
ATOM     70  O   UNL A   1      42.097  22.063  25.370  1.00  0.00    -0.237 OA
ATOM     71  O   UNL A   1      42.096  21.957  27.826  1.00  0.00    -0.744 OA
ENDBRANCH  65  68
ENDBRANCH  47  61
BRANCH  48  72
ATOM     72  C   UNL A   1      39.540  32.164  35.427  1.00  0.00     0.023 A 
ATOM     73  C   UNL A   1      39.957  33.502  35.567  1.00  0.00     0.012 A 
ATOM     74  C   UNL A   1      38.728  31.592  36.425  1.00  0.00     0.148 A 
ATOM     75  C   UNL A   1      39.603  34.244  36.696  1.00  0.00     0.002 A 
ATOM     76  C   UNL A   1      38.334  32.354  37.520  1.00  0.00     0.091 A 
ATOM     77  F   UNL A   1      38.355  30.311  36.290  1.00  0.00    -0.205 F 
ATOM     78  C   UNL A   1      38.784  33.675  37.666  1.00  0.00     0.022 A 
BRANCH  76  79
ATOM     79  S   UNL A   1      37.170  31.725  38.735  1.00  0.00     0.127 S 
ATOM     80  O   UNL A   1      36.025  32.609  38.544  1.00  0.00    -0.237 OA
ATOM     81  O   UNL A   1      36.965  30.345  38.287  1.00  0.00    -0.237 OA
ATOM     82  O   UNL A   1      37.864  31.835  40.012  1.00  0.00    -0.744 OA
ENDBRANCH  76  79
ENDBRANCH  48  72
BRANCH  60  83
ATOM     83  C   UNL A   1      44.772  27.725  34.141  1.00  0.00     0.023 A 
ATOM     84  C   UNL A   1      46.014  28.388  34.128  1.00  0.00     0.012 A 
ATOM     85  C   UNL A   1      44.575  26.637  35.013  1.00  0.00     0.148 A 
ATOM     86  C   UNL A   1      47.052  27.966  34.957  1.00  0.00     0.002 A 
ATOM     87  C   UNL A   1      45.599  26.249  35.869  1.00  0.00     0.091 A 
ATOM     88  F   UNL A   1      43.391  26.009  34.996  1.00  0.00    -0.205 F 
ATOM     89  C   UNL A   1      46.840  26.906  35.836  1.00  0.00     0.022 A 
BRANCH  87  90
ATOM     90  S   UNL A   1      45.387  24.956  37.099  1.00  0.00     0.127 S 
ATOM     91  O   UNL A   1      45.675  23.753  36.321  1.00  0.00    -0.237 OA
ATOM     92  O   UNL A   1      46.405  25.300  38.092  1.00  0.00    -0.237 OA
ATOM     93  O   UNL A   1      44.016  25.079  37.576  1.00  0.00    -0.744 OA
ENDBRANCH  87  90
ENDBRANCH  60  83
ENDBRANCH  34  35
ENDBRANCH  26  29
ENDBRANCH  24  25
ENDBRANCH  23  24
ENDBRANCH   1  23
TORSDOF 18
ENDMDL
MODEL 3
REMARK VINA RESULT:     -11.6      3.444      9.051
REMARK SMILES C[C@H](C(=O)NCCCCNC(=O)c1ccc(-c2c3nc(c(-c4cccc(S(=O)(=O)[O-])c4F)c4ccc([nH]4)c(-c4cccc(S(=O)(=O)[O-])c4F)c4nc(c(-c5cccc(S(=O)(=O)[O-])c5F)c5ccc2[nH]5)C=C4)C=C3)cc1)[C@@H](C)[NH2+]Cc1ccc(F)c(F)c1
REMARK SMILES IDX 7 1 6 2 5 3 3 4 4 5 2 7 1 8 76 9 77 10 78 11 79 14 80 15
REMARK SMILES IDX 81 16 87 17 82 18 85 19 83 20 86 21 84 22 8 23 9 24 10 25
REMARK SMILES IDX 11 26 12 28 13 29 14 30 75 31 15 32 74 33 16 34 17 35 18 36
REMARK SMILES IDX 68 37 19 38 73 39 67 40 69 41 20 42 72 43 66 44 65 45 21 47
REMARK SMILES IDX 53 48 33 49 52 50 34 51 37 52 51 53 70 54 35 55 36 56 50 58
REMARK SMILES IDX 71 59 38 60 22 61 23 62 31 63 24 64 26 65 32 66 25 67 27 68
REMARK SMILES IDX 28 69 29 70 30 71 54 72 55 73 63 74 56 75 58 76 64 77 57 78
REMARK SMILES IDX 59 79 60 80 61 81 62 82 39 83 40 84 48 85 41 86 43 87 49 88
REMARK SMILES IDX 42 89 44 90 45 91 46 92 47 93
REMARK H PARENT 5 6 78 12 78 13 10 27 69 46 37 57
REMARK Flexibility Score: inf
ROOT
ATOM      1  C   UNL A   1      31.411  28.075  25.403  1.00  0.00     0.023 C 
ENDROOT
BRANCH   1   2
ATOM      2  C   UNL A   1      32.194  27.176  26.365  1.00  0.00     0.116 C 
BRANCH   2   3
ATOM      3  N   UNL A   1      31.496  25.943  26.695  1.00  0.00    -0.356 N 
ATOM      4  C   UNL A   1      31.630  24.614  26.498  1.00  0.00     0.228 C 
ATOM      5  O   UNL A   1      30.790  23.954  27.134  1.00  0.00    -0.275 OA
ATOM      6  H   UNL A   1      30.685  26.135  27.220  1.00  0.00     0.163 HD
BRANCH   4   7
ATOM      7  C   UNL A   1      32.724  23.861  25.693  1.00  0.00     0.133 C 
ATOM      8  C   UNL A   1      33.541  23.064  26.744  1.00  0.00     0.024 C 
BRANCH   7   9
ATOM      9  C   UNL A   1      32.259  22.966  24.502  1.00  0.00     0.191 C 
ATOM     10  C   UNL A   1      33.240  23.189  23.337  1.00  0.00     0.076 C 
BRANCH   9  11
ATOM     11  N   UNL A   1      32.289  21.516  24.824  1.00  0.00    -0.340 N 
ATOM     12  H   UNL A   1      31.477  21.315  25.406  1.00  0.00     0.346 HD
ATOM     13  H   UNL A   1      33.194  21.368  25.270  1.00  0.00     0.346 HD
BRANCH  11  14
ATOM     14  C   UNL A   1      32.270  20.572  23.702  1.00  0.00     0.297 C 
BRANCH  14  15
ATOM     15  C   UNL A   1      32.598  19.145  24.070  1.00  0.00     0.009 A 
ATOM     16  C   UNL A   1      32.383  18.664  25.376  1.00  0.00     0.013 A 
ATOM     17  C   UNL A   1      33.241  18.318  23.134  1.00  0.00     0.052 A 
ATOM     18  C   UNL A   1      32.898  17.424  25.763  1.00  0.00     0.043 A 
ATOM     19  C   UNL A   1      33.735  17.079  23.528  1.00  0.00     0.159 A 
ATOM     20  C   UNL A   1      33.586  16.646  24.839  1.00  0.00     0.158 A 
ATOM     21  F   UNL A   1      34.400  16.331  22.638  1.00  0.00    -0.204 F 
ATOM     22  F   UNL A   1      34.123  15.484  25.232  1.00  0.00    -0.204 F 
ENDBRANCH  14  15
ENDBRANCH  11  14
ENDBRANCH   9  11
ENDBRANCH   7   9
ENDBRANCH   4   7
ENDBRANCH   2   3
ENDBRANCH   1   2
BRANCH   1  23
ATOM     23  C   UNL A   1      31.819  29.549  25.463  1.00  0.00     0.023 C 
BRANCH  23  24
ATOM     24  C   UNL A   1      32.295  30.027  26.832  1.00  0.00     0.116 C 
BRANCH  24  25
ATOM     25  N   UNL A   1      32.061  31.447  27.079  1.00  0.00    -0.352 N 
ATOM     26  C   UNL A   1      32.970  32.384  27.525  1.00  0.00     0.251 C 
ATOM     27  H   UNL A   1      31.148  31.773  26.907  1.00  0.00     0.163 HD
ATOM     28  O   UNL A   1      32.634  33.544  27.743  1.00  0.00    -0.269 OA
BRANCH  26  29
ATOM     29  C   UNL A   1      34.357  31.947  27.793  1.00  0.00     0.039 A 
ATOM     30  C   UNL A   1      35.346  32.915  27.989  1.00  0.00     0.014 A 
ATOM     31  C   UNL A   1      34.634  30.594  27.994  1.00  0.00     0.014 A 
ATOM     32  C   UNL A   1      36.586  32.533  28.508  1.00  0.00     0.010 A 
ATOM     33  C   UNL A   1      35.843  30.227  28.576  1.00  0.00     0.010 A 
ATOM     34  C   UNL A   1      36.818  31.196  28.869  1.00  0.00    -0.014 A 
BRANCH  34  35
ATOM     35  C   UNL A   1      38.025  30.790  29.636  1.00  0.00     0.031 A 
ATOM     36  C   UNL A   1      38.980  29.776  29.068  1.00  0.00     0.074 A 
ATOM     37  C   UNL A   1      38.171  31.212  30.910  1.00  0.00     0.049 A 
ATOM     38  N   UNL A   1      40.000  29.196  29.641  1.00  0.00    -0.248 NA
ATOM     39  C   UNL A   1      38.733  29.330  27.686  1.00  0.00     0.031 C 
ATOM     40  C   UNL A   1      37.256  32.115  31.614  1.00  0.00     0.029 A 
ATOM     41  N   UNL A   1      39.118  30.902  31.856  1.00  0.00    -0.354 N 
ATOM     42  C   UNL A   1      40.482  28.278  28.717  1.00  0.00     0.074 A 
ATOM     43  C   UNL A   1      39.636  28.369  27.547  1.00  0.00     0.031 C 
ATOM     44  C   UNL A   1      37.675  32.272  32.880  1.00  0.00     0.029 A 
ATOM     45  C   UNL A   1      38.870  31.461  33.091  1.00  0.00     0.049 A 
ATOM     46  H   UNL A   1      39.899  30.333  31.670  1.00  0.00     0.167 HD
ATOM     47  C   UNL A   1      41.550  27.452  28.824  1.00  0.00     0.034 A 
ATOM     48  C   UNL A   1      39.518  31.323  34.264  1.00  0.00     0.034 A 
ATOM     49  C   UNL A   1      42.437  27.424  29.954  1.00  0.00     0.049 A 
ATOM     50  C   UNL A   1      40.743  30.452  34.328  1.00  0.00     0.074 A 
ATOM     51  C   UNL A   1      43.634  26.744  30.086  1.00  0.00     0.029 A 
ATOM     52  N   UNL A   1      42.223  28.096  31.145  1.00  0.00    -0.354 N 
ATOM     53  N   UNL A   1      41.309  29.757  33.371  1.00  0.00    -0.248 NA
ATOM     54  C   UNL A   1      41.438  30.367  35.621  1.00  0.00     0.031 C 
ATOM     55  C   UNL A   1      44.137  26.990  31.368  1.00  0.00     0.029 A 
ATOM     56  C   UNL A   1      43.255  27.830  32.029  1.00  0.00     0.049 A 
ATOM     57  H   UNL A   1      41.452  28.676  31.336  1.00  0.00     0.167 HD
ATOM     58  C   UNL A   1      42.435  29.172  33.939  1.00  0.00     0.074 A 
ATOM     59  C   UNL A   1      42.489  29.617  35.316  1.00  0.00     0.031 C 
ATOM     60  C   UNL A   1      43.329  28.323  33.378  1.00  0.00     0.034 A 
BRANCH  47  61
ATOM     61  C   UNL A   1      41.869  26.555  27.661  1.00  0.00     0.023 A 
ATOM     62  C   UNL A   1      42.629  27.058  26.587  1.00  0.00     0.012 A 
ATOM     63  C   UNL A   1      41.499  25.196  27.674  1.00  0.00     0.148 A 
ATOM     64  C   UNL A   1      43.000  26.228  25.531  1.00  0.00     0.002 A 
ATOM     65  C   UNL A   1      41.904  24.365  26.636  1.00  0.00     0.091 A 
ATOM     66  F   UNL A   1      40.759  24.743  28.696  1.00  0.00    -0.205 F 
ATOM     67  C   UNL A   1      42.648  24.881  25.561  1.00  0.00     0.022 A 
BRANCH  65  68
ATOM     68  S   UNL A   1      41.562  22.602  26.611  1.00  0.00     0.127 S 
ATOM     69  O   UNL A   1      40.101  22.586  26.553  1.00  0.00    -0.237 OA
ATOM     70  O   UNL A   1      42.226  22.178  25.378  1.00  0.00    -0.237 OA
ATOM     71  O   UNL A   1      42.143  22.062  27.832  1.00  0.00    -0.744 OA
ENDBRANCH  65  68
ENDBRANCH  47  61
BRANCH  48  72
ATOM     72  C   UNL A   1      39.052  32.064  35.472  1.00  0.00     0.023 A 
ATOM     73  C   UNL A   1      39.293  33.448  35.567  1.00  0.00     0.012 A 
ATOM     74  C   UNL A   1      38.364  31.416  36.515  1.00  0.00     0.148 A 
ATOM     75  C   UNL A   1      38.889  34.167  36.694  1.00  0.00     0.002 A 
ATOM     76  C   UNL A   1      37.916  32.148  37.611  1.00  0.00     0.091 A 
ATOM     77  F   UNL A   1      38.159  30.094  36.423  1.00  0.00    -0.205 F 
ATOM     78  C   UNL A   1      38.192  33.520  37.710  1.00  0.00     0.022 A 
BRANCH  76  79
ATOM     79  S   UNL A   1      36.895  31.402  38.887  1.00  0.00     0.127 S 
ATOM     80  O   UNL A   1      35.726  32.276  38.888  1.00  0.00    -0.237 OA
ATOM     81  O   UNL A   1      36.660  30.059  38.355  1.00  0.00    -0.237 OA
ATOM     82  O   UNL A   1      37.720  31.426  40.089  1.00  0.00    -0.744 OA
ENDBRANCH  76  79
ENDBRANCH  48  72
BRANCH  60  83
ATOM     83  C   UNL A   1      44.455  27.819  34.239  1.00  0.00     0.023 A 
ATOM     84  C   UNL A   1      45.637  28.577  34.341  1.00  0.00     0.012 A 
ATOM     85  C   UNL A   1      44.308  26.654  35.017  1.00  0.00     0.148 A 
ATOM     86  C   UNL A   1      46.666  28.175  35.190  1.00  0.00     0.002 A 
ATOM     87  C   UNL A   1      45.320  26.282  35.895  1.00  0.00     0.091 A 
ATOM     88  F   UNL A   1      43.182  25.938  34.892  1.00  0.00    -0.205 F 
ATOM     89  C   UNL A   1      46.502  27.036  35.976  1.00  0.00     0.022 A 
BRANCH  87  90
ATOM     90  S   UNL A   1      45.159  24.885  37.013  1.00  0.00     0.127 S 
ATOM     91  O   UNL A   1      43.945  25.232  37.750  1.00  0.00    -0.237 OA
ATOM     92  O   UNL A   1      45.013  23.760  36.088  1.00  0.00    -0.237 OA
ATOM     93  O   UNL A   1      46.384  24.860  37.801  1.00  0.00    -0.744 OA
ENDBRANCH  87  90
ENDBRANCH  60  83
ENDBRANCH  34  35
ENDBRANCH  26  29
ENDBRANCH  24  25
ENDBRANCH  23  24
ENDBRANCH   1  23
TORSDOF 18
ENDMDL
