MODEL 1
REMARK VINA RESULT:     -11.8      0.000      0.000
REMARK SMILES CCOc1ccccc1NC(=O)[C@H]1[C@@H]2C=C[C@@H]([C@@H]3C[C@H]23)[C@@H]1C(=O)NCCCCNC(=O)c1ccc(-c2c3nc(c(-c4cccc(S(=O)(=O)[O-])c4F)c4ccc([nH]4)c(-c4cccc(S(=O)(=O)[O-])c4F)c4nc(c(-c5cccc(S(=O)(=O)[O-])c5F)c5ccc2[nH]5)C=C4)C=C3)cc1
REMARK SMILES IDX 26 1 25 2 24 3 22 4 23 5 21 7 13 8 14 9 15 10 20 11 17 12
REMARK SMILES IDX 16 13 18 14 19 15 11 16 10 17 12 19 9 20 4 21 5 22 6 23 8 24
REMARK SMILES IDX 7 25 3 26 2 27 1 28 27 29 28 30 29 31 30 32 31 34 32 35
REMARK SMILES IDX 33 36 94 37 34 38 93 39 35 40 36 41 37 42 87 43 38 44 92 45
REMARK SMILES IDX 86 46 88 47 39 48 91 49 85 50 84 51 40 53 72 54 52 55 71 56
REMARK SMILES IDX 53 57 56 58 70 59 89 60 54 61 55 62 69 64 90 65 57 66 41 67
REMARK SMILES IDX 42 68 50 69 43 70 45 71 51 72 44 73 46 74 47 75 48 76 49 77
REMARK SMILES IDX 73 78 74 79 82 80 75 81 77 82 83 83 76 84 78 85 79 86 80 87
REMARK SMILES IDX 81 88 58 89 59 90 67 91 60 92 62 93 68 94 61 95 63 96 64 97
REMARK SMILES IDX 65 98 66 99
REMARK H PARENT 24 6 10 18 29 33 88 52 56 63
REMARK Flexibility Score: inf
ROOT
ATOM      1  C   UNL A   1      32.464  27.854  27.077  1.00  0.00     0.023 C 
ENDROOT
BRANCH   1   2
ATOM      2  C   UNL A   1      31.416  27.035  26.318  1.00  0.00     0.116 C 
BRANCH   2   3
ATOM      3  N   UNL A   1      31.214  25.733  26.922  1.00  0.00    -0.356 N 
ATOM      4  C   UNL A   1      31.699  24.496  26.629  1.00  0.00     0.224 C 
ATOM      5  O   UNL A   1      31.393  23.600  27.423  1.00  0.00    -0.275 OA
ATOM      6  H   UNL A   1      30.608  25.746  27.697  1.00  0.00     0.163 HD
BRANCH   4   7
ATOM      7  C   UNL A   1      32.725  24.253  25.499  1.00  0.00     0.098 C 
ATOM      8  C   UNL A   1      32.511  23.030  24.612  1.00  0.00     0.099 C 
ATOM      9  C   UNL A   1      33.611  21.935  24.876  1.00  0.00     0.028 C 
ATOM     10  C   UNL A   1      33.705  21.773  26.403  1.00  0.00    -0.026 C 
ATOM     11  C   UNL A   1      35.010  22.395  24.470  1.00  0.00     0.001 C 
ATOM     12  C   UNL A   1      34.170  24.123  26.097  1.00  0.00     0.028 C 
ATOM     13  C   UNL A   1      34.072  22.906  27.033  1.00  0.00    -0.026 C 
ATOM     14  C   UNL A   1      35.304  23.769  25.082  1.00  0.00     0.001 C 
ATOM     15  C   UNL A   1      35.366  23.524  23.578  1.00  0.00     0.009 C 
BRANCH   8  16
ATOM     16  C   UNL A   1      32.261  23.295  23.124  1.00  0.00     0.229 C 
ATOM     17  N   UNL A   1      32.247  24.456  22.416  1.00  0.00    -0.323 N 
ATOM     18  H   UNL A   1      31.963  24.241  21.498  1.00  0.00     0.170 HD
ATOM     19  O   UNL A   1      32.006  22.293  22.427  1.00  0.00    -0.274 OA
BRANCH  17  20
ATOM     20  C   UNL A   1      32.479  25.862  22.475  1.00  0.00     0.083 A 
ATOM     21  C   UNL A   1      31.332  26.650  22.704  1.00  0.00     0.142 A 
ATOM     22  C   UNL A   1      31.377  28.048  22.788  1.00  0.00     0.048 A 
ATOM     23  C   UNL A   1      32.593  28.708  22.657  1.00  0.00     0.004 A 
ATOM     24  C   UNL A   1      33.659  26.572  22.262  1.00  0.00     0.030 A 
ATOM     25  C   UNL A   1      33.732  27.968  22.383  1.00  0.00     0.002 A 
BRANCH  21  26
ATOM     26  O   UNL A   1      30.103  26.036  22.659  1.00  0.00    -0.492 OA
BRANCH  26  27
ATOM     27  C   UNL A   1      29.456  25.998  23.933  1.00  0.00     0.226 C 
ATOM     28  C   UNL A   1      28.150  26.764  23.801  1.00  0.00     0.049 C 
ENDBRANCH  26  27
ENDBRANCH  21  26
ENDBRANCH  17  20
ENDBRANCH   8  16
ENDBRANCH   4   7
ENDBRANCH   2   3
ENDBRANCH   1   2
BRANCH   1  29
ATOM     29  C   UNL A   1      33.892  27.705  26.547  1.00  0.00     0.023 C 
BRANCH  29  30
ATOM     30  C   UNL A   1      34.493  28.971  25.949  1.00  0.00     0.116 C 
BRANCH  30  31
ATOM     31  N   UNL A   1      33.989  30.182  26.582  1.00  0.00    -0.352 N 
ATOM     32  C   UNL A   1      34.483  30.857  27.676  1.00  0.00     0.251 C 
ATOM     33  H   UNL A   1      33.184  30.571  26.171  1.00  0.00     0.163 HD
ATOM     34  O   UNL A   1      33.846  31.776  28.169  1.00  0.00    -0.269 OA
BRANCH  32  35
ATOM     35  C   UNL A   1      35.778  30.443  28.265  1.00  0.00     0.039 A 
ATOM     36  C   UNL A   1      35.772  29.655  29.418  1.00  0.00     0.014 A 
ATOM     37  C   UNL A   1      36.987  30.815  27.673  1.00  0.00     0.014 A 
ATOM     38  C   UNL A   1      36.981  29.187  29.941  1.00  0.00     0.010 A 
ATOM     39  C   UNL A   1      38.182  30.279  28.146  1.00  0.00     0.010 A 
ATOM     40  C   UNL A   1      38.193  29.467  29.291  1.00  0.00    -0.014 A 
BRANCH  40  41
ATOM     41  C   UNL A   1      39.479  28.908  29.783  1.00  0.00     0.031 A 
ATOM     42  C   UNL A   1      40.229  29.585  30.897  1.00  0.00     0.074 A 
ATOM     43  C   UNL A   1      40.023  27.843  29.162  1.00  0.00     0.049 A 
ATOM     44  N   UNL A   1      41.382  29.268  31.426  1.00  0.00    -0.248 NA
ATOM     45  C   UNL A   1      39.619  30.794  31.472  1.00  0.00     0.031 C 
ATOM     46  C   UNL A   1      39.447  27.157  28.004  1.00  0.00     0.029 A 
ATOM     47  N   UNL A   1      41.199  27.173  29.395  1.00  0.00    -0.354 N 
ATOM     48  C   UNL A   1      41.657  30.259  32.361  1.00  0.00     0.074 A 
ATOM     49  C   UNL A   1      40.566  31.207  32.301  1.00  0.00     0.031 C 
ATOM     50  C   UNL A   1      40.272  26.169  27.624  1.00  0.00     0.029 A 
ATOM     51  C   UNL A   1      41.448  26.170  28.489  1.00  0.00     0.049 A 
ATOM     52  H   UNL A   1      41.806  27.392  30.139  1.00  0.00     0.167 HD
ATOM     53  C   UNL A   1      42.707  30.359  33.212  1.00  0.00     0.034 A 
ATOM     54  C   UNL A   1      42.510  25.351  28.355  1.00  0.00     0.034 A 
ATOM     55  C   UNL A   1      43.774  29.399  33.291  1.00  0.00     0.049 A 
ATOM     56  C   UNL A   1      43.638  25.443  29.343  1.00  0.00     0.074 A 
ATOM     57  C   UNL A   1      44.821  29.348  34.193  1.00  0.00     0.029 A 
ATOM     58  N   UNL A   1      43.945  28.333  32.421  1.00  0.00    -0.354 N 
ATOM     59  N   UNL A   1      43.791  26.275  30.344  1.00  0.00    -0.248 NA
ATOM     60  C   UNL A   1      44.722  24.458  29.211  1.00  0.00     0.031 C 
ATOM     61  C   UNL A   1      45.649  28.275  33.842  1.00  0.00     0.029 A 
ATOM     62  C   UNL A   1      45.093  27.630  32.749  1.00  0.00     0.049 A 
ATOM     63  H   UNL A   1      43.338  28.107  31.678  1.00  0.00     0.167 HD
ATOM     64  C   UNL A   1      44.971  25.901  30.976  1.00  0.00     0.074 A 
ATOM     65  C   UNL A   1      45.481  24.751  30.258  1.00  0.00     0.031 C 
ATOM     66  C   UNL A   1      45.578  26.466  32.050  1.00  0.00     0.034 A 
BRANCH  53  67
ATOM     67  C   UNL A   1      42.731  31.543  34.147  1.00  0.00     0.023 A 
ATOM     68  C   UNL A   1      43.317  32.756  33.730  1.00  0.00     0.012 A 
ATOM     69  C   UNL A   1      42.152  31.465  35.429  1.00  0.00     0.148 A 
ATOM     70  C   UNL A   1      43.380  33.851  34.591  1.00  0.00     0.002 A 
ATOM     71  C   UNL A   1      42.172  32.577  36.262  1.00  0.00     0.091 A 
ATOM     72  F   UNL A   1      41.616  30.300  35.819  1.00  0.00    -0.205 F 
ATOM     73  C   UNL A   1      42.799  33.764  35.853  1.00  0.00     0.022 A 
BRANCH  71  74
ATOM     74  S   UNL A   1      41.375  32.588  37.872  1.00  0.00     0.127 S 
ATOM     75  O   UNL A   1      40.009  32.195  37.527  1.00  0.00    -0.237 OA
ATOM     76  O   UNL A   1      42.135  31.572  38.600  1.00  0.00    -0.237 OA
ATOM     77  O   UNL A   1      41.530  33.942  38.385  1.00  0.00    -0.744 OA
ENDBRANCH  71  74
ENDBRANCH  53  67
BRANCH  54  78
ATOM     78  C   UNL A   1      42.518  24.343  27.259  1.00  0.00     0.023 A 
ATOM     79  C   UNL A   1      43.201  24.617  26.060  1.00  0.00     0.012 A 
ATOM     80  C   UNL A   1      41.912  23.083  27.434  1.00  0.00     0.148 A 
ATOM     81  C   UNL A   1      43.265  23.662  25.044  1.00  0.00     0.002 A 
ATOM     82  C   UNL A   1      42.029  22.116  26.444  1.00  0.00     0.091 A 
ATOM     83  F   UNL A   1      41.262  22.847  28.582  1.00  0.00    -0.205 F 
ATOM     84  C   UNL A   1      42.691  22.409  25.241  1.00  0.00     0.022 A 
BRANCH  82  85
ATOM     85  S   UNL A   1      41.447  20.431  26.665  1.00  0.00     0.127 S 
ATOM     86  O   UNL A   1      42.183  20.015  27.855  1.00  0.00    -0.237 OA
ATOM     87  O   UNL A   1      40.012  20.637  26.867  1.00  0.00    -0.237 OA
ATOM     88  O   UNL A   1      41.790  19.729  25.437  1.00  0.00    -0.744 OA
ENDBRANCH  82  85
ENDBRANCH  54  78
BRANCH  66  89
ATOM     89  C   UNL A   1      46.857  25.836  32.542  1.00  0.00     0.023 A 
ATOM     90  C   UNL A   1      48.099  26.276  32.042  1.00  0.00     0.012 A 
ATOM     91  C   UNL A   1      46.829  24.859  33.556  1.00  0.00     0.148 A 
ATOM     92  C   UNL A   1      49.289  25.727  32.518  1.00  0.00     0.002 A 
ATOM     93  C   UNL A   1      48.020  24.355  34.064  1.00  0.00     0.091 A 
ATOM     94  F   UNL A   1      45.637  24.440  34.007  1.00  0.00    -0.205 F 
ATOM     95  C   UNL A   1      49.251  24.778  33.537  1.00  0.00     0.022 A 
BRANCH  93  96
ATOM     96  S   UNL A   1      48.071  23.204  35.442  1.00  0.00     0.127 S 
ATOM     97  O   UNL A   1      47.576  21.976  34.822  1.00  0.00    -0.237 OA
ATOM     98  O   UNL A   1      49.495  23.186  35.779  1.00  0.00    -0.237 OA
ATOM     99  O   UNL A   1      47.213  23.772  36.473  1.00  0.00    -0.744 OA
ENDBRANCH  93  96
ENDBRANCH  66  89
ENDBRANCH  40  41
ENDBRANCH  32  35
ENDBRANCH  30  31
ENDBRANCH  29  30
ENDBRANCH   1  29
TORSDOF 18
ENDMDL
MODEL 2
REMARK VINA RESULT:     -11.7      4.856      9.432
REMARK SMILES CCOc1ccccc1NC(=O)[C@H]1[C@@H]2C=C[C@@H]([C@@H]3C[C@H]23)[C@@H]1C(=O)NCCCCNC(=O)c1ccc(-c2c3nc(c(-c4cccc(S(=O)(=O)[O-])c4F)c4ccc([nH]4)c(-c4cccc(S(=O)(=O)[O-])c4F)c4nc(c(-c5cccc(S(=O)(=O)[O-])c5F)c5ccc2[nH]5)C=C4)C=C3)cc1
REMARK SMILES IDX 26 1 25 2 24 3 22 4 23 5 21 7 13 8 14 9 15 10 20 11 17 12
REMARK SMILES IDX 16 13 18 14 19 15 11 16 10 17 12 19 9 20 4 21 5 22 6 23 8 24
REMARK SMILES IDX 7 25 3 26 2 27 1 28 27 29 28 30 29 31 30 32 31 34 32 35
REMARK SMILES IDX 33 36 94 37 34 38 93 39 35 40 36 41 37 42 87 43 38 44 92 45
REMARK SMILES IDX 86 46 88 47 39 48 91 49 85 50 84 51 40 53 72 54 52 55 71 56
REMARK SMILES IDX 53 57 56 58 70 59 89 60 54 61 55 62 69 64 90 65 57 66 41 67
REMARK SMILES IDX 42 68 50 69 43 70 45 71 51 72 44 73 46 74 47 75 48 76 49 77
REMARK SMILES IDX 73 78 74 79 82 80 75 81 77 82 83 83 76 84 78 85 79 86 80 87
REMARK SMILES IDX 81 88 58 89 59 90 67 91 60 92 62 93 68 94 61 95 63 96 64 97
REMARK SMILES IDX 65 98 66 99
REMARK H PARENT 24 6 10 18 29 33 88 52 56 63
REMARK Flexibility Score: inf
ROOT
ATOM      1  C   UNL A   1      35.789  20.180  25.007  1.00  0.00     0.023 C 
ENDROOT
BRANCH   1   2
ATOM      2  C   UNL A   1      34.285  20.139  25.292  1.00  0.00     0.116 C 
BRANCH   2   3
ATOM      3  N   UNL A   1      33.943  20.904  26.474  1.00  0.00    -0.356 N 
ATOM      4  C   UNL A   1      33.423  22.150  26.647  1.00  0.00     0.224 C 
ATOM      5  O   UNL A   1      33.161  22.462  27.813  1.00  0.00    -0.275 OA
ATOM      6  H   UNL A   1      34.120  20.430  27.318  1.00  0.00     0.163 HD
BRANCH   4   7
ATOM      7  C   UNL A   1      33.000  23.044  25.460  1.00  0.00     0.098 C 
ATOM      8  C   UNL A   1      32.832  24.536  25.734  1.00  0.00     0.099 C 
ATOM      9  C   UNL A   1      31.317  24.961  25.671  1.00  0.00     0.028 C 
ATOM     10  C   UNL A   1      30.543  23.931  26.511  1.00  0.00    -0.026 C 
ATOM     11  C   UNL A   1      30.722  24.814  24.272  1.00  0.00     0.001 C 
ATOM     12  C   UNL A   1      31.637  22.545  24.863  1.00  0.00     0.028 C 
ATOM     13  C   UNL A   1      30.652  22.674  26.039  1.00  0.00    -0.026 C 
ATOM     14  C   UNL A   1      31.026  23.418  23.721  1.00  0.00     0.001 C 
ATOM     15  C   UNL A   1      31.452  24.686  22.989  1.00  0.00     0.009 C 
BRANCH   8  16
ATOM     16  C   UNL A   1      33.763  25.484  24.971  1.00  0.00     0.229 C 
ATOM     17  N   UNL A   1      33.915  26.833  25.043  1.00  0.00    -0.323 N 
ATOM     18  H   UNL A   1      34.547  27.100  24.336  1.00  0.00     0.170 HD
ATOM     19  O   UNL A   1      34.502  24.953  24.118  1.00  0.00    -0.274 OA
BRANCH  17  20
ATOM     20  C   UNL A   1      33.523  28.017  25.736  1.00  0.00     0.083 A 
ATOM     21  C   UNL A   1      32.425  28.703  25.176  1.00  0.00     0.142 A 
ATOM     22  C   UNL A   1      31.910  29.885  25.725  1.00  0.00     0.048 A 
ATOM     23  C   UNL A   1      32.478  30.414  26.877  1.00  0.00     0.004 A 
ATOM     24  C   UNL A   1      34.115  28.632  26.836  1.00  0.00     0.030 A 
ATOM     25  C   UNL A   1      33.588  29.792  27.425  1.00  0.00     0.002 A 
BRANCH  21  26
ATOM     26  O   UNL A   1      31.965  28.297  23.946  1.00  0.00    -0.492 OA
BRANCH  26  27
ATOM     27  C   UNL A   1      30.564  28.524  23.776  1.00  0.00     0.226 C 
ATOM     28  C   UNL A   1      30.194  28.056  22.378  1.00  0.00     0.049 C 
ENDBRANCH  26  27
ENDBRANCH  21  26
ENDBRANCH  17  20
ENDBRANCH   8  16
ENDBRANCH   4   7
ENDBRANCH   2   3
ENDBRANCH   1   2
BRANCH   1  29
ATOM     29  C   UNL A   1      36.311  21.543  24.546  1.00  0.00     0.023 C 
BRANCH  29  30
ATOM     30  C   UNL A   1      37.388  22.154  25.433  1.00  0.00     0.116 C 
BRANCH  30  31
ATOM     31  N   UNL A   1      38.393  21.183  25.842  1.00  0.00    -0.352 N 
ATOM     32  C   UNL A   1      39.621  21.402  26.425  1.00  0.00     0.251 C 
ATOM     33  H   UNL A   1      38.161  20.240  25.680  1.00  0.00     0.163 HD
ATOM     34  O   UNL A   1      40.406  20.476  26.565  1.00  0.00    -0.269 OA
BRANCH  32  35
ATOM     35  C   UNL A   1      39.991  22.770  26.855  1.00  0.00     0.039 A 
ATOM     36  C   UNL A   1      40.873  22.924  27.927  1.00  0.00     0.014 A 
ATOM     37  C   UNL A   1      39.485  23.892  26.193  1.00  0.00     0.014 A 
ATOM     38  C   UNL A   1      41.296  24.204  28.295  1.00  0.00     0.010 A 
ATOM     39  C   UNL A   1      39.973  25.157  26.506  1.00  0.00     0.010 A 
ATOM     40  C   UNL A   1      40.877  25.329  27.566  1.00  0.00    -0.014 A 
BRANCH  40  41
ATOM     41  C   UNL A   1      41.383  26.689  27.888  1.00  0.00     0.031 A 
ATOM     42  C   UNL A   1      42.795  27.079  27.545  1.00  0.00     0.074 A 
ATOM     43  C   UNL A   1      40.602  27.544  28.577  1.00  0.00     0.049 A 
ATOM     44  N   UNL A   1      43.422  28.200  27.787  1.00  0.00    -0.248 NA
ATOM     45  C   UNL A   1      43.620  26.064  26.869  1.00  0.00     0.031 C 
ATOM     46  C   UNL A   1      39.251  27.252  29.058  1.00  0.00     0.029 A 
ATOM     47  N   UNL A   1      40.846  28.820  29.023  1.00  0.00    -0.354 N 
ATOM     48  C   UNL A   1      44.723  28.013  27.336  1.00  0.00     0.074 A 
ATOM     49  C   UNL A   1      44.804  26.656  26.839  1.00  0.00     0.031 C 
ATOM     50  C   UNL A   1      38.788  28.313  29.736  1.00  0.00     0.029 A 
ATOM     51  C   UNL A   1      39.817  29.348  29.766  1.00  0.00     0.049 A 
ATOM     52  H   UNL A   1      41.679  29.309  28.830  1.00  0.00     0.167 HD
ATOM     53  C   UNL A   1      45.752  28.895  27.312  1.00  0.00     0.034 A 
ATOM     54  C   UNL A   1      39.715  30.525  30.414  1.00  0.00     0.034 A 
ATOM     55  C   UNL A   1      45.659  30.252  27.778  1.00  0.00     0.049 A 
ATOM     56  C   UNL A   1      40.846  31.511  30.329  1.00  0.00     0.074 A 
ATOM     57  C   UNL A   1      46.605  31.257  27.695  1.00  0.00     0.029 A 
ATOM     58  N   UNL A   1      44.564  30.789  28.438  1.00  0.00    -0.354 N 
ATOM     59  N   UNL A   1      42.006  31.384  29.733  1.00  0.00    -0.248 NA
ATOM     60  C   UNL A   1      40.640  32.819  30.969  1.00  0.00     0.031 C 
ATOM     61  C   UNL A   1      46.098  32.391  28.341  1.00  0.00     0.029 A 
ATOM     62  C   UNL A   1      44.817  32.105  28.789  1.00  0.00     0.049 A 
ATOM     63  H   UNL A   1      43.727  30.306  28.630  1.00  0.00     0.167 HD
ATOM     64  C   UNL A   1      42.659  32.599  29.902  1.00  0.00     0.074 A 
ATOM     65  C   UNL A   1      41.753  33.458  30.638  1.00  0.00     0.031 C 
ATOM     66  C   UNL A   1      43.899  32.965  29.492  1.00  0.00     0.034 A 
BRANCH  53  67
ATOM     67  C   UNL A   1      47.061  28.418  26.733  1.00  0.00     0.023 A 
ATOM     68  C   UNL A   1      48.153  28.156  27.587  1.00  0.00     0.012 A 
ATOM     69  C   UNL A   1      47.205  28.206  25.348  1.00  0.00     0.148 A 
ATOM     70  C   UNL A   1      49.381  27.748  27.068  1.00  0.00     0.002 A 
ATOM     71  C   UNL A   1      48.416  27.749  24.844  1.00  0.00     0.091 A 
ATOM     72  F   UNL A   1      46.165  28.479  24.547  1.00  0.00    -0.205 F 
ATOM     73  C   UNL A   1      49.510  27.535  25.698  1.00  0.00     0.022 A 
BRANCH  71  74
ATOM     74  S   UNL A   1      48.653  27.364  23.105  1.00  0.00     0.127 S 
ATOM     75  O   UNL A   1      50.083  27.621  22.938  1.00  0.00    -0.237 OA
ATOM     76  O   UNL A   1      48.278  25.951  23.047  1.00  0.00    -0.237 OA
ATOM     77  O   UNL A   1      47.763  28.256  22.375  1.00  0.00    -0.744 OA
ENDBRANCH  71  74
ENDBRANCH  53  67
BRANCH  54  78
ATOM     78  C   UNL A   1      38.466  30.839  31.161  1.00  0.00     0.023 A 
ATOM     79  C   UNL A   1      38.361  30.505  32.523  1.00  0.00     0.012 A 
ATOM     80  C   UNL A   1      37.410  31.536  30.538  1.00  0.00     0.148 A 
ATOM     81  C   UNL A   1      37.219  30.842  33.252  1.00  0.00     0.002 A 
ATOM     82  C   UNL A   1      36.302  31.919  31.283  1.00  0.00     0.091 A 
ATOM     83  F   UNL A   1      37.530  31.837  29.238  1.00  0.00    -0.205 F 
ATOM     84  C   UNL A   1      36.196  31.559  32.635  1.00  0.00     0.022 A 
BRANCH  82  85
ATOM     85  S   UNL A   1      35.004  32.965  30.613  1.00  0.00     0.127 S 
ATOM     86  O   UNL A   1      34.078  33.048  31.739  1.00  0.00    -0.237 OA
ATOM     87  O   UNL A   1      35.736  34.199  30.325  1.00  0.00    -0.237 OA
ATOM     88  O   UNL A   1      34.503  32.271  29.437  1.00  0.00    -0.744 OA
ENDBRANCH  82  85
ENDBRANCH  54  78
BRANCH  66  89
ATOM     89  C   UNL A   1      44.352  34.370  29.801  1.00  0.00     0.023 A 
ATOM     90  C   UNL A   1      45.229  34.609  30.878  1.00  0.00     0.012 A 
ATOM     91  C   UNL A   1      43.967  35.444  28.975  1.00  0.00     0.148 A 
ATOM     92  C   UNL A   1      45.684  35.899  31.149  1.00  0.00     0.002 A 
ATOM     93  C   UNL A   1      44.467  36.717  29.218  1.00  0.00     0.091 A 
ATOM     94  F   UNL A   1      43.118  35.201  27.965  1.00  0.00    -0.205 F 
ATOM     95  C   UNL A   1      45.314  36.950  30.313  1.00  0.00     0.022 A 
BRANCH  93  96
ATOM     96  S   UNL A   1      44.125  38.110  28.136  1.00  0.00     0.127 S 
ATOM     97  O   UNL A   1      44.505  37.574  26.830  1.00  0.00    -0.237 OA
ATOM     98  O   UNL A   1      42.686  38.301  28.322  1.00  0.00    -0.237 OA
ATOM     99  O   UNL A   1      44.948  39.209  28.622  1.00  0.00    -0.744 OA
ENDBRANCH  93  96
ENDBRANCH  66  89
ENDBRANCH  40  41
ENDBRANCH  32  35
ENDBRANCH  30  31
ENDBRANCH  29  30
ENDBRANCH   1  29
TORSDOF 18
ENDMDL
MODEL 3
REMARK VINA RESULT:     -11.7      2.091      7.559
REMARK SMILES CCOc1ccccc1NC(=O)[C@H]1[C@@H]2C=C[C@@H]([C@@H]3C[C@H]23)[C@@H]1C(=O)NCCCCNC(=O)c1ccc(-c2c3nc(c(-c4cccc(S(=O)(=O)[O-])c4F)c4ccc([nH]4)c(-c4cccc(S(=O)(=O)[O-])c4F)c4nc(c(-c5cccc(S(=O)(=O)[O-])c5F)c5ccc2[nH]5)C=C4)C=C3)cc1
REMARK SMILES IDX 26 1 25 2 24 3 22 4 23 5 21 7 13 8 14 9 15 10 20 11 17 12
REMARK SMILES IDX 16 13 18 14 19 15 11 16 10 17 12 19 9 20 4 21 5 22 6 23 8 24
REMARK SMILES IDX 7 25 3 26 2 27 1 28 27 29 28 30 29 31 30 32 31 34 32 35
REMARK SMILES IDX 33 36 94 37 34 38 93 39 35 40 36 41 37 42 87 43 38 44 92 45
REMARK SMILES IDX 86 46 88 47 39 48 91 49 85 50 84 51 40 53 72 54 52 55 71 56
REMARK SMILES IDX 53 57 56 58 70 59 89 60 54 61 55 62 69 64 90 65 57 66 41 67
REMARK SMILES IDX 42 68 50 69 43 70 45 71 51 72 44 73 46 74 47 75 48 76 49 77
REMARK SMILES IDX 73 78 74 79 82 80 75 81 77 82 83 83 76 84 78 85 79 86 80 87
REMARK SMILES IDX 81 88 58 89 59 90 67 91 60 92 62 93 68 94 61 95 63 96 64 97
REMARK SMILES IDX 65 98 66 99
REMARK H PARENT 24 6 10 18 29 33 88 52 56 63
REMARK Flexibility Score: inf
ROOT
ATOM      1  C   UNL A   1      31.899  28.153  27.498  1.00  0.00     0.023 C 
ENDROOT
BRANCH   1   2
ATOM      2  C   UNL A   1      32.447  26.955  26.718  1.00  0.00     0.116 C 
BRANCH   2   3
ATOM      3  N   UNL A   1      31.784  25.722  27.096  1.00  0.00    -0.356 N 
ATOM      4  C   UNL A   1      31.869  24.448  26.625  1.00  0.00     0.224 C 
ATOM      5  O   UNL A   1      31.223  23.603  27.252  1.00  0.00    -0.275 OA
ATOM      6  H   UNL A   1      31.148  25.826  27.841  1.00  0.00     0.163 HD
BRANCH   4   7
ATOM      7  C   UNL A   1      32.857  24.040  25.509  1.00  0.00     0.098 C 
ATOM      8  C   UNL A   1      32.491  22.826  24.661  1.00  0.00     0.099 C 
ATOM      9  C   UNL A   1      33.443  21.610  24.966  1.00  0.00     0.028 C 
ATOM     10  C   UNL A   1      33.513  21.487  26.498  1.00  0.00    -0.026 C 
ATOM     11  C   UNL A   1      34.889  21.875  24.553  1.00  0.00     0.001 C 
ATOM     12  C   UNL A   1      34.274  23.748  26.119  1.00  0.00     0.028 C 
ATOM     13  C   UNL A   1      34.021  22.584  27.093  1.00  0.00    -0.026 C 
ATOM     14  C   UNL A   1      35.355  23.220  25.122  1.00  0.00     0.001 C 
ATOM     15  C   UNL A   1      35.387  22.920  23.628  1.00  0.00     0.009 C 
BRANCH   8  16
ATOM     16  C   UNL A   1      32.279  23.073  23.164  1.00  0.00     0.229 C 
ATOM     17  N   UNL A   1      32.274  24.226  22.442  1.00  0.00    -0.323 N 
ATOM     18  H   UNL A   1      32.017  23.998  21.520  1.00  0.00     0.170 HD
ATOM     19  O   UNL A   1      32.051  22.061  22.472  1.00  0.00    -0.274 OA
BRANCH  17  20
ATOM     20  C   UNL A   1      32.492  25.634  22.492  1.00  0.00     0.083 A 
ATOM     21  C   UNL A   1      31.454  26.381  23.087  1.00  0.00     0.142 A 
ATOM     22  C   UNL A   1      31.501  27.775  23.215  1.00  0.00     0.048 A 
ATOM     23  C   UNL A   1      32.612  28.473  22.757  1.00  0.00     0.004 A 
ATOM     24  C   UNL A   1      33.543  26.384  21.968  1.00  0.00     0.030 A 
ATOM     25  C   UNL A   1      33.628  27.776  22.123  1.00  0.00     0.002 A 
BRANCH  21  26
ATOM     26  O   UNL A   1      30.277  25.735  23.384  1.00  0.00    -0.492 OA
BRANCH  26  27
ATOM     27  C   UNL A   1      29.540  26.378  24.425  1.00  0.00     0.226 C 
ATOM     28  C   UNL A   1      28.162  26.704  23.872  1.00  0.00     0.049 C 
ENDBRANCH  26  27
ENDBRANCH  21  26
ENDBRANCH  17  20
ENDBRANCH   8  16
ENDBRANCH   4   7
ENDBRANCH   2   3
ENDBRANCH   1   2
BRANCH   1  29
ATOM     29  C   UNL A   1      31.419  29.315  26.625  1.00  0.00     0.023 C 
BRANCH  29  30
ATOM     30  C   UNL A   1      32.520  30.244  26.127  1.00  0.00     0.116 C 
BRANCH  30  31
ATOM     31  N   UNL A   1      32.275  31.636  26.476  1.00  0.00    -0.352 N 
ATOM     32  C   UNL A   1      32.987  32.454  27.326  1.00  0.00     0.251 C 
ATOM     33  H   UNL A   1      31.494  32.050  26.044  1.00  0.00     0.163 HD
ATOM     34  O   UNL A   1      32.553  33.556  27.622  1.00  0.00    -0.269 OA
BRANCH  32  35
ATOM     35  C   UNL A   1      34.267  31.974  27.897  1.00  0.00     0.039 A 
ATOM     36  C   UNL A   1      35.338  32.865  27.994  1.00  0.00     0.014 A 
ATOM     37  C   UNL A   1      34.402  30.659  28.351  1.00  0.00     0.014 A 
ATOM     38  C   UNL A   1      36.526  32.453  28.604  1.00  0.00     0.010 A 
ATOM     39  C   UNL A   1      35.555  30.278  29.032  1.00  0.00     0.010 A 
ATOM     40  C   UNL A   1      36.633  31.168  29.158  1.00  0.00    -0.014 A 
BRANCH  40  41
ATOM     41  C   UNL A   1      37.857  30.742  29.886  1.00  0.00     0.031 A 
ATOM     42  C   UNL A   1      38.807  29.753  29.268  1.00  0.00     0.074 A 
ATOM     43  C   UNL A   1      38.065  31.171  31.147  1.00  0.00     0.049 A 
ATOM     44  N   UNL A   1      39.898  29.234  29.769  1.00  0.00    -0.248 NA
ATOM     45  C   UNL A   1      38.472  29.260  27.923  1.00  0.00     0.031 C 
ATOM     46  C   UNL A   1      37.168  32.051  31.897  1.00  0.00     0.029 A 
ATOM     47  N   UNL A   1      39.079  30.897  32.031  1.00  0.00    -0.354 N 
ATOM     48  C   UNL A   1      40.354  28.323  28.825  1.00  0.00     0.074 A 
ATOM     49  C   UNL A   1      39.401  28.334  27.736  1.00  0.00     0.031 C 
ATOM     50  C   UNL A   1      37.667  32.240  33.129  1.00  0.00     0.029 A 
ATOM     51  C   UNL A   1      38.900  31.472  33.267  1.00  0.00     0.049 A 
ATOM     52  H   UNL A   1      39.859  30.341  31.801  1.00  0.00     0.167 HD
ATOM     53  C   UNL A   1      41.476  27.563  28.847  1.00  0.00     0.034 A 
ATOM     54  C   UNL A   1      39.635  31.380  34.393  1.00  0.00     0.034 A 
ATOM     55  C   UNL A   1      42.437  27.578  29.916  1.00  0.00     0.049 A 
ATOM     56  C   UNL A   1      40.905  30.577  34.379  1.00  0.00     0.074 A 
ATOM     57  C   UNL A   1      43.659  26.934  29.984  1.00  0.00     0.029 A 
ATOM     58  N   UNL A   1      42.274  28.251  31.117  1.00  0.00    -0.354 N 
ATOM     59  N   UNL A   1      41.418  29.866  33.405  1.00  0.00    -0.248 NA
ATOM     60  C   UNL A   1      41.719  30.595  35.603  1.00  0.00     0.031 C 
ATOM     61  C   UNL A   1      44.217  27.185  31.243  1.00  0.00     0.029 A 
ATOM     62  C   UNL A   1      43.362  28.022  31.944  1.00  0.00     0.049 A 
ATOM     63  H   UNL A   1      41.498  28.812  31.350  1.00  0.00     0.167 HD
ATOM     64  C   UNL A   1      42.626  29.373  33.886  1.00  0.00     0.074 A 
ATOM     65  C   UNL A   1      42.777  29.887  35.233  1.00  0.00     0.031 C 
ATOM     66  C   UNL A   1      43.522  28.562  33.270  1.00  0.00     0.034 A 
BRANCH  53  67
ATOM     67  C   UNL A   1      41.734  26.673  27.656  1.00  0.00     0.023 A 
ATOM     68  C   UNL A   1      42.341  27.205  26.499  1.00  0.00     0.012 A 
ATOM     69  C   UNL A   1      41.397  25.306  27.689  1.00  0.00     0.148 A 
ATOM     70  C   UNL A   1      42.556  26.406  25.377  1.00  0.00     0.002 A 
ATOM     71  C   UNL A   1      41.663  24.504  26.585  1.00  0.00     0.091 A 
ATOM     72  F   UNL A   1      40.802  24.819  28.787  1.00  0.00    -0.205 F 
ATOM     73  C   UNL A   1      42.226  25.055  25.423  1.00  0.00     0.022 A 
BRANCH  71  74
ATOM     74  S   UNL A   1      41.351  22.736  26.582  1.00  0.00     0.127 S 
ATOM     75  O   UNL A   1      41.916  22.334  27.870  1.00  0.00    -0.237 OA
ATOM     76  O   UNL A   1      39.891  22.679  26.514  1.00  0.00    -0.237 OA
ATOM     77  O   UNL A   1      42.032  22.212  25.406  1.00  0.00    -0.744 OA
ENDBRANCH  71  74
ENDBRANCH  53  67
BRANCH  54  78
ATOM     78  C   UNL A   1      39.195  32.115  35.611  1.00  0.00     0.023 A 
ATOM     79  C   UNL A   1      39.425  33.499  35.715  1.00  0.00     0.012 A 
ATOM     80  C   UNL A   1      38.482  31.455  36.633  1.00  0.00     0.148 A 
ATOM     81  C   UNL A   1      38.970  34.213  36.826  1.00  0.00     0.002 A 
ATOM     82  C   UNL A   1      37.983  32.181  37.706  1.00  0.00     0.091 A 
ATOM     83  F   UNL A   1      38.281  30.136  36.514  1.00  0.00    -0.205 F 
ATOM     84  C   UNL A   1      38.240  33.557  37.814  1.00  0.00     0.022 A 
BRANCH  82  85
ATOM     85  S   UNL A   1      36.911  31.452  38.950  1.00  0.00     0.127 S 
ATOM     86  O   UNL A   1      37.727  31.574  40.155  1.00  0.00    -0.237 OA
ATOM     87  O   UNL A   1      35.749  32.339  38.898  1.00  0.00    -0.237 OA
ATOM     88  O   UNL A   1      36.653  30.091  38.502  1.00  0.00    -0.744 OA
ENDBRANCH  82  85
ENDBRANCH  54  78
BRANCH  66  89
ATOM     89  C   UNL A   1      44.771  28.194  34.031  1.00  0.00     0.023 A 
ATOM     90  C   UNL A   1      45.903  29.032  33.979  1.00  0.00     0.012 A 
ATOM     91  C   UNL A   1      44.795  27.053  34.857  1.00  0.00     0.148 A 
ATOM     92  C   UNL A   1      47.049  28.722  34.709  1.00  0.00     0.002 A 
ATOM     93  C   UNL A   1      45.922  26.779  35.623  1.00  0.00     0.091 A 
ATOM     94  F   UNL A   1      43.716  26.258  34.880  1.00  0.00    -0.205 F 
ATOM     95  C   UNL A   1      47.055  27.603  35.540  1.00  0.00     0.022 A 
BRANCH  93  96
ATOM     96  S   UNL A   1      45.982  25.419  36.795  1.00  0.00     0.127 S 
ATOM     97  O   UNL A   1      46.276  24.285  35.920  1.00  0.00    -0.237 OA
ATOM     98  O   UNL A   1      47.085  25.814  37.672  1.00  0.00    -0.237 OA
ATOM     99  O   UNL A   1      44.678  25.385  37.442  1.00  0.00    -0.744 OA
ENDBRANCH  93  96
ENDBRANCH  66  89
ENDBRANCH  40  41
ENDBRANCH  32  35
ENDBRANCH  30  31
ENDBRANCH  29  30
ENDBRANCH   1  29
TORSDOF 18
ENDMDL
