MODEL 1
REMARK VINA RESULT:     -11.1      0.000      0.000
REMARK SMILES C[C@@H](O)[C@@H](C)Sc1ccc(C(=O)NCCCCNC(=O)c2ccc(-c3c4nc(c(-c5cccc(S(=O)(=O)[O-])c5F)c5ccc([nH]5)c(-c5cccc(S(=O)(=O)[O-])c5F)c5nc(c(-c6cccc(S(=O)(=O)[O-])c6F)c6ccc3[nH]6)C=C5)C=C4)cc2)cn1
REMARK SMILES IDX 15 1 14 2 13 3 11 4 12 5 10 7 7 8 8 9 85 10 9 11 84 12 6 13
REMARK SMILES IDX 4 14 5 15 2 16 1 17 3 18 16 20 17 21 18 22 19 23 20 25 21 26
REMARK SMILES IDX 22 27 83 28 23 29 82 30 24 31 25 32 26 33 76 34 27 35 81 36
REMARK SMILES IDX 75 37 77 38 28 39 80 40 74 41 73 42 29 44 61 45 41 46 60 47
REMARK SMILES IDX 42 48 45 49 59 50 78 51 43 52 44 53 58 55 79 56 46 57 30 58
REMARK SMILES IDX 31 59 39 60 32 61 34 62 40 63 33 64 35 65 36 66 37 67 38 68
REMARK SMILES IDX 62 69 63 70 71 71 64 72 66 73 72 74 65 75 67 76 68 77 69 78
REMARK SMILES IDX 70 79 47 80 48 81 56 82 49 83 51 84 57 85 50 86 52 87 53 88
REMARK SMILES IDX 54 89 55 90
REMARK H PARENT 13 6 3 19 18 24 77 43 45 54
REMARK Flexibility Score: inf
ROOT
ATOM      1  C   UNL A   1      30.894  28.788  24.153  1.00  0.00     0.023 C 
ENDROOT
BRANCH   1   2
ATOM      2  C   UNL A   1      31.946  28.899  23.049  1.00  0.00     0.116 C 
BRANCH   2   3
ATOM      3  N   UNL A   1      31.767  27.854  22.064  1.00  0.00    -0.352 N 
ATOM      4  C   UNL A   1      32.116  26.531  22.027  1.00  0.00     0.252 C 
ATOM      5  O   UNL A   1      31.787  25.894  21.025  1.00  0.00    -0.269 OA
ATOM      6  H   UNL A   1      31.295  28.156  21.253  1.00  0.00     0.163 HD
BRANCH   4   7
ATOM      7  C   UNL A   1      32.827  25.808  23.116  1.00  0.00     0.058 A 
ATOM      8  C   UNL A   1      33.997  24.159  25.021  1.00  0.00     0.096 A 
ATOM      9  C   UNL A   1      34.314  25.510  25.001  1.00  0.00     0.036 A 
ATOM     10  N   UNL A   1      33.148  23.610  24.133  1.00  0.00    -0.249 NA
ATOM     11  C   UNL A   1      33.734  26.337  24.030  1.00  0.00     0.018 A 
ATOM     12  C   UNL A   1      32.592  24.437  23.209  1.00  0.00     0.126 A 
BRANCH   8  13
ATOM     13  S   UNL A   1      34.833  23.079  26.156  1.00  0.00    -0.101 SA
BRANCH  13  14
ATOM     14  C   UNL A   1      35.994  22.156  25.047  1.00  0.00     0.078 C 
ATOM     15  C   UNL A   1      35.738  20.650  25.089  1.00  0.00     0.022 C 
BRANCH  14  16
ATOM     16  C   UNL A   1      37.476  22.540  25.272  1.00  0.00     0.124 C 
ATOM     17  C   UNL A   1      37.631  23.952  25.836  1.00  0.00     0.039 C 
BRANCH  16  18
ATOM     18  O   UNL A   1      38.072  21.645  26.221  1.00  0.00    -0.392 OA
ATOM     19  H   UNL A   1      38.987  21.918  26.393  1.00  0.00     0.210 HD
ENDBRANCH  16  18
ENDBRANCH  14  16
ENDBRANCH  13  14
ENDBRANCH   8  13
ENDBRANCH   4   7
ENDBRANCH   2   3
ENDBRANCH   1   2
BRANCH   1  20
ATOM     20  C   UNL A   1      31.478  28.668  25.567  1.00  0.00     0.023 C 
BRANCH  20  21
ATOM     21  C   UNL A   1      32.721  29.517  25.832  1.00  0.00     0.116 C 
BRANCH  21  22
ATOM     22  N   UNL A   1      32.410  30.882  26.230  1.00  0.00    -0.352 N 
ATOM     23  C   UNL A   1      33.098  31.710  27.085  1.00  0.00     0.251 C 
ATOM     24  H   UNL A   1      31.596  31.264  25.831  1.00  0.00     0.163 HD
ATOM     25  O   UNL A   1      32.626  32.796  27.390  1.00  0.00    -0.269 OA
BRANCH  23  26
ATOM     26  C   UNL A   1      34.385  31.264  27.660  1.00  0.00     0.039 A 
ATOM     27  C   UNL A   1      35.366  32.224  27.918  1.00  0.00     0.014 A 
ATOM     28  C   UNL A   1      34.623  29.919  27.955  1.00  0.00     0.014 A 
ATOM     29  C   UNL A   1      36.563  31.838  28.524  1.00  0.00     0.010 A 
ATOM     30  C   UNL A   1      35.784  29.550  28.629  1.00  0.00     0.010 A 
ATOM     31  C   UNL A   1      36.769  30.504  28.915  1.00  0.00    -0.014 A 
BRANCH  31  32
ATOM     32  C   UNL A   1      38.001  30.118  29.652  1.00  0.00     0.031 A 
ATOM     33  C   UNL A   1      38.262  30.627  31.043  1.00  0.00     0.074 A 
ATOM     34  C   UNL A   1      38.913  29.337  29.038  1.00  0.00     0.049 A 
ATOM     35  N   UNL A   1      39.252  30.339  31.850  1.00  0.00    -0.248 NA
ATOM     36  C   UNL A   1      37.309  31.604  31.593  1.00  0.00     0.031 C 
ATOM     37  C   UNL A   1      38.827  28.867  27.653  1.00  0.00     0.029 A 
ATOM     38  N   UNL A   1      40.092  28.808  29.495  1.00  0.00    -0.354 N 
ATOM     39  C   UNL A   1      39.054  31.112  32.988  1.00  0.00     0.074 A 
ATOM     40  C   UNL A   1      37.876  31.916  32.750  1.00  0.00     0.031 C 
ATOM     41  C   UNL A   1      39.893  28.099  27.382  1.00  0.00     0.029 A 
ATOM     42  C   UNL A   1      40.748  28.036  28.564  1.00  0.00     0.049 A 
ATOM     43  H   UNL A   1      40.438  28.964  30.404  1.00  0.00     0.167 HD
ATOM     44  C   UNL A   1      39.769  31.128  34.139  1.00  0.00     0.034 A 
ATOM     45  C   UNL A   1      41.901  27.345  28.655  1.00  0.00     0.034 A 
ATOM     46  C   UNL A   1      40.923  30.305  34.382  1.00  0.00     0.049 A 
ATOM     47  C   UNL A   1      42.635  27.325  29.967  1.00  0.00     0.074 A 
ATOM     48  C   UNL A   1      41.665  30.182  35.544  1.00  0.00     0.029 A 
ATOM     49  N   UNL A   1      41.510  29.469  33.445  1.00  0.00    -0.354 N 
ATOM     50  N   UNL A   1      42.332  27.925  31.092  1.00  0.00    -0.248 NA
ATOM     51  C   UNL A   1      43.845  26.494  30.034  1.00  0.00     0.031 C 
ATOM     52  C   UNL A   1      42.717  29.292  35.300  1.00  0.00     0.029 A 
ATOM     53  C   UNL A   1      42.610  28.832  33.997  1.00  0.00     0.049 A 
ATOM     54  H   UNL A   1      41.192  29.345  32.522  1.00  0.00     0.167 HD
ATOM     55  C   UNL A   1      43.292  27.518  32.011  1.00  0.00     0.074 A 
ATOM     56  C   UNL A   1      44.167  26.595  31.316  1.00  0.00     0.031 C 
ATOM     57  C   UNL A   1      43.448  27.886  33.307  1.00  0.00     0.034 A 
BRANCH  44  58
ATOM     58  C   UNL A   1      39.287  32.030  35.248  1.00  0.00     0.023 A 
ATOM     59  C   UNL A   1      38.340  31.549  36.175  1.00  0.00     0.012 A 
ATOM     60  C   UNL A   1      39.810  33.329  35.409  1.00  0.00     0.148 A 
ATOM     61  C   UNL A   1      37.892  32.354  37.222  1.00  0.00     0.002 A 
ATOM     62  C   UNL A   1      39.395  34.109  36.483  1.00  0.00     0.091 A 
ATOM     63  F   UNL A   1      40.694  33.779  34.508  1.00  0.00    -0.205 F 
ATOM     64  C   UNL A   1      38.427  33.629  37.381  1.00  0.00     0.022 A 
BRANCH  62  65
ATOM     65  S   UNL A   1      40.083  35.733  36.825  1.00  0.00     0.127 S 
ATOM     66  O   UNL A   1      39.422  36.074  38.084  1.00  0.00    -0.237 OA
ATOM     67  O   UNL A   1      41.512  35.443  36.946  1.00  0.00    -0.237 OA
ATOM     68  O   UNL A   1      39.727  36.569  35.687  1.00  0.00    -0.744 OA
ENDBRANCH  62  65
ENDBRANCH  44  58
BRANCH  45  69
ATOM     69  C   UNL A   1      42.384  26.548  27.492  1.00  0.00     0.023 A 
ATOM     70  C   UNL A   1      43.177  27.168  26.506  1.00  0.00     0.012 A 
ATOM     71  C   UNL A   1      42.087  25.178  27.372  1.00  0.00     0.148 A 
ATOM     72  C   UNL A   1      43.631  26.447  25.401  1.00  0.00     0.002 A 
ATOM     73  C   UNL A   1      42.592  24.451  26.300  1.00  0.00     0.091 A 
ATOM     74  F   UNL A   1      41.324  24.608  28.316  1.00  0.00    -0.205 F 
ATOM     75  C   UNL A   1      43.348  25.088  25.303  1.00  0.00     0.022 A 
BRANCH  73  76
ATOM     76  S   UNL A   1      42.394  22.671  26.167  1.00  0.00     0.127 S 
ATOM     77  O   UNL A   1      43.050  22.205  27.385  1.00  0.00    -0.237 OA
ATOM     78  O   UNL A   1      40.938  22.531  26.157  1.00  0.00    -0.237 OA
ATOM     79  O   UNL A   1      43.040  22.298  24.916  1.00  0.00    -0.744 OA
ENDBRANCH  73  76
ENDBRANCH  45  69
BRANCH  57  80
ATOM     80  C   UNL A   1      44.590  27.263  34.068  1.00  0.00     0.023 A 
ATOM     81  C   UNL A   1      45.880  27.829  33.994  1.00  0.00     0.012 A 
ATOM     82  C   UNL A   1      44.381  26.132  34.881  1.00  0.00     0.148 A 
ATOM     83  C   UNL A   1      46.951  27.247  34.671  1.00  0.00     0.002 A 
ATOM     84  C   UNL A   1      45.442  25.590  35.596  1.00  0.00     0.091 A 
ATOM     85  F   UNL A   1      43.154  25.592  34.927  1.00  0.00    -0.205 F 
ATOM     86  C   UNL A   1      46.730  26.134  35.478  1.00  0.00     0.022 A 
BRANCH  84  87
ATOM     87  S   UNL A   1      45.225  24.219  36.737  1.00  0.00     0.127 S 
ATOM     88  O   UNL A   1      44.766  23.156  35.842  1.00  0.00    -0.237 OA
ATOM     89  O   UNL A   1      46.578  24.031  37.262  1.00  0.00    -0.237 OA
ATOM     90  O   UNL A   1      44.254  24.674  37.723  1.00  0.00    -0.744 OA
ENDBRANCH  84  87
ENDBRANCH  57  80
ENDBRANCH  31  32
ENDBRANCH  23  26
ENDBRANCH  21  22
ENDBRANCH  20  21
ENDBRANCH   1  20
TORSDOF 18
ENDMDL
MODEL 2
REMARK VINA RESULT:     -11.0      1.033      1.667
REMARK SMILES C[C@@H](O)[C@@H](C)Sc1ccc(C(=O)NCCCCNC(=O)c2ccc(-c3c4nc(c(-c5cccc(S(=O)(=O)[O-])c5F)c5ccc([nH]5)c(-c5cccc(S(=O)(=O)[O-])c5F)c5nc(c(-c6cccc(S(=O)(=O)[O-])c6F)c6ccc3[nH]6)C=C5)C=C4)cc2)cn1
REMARK SMILES IDX 15 1 14 2 13 3 11 4 12 5 10 7 7 8 8 9 85 10 9 11 84 12 6 13
REMARK SMILES IDX 4 14 5 15 2 16 1 17 3 18 16 20 17 21 18 22 19 23 20 25 21 26
REMARK SMILES IDX 22 27 83 28 23 29 82 30 24 31 25 32 26 33 76 34 27 35 81 36
REMARK SMILES IDX 75 37 77 38 28 39 80 40 74 41 73 42 29 44 61 45 41 46 60 47
REMARK SMILES IDX 42 48 45 49 59 50 78 51 43 52 44 53 58 55 79 56 46 57 30 58
REMARK SMILES IDX 31 59 39 60 32 61 34 62 40 63 33 64 35 65 36 66 37 67 38 68
REMARK SMILES IDX 62 69 63 70 71 71 64 72 66 73 72 74 65 75 67 76 68 77 69 78
REMARK SMILES IDX 70 79 47 80 48 81 56 82 49 83 51 84 57 85 50 86 52 87 53 88
REMARK SMILES IDX 54 89 55 90
REMARK H PARENT 13 6 3 19 18 24 77 43 45 54
REMARK Flexibility Score: inf
ROOT
ATOM      1  C   UNL A   1      33.140  29.086  23.265  1.00  0.00     0.023 C 
ENDROOT
BRANCH   1   2
ATOM      2  C   UNL A   1      32.132  27.958  23.041  1.00  0.00     0.116 C 
BRANCH   2   3
ATOM      3  N   UNL A   1      32.519  27.142  21.910  1.00  0.00    -0.352 N 
ATOM      4  C   UNL A   1      32.828  25.815  21.774  1.00  0.00     0.252 C 
ATOM      5  O   UNL A   1      33.100  25.419  20.639  1.00  0.00    -0.269 OA
ATOM      6  H   UNL A   1      32.570  27.643  21.064  1.00  0.00     0.163 HD
BRANCH   4   7
ATOM      7  C   UNL A   1      32.823  24.823  22.882  1.00  0.00     0.058 A 
ATOM      8  C   UNL A   1      33.102  23.148  25.081  1.00  0.00     0.096 A 
ATOM      9  C   UNL A   1      32.047  22.949  24.201  1.00  0.00     0.036 A 
ATOM     10  N   UNL A   1      33.994  24.142  24.917  1.00  0.00    -0.249 NA
ATOM     11  C   UNL A   1      31.901  23.804  23.101  1.00  0.00     0.018 A 
ATOM     12  C   UNL A   1      33.832  24.951  23.835  1.00  0.00     0.126 A 
BRANCH   8  13
ATOM     13  S   UNL A   1      33.215  22.161  26.553  1.00  0.00    -0.101 SA
BRANCH  13  14
ATOM     14  C   UNL A   1      33.855  20.549  25.904  1.00  0.00     0.078 C 
ATOM     15  C   UNL A   1      34.930  20.757  24.838  1.00  0.00     0.022 C 
BRANCH  14  16
ATOM     16  C   UNL A   1      32.728  19.583  25.468  1.00  0.00     0.124 C 
ATOM     17  C   UNL A   1      32.993  18.963  24.097  1.00  0.00     0.039 C 
BRANCH  16  18
ATOM     18  O   UNL A   1      32.625  18.500  26.403  1.00  0.00    -0.392 OA
ATOM     19  H   UNL A   1      32.195  18.813  27.214  1.00  0.00     0.210 HD
ENDBRANCH  16  18
ENDBRANCH  14  16
ENDBRANCH  13  14
ENDBRANCH   8  13
ENDBRANCH   4   7
ENDBRANCH   2   3
ENDBRANCH   1   2
BRANCH   1  20
ATOM     20  C   UNL A   1      33.735  29.125  24.679  1.00  0.00     0.023 C 
BRANCH  20  21
ATOM     21  C   UNL A   1      32.715  29.221  25.812  1.00  0.00     0.116 C 
BRANCH  21  22
ATOM     22  N   UNL A   1      32.395  30.592  26.182  1.00  0.00    -0.352 N 
ATOM     23  C   UNL A   1      33.077  31.441  27.022  1.00  0.00     0.251 C 
ATOM     24  H   UNL A   1      31.580  30.961  25.775  1.00  0.00     0.163 HD
ATOM     25  O   UNL A   1      32.599  32.529  27.305  1.00  0.00    -0.269 OA
BRANCH  23  26
ATOM     26  C   UNL A   1      34.367  31.014  27.607  1.00  0.00     0.039 A 
ATOM     27  C   UNL A   1      35.376  31.966  27.759  1.00  0.00     0.014 A 
ATOM     28  C   UNL A   1      34.579  29.694  28.015  1.00  0.00     0.014 A 
ATOM     29  C   UNL A   1      36.578  31.605  28.371  1.00  0.00     0.010 A 
ATOM     30  C   UNL A   1      35.746  29.355  28.694  1.00  0.00     0.010 A 
ATOM     31  C   UNL A   1      36.761  30.305  28.874  1.00  0.00    -0.014 A 
BRANCH  31  32
ATOM     32  C   UNL A   1      37.999  29.954  29.616  1.00  0.00     0.031 A 
ATOM     33  C   UNL A   1      38.245  30.476  31.005  1.00  0.00     0.074 A 
ATOM     34  C   UNL A   1      38.932  29.191  29.009  1.00  0.00     0.049 A 
ATOM     35  N   UNL A   1      39.239  30.218  31.816  1.00  0.00    -0.248 NA
ATOM     36  C   UNL A   1      37.266  31.433  31.547  1.00  0.00     0.031 C 
ATOM     37  C   UNL A   1      38.861  28.712  27.626  1.00  0.00     0.029 A 
ATOM     38  N   UNL A   1      40.122  28.694  29.472  1.00  0.00    -0.354 N 
ATOM     39  C   UNL A   1      39.019  30.992  32.949  1.00  0.00     0.074 A 
ATOM     40  C   UNL A   1      37.822  31.765  32.704  1.00  0.00     0.031 C 
ATOM     41  C   UNL A   1      39.946  27.968  27.362  1.00  0.00     0.029 A 
ATOM     42  C   UNL A   1      40.799  27.934  28.546  1.00  0.00     0.049 A 
ATOM     43  H   UNL A   1      40.462  28.864  30.380  1.00  0.00     0.167 HD
ATOM     44  C   UNL A   1      39.730  31.032  34.102  1.00  0.00     0.034 A 
ATOM     45  C   UNL A   1      41.968  27.271  28.644  1.00  0.00     0.034 A 
ATOM     46  C   UNL A   1      40.904  30.238  34.352  1.00  0.00     0.049 A 
ATOM     47  C   UNL A   1      42.700  27.277  29.958  1.00  0.00     0.074 A 
ATOM     48  C   UNL A   1      41.645  30.140  35.517  1.00  0.00     0.029 A 
ATOM     49  N   UNL A   1      41.514  29.411  33.421  1.00  0.00    -0.354 N 
ATOM     50  N   UNL A   1      42.379  27.875  31.079  1.00  0.00    -0.248 NA
ATOM     51  C   UNL A   1      43.929  26.476  30.033  1.00  0.00     0.031 C 
ATOM     52  C   UNL A   1      42.719  29.274  35.280  1.00  0.00     0.029 A 
ATOM     53  C   UNL A   1      42.627  28.805  33.980  1.00  0.00     0.049 A 
ATOM     54  H   UNL A   1      41.201  29.275  32.498  1.00  0.00     0.167 HD
ATOM     55  C   UNL A   1      43.346  27.497  32.003  1.00  0.00     0.074 A 
ATOM     56  C   UNL A   1      44.245  26.591  31.315  1.00  0.00     0.031 C 
ATOM     57  C   UNL A   1      43.490  27.876  33.297  1.00  0.00     0.034 A 
BRANCH  44  58
ATOM     58  C   UNL A   1      39.224  31.928  35.205  1.00  0.00     0.023 A 
ATOM     59  C   UNL A   1      38.246  31.447  36.099  1.00  0.00     0.012 A 
ATOM     60  C   UNL A   1      39.753  33.220  35.393  1.00  0.00     0.148 A 
ATOM     61  C   UNL A   1      37.774  32.247  37.139  1.00  0.00     0.002 A 
ATOM     62  C   UNL A   1      39.313  33.995  36.461  1.00  0.00     0.091 A 
ATOM     63  F   UNL A   1      40.667  33.671  34.522  1.00  0.00    -0.205 F 
ATOM     64  C   UNL A   1      38.315  33.515  37.326  1.00  0.00     0.022 A 
BRANCH  62  65
ATOM     65  S   UNL A   1      40.004  35.609  36.838  1.00  0.00     0.127 S 
ATOM     66  O   UNL A   1      39.614  36.380  35.658  1.00  0.00    -0.237 OA
ATOM     67  O   UNL A   1      39.290  35.970  38.064  1.00  0.00    -0.237 OA
ATOM     68  O   UNL A   1      41.436  35.406  37.006  1.00  0.00    -0.744 OA
ENDBRANCH  62  65
ENDBRANCH  44  58
BRANCH  45  69
ATOM     69  C   UNL A   1      42.474  26.480  27.488  1.00  0.00     0.023 A 
ATOM     70  C   UNL A   1      43.319  27.093  26.542  1.00  0.00     0.012 A 
ATOM     71  C   UNL A   1      42.145  25.120  27.333  1.00  0.00     0.148 A 
ATOM     72  C   UNL A   1      43.796  26.378  25.443  1.00  0.00     0.002 A 
ATOM     73  C   UNL A   1      42.672  24.397  26.269  1.00  0.00     0.091 A 
ATOM     74  F   UNL A   1      41.333  24.556  28.238  1.00  0.00    -0.205 F 
ATOM     75  C   UNL A   1      43.481  25.029  25.312  1.00  0.00     0.022 A 
BRANCH  73  76
ATOM     76  S   UNL A   1      42.431  22.626  26.099  1.00  0.00     0.127 S 
ATOM     77  O   UNL A   1      43.058  22.362  24.806  1.00  0.00    -0.237 OA
ATOM     78  O   UNL A   1      43.163  22.110  27.256  1.00  0.00    -0.237 OA
ATOM     79  O   UNL A   1      40.991  22.418  26.160  1.00  0.00    -0.744 OA
ENDBRANCH  73  76
ENDBRANCH  45  69
BRANCH  57  80
ATOM     80  C   UNL A   1      44.645  27.285  34.065  1.00  0.00     0.023 A 
ATOM     81  C   UNL A   1      45.909  27.909  34.028  1.00  0.00     0.012 A 
ATOM     82  C   UNL A   1      44.472  26.126  34.846  1.00  0.00     0.148 A 
ATOM     83  C   UNL A   1      46.993  27.358  34.711  1.00  0.00     0.002 A 
ATOM     84  C   UNL A   1      45.543  25.614  35.568  1.00  0.00     0.091 A 
ATOM     85  F   UNL A   1      43.269  25.532  34.857  1.00  0.00    -0.205 F 
ATOM     86  C   UNL A   1      46.808  26.218  35.488  1.00  0.00     0.022 A 
BRANCH  84  87
ATOM     87  S   UNL A   1      45.367  24.208  36.672  1.00  0.00     0.127 S 
ATOM     88  O   UNL A   1      46.729  24.055  37.180  1.00  0.00    -0.237 OA
ATOM     89  O   UNL A   1      44.401  24.700  37.655  1.00  0.00    -0.237 OA
ATOM     90  O   UNL A   1      44.877  23.113  35.844  1.00  0.00    -0.744 OA
ENDBRANCH  84  87
ENDBRANCH  57  80
ENDBRANCH  31  32
ENDBRANCH  23  26
ENDBRANCH  21  22
ENDBRANCH  20  21
ENDBRANCH   1  20
TORSDOF 18
ENDMDL
MODEL 3
REMARK VINA RESULT:     -10.8      1.855      2.222
REMARK SMILES C[C@@H](O)[C@@H](C)Sc1ccc(C(=O)NCCCCNC(=O)c2ccc(-c3c4nc(c(-c5cccc(S(=O)(=O)[O-])c5F)c5ccc([nH]5)c(-c5cccc(S(=O)(=O)[O-])c5F)c5nc(c(-c6cccc(S(=O)(=O)[O-])c6F)c6ccc3[nH]6)C=C5)C=C4)cc2)cn1
REMARK SMILES IDX 15 1 14 2 13 3 11 4 12 5 10 7 7 8 8 9 85 10 9 11 84 12 6 13
REMARK SMILES IDX 4 14 5 15 2 16 1 17 3 18 16 20 17 21 18 22 19 23 20 25 21 26
REMARK SMILES IDX 22 27 83 28 23 29 82 30 24 31 25 32 26 33 76 34 27 35 81 36
REMARK SMILES IDX 75 37 77 38 28 39 80 40 74 41 73 42 29 44 61 45 41 46 60 47
REMARK SMILES IDX 42 48 45 49 59 50 78 51 43 52 44 53 58 55 79 56 46 57 30 58
REMARK SMILES IDX 31 59 39 60 32 61 34 62 40 63 33 64 35 65 36 66 37 67 38 68
REMARK SMILES IDX 62 69 63 70 71 71 64 72 66 73 72 74 65 75 67 76 68 77 69 78
REMARK SMILES IDX 70 79 47 80 48 81 56 82 49 83 51 84 57 85 50 86 52 87 53 88
REMARK SMILES IDX 54 89 55 90
REMARK H PARENT 13 6 3 19 18 24 77 43 45 54
REMARK Flexibility Score: inf
ROOT
ATOM      1  C   UNL A   1      31.012  29.641  24.554  1.00  0.00     0.023 C 
ENDROOT
BRANCH   1   2
ATOM      2  C   UNL A   1      30.297  29.357  23.232  1.00  0.00     0.116 C 
BRANCH   2   3
ATOM      3  N   UNL A   1      29.273  28.350  23.409  1.00  0.00    -0.352 N 
ATOM      4  C   UNL A   1      29.299  27.054  23.847  1.00  0.00     0.252 C 
ATOM      5  O   UNL A   1      28.220  26.461  23.903  1.00  0.00    -0.269 OA
ATOM      6  H   UNL A   1      28.371  28.662  23.166  1.00  0.00     0.163 HD
BRANCH   4   7
ATOM      7  C   UNL A   1      30.521  26.329  24.286  1.00  0.00     0.058 A 
ATOM      8  C   UNL A   1      32.665  24.992  25.442  1.00  0.00     0.096 A 
ATOM      9  C   UNL A   1      32.638  25.178  24.066  1.00  0.00     0.036 A 
ATOM     10  N   UNL A   1      31.674  25.424  26.242  1.00  0.00    -0.249 NA
ATOM     11  C   UNL A   1      31.549  25.840  23.485  1.00  0.00     0.018 A 
ATOM     12  C   UNL A   1      30.634  26.072  25.652  1.00  0.00     0.126 A 
BRANCH   8  13
ATOM     13  S   UNL A   1      33.969  24.032  26.172  1.00  0.00    -0.101 SA
BRANCH  13  14
ATOM     14  C   UNL A   1      33.133  22.416  26.513  1.00  0.00     0.078 C 
ATOM     15  C   UNL A   1      34.110  21.382  27.072  1.00  0.00     0.022 C 
BRANCH  14  16
ATOM     16  C   UNL A   1      32.303  21.900  25.313  1.00  0.00     0.124 C 
ATOM     17  C   UNL A   1      33.179  21.283  24.224  1.00  0.00     0.039 C 
BRANCH  16  18
ATOM     18  O   UNL A   1      31.398  20.877  25.750  1.00  0.00    -0.392 OA
ATOM     19  H   UNL A   1      31.122  20.343  24.988  1.00  0.00     0.210 HD
ENDBRANCH  16  18
ENDBRANCH  14  16
ENDBRANCH  13  14
ENDBRANCH   8  13
ENDBRANCH   4   7
ENDBRANCH   2   3
ENDBRANCH   1   2
BRANCH   1  20
ATOM     20  C   UNL A   1      32.508  29.298  24.545  1.00  0.00     0.023 C 
BRANCH  20  21
ATOM     21  C   UNL A   1      33.255  29.612  25.841  1.00  0.00     0.116 C 
BRANCH  21  22
ATOM     22  N   UNL A   1      32.942  30.927  26.380  1.00  0.00    -0.352 N 
ATOM     23  C   UNL A   1      33.618  31.652  27.332  1.00  0.00     0.251 C 
ATOM     24  H   UNL A   1      32.137  31.355  26.011  1.00  0.00     0.163 HD
ATOM     25  O   UNL A   1      33.145  32.701  27.746  1.00  0.00    -0.269 OA
BRANCH  23  26
ATOM     26  C   UNL A   1      34.893  31.138  27.878  1.00  0.00     0.039 A 
ATOM     27  C   UNL A   1      35.968  32.021  27.999  1.00  0.00     0.014 A 
ATOM     28  C   UNL A   1      35.027  29.806  28.279  1.00  0.00     0.014 A 
ATOM     29  C   UNL A   1      37.160  31.578  28.574  1.00  0.00     0.010 A 
ATOM     30  C   UNL A   1      36.189  29.389  28.923  1.00  0.00     0.010 A 
ATOM     31  C   UNL A   1      37.271  30.268  29.072  1.00  0.00    -0.014 A 
BRANCH  31  32
ATOM     32  C   UNL A   1      38.505  29.832  29.776  1.00  0.00     0.031 A 
ATOM     33  C   UNL A   1      38.835  30.347  31.150  1.00  0.00     0.074 A 
ATOM     34  C   UNL A   1      39.358  28.999  29.146  1.00  0.00     0.049 A 
ATOM     35  N   UNL A   1      39.834  30.022  31.931  1.00  0.00    -0.248 NA
ATOM     36  C   UNL A   1      37.948  31.376  31.715  1.00  0.00     0.031 C 
ATOM     37  C   UNL A   1      39.206  28.515  27.772  1.00  0.00     0.029 A 
ATOM     38  N   UNL A   1      40.524  28.419  29.574  1.00  0.00    -0.354 N 
ATOM     39  C   UNL A   1      39.710  30.819  33.062  1.00  0.00     0.074 A 
ATOM     40  C   UNL A   1      38.565  31.676  32.849  1.00  0.00     0.031 C 
ATOM     41  C   UNL A   1      40.224  27.692  27.479  1.00  0.00     0.029 A 
ATOM     42  C   UNL A   1      41.112  27.604  28.634  1.00  0.00     0.049 A 
ATOM     43  H   UNL A   1      40.905  28.571  30.469  1.00  0.00     0.167 HD
ATOM     44  C   UNL A   1      40.461  30.816  34.190  1.00  0.00     0.034 A 
ATOM     45  C   UNL A   1      42.232  26.859  28.700  1.00  0.00     0.034 A 
ATOM     46  C   UNL A   1      41.581  29.940  34.409  1.00  0.00     0.049 A 
ATOM     47  C   UNL A   1      43.006  26.821  29.989  1.00  0.00     0.074 A 
ATOM     48  C   UNL A   1      42.353  29.797  35.550  1.00  0.00     0.029 A 
ATOM     49  N   UNL A   1      42.097  29.064  33.467  1.00  0.00    -0.354 N 
ATOM     50  N   UNL A   1      42.768  27.450  31.114  1.00  0.00    -0.248 NA
ATOM     51  C   UNL A   1      44.175  25.932  30.031  1.00  0.00     0.031 C 
ATOM     52  C   UNL A   1      43.352  28.853  35.286  1.00  0.00     0.029 A 
ATOM     53  C   UNL A   1      43.182  28.382  33.995  1.00  0.00     0.049 A 
ATOM     54  H   UNL A   1      41.744  28.944  32.556  1.00  0.00     0.167 HD
ATOM     55  C   UNL A   1      43.736  27.009  32.008  1.00  0.00     0.074 A 
ATOM     56  C   UNL A   1      44.543  26.034  31.301  1.00  0.00     0.031 C 
ATOM     57  C   UNL A   1      43.951  27.387  33.293  1.00  0.00     0.034 A 
BRANCH  44  58
ATOM     58  C   UNL A   1      40.059  31.756  35.300  1.00  0.00     0.023 A 
ATOM     59  C   UNL A   1      40.618  33.049  35.354  1.00  0.00     0.012 A 
ATOM     60  C   UNL A   1      39.091  31.384  36.253  1.00  0.00     0.148 A 
ATOM     61  C   UNL A   1      40.250  33.944  36.357  1.00  0.00     0.002 A 
ATOM     62  C   UNL A   1      38.693  32.298  37.222  1.00  0.00     0.091 A 
ATOM     63  F   UNL A   1      38.584  30.143  36.200  1.00  0.00    -0.205 F 
ATOM     64  C   UNL A   1      39.280  33.572  37.284  1.00  0.00     0.022 A 
BRANCH  62  65
ATOM     65  S   UNL A   1      37.392  31.948  38.411  1.00  0.00     0.127 S 
ATOM     66  O   UNL A   1      37.090  30.548  38.114  1.00  0.00    -0.237 OA
ATOM     67  O   UNL A   1      38.076  32.165  39.687  1.00  0.00    -0.237 OA
ATOM     68  O   UNL A   1      36.321  32.892  38.126  1.00  0.00    -0.744 OA
ENDBRANCH  62  65
ENDBRANCH  44  58
BRANCH  45  69
ATOM     69  C   UNL A   1      42.639  26.023  27.536  1.00  0.00     0.023 A 
ATOM     70  C   UNL A   1      43.499  26.563  26.559  1.00  0.00     0.012 A 
ATOM     71  C   UNL A   1      42.202  24.691  27.403  1.00  0.00     0.148 A 
ATOM     72  C   UNL A   1      43.885  25.806  25.453  1.00  0.00     0.002 A 
ATOM     73  C   UNL A   1      42.638  23.923  26.330  1.00  0.00     0.091 A 
ATOM     74  F   UNL A   1      41.377  24.198  28.338  1.00  0.00    -0.205 F 
ATOM     75  C   UNL A   1      43.463  24.484  25.343  1.00  0.00     0.022 A 
BRANCH  73  76
ATOM     76  S   UNL A   1      42.256  22.175  26.183  1.00  0.00     0.127 S 
ATOM     77  O   UNL A   1      42.733  21.656  27.461  1.00  0.00    -0.237 OA
ATOM     78  O   UNL A   1      40.802  22.196  26.028  1.00  0.00    -0.237 OA
ATOM     79  O   UNL A   1      42.977  21.715  25.003  1.00  0.00    -0.744 OA
ENDBRANCH  73  76
ENDBRANCH  45  69
BRANCH  57  80
ATOM     80  C   UNL A   1      45.085  26.719  34.028  1.00  0.00     0.023 A 
ATOM     81  C   UNL A   1      46.389  27.250  33.946  1.00  0.00     0.012 A 
ATOM     82  C   UNL A   1      44.855  25.580  34.824  1.00  0.00     0.148 A 
ATOM     83  C   UNL A   1      47.453  26.627  34.598  1.00  0.00     0.002 A 
ATOM     84  C   UNL A   1      45.910  24.996  35.515  1.00  0.00     0.091 A 
ATOM     85  F   UNL A   1      43.614  25.073  34.877  1.00  0.00    -0.205 F 
ATOM     86  C   UNL A   1      47.211  25.507  35.389  1.00  0.00     0.022 A 
BRANCH  84  87
ATOM     87  S   UNL A   1      45.669  23.612  36.635  1.00  0.00     0.127 S 
ATOM     88  O   UNL A   1      47.046  23.285  37.005  1.00  0.00    -0.237 OA
ATOM     89  O   UNL A   1      44.875  24.211  37.708  1.00  0.00    -0.237 OA
ATOM     90  O   UNL A   1      44.967  22.595  35.863  1.00  0.00    -0.744 OA
ENDBRANCH  84  87
ENDBRANCH  57  80
ENDBRANCH  31  32
ENDBRANCH  23  26
ENDBRANCH  21  22
ENDBRANCH  20  21
ENDBRANCH   1  20
TORSDOF 18
ENDMDL
