MODEL 1
REMARK VINA RESULT:     -13.3      0.000      0.000
REMARK SMILES CC1=C(C(=O)Nc2ccccc2)[C@@H](c2ccc(C(=O)NCCCCNC(=O)c3ccc(-c4c5nc(c(-c6cccc(S(=O)(=O)[O-])c6F)c6ccc([nH]6)c(-c6cccc(S(=O)(=O)[O-])c6F)c6nc(c(-c7cccc(S(=O)(=O)[O-])c7F)c7ccc4[nH]7)C=C6)C=C5)cc3)cc2)n2ncnc2N1
REMARK SMILES IDX 22 1 21 2 20 3 18 4 19 5 17 7 14 8 15 9 92 10 16 11 91 12
REMARK SMILES IDX 13 13 1 14 2 15 3 16 98 17 97 18 93 20 96 21 94 22 95 23
REMARK SMILES IDX 4 24 5 25 6 26 7 28 8 29 12 30 9 31 11 32 10 33 23 34 24 35
REMARK SMILES IDX 25 36 26 37 27 39 28 40 29 41 90 42 30 43 89 44 31 45 32 46
REMARK SMILES IDX 33 47 83 48 34 49 88 50 82 51 84 52 35 53 87 54 81 55 80 56
REMARK SMILES IDX 36 58 68 59 48 60 67 61 49 62 52 63 66 64 85 65 50 66 51 67
REMARK SMILES IDX 65 69 86 70 53 71 37 72 38 73 46 74 39 75 41 76 47 77 40 78
REMARK SMILES IDX 42 79 43 80 44 81 45 82 69 83 70 84 78 85 71 86 73 87 79 88
REMARK SMILES IDX 72 89 74 90 75 91 76 92 77 93 54 94 55 95 63 96 56 97 58 98
REMARK SMILES IDX 64 99 57 100 59 101 60 102 61 103 62 104
REMARK H PARENT 20 6 98 19 6 27 25 38 84 57 52 68
REMARK Flexibility Score: inf
ROOT
ATOM      1  C   UNL A   1      38.162  23.006  25.956  1.00  0.00     0.023 C 
ENDROOT
BRANCH   1   2
ATOM      2  C   UNL A   1      36.733  23.543  26.110  1.00  0.00     0.116 C 
BRANCH   2   3
ATOM      3  N   UNL A   1      35.794  22.460  26.332  1.00  0.00    -0.352 N 
ATOM      4  C   UNL A   1      34.429  22.437  26.481  1.00  0.00     0.251 C 
ATOM      5  O   UNL A   1      33.890  21.354  26.714  1.00  0.00    -0.269 OA
ATOM      6  H   UNL A   1      36.216  21.573  26.387  1.00  0.00     0.163 HD
BRANCH   4   7
ATOM      7  C   UNL A   1      33.572  23.647  26.365  1.00  0.00     0.039 A 
ATOM      8  C   UNL A   1      32.051  25.999  26.015  1.00  0.00    -0.019 A 
ATOM      9  C   UNL A   1      33.330  25.898  25.456  1.00  0.00     0.007 A 
ATOM     10  C   UNL A   1      31.543  24.911  26.741  1.00  0.00     0.007 A 
ATOM     11  C   UNL A   1      34.084  24.733  25.638  1.00  0.00     0.014 A 
ATOM     12  C   UNL A   1      32.281  23.739  26.880  1.00  0.00     0.014 A 
BRANCH   8  13
ATOM     13  C   UNL A   1      31.175  27.235  25.843  1.00  0.00     0.179 C 
ATOM     14  C   UNL A   1      30.215  28.881  22.369  1.00  0.00     0.065 C 
ATOM     15  C   UNL A   1      30.744  28.509  23.720  1.00  0.00     0.026 C 
ATOM     16  C   UNL A   1      30.539  27.354  24.415  1.00  0.00     0.065 C 
ATOM     17  N   UNL A   1      31.490  29.551  24.268  1.00  0.00    -0.328 N 
ATOM     18  C   UNL A   1      32.063  29.532  25.475  1.00  0.00     0.226 A 
ATOM     19  H   UNL A   1      31.603  30.363  23.724  1.00  0.00     0.169 HD
ATOM     20  N   UNL A   1      31.928  28.425  26.249  1.00  0.00    -0.219 N 
ATOM     21  N   UNL A   1      32.779  30.431  26.098  1.00  0.00    -0.200 NA
ATOM     22  N   UNL A   1      32.521  28.597  27.451  1.00  0.00    -0.157 NA
ATOM     23  C   UNL A   1      33.084  29.799  27.277  1.00  0.00     0.248 A 
BRANCH  16  24
ATOM     24  C   UNL A   1      29.657  26.142  24.177  1.00  0.00     0.255 C 
ATOM     25  O   UNL A   1      28.438  26.281  24.372  1.00  0.00    -0.269 OA
ATOM     26  N   UNL A   1      29.955  24.914  23.687  1.00  0.00    -0.322 N 
ATOM     27  H   UNL A   1      29.190  24.296  23.729  1.00  0.00     0.170 HD
BRANCH  26  28
ATOM     28  C   UNL A   1      31.084  24.321  23.142  1.00  0.00     0.041 A 
ATOM     29  C   UNL A   1      31.859  25.129  22.298  1.00  0.00     0.026 A 
ATOM     30  C   UNL A   1      31.456  23.005  23.385  1.00  0.00     0.026 A 
ATOM     31  C   UNL A   1      33.096  24.681  21.845  1.00  0.00     0.002 A 
ATOM     32  C   UNL A   1      32.688  22.546  22.902  1.00  0.00     0.002 A 
ATOM     33  C   UNL A   1      33.523  23.396  22.170  1.00  0.00     0.000 A 
ENDBRANCH  26  28
ENDBRANCH  16  24
ENDBRANCH   8  13
ENDBRANCH   4   7
ENDBRANCH   2   3
ENDBRANCH   1   2
BRANCH   1  34
ATOM     34  C   UNL A   1      38.316  21.501  26.208  1.00  0.00     0.023 C 
BRANCH  34  35
ATOM     35  C   UNL A   1      38.808  20.705  25.005  1.00  0.00     0.116 C 
BRANCH  35  36
ATOM     36  N   UNL A   1      39.615  19.550  25.396  1.00  0.00    -0.352 N 
ATOM     37  C   UNL A   1      40.896  19.535  25.911  1.00  0.00     0.251 C 
ATOM     38  H   UNL A   1      39.190  18.670  25.276  1.00  0.00     0.163 HD
ATOM     39  O   UNL A   1      41.590  18.535  25.840  1.00  0.00    -0.269 OA
BRANCH  37  40
ATOM     40  C   UNL A   1      41.406  20.756  26.560  1.00  0.00     0.039 A 
ATOM     41  C   UNL A   1      41.960  21.788  25.800  1.00  0.00     0.014 A 
ATOM     42  C   UNL A   1      41.281  20.869  27.943  1.00  0.00     0.014 A 
ATOM     43  C   UNL A   1      42.304  22.978  26.434  1.00  0.00     0.010 A 
ATOM     44  C   UNL A   1      41.514  22.081  28.551  1.00  0.00     0.010 A 
ATOM     45  C   UNL A   1      42.054  23.129  27.808  1.00  0.00    -0.014 A 
BRANCH  45  46
ATOM     46  C   UNL A   1      42.211  24.438  28.439  1.00  0.00     0.031 A 
ATOM     47  C   UNL A   1      41.061  25.365  28.240  1.00  0.00     0.074 A 
ATOM     48  C   UNL A   1      43.196  24.720  29.318  1.00  0.00     0.049 A 
ATOM     49  N   UNL A   1      41.047  26.474  27.576  1.00  0.00    -0.248 NA
ATOM     50  C   UNL A   1      39.733  24.940  28.713  1.00  0.00     0.031 C 
ATOM     51  C   UNL A   1      44.206  23.798  29.853  1.00  0.00     0.029 A 
ATOM     52  N   UNL A   1      43.405  25.852  30.048  1.00  0.00    -0.354 N 
ATOM     53  C   UNL A   1      39.775  27.012  27.771  1.00  0.00     0.074 A 
ATOM     54  C   UNL A   1      38.962  25.938  28.274  1.00  0.00     0.031 C 
ATOM     55  C   UNL A   1      44.720  24.311  30.992  1.00  0.00     0.029 A 
ATOM     56  C   UNL A   1      44.209  25.655  31.170  1.00  0.00     0.049 A 
ATOM     57  H   UNL A   1      43.024  26.728  29.805  1.00  0.00     0.167 HD
ATOM     58  C   UNL A   1      39.572  28.360  27.765  1.00  0.00     0.034 A 
ATOM     59  C   UNL A   1      44.388  26.515  32.202  1.00  0.00     0.034 A 
ATOM     60  C   UNL A   1      40.702  29.055  27.196  1.00  0.00     0.049 A 
ATOM     61  C   UNL A   1      44.024  27.862  31.713  1.00  0.00     0.074 A 
ATOM     62  C   UNL A   1      41.388  29.005  25.999  1.00  0.00     0.029 A 
ATOM     63  N   UNL A   1      41.526  29.712  28.077  1.00  0.00    -0.354 N 
ATOM     64  N   UNL A   1      44.694  28.502  30.798  1.00  0.00    -0.248 NA
ATOM     65  C   UNL A   1      42.675  28.342  31.955  1.00  0.00     0.031 C 
ATOM     66  C   UNL A   1      42.756  29.199  26.355  1.00  0.00     0.029 A 
ATOM     67  C   UNL A   1      42.818  29.425  27.731  1.00  0.00     0.049 A 
ATOM     68  H   UNL A   1      41.239  30.286  28.822  1.00  0.00     0.167 HD
ATOM     69  C   UNL A   1      43.715  29.118  30.031  1.00  0.00     0.074 A 
ATOM     70  C   UNL A   1      42.516  29.098  30.865  1.00  0.00     0.031 C 
ATOM     71  C   UNL A   1      43.893  29.308  28.690  1.00  0.00     0.034 A 
BRANCH  58  72
ATOM     72  C   UNL A   1      38.565  29.101  28.629  1.00  0.00     0.023 A 
ATOM     73  C   UNL A   1      37.823  30.132  28.004  1.00  0.00     0.012 A 
ATOM     74  C   UNL A   1      38.517  29.056  30.041  1.00  0.00     0.148 A 
ATOM     75  C   UNL A   1      37.153  31.115  28.743  1.00  0.00     0.002 A 
ATOM     76  C   UNL A   1      37.783  29.987  30.769  1.00  0.00     0.091 A 
ATOM     77  F   UNL A   1      39.285  28.198  30.714  1.00  0.00    -0.205 F 
ATOM     78  C   UNL A   1      37.132  31.041  30.128  1.00  0.00     0.022 A 
BRANCH  76  79
ATOM     79  S   UNL A   1      37.674  29.905  32.562  1.00  0.00     0.127 S 
ATOM     80  O   UNL A   1      39.032  30.275  32.951  1.00  0.00    -0.237 OA
ATOM     81  O   UNL A   1      36.651  30.911  32.844  1.00  0.00    -0.237 OA
ATOM     82  O   UNL A   1      37.268  28.539  32.866  1.00  0.00    -0.744 OA
ENDBRANCH  76  79
ENDBRANCH  58  72
BRANCH  59  83
ATOM     83  C   UNL A   1      44.608  26.240  33.642  1.00  0.00     0.023 A 
ATOM     84  C   UNL A   1      45.906  26.355  34.177  1.00  0.00     0.012 A 
ATOM     85  C   UNL A   1      43.522  26.162  34.543  1.00  0.00     0.148 A 
ATOM     86  C   UNL A   1      46.114  26.446  35.559  1.00  0.00     0.002 A 
ATOM     87  C   UNL A   1      43.734  26.244  35.916  1.00  0.00     0.091 A 
ATOM     88  F   UNL A   1      42.276  26.108  34.055  1.00  0.00    -0.205 F 
ATOM     89  C   UNL A   1      45.027  26.403  36.428  1.00  0.00     0.022 A 
BRANCH  87  90
ATOM     90  S   UNL A   1      42.374  26.224  37.091  1.00  0.00     0.127 S 
ATOM     91  O   UNL A   1      41.805  24.892  36.876  1.00  0.00    -0.237 OA
ATOM     92  O   UNL A   1      43.071  26.394  38.362  1.00  0.00    -0.237 OA
ATOM     93  O   UNL A   1      41.496  27.319  36.695  1.00  0.00    -0.744 OA
ENDBRANCH  87  90
ENDBRANCH  59  83
BRANCH  71  94
ATOM     94  C   UNL A   1      45.276  29.123  28.119  1.00  0.00     0.023 A 
ATOM     95  C   UNL A   1      46.263  30.130  28.172  1.00  0.00     0.012 A 
ATOM     96  C   UNL A   1      45.639  27.841  27.674  1.00  0.00     0.148 A 
ATOM     97  C   UNL A   1      47.575  29.869  27.766  1.00  0.00     0.002 A 
ATOM     98  C   UNL A   1      46.955  27.572  27.319  1.00  0.00     0.091 A 
ATOM     99  F   UNL A   1      44.690  26.894  27.631  1.00  0.00    -0.205 F 
ATOM    100  C   UNL A   1      47.924  28.586  27.353  1.00  0.00     0.022 A 
BRANCH  98 101
ATOM    101  S   UNL A   1      47.488  25.910  26.905  1.00  0.00     0.127 S 
ATOM    102  O   UNL A   1      46.638  25.592  25.760  1.00  0.00    -0.237 OA
ATOM    103  O   UNL A   1      48.903  26.103  26.583  1.00  0.00    -0.237 OA
ATOM    104  O   UNL A   1      47.258  25.107  28.101  1.00  0.00    -0.744 OA
ENDBRANCH  98 101
ENDBRANCH  71  94
ENDBRANCH  45  46
ENDBRANCH  37  40
ENDBRANCH  35  36
ENDBRANCH  34  35
ENDBRANCH   1  34
TORSDOF 17
ENDMDL
MODEL 2
REMARK VINA RESULT:     -13.0      2.541      7.772
REMARK SMILES CC1=C(C(=O)Nc2ccccc2)[C@@H](c2ccc(C(=O)NCCCCNC(=O)c3ccc(-c4c5nc(c(-c6cccc(S(=O)(=O)[O-])c6F)c6ccc([nH]6)c(-c6cccc(S(=O)(=O)[O-])c6F)c6nc(c(-c7cccc(S(=O)(=O)[O-])c7F)c7ccc4[nH]7)C=C6)C=C5)cc3)cc2)n2ncnc2N1
REMARK SMILES IDX 22 1 21 2 20 3 18 4 19 5 17 7 14 8 15 9 92 10 16 11 91 12
REMARK SMILES IDX 13 13 1 14 2 15 3 16 98 17 97 18 93 20 96 21 94 22 95 23
REMARK SMILES IDX 4 24 5 25 6 26 7 28 8 29 12 30 9 31 11 32 10 33 23 34 24 35
REMARK SMILES IDX 25 36 26 37 27 39 28 40 29 41 90 42 30 43 89 44 31 45 32 46
REMARK SMILES IDX 33 47 83 48 34 49 88 50 82 51 84 52 35 53 87 54 81 55 80 56
REMARK SMILES IDX 36 58 68 59 48 60 67 61 49 62 52 63 66 64 85 65 50 66 51 67
REMARK SMILES IDX 65 69 86 70 53 71 37 72 38 73 46 74 39 75 41 76 47 77 40 78
REMARK SMILES IDX 42 79 43 80 44 81 45 82 69 83 70 84 78 85 71 86 73 87 79 88
REMARK SMILES IDX 72 89 74 90 75 91 76 92 77 93 54 94 55 95 63 96 56 97 58 98
REMARK SMILES IDX 64 99 57 100 59 101 60 102 61 103 62 104
REMARK H PARENT 20 6 98 19 6 27 25 38 84 57 52 68
REMARK Flexibility Score: inf
ROOT
ATOM      1  C   UNL A   1      34.934  30.082  27.274  1.00  0.00     0.023 C 
ENDROOT
BRANCH   1   2
ATOM      2  C   UNL A   1      34.325  28.824  26.640  1.00  0.00     0.116 C 
BRANCH   2   3
ATOM      3  N   UNL A   1      33.585  29.156  25.438  1.00  0.00    -0.352 N 
ATOM      4  C   UNL A   1      33.242  28.420  24.331  1.00  0.00     0.251 C 
ATOM      5  O   UNL A   1      32.640  28.989  23.420  1.00  0.00    -0.269 OA
ATOM      6  H   UNL A   1      33.268  30.087  25.411  1.00  0.00     0.163 HD
BRANCH   4   7
ATOM      7  C   UNL A   1      33.552  26.972  24.182  1.00  0.00     0.039 A 
ATOM      8  C   UNL A   1      34.175  24.257  23.729  1.00  0.00    -0.019 A 
ATOM      9  C   UNL A   1      33.949  25.117  22.649  1.00  0.00     0.007 A 
ATOM     10  C   UNL A   1      34.093  24.772  25.032  1.00  0.00     0.007 A 
ATOM     11  C   UNL A   1      33.633  26.461  22.877  1.00  0.00     0.014 A 
ATOM     12  C   UNL A   1      33.821  26.119  25.251  1.00  0.00     0.014 A 
BRANCH   8  13
ATOM     13  C   UNL A   1      34.534  22.786  23.547  1.00  0.00     0.179 C 
ATOM     14  C   UNL A   1      32.594  19.747  25.191  1.00  0.00     0.065 C 
ATOM     15  C   UNL A   1      33.548  20.819  24.761  1.00  0.00     0.026 C 
ATOM     16  C   UNL A   1      33.343  21.812  23.849  1.00  0.00     0.065 C 
ATOM     17  N   UNL A   1      34.780  20.674  25.397  1.00  0.00    -0.328 N 
ATOM     18  C   UNL A   1      35.844  21.457  25.196  1.00  0.00     0.226 A 
ATOM     19  H   UNL A   1      34.874  19.938  26.043  1.00  0.00     0.169 HD
ATOM     20  N   UNL A   1      35.747  22.483  24.312  1.00  0.00    -0.219 N 
ATOM     21  N   UNL A   1      37.041  21.428  25.721  1.00  0.00    -0.200 NA
ATOM     22  N   UNL A   1      36.924  23.135  24.193  1.00  0.00    -0.157 NA
ATOM     23  C   UNL A   1      37.650  22.502  25.122  1.00  0.00     0.248 A 
BRANCH  16  24
ATOM     24  C   UNL A   1      32.211  22.120  22.887  1.00  0.00     0.255 C 
ATOM     25  O   UNL A   1      32.101  21.389  21.889  1.00  0.00    -0.269 OA
ATOM     26  N   UNL A   1      31.206  23.026  22.965  1.00  0.00    -0.322 N 
ATOM     27  H   UNL A   1      30.666  23.060  22.143  1.00  0.00     0.170 HD
BRANCH  26  28
ATOM     28  C   UNL A   1      30.759  23.917  23.930  1.00  0.00     0.041 A 
ATOM     29  C   UNL A   1      30.795  23.462  25.255  1.00  0.00     0.026 A 
ATOM     30  C   UNL A   1      30.288  25.191  23.641  1.00  0.00     0.026 A 
ATOM     31  C   UNL A   1      30.533  24.340  26.303  1.00  0.00     0.002 A 
ATOM     32  C   UNL A   1      29.995  26.064  24.697  1.00  0.00     0.002 A 
ATOM     33  C   UNL A   1      30.158  25.651  26.022  1.00  0.00     0.000 A 
ENDBRANCH  26  28
ENDBRANCH  16  24
ENDBRANCH   8  13
ENDBRANCH   4   7
ENDBRANCH   2   3
ENDBRANCH   1   2
BRANCH   1  34
ATOM     34  C   UNL A   1      33.922  31.173  27.642  1.00  0.00     0.023 C 
BRANCH  34  35
ATOM     35  C   UNL A   1      34.543  32.520  27.991  1.00  0.00     0.116 C 
BRANCH  35  36
ATOM     36  N   UNL A   1      34.383  32.854  29.406  1.00  0.00    -0.352 N 
ATOM     37  C   UNL A   1      35.008  32.282  30.498  1.00  0.00     0.251 C 
ATOM     38  H   UNL A   1      33.749  33.580  29.606  1.00  0.00     0.163 HD
ATOM     39  O   UNL A   1      34.527  32.373  31.614  1.00  0.00    -0.269 OA
BRANCH  37  40
ATOM     40  C   UNL A   1      36.277  31.564  30.283  1.00  0.00     0.039 A 
ATOM     41  C   UNL A   1      37.435  32.257  29.927  1.00  0.00     0.014 A 
ATOM     42  C   UNL A   1      36.296  30.186  30.486  1.00  0.00     0.014 A 
ATOM     43  C   UNL A   1      38.639  31.562  29.868  1.00  0.00     0.010 A 
ATOM     44  C   UNL A   1      37.501  29.523  30.538  1.00  0.00     0.010 A 
ATOM     45  C   UNL A   1      38.672  30.198  30.200  1.00  0.00    -0.014 A 
BRANCH  45  46
ATOM     46  C   UNL A   1      39.953  29.512  30.348  1.00  0.00     0.031 A 
ATOM     47  C   UNL A   1      40.508  29.524  31.732  1.00  0.00     0.074 A 
ATOM     48  C   UNL A   1      40.490  28.735  29.383  1.00  0.00     0.049 A 
ATOM     49  N   UNL A   1      41.580  30.114  32.147  1.00  0.00    -0.248 NA
ATOM     50  C   UNL A   1      39.702  28.930  32.811  1.00  0.00     0.031 C 
ATOM     51  C   UNL A   1      39.891  28.373  28.092  1.00  0.00     0.029 A 
ATOM     52  N   UNL A   1      41.616  27.967  29.418  1.00  0.00    -0.354 N 
ATOM     53  C   UNL A   1      41.717  29.746  33.485  1.00  0.00     0.074 A 
ATOM     54  C   UNL A   1      40.441  29.218  33.885  1.00  0.00     0.031 C 
ATOM     55  C   UNL A   1      40.504  27.272  27.608  1.00  0.00     0.029 A 
ATOM     56  C   UNL A   1      41.635  26.957  28.457  1.00  0.00     0.049 A 
ATOM     57  H   UNL A   1      42.347  28.112  30.062  1.00  0.00     0.167 HD
ATOM     58  C   UNL A   1      42.947  29.648  34.065  1.00  0.00     0.034 A 
ATOM     59  C   UNL A   1      42.484  25.902  28.405  1.00  0.00     0.034 A 
ATOM     60  C   UNL A   1      43.955  30.299  33.264  1.00  0.00     0.049 A 
ATOM     61  C   UNL A   1      43.678  26.265  29.199  1.00  0.00     0.074 A 
ATOM     62  C   UNL A   1      44.138  31.567  32.749  1.00  0.00     0.029 A 
ATOM     63  N   UNL A   1      44.803  29.479  32.559  1.00  0.00    -0.354 N 
ATOM     64  N   UNL A   1      44.508  27.211  28.861  1.00  0.00    -0.248 NA
ATOM     65  C   UNL A   1      43.736  25.845  30.588  1.00  0.00     0.031 C 
ATOM     66  C   UNL A   1      44.715  31.357  31.460  1.00  0.00     0.029 A 
ATOM     67  C   UNL A   1      44.915  29.985  31.294  1.00  0.00     0.049 A 
ATOM     68  H   UNL A   1      45.250  28.673  32.903  1.00  0.00     0.167 HD
ATOM     69  C   UNL A   1      44.828  27.824  30.065  1.00  0.00     0.074 A 
ATOM     70  C   UNL A   1      44.438  26.862  31.093  1.00  0.00     0.031 C 
ATOM     71  C   UNL A   1      45.094  29.163  30.119  1.00  0.00     0.034 A 
BRANCH  58  72
ATOM     72  C   UNL A   1      43.339  28.633  35.126  1.00  0.00     0.023 A 
ATOM     73  C   UNL A   1      44.095  29.114  36.223  1.00  0.00     0.012 A 
ATOM     74  C   UNL A   1      43.277  27.230  34.970  1.00  0.00     0.148 A 
ATOM     75  C   UNL A   1      44.823  28.255  37.055  1.00  0.00     0.002 A 
ATOM     76  C   UNL A   1      43.935  26.375  35.849  1.00  0.00     0.091 A 
ATOM     77  F   UNL A   1      42.695  26.696  33.895  1.00  0.00    -0.205 F 
ATOM     78  C   UNL A   1      44.740  26.883  36.869  1.00  0.00     0.022 A 
BRANCH  76  79
ATOM     79  S   UNL A   1      43.818  24.588  35.689  1.00  0.00     0.127 S 
ATOM     80  O   UNL A   1      44.619  24.143  36.825  1.00  0.00    -0.237 OA
ATOM     81  O   UNL A   1      42.377  24.371  35.821  1.00  0.00    -0.237 OA
ATOM     82  O   UNL A   1      44.348  24.279  34.367  1.00  0.00    -0.744 OA
ENDBRANCH  76  79
ENDBRANCH  58  72
BRANCH  59  83
ATOM     83  C   UNL A   1      42.251  24.516  27.936  1.00  0.00     0.023 A 
ATOM     84  C   UNL A   1      40.976  23.937  28.097  1.00  0.00     0.012 A 
ATOM     85  C   UNL A   1      43.168  23.873  27.074  1.00  0.00     0.148 A 
ATOM     86  C   UNL A   1      40.606  22.791  27.382  1.00  0.00     0.002 A 
ATOM     87  C   UNL A   1      42.799  22.730  26.372  1.00  0.00     0.091 A 
ATOM     88  F   UNL A   1      44.365  24.437  26.864  1.00  0.00    -0.205 F 
ATOM     89  C   UNL A   1      41.513  22.194  26.511  1.00  0.00     0.022 A 
BRANCH  87  90
ATOM     90  S   UNL A   1      43.910  21.927  25.210  1.00  0.00     0.127 S 
ATOM     91  O   UNL A   1      43.770  22.771  24.021  1.00  0.00    -0.237 OA
ATOM     92  O   UNL A   1      45.194  22.042  25.895  1.00  0.00    -0.237 OA
ATOM     93  O   UNL A   1      43.396  20.573  25.044  1.00  0.00    -0.744 OA
ENDBRANCH  87  90
ENDBRANCH  59  83
BRANCH  71  94
ATOM     94  C   UNL A   1      45.336  29.897  28.824  1.00  0.00     0.023 A 
ATOM     95  C   UNL A   1      44.287  30.341  27.992  1.00  0.00     0.012 A 
ATOM     96  C   UNL A   1      46.650  30.297  28.530  1.00  0.00     0.148 A 
ATOM     97  C   UNL A   1      44.547  31.145  26.879  1.00  0.00     0.002 A 
ATOM     98  C   UNL A   1      46.899  31.137  27.452  1.00  0.00     0.091 A 
ATOM     99  F   UNL A   1      47.638  29.869  29.332  1.00  0.00    -0.205 F 
ATOM    100  C   UNL A   1      45.852  31.555  26.617  1.00  0.00     0.022 A 
BRANCH  98 101
ATOM    101  S   UNL A   1      48.537  31.800  27.145  1.00  0.00     0.127 S 
ATOM    102  O   UNL A   1      49.265  30.620  26.684  1.00  0.00    -0.237 OA
ATOM    103  O   UNL A   1      48.283  32.806  26.112  1.00  0.00    -0.237 OA
ATOM    104  O   UNL A   1      48.987  32.358  28.415  1.00  0.00    -0.744 OA
ENDBRANCH  98 101
ENDBRANCH  71  94
ENDBRANCH  45  46
ENDBRANCH  37  40
ENDBRANCH  35  36
ENDBRANCH  34  35
ENDBRANCH   1  34
TORSDOF 17
ENDMDL
MODEL 3
REMARK VINA RESULT:     -12.8      3.753      7.462
REMARK SMILES CC1=C(C(=O)Nc2ccccc2)[C@@H](c2ccc(C(=O)NCCCCNC(=O)c3ccc(-c4c5nc(c(-c6cccc(S(=O)(=O)[O-])c6F)c6ccc([nH]6)c(-c6cccc(S(=O)(=O)[O-])c6F)c6nc(c(-c7cccc(S(=O)(=O)[O-])c7F)c7ccc4[nH]7)C=C6)C=C5)cc3)cc2)n2ncnc2N1
REMARK SMILES IDX 22 1 21 2 20 3 18 4 19 5 17 7 14 8 15 9 92 10 16 11 91 12
REMARK SMILES IDX 13 13 1 14 2 15 3 16 98 17 97 18 93 20 96 21 94 22 95 23
REMARK SMILES IDX 4 24 5 25 6 26 7 28 8 29 12 30 9 31 11 32 10 33 23 34 24 35
REMARK SMILES IDX 25 36 26 37 27 39 28 40 29 41 90 42 30 43 89 44 31 45 32 46
REMARK SMILES IDX 33 47 83 48 34 49 88 50 82 51 84 52 35 53 87 54 81 55 80 56
REMARK SMILES IDX 36 58 68 59 48 60 67 61 49 62 52 63 66 64 85 65 50 66 51 67
REMARK SMILES IDX 65 69 86 70 53 71 37 72 38 73 46 74 39 75 41 76 47 77 40 78
REMARK SMILES IDX 42 79 43 80 44 81 45 82 69 83 70 84 78 85 71 86 73 87 79 88
REMARK SMILES IDX 72 89 74 90 75 91 76 92 77 93 54 94 55 95 63 96 56 97 58 98
REMARK SMILES IDX 64 99 57 100 59 101 60 102 61 103 62 104
REMARK H PARENT 20 6 98 19 6 27 25 38 84 57 52 68
REMARK Flexibility Score: inf
ROOT
ATOM      1  C   UNL A   1      38.135  23.829  26.273  1.00  0.00     0.023 C 
ENDROOT
BRANCH   1   2
ATOM      2  C   UNL A   1      36.816  23.685  25.502  1.00  0.00     0.116 C 
BRANCH   2   3
ATOM      3  N   UNL A   1      35.951  22.707  26.135  1.00  0.00    -0.352 N 
ATOM      4  C   UNL A   1      34.638  22.757  26.533  1.00  0.00     0.251 C 
ATOM      5  O   UNL A   1      34.168  21.771  27.103  1.00  0.00    -0.269 OA
ATOM      6  H   UNL A   1      36.389  21.844  26.312  1.00  0.00     0.163 HD
BRANCH   4   7
ATOM      7  C   UNL A   1      33.756  23.932  26.304  1.00  0.00     0.039 A 
ATOM      8  C   UNL A   1      31.977  26.102  25.999  1.00  0.00    -0.019 A 
ATOM      9  C   UNL A   1      31.589  24.971  26.726  1.00  0.00     0.007 A 
ATOM     10  C   UNL A   1      33.262  26.137  25.438  1.00  0.00     0.007 A 
ATOM     11  C   UNL A   1      32.471  23.894  26.869  1.00  0.00     0.014 A 
ATOM     12  C   UNL A   1      34.150  25.080  25.621  1.00  0.00     0.014 A 
BRANCH   8  13
ATOM     13  C   UNL A   1      31.068  27.313  25.817  1.00  0.00     0.179 C 
ATOM     14  C   UNL A   1      30.089  28.922  22.331  1.00  0.00     0.065 C 
ATOM     15  C   UNL A   1      30.618  28.568  23.687  1.00  0.00     0.026 C 
ATOM     16  C   UNL A   1      30.440  27.410  24.384  1.00  0.00     0.065 C 
ATOM     17  N   UNL A   1      31.330  29.633  24.238  1.00  0.00    -0.328 N 
ATOM     18  C   UNL A   1      31.895  29.634  25.449  1.00  0.00     0.226 A 
ATOM     19  H   UNL A   1      31.424  30.446  23.693  1.00  0.00     0.169 HD
ATOM     20  N   UNL A   1      31.785  28.525  26.226  1.00  0.00    -0.219 N 
ATOM     21  N   UNL A   1      32.581  30.554  26.075  1.00  0.00    -0.200 NA
ATOM     22  N   UNL A   1      32.363  28.717  27.431  1.00  0.00    -0.157 NA
ATOM     23  C   UNL A   1      32.894  29.933  27.258  1.00  0.00     0.248 A 
BRANCH  16  24
ATOM     24  C   UNL A   1      29.594  26.173  24.143  1.00  0.00     0.255 C 
ATOM     25  O   UNL A   1      28.371  26.277  24.334  1.00  0.00    -0.269 OA
ATOM     26  N   UNL A   1      29.929  24.955  23.653  1.00  0.00    -0.322 N 
ATOM     27  H   UNL A   1      29.182  24.315  23.692  1.00  0.00     0.170 HD
BRANCH  26  28
ATOM     28  C   UNL A   1      31.077  24.396  23.110  1.00  0.00     0.041 A 
ATOM     29  C   UNL A   1      31.830  25.226  22.269  1.00  0.00     0.026 A 
ATOM     30  C   UNL A   1      31.486  23.091  23.354  1.00  0.00     0.026 A 
ATOM     31  C   UNL A   1      33.081  24.814  21.819  1.00  0.00     0.002 A 
ATOM     32  C   UNL A   1      32.732  22.668  22.874  1.00  0.00     0.002 A 
ATOM     33  C   UNL A   1      33.544  23.542  22.145  1.00  0.00     0.000 A 
ENDBRANCH  26  28
ENDBRANCH  16  24
ENDBRANCH   8  13
ENDBRANCH   4   7
ENDBRANCH   2   3
ENDBRANCH   1   2
BRANCH   1  34
ATOM     34  C   UNL A   1      39.043  22.593  26.233  1.00  0.00     0.023 C 
BRANCH  34  35
ATOM     35  C   UNL A   1      40.290  22.698  27.102  1.00  0.00     0.116 C 
BRANCH  35  36
ATOM     36  N   UNL A   1      41.506  22.878  26.309  1.00  0.00    -0.352 N 
ATOM     37  C   UNL A   1      42.130  24.058  25.953  1.00  0.00     0.251 C 
ATOM     38  H   UNL A   1      41.934  22.052  25.987  1.00  0.00     0.163 HD
ATOM     39  O   UNL A   1      42.889  24.104  25.001  1.00  0.00    -0.269 OA
BRANCH  37  40
ATOM     40  C   UNL A   1      41.862  25.263  26.758  1.00  0.00     0.039 A 
ATOM     41  C   UNL A   1      42.424  25.411  28.027  1.00  0.00     0.014 A 
ATOM     42  C   UNL A   1      41.070  26.265  26.201  1.00  0.00     0.014 A 
ATOM     43  C   UNL A   1      42.258  26.620  28.697  1.00  0.00     0.010 A 
ATOM     44  C   UNL A   1      41.001  27.497  26.811  1.00  0.00     0.010 A 
ATOM     45  C   UNL A   1      41.567  27.671  28.072  1.00  0.00    -0.014 A 
BRANCH  45  46
ATOM     46  C   UNL A   1      41.569  29.004  28.670  1.00  0.00     0.031 A 
ATOM     47  C   UNL A   1      42.730  29.856  28.281  1.00  0.00     0.074 A 
ATOM     48  C   UNL A   1      40.511  29.519  29.332  1.00  0.00     0.049 A 
ATOM     49  N   UNL A   1      43.682  30.286  29.042  1.00  0.00    -0.248 NA
ATOM     50  C   UNL A   1      42.934  30.147  26.853  1.00  0.00     0.031 C 
ATOM     51  C   UNL A   1      39.186  28.910  29.506  1.00  0.00     0.029 A 
ATOM     52  N   UNL A   1      40.339  30.768  29.851  1.00  0.00    -0.354 N 
ATOM     53  C   UNL A   1      44.460  31.116  28.235  1.00  0.00     0.074 A 
ATOM     54  C   UNL A   1      44.090  30.813  26.879  1.00  0.00     0.031 C 
ATOM     55  C   UNL A   1      38.293  29.870  29.827  1.00  0.00     0.029 A 
ATOM     56  C   UNL A   1      39.004  31.114  30.047  1.00  0.00     0.049 A 
ATOM     57  H   UNL A   1      41.090  31.368  30.066  1.00  0.00     0.167 HD
ATOM     58  C   UNL A   1      45.138  32.175  28.762  1.00  0.00     0.034 A 
ATOM     59  C   UNL A   1      38.516  32.350  30.309  1.00  0.00     0.034 A 
ATOM     60  C   UNL A   1      45.225  32.076  30.199  1.00  0.00     0.049 A 
ATOM     61  C   UNL A   1      39.632  33.152  30.856  1.00  0.00     0.074 A 
ATOM     62  C   UNL A   1      45.699  31.139  31.096  1.00  0.00     0.029 A 
ATOM     63  N   UNL A   1      44.409  32.912  30.923  1.00  0.00    -0.354 N 
ATOM     64  N   UNL A   1      40.198  32.909  32.004  1.00  0.00    -0.248 NA
ATOM     65  C   UNL A   1      40.394  33.986  29.943  1.00  0.00     0.031 C 
ATOM     66  C   UNL A   1      44.774  31.174  32.182  1.00  0.00     0.029 A 
ATOM     67  C   UNL A   1      43.835  32.173  31.920  1.00  0.00     0.049 A 
ATOM     68  H   UNL A   1      44.264  33.871  30.754  1.00  0.00     0.167 HD
ATOM     69  C   UNL A   1      41.547  33.137  31.770  1.00  0.00     0.074 A 
ATOM     70  C   UNL A   1      41.588  33.923  30.539  1.00  0.00     0.031 C 
ATOM     71  C   UNL A   1      42.503  32.415  32.425  1.00  0.00     0.034 A 
BRANCH  58  72
ATOM     72  C   UNL A   1      45.371  33.505  28.064  1.00  0.00     0.023 A 
ATOM     73  C   UNL A   1      46.717  33.905  27.882  1.00  0.00     0.012 A 
ATOM     74  C   UNL A   1      44.384  34.495  27.853  1.00  0.00     0.148 A 
ATOM     75  C   UNL A   1      47.064  35.233  27.603  1.00  0.00     0.002 A 
ATOM     76  C   UNL A   1      44.729  35.794  27.495  1.00  0.00     0.091 A 
ATOM     77  F   UNL A   1      43.104  34.240  28.125  1.00  0.00    -0.205 F 
ATOM     78  C   UNL A   1      46.068  36.178  27.407  1.00  0.00     0.022 A 
BRANCH  76  79
ATOM     79  S   UNL A   1      43.479  37.046  27.174  1.00  0.00     0.127 S 
ATOM     80  O   UNL A   1      42.627  36.361  26.206  1.00  0.00    -0.237 OA
ATOM     81  O   UNL A   1      42.890  37.225  28.502  1.00  0.00    -0.237 OA
ATOM     82  O   UNL A   1      44.207  38.208  26.684  1.00  0.00    -0.744 OA
ENDBRANCH  76  79
ENDBRANCH  58  72
BRANCH  59  83
ATOM     83  C   UNL A   1      37.235  32.974  29.899  1.00  0.00     0.023 A 
ATOM     84  C   UNL A   1      36.703  32.687  28.625  1.00  0.00     0.012 A 
ATOM     85  C   UNL A   1      36.393  33.600  30.845  1.00  0.00     0.148 A 
ATOM     86  C   UNL A   1      35.364  32.961  28.322  1.00  0.00     0.002 A 
ATOM     87  C   UNL A   1      35.064  33.878  30.536  1.00  0.00     0.091 A 
ATOM     88  F   UNL A   1      36.861  33.830  32.078  1.00  0.00    -0.205 F 
ATOM     89  C   UNL A   1      34.541  33.545  29.281  1.00  0.00     0.022 A 
BRANCH  87  90
ATOM     90  S   UNL A   1      33.941  34.603  31.737  1.00  0.00     0.127 S 
ATOM     91  O   UNL A   1      32.843  35.066  30.888  1.00  0.00    -0.237 OA
ATOM     92  O   UNL A   1      33.622  33.456  32.582  1.00  0.00    -0.237 OA
ATOM     93  O   UNL A   1      34.692  35.677  32.379  1.00  0.00    -0.744 OA
ENDBRANCH  87  90
ENDBRANCH  59  83
BRANCH  71  94
ATOM     94  C   UNL A   1      42.085  31.592  33.618  1.00  0.00     0.023 A 
ATOM     95  C   UNL A   1      41.845  30.205  33.540  1.00  0.00     0.012 A 
ATOM     96  C   UNL A   1      42.104  32.207  34.881  1.00  0.00     0.148 A 
ATOM     97  C   UNL A   1      41.605  29.453  34.695  1.00  0.00     0.002 A 
ATOM     98  C   UNL A   1      41.914  31.450  36.029  1.00  0.00     0.091 A 
ATOM     99  F   UNL A   1      42.335  33.528  34.939  1.00  0.00    -0.205 F 
ATOM    100  C   UNL A   1      41.654  30.074  35.940  1.00  0.00     0.022 A 
BRANCH  98 101
ATOM    101  S   UNL A   1      42.095  32.169  37.662  1.00  0.00     0.127 S 
ATOM    102  O   UNL A   1      43.030  33.264  37.413  1.00  0.00    -0.237 OA
ATOM    103  O   UNL A   1      40.729  32.590  37.976  1.00  0.00    -0.237 OA
ATOM    104  O   UNL A   1      42.596  31.099  38.518  1.00  0.00    -0.744 OA
ENDBRANCH  98 101
ENDBRANCH  71  94
ENDBRANCH  45  46
ENDBRANCH  37  40
ENDBRANCH  35  36
ENDBRANCH  34  35
ENDBRANCH   1  34
TORSDOF 17
ENDMDL
