MODEL 1
REMARK VINA RESULT:     -12.9      0.000      0.000
REMARK SMILES Nc1c(Cl)ccc2c1C=C(C(=O)NCCCCNC(=O)c1ccc(-c3c4nc(c(-c5cccc(S(=O)(=O)[O-])c5F)c5ccc([nH]5)c(-c5cccc(S(=O)(=O)[O-])c5F)c5nc(c(-c6cccc(S(=O)(=O)[O-])c6F)c6ccc3[nH]6)C=C5)C=C4)cc1)[C@@H](C(F)(F)F)O2
REMARK SMILES IDX 16 1 15 2 14 3 13 4 11 5 12 6 10 8 2 9 3 10 8 11 4 12 5 13
REMARK SMILES IDX 7 14 9 15 6 16 89 17 84 18 1 19 85 22 86 23 87 24 88 25
REMARK SMILES IDX 17 26 18 27 19 28 20 30 21 31 22 32 83 33 23 34 82 35 24 36
REMARK SMILES IDX 25 37 26 38 76 39 27 40 81 41 75 42 77 43 28 44 80 45 74 46
REMARK SMILES IDX 73 47 29 49 61 50 41 51 60 52 42 53 45 54 59 55 78 56 43 57
REMARK SMILES IDX 44 58 58 60 79 61 46 62 30 63 31 64 39 65 32 66 34 67 40 68
REMARK SMILES IDX 33 69 35 70 36 71 37 72 38 73 62 74 63 75 71 76 64 77 66 78
REMARK SMILES IDX 72 79 65 80 67 81 68 82 69 83 70 84 47 85 48 86 56 87 49 88
REMARK SMILES IDX 51 89 57 90 50 91 52 92 53 93 54 94 55 95
REMARK H PARENT 13 7 1 20 1 21 18 29 77 48 45 59
REMARK Flexibility Score: inf
ROOT
ATOM      1  C   UNL A   1      32.967  29.163  24.625  1.00  0.00     0.023 C 
ENDROOT
BRANCH   1   2
ATOM      2  C   UNL A   1      34.017  28.192  24.076  1.00  0.00     0.023 C 
BRANCH   2   3
ATOM      3  C   UNL A   1      33.887  26.769  24.608  1.00  0.00     0.116 C 
BRANCH   3   4
ATOM      4  N   UNL A   1      33.457  25.842  23.577  1.00  0.00    -0.352 N 
ATOM      5  C   UNL A   1      32.308  25.551  22.927  1.00  0.00     0.251 C 
ATOM      6  O   UNL A   1      32.388  24.639  22.098  1.00  0.00    -0.270 OA
ATOM      7  H   UNL A   1      34.201  25.274  23.270  1.00  0.00     0.163 HD
BRANCH   5   8
ATOM      8  C   UNL A   1      30.998  26.241  23.131  1.00  0.00     0.067 C 
ATOM      9  C   UNL A   1      29.501  29.526  22.178  1.00  0.00     0.061 A 
ATOM     10  C   UNL A   1      28.273  30.191  22.404  1.00  0.00     0.064 A 
ATOM     11  C   UNL A   1      29.633  28.199  22.646  1.00  0.00     0.042 A 
ATOM     12  Cl  UNL A   1      28.048  31.833  21.892  1.00  0.00    -0.082 Cl
ATOM     13  C   UNL A   1      27.199  29.556  23.029  1.00  0.00     0.026 A 
ATOM     14  C   UNL A   1      28.548  27.580  23.285  1.00  0.00     0.130 A 
ATOM     15  C   UNL A   1      30.851  27.404  22.470  1.00  0.00     0.027 C 
ATOM     16  C   UNL A   1      27.335  28.242  23.463  1.00  0.00     0.049 A 
ATOM     17  O   UNL A   1      28.588  26.290  23.736  1.00  0.00    -0.475 OA
ATOM     18  C   UNL A   1      29.907  25.752  24.035  1.00  0.00     0.314 C 
BRANCH   9  19
ATOM     19  N   UNL A   1      30.570  30.220  21.604  1.00  0.00    -0.397 N 
ATOM     20  H   UNL A   1      31.464  29.812  21.577  1.00  0.00     0.156 HD
ATOM     21  H   UNL A   1      30.427  31.118  21.226  1.00  0.00     0.156 HD
ENDBRANCH   9  19
BRANCH  18  22
ATOM     22  C   UNL A   1      30.220  25.969  25.526  1.00  0.00     0.429 C 
ATOM     23  F   UNL A   1      29.133  25.674  26.284  1.00  0.00    -0.167 F 
ATOM     24  F   UNL A   1      31.223  25.176  25.970  1.00  0.00    -0.167 F 
ATOM     25  F   UNL A   1      30.570  27.244  25.806  1.00  0.00    -0.167 F 
ENDBRANCH  18  22
ENDBRANCH   5   8
ENDBRANCH   3   4
ENDBRANCH   2   3
ENDBRANCH   1   2
BRANCH   1  26
ATOM     26  C   UNL A   1      33.038  29.419  26.130  1.00  0.00     0.116 C 
BRANCH  26  27
ATOM     27  N   UNL A   1      32.690  30.785  26.504  1.00  0.00    -0.352 N 
ATOM     28  C   UNL A   1      33.430  31.651  27.275  1.00  0.00     0.251 C 
ATOM     29  H   UNL A   1      31.831  31.125  26.168  1.00  0.00     0.163 HD
ATOM     30  O   UNL A   1      33.006  32.762  27.568  1.00  0.00    -0.269 OA
BRANCH  28  31
ATOM     31  C   UNL A   1      34.734  31.181  27.769  1.00  0.00     0.039 A 
ATOM     32  C   UNL A   1      35.770  32.106  27.910  1.00  0.00     0.014 A 
ATOM     33  C   UNL A   1      34.873  29.861  28.208  1.00  0.00     0.014 A 
ATOM     34  C   UNL A   1      36.942  31.718  28.556  1.00  0.00     0.010 A 
ATOM     35  C   UNL A   1      36.027  29.490  28.889  1.00  0.00     0.010 A 
ATOM     36  C   UNL A   1      37.065  30.416  29.071  1.00  0.00    -0.014 A 
BRANCH  36  37
ATOM     37  C   UNL A   1      38.284  30.013  29.806  1.00  0.00     0.031 A 
ATOM     38  C   UNL A   1      38.526  30.542  31.189  1.00  0.00     0.074 A 
ATOM     39  C   UNL A   1      39.188  29.212  29.210  1.00  0.00     0.049 A 
ATOM     40  N   UNL A   1      39.506  30.271  32.008  1.00  0.00    -0.248 NA
ATOM     41  C   UNL A   1      37.548  31.510  31.717  1.00  0.00     0.031 C 
ATOM     42  C   UNL A   1      39.092  28.694  27.843  1.00  0.00     0.029 A 
ATOM     43  N   UNL A   1      40.371  28.697  29.677  1.00  0.00    -0.354 N 
ATOM     44  C   UNL A   1      39.279  31.047  33.136  1.00  0.00     0.074 A 
ATOM     45  C   UNL A   1      38.083  31.823  32.888  1.00  0.00     0.031 C 
ATOM     46  C   UNL A   1      40.160  27.917  27.591  1.00  0.00     0.029 A 
ATOM     47  C   UNL A   1      41.015  27.884  28.773  1.00  0.00     0.049 A 
ATOM     48  H   UNL A   1      40.725  28.890  30.575  1.00  0.00     0.167 HD
ATOM     49  C   UNL A   1      39.978  31.076  34.291  1.00  0.00     0.034 A 
ATOM     50  C   UNL A   1      42.154  27.175  28.898  1.00  0.00     0.034 A 
ATOM     51  C   UNL A   1      41.116  30.247  34.561  1.00  0.00     0.049 A 
ATOM     52  C   UNL A   1      42.897  27.207  30.205  1.00  0.00     0.074 A 
ATOM     53  C   UNL A   1      41.813  30.108  35.747  1.00  0.00     0.029 A 
ATOM     54  N   UNL A   1      41.720  29.415  33.633  1.00  0.00    -0.354 N 
ATOM     55  N   UNL A   1      42.570  27.812  31.321  1.00  0.00    -0.248 NA
ATOM     56  C   UNL A   1      44.149  26.438  30.283  1.00  0.00     0.031 C 
ATOM     57  C   UNL A   1      42.843  29.187  35.536  1.00  0.00     0.029 A 
ATOM     58  C   UNL A   1      42.791  28.765  34.216  1.00  0.00     0.049 A 
ATOM     59  H   UNL A   1      41.430  29.303  32.699  1.00  0.00     0.167 HD
ATOM     60  C   UNL A   1      43.555  27.475  32.240  1.00  0.00     0.074 A 
ATOM     61  C   UNL A   1      44.491  26.608  31.555  1.00  0.00     0.031 C 
ATOM     62  C   UNL A   1      43.678  27.860  33.533  1.00  0.00     0.034 A 
BRANCH  49  63
ATOM     63  C   UNL A   1      39.473  31.962  35.390  1.00  0.00     0.023 A 
ATOM     64  C   UNL A   1      38.553  31.433  36.317  1.00  0.00     0.012 A 
ATOM     65  C   UNL A   1      39.951  33.275  35.549  1.00  0.00     0.148 A 
ATOM     66  C   UNL A   1      38.106  32.205  37.386  1.00  0.00     0.002 A 
ATOM     67  C   UNL A   1      39.514  34.033  36.630  1.00  0.00     0.091 A 
ATOM     68  F   UNL A   1      40.818  33.754  34.646  1.00  0.00    -0.205 F 
ATOM     69  C   UNL A   1      38.591  33.501  37.546  1.00  0.00     0.022 A 
BRANCH  67  70
ATOM     70  S   UNL A   1      40.093  35.703  36.950  1.00  0.00     0.127 S 
ATOM     71  O   UNL A   1      39.441  36.001  38.225  1.00  0.00    -0.237 OA
ATOM     72  O   UNL A   1      41.540  35.512  37.035  1.00  0.00    -0.237 OA
ATOM     73  O   UNL A   1      39.640  36.511  35.826  1.00  0.00    -0.744 OA
ENDBRANCH  67  70
ENDBRANCH  49  63
BRANCH  50  74
ATOM     74  C   UNL A   1      42.598  26.282  27.794  1.00  0.00     0.023 A 
ATOM     75  C   UNL A   1      43.588  26.746  26.907  1.00  0.00     0.012 A 
ATOM     76  C   UNL A   1      42.080  24.983  27.633  1.00  0.00     0.148 A 
ATOM     77  C   UNL A   1      44.047  25.938  25.868  1.00  0.00     0.002 A 
ATOM     78  C   UNL A   1      42.563  24.171  26.611  1.00  0.00     0.091 A 
ATOM     79  F   UNL A   1      41.128  24.568  28.480  1.00  0.00    -0.205 F 
ATOM     80  C   UNL A   1      43.540  24.649  25.723  1.00  0.00     0.022 A 
BRANCH  78  81
ATOM     81  S   UNL A   1      42.033  22.466  26.403  1.00  0.00     0.127 S 
ATOM     82  O   UNL A   1      42.723  22.089  25.172  1.00  0.00    -0.237 OA
ATOM     83  O   UNL A   1      42.550  21.836  27.618  1.00  0.00    -0.237 OA
ATOM     84  O   UNL A   1      40.580  22.518  26.327  1.00  0.00    -0.744 OA
ENDBRANCH  78  81
ENDBRANCH  50  74
BRANCH  62  85
ATOM     85  C   UNL A   1      44.855  27.357  34.317  1.00  0.00     0.023 A 
ATOM     86  C   UNL A   1      46.014  28.152  34.387  1.00  0.00     0.012 A 
ATOM     87  C   UNL A   1      44.750  26.199  35.111  1.00  0.00     0.148 A 
ATOM     88  C   UNL A   1      47.056  27.804  35.243  1.00  0.00     0.002 A 
ATOM     89  C   UNL A   1      45.780  25.875  35.985  1.00  0.00     0.091 A 
ATOM     90  F   UNL A   1      43.632  25.465  35.023  1.00  0.00    -0.205 F 
ATOM     91  C   UNL A   1      46.933  26.675  36.050  1.00  0.00     0.022 A 
BRANCH  89  92
ATOM     92  S   UNL A   1      45.687  24.490  37.124  1.00  0.00     0.127 S 
ATOM     93  O   UNL A   1      47.011  24.525  37.744  1.00  0.00    -0.237 OA
ATOM     94  O   UNL A   1      44.589  24.889  38.003  1.00  0.00    -0.237 OA
ATOM     95  O   UNL A   1      45.422  23.312  36.309  1.00  0.00    -0.744 OA
ENDBRANCH  89  92
ENDBRANCH  62  85
ENDBRANCH  36  37
ENDBRANCH  28  31
ENDBRANCH  26  27
ENDBRANCH   1  26
TORSDOF 16
ENDMDL
MODEL 2
REMARK VINA RESULT:     -12.8      5.992     10.493
REMARK SMILES Nc1c(Cl)ccc2c1C=C(C(=O)NCCCCNC(=O)c1ccc(-c3c4nc(c(-c5cccc(S(=O)(=O)[O-])c5F)c5ccc([nH]5)c(-c5cccc(S(=O)(=O)[O-])c5F)c5nc(c(-c6cccc(S(=O)(=O)[O-])c6F)c6ccc3[nH]6)C=C5)C=C4)cc1)[C@@H](C(F)(F)F)O2
REMARK SMILES IDX 16 1 15 2 14 3 13 4 11 5 12 6 10 8 2 9 3 10 8 11 4 12 5 13
REMARK SMILES IDX 7 14 9 15 6 16 89 17 84 18 1 19 85 22 86 23 87 24 88 25
REMARK SMILES IDX 17 26 18 27 19 28 20 30 21 31 22 32 83 33 23 34 82 35 24 36
REMARK SMILES IDX 25 37 26 38 76 39 27 40 81 41 75 42 77 43 28 44 80 45 74 46
REMARK SMILES IDX 73 47 29 49 61 50 41 51 60 52 42 53 45 54 59 55 78 56 43 57
REMARK SMILES IDX 44 58 58 60 79 61 46 62 30 63 31 64 39 65 32 66 34 67 40 68
REMARK SMILES IDX 33 69 35 70 36 71 37 72 38 73 62 74 63 75 71 76 64 77 66 78
REMARK SMILES IDX 72 79 65 80 67 81 68 82 69 83 70 84 47 85 48 86 56 87 49 88
REMARK SMILES IDX 51 89 57 90 50 91 52 92 53 93 54 94 55 95
REMARK H PARENT 13 7 1 20 1 21 18 29 77 48 45 59
REMARK Flexibility Score: inf
ROOT
ATOM      1  C   UNL A   1      35.477  21.830  26.106  1.00  0.00     0.023 C 
ENDROOT
BRANCH   1   2
ATOM      2  C   UNL A   1      34.824  22.929  26.948  1.00  0.00     0.023 C 
BRANCH   2   3
ATOM      3  C   UNL A   1      34.280  24.098  26.132  1.00  0.00     0.116 C 
BRANCH   3   4
ATOM      4  N   UNL A   1      32.829  24.135  26.140  1.00  0.00    -0.352 N 
ATOM      5  C   UNL A   1      31.820  23.455  25.552  1.00  0.00     0.251 C 
ATOM      6  O   UNL A   1      30.683  23.844  25.840  1.00  0.00    -0.270 OA
ATOM      7  H   UNL A   1      32.490  24.846  26.731  1.00  0.00     0.163 HD
BRANCH   5   8
ATOM      8  C   UNL A   1      31.982  22.299  24.619  1.00  0.00     0.067 C 
ATOM      9  C   UNL A   1      32.700  18.649  24.942  1.00  0.00     0.061 A 
ATOM     10  C   UNL A   1      32.889  17.564  24.054  1.00  0.00     0.064 A 
ATOM     11  C   UNL A   1      32.333  19.899  24.394  1.00  0.00     0.042 A 
ATOM     12  Cl  UNL A   1      33.377  16.009  24.648  1.00  0.00    -0.082 Cl
ATOM     13  C   UNL A   1      32.680  17.695  22.680  1.00  0.00     0.026 A 
ATOM     14  C   UNL A   1      32.140  20.017  23.010  1.00  0.00     0.130 A 
ATOM     15  C   UNL A   1      32.104  21.095  25.209  1.00  0.00     0.027 C 
ATOM     16  C   UNL A   1      32.295  18.925  22.158  1.00  0.00     0.049 A 
ATOM     17  O   UNL A   1      31.753  21.183  22.409  1.00  0.00    -0.475 OA
ATOM     18  C   UNL A   1      32.064  22.411  23.126  1.00  0.00     0.314 C 
BRANCH   9  19
ATOM     19  N   UNL A   1      32.980  18.489  26.302  1.00  0.00    -0.397 N 
ATOM     20  H   UNL A   1      32.764  17.642  26.753  1.00  0.00     0.156 HD
ATOM     21  H   UNL A   1      33.395  19.225  26.809  1.00  0.00     0.156 HD
ENDBRANCH   9  19
BRANCH  18  22
ATOM     22  C   UNL A   1      33.418  22.957  22.639  1.00  0.00     0.429 C 
ATOM     23  F   UNL A   1      33.500  22.874  21.286  1.00  0.00    -0.167 F 
ATOM     24  F   UNL A   1      33.600  24.260  22.954  1.00  0.00    -0.167 F 
ATOM     25  F   UNL A   1      34.469  22.276  23.147  1.00  0.00    -0.167 F 
ENDBRANCH  18  22
ENDBRANCH   5   8
ENDBRANCH   3   4
ENDBRANCH   2   3
ENDBRANCH   1   2
BRANCH   1  26
ATOM     26  C   UNL A   1      36.815  22.202  25.467  1.00  0.00     0.116 C 
BRANCH  26  27
ATOM     27  N   UNL A   1      37.801  21.130  25.517  1.00  0.00    -0.352 N 
ATOM     28  C   UNL A   1      39.079  21.196  26.020  1.00  0.00     0.251 C 
ATOM     29  H   UNL A   1      37.521  20.261  25.150  1.00  0.00     0.163 HD
ATOM     30  O   UNL A   1      39.838  20.238  25.956  1.00  0.00    -0.269 OA
BRANCH  28  31
ATOM     31  C   UNL A   1      39.517  22.474  26.603  1.00  0.00     0.039 A 
ATOM     32  C   UNL A   1      40.530  22.461  27.563  1.00  0.00     0.014 A 
ATOM     33  C   UNL A   1      39.011  23.676  26.097  1.00  0.00     0.014 A 
ATOM     34  C   UNL A   1      41.086  23.669  27.978  1.00  0.00     0.010 A 
ATOM     35  C   UNL A   1      39.597  24.876  26.482  1.00  0.00     0.010 A 
ATOM     36  C   UNL A   1      40.640  24.879  27.420  1.00  0.00    -0.014 A 
BRANCH  36  37
ATOM     37  C   UNL A   1      41.264  26.161  27.816  1.00  0.00     0.031 A 
ATOM     38  C   UNL A   1      42.676  26.458  27.406  1.00  0.00     0.074 A 
ATOM     39  C   UNL A   1      40.574  27.032  28.577  1.00  0.00     0.049 A 
ATOM     40  N   UNL A   1      43.379  27.538  27.615  1.00  0.00    -0.248 NA
ATOM     41  C   UNL A   1      43.400  25.399  26.679  1.00  0.00     0.031 C 
ATOM     42  C   UNL A   1      39.219  26.820  29.093  1.00  0.00     0.029 A 
ATOM     43  N   UNL A   1      40.921  28.270  29.057  1.00  0.00    -0.354 N 
ATOM     44  C   UNL A   1      44.629  27.285  27.068  1.00  0.00     0.074 A 
ATOM     45  C   UNL A   1      44.602  25.938  26.542  1.00  0.00     0.031 C 
ATOM     46  C   UNL A   1      38.843  27.901  29.798  1.00  0.00     0.029 A 
ATOM     47  C   UNL A   1      39.926  28.878  29.788  1.00  0.00     0.049 A 
ATOM     48  H   UNL A   1      41.799  28.684  28.893  1.00  0.00     0.167 HD
ATOM     49  C   UNL A   1      45.689  28.118  26.972  1.00  0.00     0.034 A 
ATOM     50  C   UNL A   1      39.889  30.098  30.360  1.00  0.00     0.034 A 
ATOM     51  C   UNL A   1      45.684  29.478  27.424  1.00  0.00     0.049 A 
ATOM     52  C   UNL A   1      41.074  31.012  30.214  1.00  0.00     0.074 A 
ATOM     53  C   UNL A   1      46.662  30.440  27.256  1.00  0.00     0.029 A 
ATOM     54  N   UNL A   1      44.649  30.068  28.131  1.00  0.00    -0.354 N 
ATOM     55  N   UNL A   1      42.183  30.818  29.542  1.00  0.00    -0.248 NA
ATOM     56  C   UNL A   1      40.996  32.321  30.879  1.00  0.00     0.031 C 
ATOM     57  C   UNL A   1      46.216  31.618  27.862  1.00  0.00     0.029 A 
ATOM     58  C   UNL A   1      44.968  31.381  28.416  1.00  0.00     0.049 A 
ATOM     59  H   UNL A   1      43.813  29.618  28.390  1.00  0.00     0.167 HD
ATOM     60  C   UNL A   1      42.919  31.988  29.677  1.00  0.00     0.074 A 
ATOM     61  C   UNL A   1      42.131  32.890  30.492  1.00  0.00     0.031 C 
ATOM     62  C   UNL A   1      44.145  32.282  29.180  1.00  0.00     0.034 A 
BRANCH  49  63
ATOM     63  C   UNL A   1      46.911  27.612  26.264  1.00  0.00     0.023 A 
ATOM     64  C   UNL A   1      47.829  26.820  26.982  1.00  0.00     0.012 A 
ATOM     65  C   UNL A   1      47.117  27.856  24.895  1.00  0.00     0.148 A 
ATOM     66  C   UNL A   1      48.944  26.282  26.346  1.00  0.00     0.002 A 
ATOM     67  C   UNL A   1      48.223  27.299  24.263  1.00  0.00     0.091 A 
ATOM     68  F   UNL A   1      46.231  28.621  24.241  1.00  0.00    -0.205 F 
ATOM     69  C   UNL A   1      49.137  26.516  24.987  1.00  0.00     0.022 A 
BRANCH  67  70
ATOM     70  S   UNL A   1      48.556  27.511  22.511  1.00  0.00     0.127 S 
ATOM     71  O   UNL A   1      49.825  28.240  22.539  1.00  0.00    -0.237 OA
ATOM     72  O   UNL A   1      48.658  26.127  22.051  1.00  0.00    -0.237 OA
ATOM     73  O   UNL A   1      47.430  28.261  21.972  1.00  0.00    -0.744 OA
ENDBRANCH  67  70
ENDBRANCH  49  63
BRANCH  50  74
ATOM     74  C   UNL A   1      38.643  30.570  31.021  1.00  0.00     0.023 A 
ATOM     75  C   UNL A   1      38.486  30.349  32.403  1.00  0.00     0.012 A 
ATOM     76  C   UNL A   1      37.637  31.254  30.313  1.00  0.00     0.148 A 
ATOM     77  C   UNL A   1      37.343  30.788  33.068  1.00  0.00     0.002 A 
ATOM     78  C   UNL A   1      36.511  31.716  30.989  1.00  0.00     0.091 A 
ATOM     79  F   UNL A   1      37.801  31.440  28.995  1.00  0.00    -0.205 F 
ATOM     80  C   UNL A   1      36.359  31.477  32.364  1.00  0.00     0.022 A 
BRANCH  78  81
ATOM     81  S   UNL A   1      35.234  32.689  30.182  1.00  0.00     0.127 S 
ATOM     82  O   UNL A   1      35.987  33.859  29.739  1.00  0.00    -0.237 OA
ATOM     83  O   UNL A   1      34.800  31.793  29.110  1.00  0.00    -0.237 OA
ATOM     84  O   UNL A   1      34.226  32.931  31.204  1.00  0.00    -0.744 OA
ENDBRANCH  78  81
ENDBRANCH  50  74
BRANCH  62  85
ATOM     85  C   UNL A   1      44.731  33.630  29.483  1.00  0.00     0.023 A 
ATOM     86  C   UNL A   1      45.609  33.758  30.575  1.00  0.00     0.012 A 
ATOM     87  C   UNL A   1      44.551  34.710  28.598  1.00  0.00     0.148 A 
ATOM     88  C   UNL A   1      46.306  34.946  30.782  1.00  0.00     0.002 A 
ATOM     89  C   UNL A   1      45.273  35.880  28.792  1.00  0.00     0.091 A 
ATOM     90  F   UNL A   1      43.710  34.554  27.566  1.00  0.00    -0.205 F 
ATOM     91  C   UNL A   1      46.149  36.000  29.885  1.00  0.00     0.022 A 
BRANCH  89  92
ATOM     92  S   UNL A   1      45.204  37.265  27.652  1.00  0.00     0.127 S 
ATOM     93  O   UNL A   1      45.792  38.340  28.451  1.00  0.00    -0.237 OA
ATOM     94  O   UNL A   1      46.041  36.796  26.548  1.00  0.00    -0.237 OA
ATOM     95  O   UNL A   1      43.797  37.447  27.319  1.00  0.00    -0.744 OA
ENDBRANCH  89  92
ENDBRANCH  62  85
ENDBRANCH  36  37
ENDBRANCH  28  31
ENDBRANCH  26  27
ENDBRANCH   1  26
TORSDOF 16
ENDMDL
MODEL 3
REMARK VINA RESULT:     -12.4      1.884      2.222
REMARK SMILES Nc1c(Cl)ccc2c1C=C(C(=O)NCCCCNC(=O)c1ccc(-c3c4nc(c(-c5cccc(S(=O)(=O)[O-])c5F)c5ccc([nH]5)c(-c5cccc(S(=O)(=O)[O-])c5F)c5nc(c(-c6cccc(S(=O)(=O)[O-])c6F)c6ccc3[nH]6)C=C5)C=C4)cc1)[C@@H](C(F)(F)F)O2
REMARK SMILES IDX 16 1 15 2 14 3 13 4 11 5 12 6 10 8 2 9 3 10 8 11 4 12 5 13
REMARK SMILES IDX 7 14 9 15 6 16 89 17 84 18 1 19 85 22 86 23 87 24 88 25
REMARK SMILES IDX 17 26 18 27 19 28 20 30 21 31 22 32 83 33 23 34 82 35 24 36
REMARK SMILES IDX 25 37 26 38 76 39 27 40 81 41 75 42 77 43 28 44 80 45 74 46
REMARK SMILES IDX 73 47 29 49 61 50 41 51 60 52 42 53 45 54 59 55 78 56 43 57
REMARK SMILES IDX 44 58 58 60 79 61 46 62 30 63 31 64 39 65 32 66 34 67 40 68
REMARK SMILES IDX 33 69 35 70 36 71 37 72 38 73 62 74 63 75 71 76 64 77 66 78
REMARK SMILES IDX 72 79 65 80 67 81 68 82 69 83 70 84 47 85 48 86 56 87 49 88
REMARK SMILES IDX 51 89 57 90 50 91 52 92 53 93 54 94 55 95
REMARK H PARENT 13 7 1 20 1 21 18 29 77 48 45 59
REMARK Flexibility Score: inf
ROOT
ATOM      1  C   UNL A   1      33.090  29.272  24.593  1.00  0.00     0.023 C 
ENDROOT
BRANCH   1   2
ATOM      2  C   UNL A   1      34.014  28.262  23.907  1.00  0.00     0.023 C 
BRANCH   2   3
ATOM      3  C   UNL A   1      33.959  26.861  24.508  1.00  0.00     0.116 C 
BRANCH   3   4
ATOM      4  N   UNL A   1      33.506  25.875  23.544  1.00  0.00    -0.352 N 
ATOM      5  C   UNL A   1      32.341  25.545  22.943  1.00  0.00     0.251 C 
ATOM      6  O   UNL A   1      32.401  24.587  22.166  1.00  0.00    -0.270 OA
ATOM      7  H   UNL A   1      34.242  25.291  23.252  1.00  0.00     0.163 HD
BRANCH   5   8
ATOM      8  C   UNL A   1      31.035  26.244  23.141  1.00  0.00     0.067 C 
ATOM      9  C   UNL A   1      29.566  29.541  22.184  1.00  0.00     0.061 A 
ATOM     10  C   UNL A   1      28.341  30.215  22.404  1.00  0.00     0.064 A 
ATOM     11  C   UNL A   1      29.686  28.213  22.651  1.00  0.00     0.042 A 
ATOM     12  Cl  UNL A   1      28.132  31.859  21.892  1.00  0.00    -0.082 Cl
ATOM     13  C   UNL A   1      27.260  29.587  23.022  1.00  0.00     0.026 A 
ATOM     14  C   UNL A   1      28.593  27.601  23.282  1.00  0.00     0.130 A 
ATOM     15  C   UNL A   1      30.900  27.409  22.480  1.00  0.00     0.027 C 
ATOM     16  C   UNL A   1      27.384  28.271  23.455  1.00  0.00     0.049 A 
ATOM     17  O   UNL A   1      28.621  26.310  23.732  1.00  0.00    -0.475 OA
ATOM     18  C   UNL A   1      29.935  25.762  24.037  1.00  0.00     0.314 C 
BRANCH   9  19
ATOM     19  N   UNL A   1      30.643  30.228  21.616  1.00  0.00    -0.397 N 
ATOM     20  H   UNL A   1      31.335  30.623  22.194  1.00  0.00     0.156 HD
ATOM     21  H   UNL A   1      30.710  30.316  20.638  1.00  0.00     0.156 HD
ENDBRANCH   9  19
BRANCH  18  22
ATOM     22  C   UNL A   1      30.241  25.974  25.531  1.00  0.00     0.429 C 
ATOM     23  F   UNL A   1      30.636  27.255  25.755  1.00  0.00    -0.167 F 
ATOM     24  F   UNL A   1      29.163  25.762  26.321  1.00  0.00    -0.167 F 
ATOM     25  F   UNL A   1      31.228  25.166  25.981  1.00  0.00    -0.167 F 
ENDBRANCH  18  22
ENDBRANCH   5   8
ENDBRANCH   3   4
ENDBRANCH   2   3
ENDBRANCH   1   2
BRANCH   1  26
ATOM     26  C   UNL A   1      33.290  29.423  26.100  1.00  0.00     0.116 C 
BRANCH  26  27
ATOM     27  N   UNL A   1      32.915  30.737  26.608  1.00  0.00    -0.352 N 
ATOM     28  C   UNL A   1      33.649  31.549  27.441  1.00  0.00     0.251 C 
ATOM     29  H   UNL A   1      32.039  31.082  26.323  1.00  0.00     0.163 HD
ATOM     30  O   UNL A   1      33.202  32.615  27.846  1.00  0.00    -0.269 OA
BRANCH  28  31
ATOM     31  C   UNL A   1      34.976  31.073  27.861  1.00  0.00     0.039 A 
ATOM     32  C   UNL A   1      36.029  31.987  27.917  1.00  0.00     0.014 A 
ATOM     33  C   UNL A   1      35.128  29.761  28.319  1.00  0.00     0.014 A 
ATOM     34  C   UNL A   1      37.236  31.597  28.495  1.00  0.00     0.010 A 
ATOM     35  C   UNL A   1      36.318  29.389  28.934  1.00  0.00     0.010 A 
ATOM     36  C   UNL A   1      37.376  30.305  29.030  1.00  0.00    -0.014 A 
BRANCH  36  37
ATOM     37  C   UNL A   1      38.635  29.903  29.694  1.00  0.00     0.031 A 
ATOM     38  C   UNL A   1      38.964  30.446  31.054  1.00  0.00     0.074 A 
ATOM     39  C   UNL A   1      39.496  29.087  29.055  1.00  0.00     0.049 A 
ATOM     40  N   UNL A   1      39.990  30.178  31.815  1.00  0.00    -0.248 NA
ATOM     41  C   UNL A   1      38.026  31.427  31.628  1.00  0.00     0.031 C 
ATOM     42  C   UNL A   1      39.314  28.553  27.703  1.00  0.00     0.029 A 
ATOM     43  N   UNL A   1      40.702  28.569  29.456  1.00  0.00    -0.354 N 
ATOM     44  C   UNL A   1      39.836  30.969  32.944  1.00  0.00     0.074 A 
ATOM     45  C   UNL A   1      38.634  31.751  32.760  1.00  0.00     0.031 C 
ATOM     46  C   UNL A   1      40.359  27.765  27.397  1.00  0.00     0.029 A 
ATOM     47  C   UNL A   1      41.284  27.741  28.525  1.00  0.00     0.049 A 
ATOM     48  H   UNL A   1      41.110  28.770  30.329  1.00  0.00     0.167 HD
ATOM     49  C   UNL A   1      40.605  31.006  34.055  1.00  0.00     0.034 A 
ATOM     50  C   UNL A   1      42.424  27.024  28.590  1.00  0.00     0.034 A 
ATOM     51  C   UNL A   1      41.751  30.173  34.266  1.00  0.00     0.049 A 
ATOM     52  C   UNL A   1      43.245  27.067  29.849  1.00  0.00     0.074 A 
ATOM     53  C   UNL A   1      42.519  30.043  35.409  1.00  0.00     0.029 A 
ATOM     54  N   UNL A   1      42.293  29.325  33.314  1.00  0.00    -0.354 N 
ATOM     55  N   UNL A   1      42.990  27.688  30.975  1.00  0.00    -0.248 NA
ATOM     56  C   UNL A   1      44.494  26.290  29.861  1.00  0.00     0.031 C 
ATOM     57  C   UNL A   1      43.527  29.112  35.148  1.00  0.00     0.029 A 
ATOM     58  C   UNL A   1      43.392  28.674  33.840  1.00  0.00     0.049 A 
ATOM     59  H   UNL A   1      41.946  29.204  32.401  1.00  0.00     0.167 HD
ATOM     60  C   UNL A   1      44.026  27.354  31.837  1.00  0.00     0.074 A 
ATOM     61  C   UNL A   1      44.913  26.472  31.107  1.00  0.00     0.031 C 
ATOM     62  C   UNL A   1      44.230  27.755  33.115  1.00  0.00     0.034 A 
BRANCH  49  63
ATOM     63  C   UNL A   1      40.173  31.910  35.171  1.00  0.00     0.023 A 
ATOM     64  C   UNL A   1      40.681  33.224  35.213  1.00  0.00     0.012 A 
ATOM     65  C   UNL A   1      39.227  31.495  36.125  1.00  0.00     0.148 A 
ATOM     66  C   UNL A   1      40.260  34.113  36.198  1.00  0.00     0.002 A 
ATOM     67  C   UNL A   1      38.797  32.395  37.094  1.00  0.00     0.091 A 
ATOM     68  F   UNL A   1      38.769  30.237  36.066  1.00  0.00    -0.205 F 
ATOM     69  C   UNL A   1      39.314  33.701  37.133  1.00  0.00     0.022 A 
BRANCH  67  70
ATOM     70  S   UNL A   1      37.562  31.982  38.330  1.00  0.00     0.127 S 
ATOM     71  O   UNL A   1      37.230  30.604  37.967  1.00  0.00    -0.237 OA
ATOM     72  O   UNL A   1      38.318  32.119  39.574  1.00  0.00    -0.237 OA
ATOM     73  O   UNL A   1      36.478  32.939  38.157  1.00  0.00    -0.744 OA
ENDBRANCH  67  70
ENDBRANCH  49  63
BRANCH  50  74
ATOM     74  C   UNL A   1      42.794  26.115  27.473  1.00  0.00     0.023 A 
ATOM     75  C   UNL A   1      43.672  26.588  26.479  1.00  0.00     0.012 A 
ATOM     76  C   UNL A   1      42.317  24.793  27.399  1.00  0.00     0.148 A 
ATOM     77  C   UNL A   1      44.060  25.766  25.422  1.00  0.00     0.002 A 
ATOM     78  C   UNL A   1      42.731  23.967  26.357  1.00  0.00     0.091 A 
ATOM     79  F   UNL A   1      41.471  24.368  28.348  1.00  0.00    -0.205 F 
ATOM     80  C   UNL A   1      43.596  24.455  25.364  1.00  0.00     0.022 A 
BRANCH  78  81
ATOM     81  S   UNL A   1      42.255  22.238  26.250  1.00  0.00     0.127 S 
ATOM     82  O   UNL A   1      42.690  21.728  27.547  1.00  0.00    -0.237 OA
ATOM     83  O   UNL A   1      40.804  22.332  26.079  1.00  0.00    -0.237 OA
ATOM     84  O   UNL A   1      42.961  21.712  25.090  1.00  0.00    -0.744 OA
ENDBRANCH  78  81
ENDBRANCH  50  74
BRANCH  62  85
ATOM     85  C   UNL A   1      45.449  27.252  33.833  1.00  0.00     0.023 A 
ATOM     86  C   UNL A   1      45.373  26.031  34.526  1.00  0.00     0.012 A 
ATOM     87  C   UNL A   1      46.693  27.893  33.676  1.00  0.00     0.148 A 
ATOM     88  C   UNL A   1      46.522  25.448  35.055  1.00  0.00     0.002 A 
ATOM     89  C   UNL A   1      47.840  27.291  34.178  1.00  0.00     0.091 A 
ATOM     90  F   UNL A   1      46.732  29.055  33.008  1.00  0.00    -0.205 F 
ATOM     91  C   UNL A   1      47.755  26.070  34.869  1.00  0.00     0.022 A 
BRANCH  89  92
ATOM     92  S   UNL A   1      49.483  27.968  33.925  1.00  0.00     0.127 S 
ATOM     93  O   UNL A   1      49.315  29.344  34.391  1.00  0.00    -0.237 OA
ATOM     94  O   UNL A   1      50.300  27.123  34.795  1.00  0.00    -0.237 OA
ATOM     95  O   UNL A   1      49.763  27.832  32.501  1.00  0.00    -0.744 OA
ENDBRANCH  89  92
ENDBRANCH  62  85
ENDBRANCH  36  37
ENDBRANCH  28  31
ENDBRANCH  26  27
ENDBRANCH   1  26
TORSDOF 16
ENDMDL
