MODEL 1
REMARK VINA RESULT:     -12.4      0.000      0.000
REMARK SMILES O=C(NCCCCNC(=O)C1(NC(=O)c2c[nH]c(=O)c(Cl)c2)CCCCC1)c1ccc(-c2c3nc(c(-c4cccc(S(=O)(=O)[O-])c4F)c4ccc([nH]4)c(-c4cccc(S(=O)(=O)[O-])c4F)c4nc(c(-c5cccc(S(=O)(=O)[O-])c5F)c5ccc2[nH]5)C=C4)C=C3)cc1
REMARK SMILES IDX 5 1 4 2 3 3 1 4 2 5 28 7 29 8 90 9 30 10 89 11 31 12 32 13
REMARK SMILES IDX 33 14 83 15 34 16 88 17 82 18 84 19 35 20 87 21 81 22 80 23
REMARK SMILES IDX 36 25 68 26 48 27 67 28 49 29 52 30 66 31 85 32 50 33 51 34
REMARK SMILES IDX 65 36 86 37 53 38 37 39 38 40 46 41 39 42 41 43 47 44 40 45
REMARK SMILES IDX 42 46 43 47 44 48 45 49 69 50 70 51 78 52 71 53 73 54 79 55
REMARK SMILES IDX 72 56 74 57 75 58 76 59 77 60 54 61 55 62 63 63 56 64 58 65
REMARK SMILES IDX 64 66 57 67 59 68 60 69 61 70 62 71 6 72 7 73 8 74 9 75
REMARK SMILES IDX 10 77 11 78 23 79 27 80 24 81 26 82 25 83 12 84 13 85 14 87
REMARK SMILES IDX 15 88 16 89 22 90 17 91 20 92 18 93 21 95 19 96
REMARK H PARENT 3 6 84 24 52 35 8 76 12 86 17 94
REMARK Flexibility Score: inf
ROOT
ATOM      1  C   UNL A   1      31.495  31.785  26.897  1.00  0.00     0.023 C 
ENDROOT
BRANCH   1   2
ATOM      2  C   UNL A   1      32.790  32.520  27.159  1.00  0.00     0.116 C 
BRANCH   2   3
ATOM      3  N   UNL A   1      32.570  33.885  27.595  1.00  0.00    -0.352 N 
ATOM      4  O   UNL A   1      32.757  35.649  28.983  1.00  0.00    -0.269 OA
ATOM      5  C   UNL A   1      33.189  34.561  28.619  1.00  0.00     0.251 C 
ATOM      6  H   UNL A   1      31.890  34.393  27.096  1.00  0.00     0.163 HD
BRANCH   5   7
ATOM      7  C   UNL A   1      34.357  33.943  29.285  1.00  0.00     0.039 A 
ATOM      8  C   UNL A   1      34.171  32.978  30.279  1.00  0.00     0.014 A 
ATOM      9  C   UNL A   1      35.644  34.352  28.931  1.00  0.00     0.014 A 
ATOM     10  C   UNL A   1      35.257  32.527  31.014  1.00  0.00     0.010 A 
ATOM     11  C   UNL A   1      36.746  33.813  29.599  1.00  0.00     0.010 A 
ATOM     12  C   UNL A   1      36.560  32.910  30.658  1.00  0.00    -0.014 A 
BRANCH  12  13
ATOM     13  C   UNL A   1      37.709  32.253  31.327  1.00  0.00     0.031 A 
ATOM     14  C   UNL A   1      38.458  31.124  30.682  1.00  0.00     0.074 A 
ATOM     15  C   UNL A   1      38.058  32.694  32.552  1.00  0.00     0.049 A 
ATOM     16  N   UNL A   1      39.478  30.450  31.146  1.00  0.00    -0.248 NA
ATOM     17  C   UNL A   1      38.005  30.684  29.352  1.00  0.00     0.031 C 
ATOM     18  C   UNL A   1      37.364  33.755  33.292  1.00  0.00     0.029 A 
ATOM     19  N   UNL A   1      39.071  32.317  33.392  1.00  0.00    -0.354 N 
ATOM     20  C   UNL A   1      39.763  29.480  30.194  1.00  0.00     0.074 A 
ATOM     21  C   UNL A   1      38.806  29.651  29.121  1.00  0.00     0.031 C 
ATOM     22  C   UNL A   1      37.990  33.964  34.457  1.00  0.00     0.029 A 
ATOM     23  C   UNL A   1      39.085  33.013  34.579  1.00  0.00     0.049 A 
ATOM     24  H   UNL A   1      39.726  31.616  33.169  1.00  0.00     0.167 HD
ATOM     25  C   UNL A   1      40.741  28.542  30.210  1.00  0.00     0.034 A 
ATOM     26  C   UNL A   1      39.877  32.886  35.660  1.00  0.00     0.034 A 
ATOM     27  C   UNL A   1      41.710  28.408  31.268  1.00  0.00     0.049 A 
ATOM     28  C   UNL A   1      40.970  31.859  35.632  1.00  0.00     0.074 A 
ATOM     29  C   UNL A   1      42.778  27.532  31.349  1.00  0.00     0.029 A 
ATOM     30  N   UNL A   1      41.726  29.164  32.431  1.00  0.00    -0.354 N 
ATOM     31  N   UNL A   1      41.297  31.033  34.669  1.00  0.00    -0.248 NA
ATOM     32  C   UNL A   1      41.816  31.762  36.829  1.00  0.00     0.031 C 
ATOM     33  C   UNL A   1      43.428  27.746  32.569  1.00  0.00     0.029 A 
ATOM     34  C   UNL A   1      42.779  28.770  33.239  1.00  0.00     0.049 A 
ATOM     35  H   UNL A   1      41.083  29.877  32.649  1.00  0.00     0.167 HD
ATOM     36  C   UNL A   1      42.403  30.332  35.131  1.00  0.00     0.074 A 
ATOM     37  C   UNL A   1      42.705  30.853  36.451  1.00  0.00     0.031 C 
ATOM     38  C   UNL A   1      43.092  29.333  34.528  1.00  0.00     0.034 A 
BRANCH  25  39
ATOM     39  C   UNL A   1      40.843  27.605  29.035  1.00  0.00     0.023 A 
ATOM     40  C   UNL A   1      39.979  26.494  28.952  1.00  0.00     0.012 A 
ATOM     41  C   UNL A   1      41.737  27.862  27.976  1.00  0.00     0.148 A 
ATOM     42  C   UNL A   1      40.019  25.641  27.849  1.00  0.00     0.002 A 
ATOM     43  C   UNL A   1      41.746  27.030  26.862  1.00  0.00     0.091 A 
ATOM     44  F   UNL A   1      42.566  28.910  28.081  1.00  0.00    -0.205 F 
ATOM     45  C   UNL A   1      40.894  25.916  26.800  1.00  0.00     0.022 A 
BRANCH  43  46
ATOM     46  S   UNL A   1      42.783  27.343  25.427  1.00  0.00     0.127 S 
ATOM     47  O   UNL A   1      42.640  26.094  24.682  1.00  0.00    -0.237 OA
ATOM     48  O   UNL A   1      42.123  28.497  24.814  1.00  0.00    -0.237 OA
ATOM     49  O   UNL A   1      44.116  27.614  25.948  1.00  0.00    -0.744 OA
ENDBRANCH  43  46
ENDBRANCH  25  39
BRANCH  26  50
ATOM     50  C   UNL A   1      39.680  33.788  36.826  1.00  0.00     0.023 A 
ATOM     51  C   UNL A   1      40.006  35.152  36.711  1.00  0.00     0.012 A 
ATOM     52  C   UNL A   1      39.108  33.318  38.025  1.00  0.00     0.148 A 
ATOM     53  C   UNL A   1      39.788  36.028  37.776  1.00  0.00     0.002 A 
ATOM     54  C   UNL A   1      38.836  34.206  39.059  1.00  0.00     0.091 A 
ATOM     55  F   UNL A   1      38.815  32.012  38.121  1.00  0.00    -0.205 F 
ATOM     56  C   UNL A   1      39.191  35.558  38.943  1.00  0.00     0.022 A 
BRANCH  54  57
ATOM     57  S   UNL A   1      37.929  33.711  40.529  1.00  0.00     0.127 S 
ATOM     58  O   UNL A   1      38.854  32.767  41.147  1.00  0.00    -0.237 OA
ATOM     59  O   UNL A   1      37.778  34.983  41.237  1.00  0.00    -0.237 OA
ATOM     60  O   UNL A   1      36.676  33.150  40.041  1.00  0.00    -0.744 OA
ENDBRANCH  54  57
ENDBRANCH  26  50
BRANCH  38  61
ATOM     61  C   UNL A   1      44.259  28.753  35.280  1.00  0.00     0.023 A 
ATOM     62  C   UNL A   1      45.548  29.290  35.090  1.00  0.00     0.012 A 
ATOM     63  C   UNL A   1      44.070  27.717  36.216  1.00  0.00     0.148 A 
ATOM     64  C   UNL A   1      46.636  28.784  35.798  1.00  0.00     0.002 A 
ATOM     65  C   UNL A   1      45.152  27.251  36.951  1.00  0.00     0.091 A 
ATOM     66  F   UNL A   1      42.839  27.205  36.364  1.00  0.00    -0.205 F 
ATOM     67  C   UNL A   1      46.437  27.773  36.736  1.00  0.00     0.022 A 
BRANCH  65  68
ATOM     68  S   UNL A   1      44.971  26.016  38.243  1.00  0.00     0.127 S 
ATOM     69  O   UNL A   1      46.344  25.892  38.731  1.00  0.00    -0.237 OA
ATOM     70  O   UNL A   1      44.050  26.671  39.173  1.00  0.00    -0.237 OA
ATOM     71  O   UNL A   1      44.429  24.831  37.591  1.00  0.00    -0.744 OA
ENDBRANCH  65  68
ENDBRANCH  38  61
ENDBRANCH  12  13
ENDBRANCH   5   7
ENDBRANCH   2   3
ENDBRANCH   1   2
BRANCH   1  72
ATOM     72  C   UNL A   1      31.505  30.862  25.689  1.00  0.00     0.023 C 
BRANCH  72  73
ATOM     73  C   UNL A   1      32.339  29.581  25.770  1.00  0.00     0.116 C 
BRANCH  73  74
ATOM     74  N   UNL A   1      33.312  29.335  24.708  1.00  0.00    -0.354 N 
ATOM     75  C   UNL A   1      33.230  28.695  23.492  1.00  0.00     0.245 C 
ATOM     76  H   UNL A   1      34.206  29.701  24.901  1.00  0.00     0.163 HD
ATOM     77  O   UNL A   1      34.218  28.757  22.757  1.00  0.00    -0.272 OA
BRANCH  75  78
ATOM     78  C   UNL A   1      31.920  28.008  23.032  1.00  0.00     0.119 C 
ATOM     79  C   UNL A   1      31.490  27.201  24.304  1.00  0.00     0.038 C 
ATOM     80  C   UNL A   1      30.760  28.991  22.722  1.00  0.00     0.038 C 
ATOM     81  C   UNL A   1      30.145  26.505  24.219  1.00  0.00     0.003 C 
ATOM     82  C   UNL A   1      29.391  28.286  22.632  1.00  0.00     0.003 C 
ATOM     83  C   UNL A   1      29.052  27.504  23.898  1.00  0.00     0.000 C 
BRANCH  78  84
ATOM     84  N   UNL A   1      32.152  27.161  21.835  1.00  0.00    -0.338 N 
ATOM     85  C   UNL A   1      32.867  26.009  21.628  1.00  0.00     0.253 C 
ATOM     86  H   UNL A   1      31.701  27.493  21.026  1.00  0.00     0.164 HD
ATOM     87  O   UNL A   1      33.321  25.872  20.486  1.00  0.00    -0.269 OA
BRANCH  85  88
ATOM     88  C   UNL A   1      33.107  24.885  22.622  1.00  0.00     0.057 A 
ATOM     89  C   UNL A   1      32.585  23.652  22.516  1.00  0.00     0.099 A 
ATOM     90  C   UNL A   1      34.185  25.033  23.610  1.00  0.00     0.041 A 
ATOM     91  N   UNL A   1      32.975  22.598  23.304  1.00  0.00    -0.327 N 
ATOM     92  C   UNL A   1      34.617  24.009  24.368  1.00  0.00     0.106 A 
ATOM     93  C   UNL A   1      33.976  22.663  24.245  1.00  0.00     0.266 A 
ATOM     94  H   UNL A   1      32.509  21.740  23.187  1.00  0.00     0.169 HD
ATOM     95  Cl  UNL A   1      35.925  24.177  25.469  1.00  0.00    -0.078 Cl
ATOM     96  O   UNL A   1      34.298  21.685  24.896  1.00  0.00    -0.268 OA
ENDBRANCH  85  88
ENDBRANCH  78  84
ENDBRANCH  75  78
ENDBRANCH  73  74
ENDBRANCH  72  73
ENDBRANCH   1  72
TORSDOF 16
ENDMDL
MODEL 2
REMARK VINA RESULT:     -12.4      2.659      8.358
REMARK SMILES O=C(NCCCCNC(=O)C1(NC(=O)c2c[nH]c(=O)c(Cl)c2)CCCCC1)c1ccc(-c2c3nc(c(-c4cccc(S(=O)(=O)[O-])c4F)c4ccc([nH]4)c(-c4cccc(S(=O)(=O)[O-])c4F)c4nc(c(-c5cccc(S(=O)(=O)[O-])c5F)c5ccc2[nH]5)C=C4)C=C3)cc1
REMARK SMILES IDX 5 1 4 2 3 3 1 4 2 5 28 7 29 8 90 9 30 10 89 11 31 12 32 13
REMARK SMILES IDX 33 14 83 15 34 16 88 17 82 18 84 19 35 20 87 21 81 22 80 23
REMARK SMILES IDX 36 25 68 26 48 27 67 28 49 29 52 30 66 31 85 32 50 33 51 34
REMARK SMILES IDX 65 36 86 37 53 38 37 39 38 40 46 41 39 42 41 43 47 44 40 45
REMARK SMILES IDX 42 46 43 47 44 48 45 49 69 50 70 51 78 52 71 53 73 54 79 55
REMARK SMILES IDX 72 56 74 57 75 58 76 59 77 60 54 61 55 62 63 63 56 64 58 65
REMARK SMILES IDX 64 66 57 67 59 68 60 69 61 70 62 71 6 72 7 73 8 74 9 75
REMARK SMILES IDX 10 77 11 78 23 79 27 80 24 81 26 82 25 83 12 84 13 85 14 87
REMARK SMILES IDX 15 88 16 89 22 90 17 91 20 92 18 93 21 95 19 96
REMARK H PARENT 3 6 84 24 52 35 8 76 12 86 17 94
REMARK Flexibility Score: inf
ROOT
ATOM      1  C   UNL A   1      33.680  28.934  23.826  1.00  0.00     0.023 C 
ENDROOT
BRANCH   1   2
ATOM      2  C   UNL A   1      33.326  29.019  25.295  1.00  0.00     0.116 C 
BRANCH   2   3
ATOM      3  N   UNL A   1      32.782  30.313  25.656  1.00  0.00    -0.352 N 
ATOM      4  O   UNL A   1      32.477  32.111  26.977  1.00  0.00    -0.269 OA
ATOM      5  C   UNL A   1      33.161  31.135  26.691  1.00  0.00     0.251 C 
ATOM      6  H   UNL A   1      32.048  30.645  25.091  1.00  0.00     0.163 HD
BRANCH   5   7
ATOM      7  C   UNL A   1      34.381  30.807  27.460  1.00  0.00     0.039 A 
ATOM      8  C   UNL A   1      34.531  29.542  28.035  1.00  0.00     0.014 A 
ATOM      9  C   UNL A   1      35.368  31.780  27.630  1.00  0.00     0.014 A 
ATOM     10  C   UNL A   1      35.593  29.295  28.892  1.00  0.00     0.010 A 
ATOM     11  C   UNL A   1      36.493  31.492  28.405  1.00  0.00     0.010 A 
ATOM     12  C   UNL A   1      36.605  30.253  29.057  1.00  0.00    -0.014 A 
BRANCH  12  13
ATOM     13  C   UNL A   1      37.827  29.883  29.812  1.00  0.00     0.031 A 
ATOM     14  C   UNL A   1      38.085  30.398  31.198  1.00  0.00     0.074 A 
ATOM     15  C   UNL A   1      38.717  29.070  29.207  1.00  0.00     0.049 A 
ATOM     16  N   UNL A   1      39.109  30.164  31.978  1.00  0.00    -0.248 NA
ATOM     17  C   UNL A   1      37.078  31.297  31.784  1.00  0.00     0.031 C 
ATOM     18  C   UNL A   1      38.585  28.551  27.841  1.00  0.00     0.029 A 
ATOM     19  N   UNL A   1      39.898  28.538  29.649  1.00  0.00    -0.354 N 
ATOM     20  C   UNL A   1      38.896  30.917  33.126  1.00  0.00     0.074 A 
ATOM     21  C   UNL A   1      37.643  31.619  32.941  1.00  0.00     0.031 C 
ATOM     22  C   UNL A   1      39.625  27.751  27.570  1.00  0.00     0.029 A 
ATOM     23  C   UNL A   1      40.528  27.752  28.712  1.00  0.00     0.049 A 
ATOM     24  H   UNL A   1      40.261  28.701  30.550  1.00  0.00     0.167 HD
ATOM     25  C   UNL A   1      39.671  31.004  34.235  1.00  0.00     0.034 A 
ATOM     26  C   UNL A   1      41.715  27.119  28.753  1.00  0.00     0.034 A 
ATOM     27  C   UNL A   1      40.896  30.271  34.419  1.00  0.00     0.049 A 
ATOM     28  C   UNL A   1      42.533  27.210  30.008  1.00  0.00     0.074 A 
ATOM     29  C   UNL A   1      41.721  30.240  35.530  1.00  0.00     0.029 A 
ATOM     30  N   UNL A   1      41.478  29.444  33.469  1.00  0.00    -0.354 N 
ATOM     31  N   UNL A   1      42.253  27.831  31.128  1.00  0.00    -0.248 NA
ATOM     32  C   UNL A   1      43.816  26.496  30.013  1.00  0.00     0.031 C 
ATOM     33  C   UNL A   1      42.811  29.411  35.244  1.00  0.00     0.029 A 
ATOM     34  C   UNL A   1      42.654  28.906  33.964  1.00  0.00     0.049 A 
ATOM     35  H   UNL A   1      41.108  29.266  32.574  1.00  0.00     0.167 HD
ATOM     36  C   UNL A   1      43.314  27.565  31.983  1.00  0.00     0.074 A 
ATOM     37  C   UNL A   1      44.227  26.701  31.258  1.00  0.00     0.031 C 
ATOM     38  C   UNL A   1      43.525  28.011  33.245  1.00  0.00     0.034 A 
BRANCH  25  39
ATOM     39  C   UNL A   1      39.204  31.896  35.356  1.00  0.00     0.023 A 
ATOM     40  C   UNL A   1      38.295  31.397  36.311  1.00  0.00     0.012 A 
ATOM     41  C   UNL A   1      39.720  33.198  35.510  1.00  0.00     0.148 A 
ATOM     42  C   UNL A   1      37.888  32.187  37.387  1.00  0.00     0.002 A 
ATOM     43  C   UNL A   1      39.340  33.966  36.606  1.00  0.00     0.091 A 
ATOM     44  F   UNL A   1      40.567  33.664  34.582  1.00  0.00    -0.205 F 
ATOM     45  C   UNL A   1      38.419  33.466  37.540  1.00  0.00     0.022 A 
BRANCH  43  46
ATOM     46  S   UNL A   1      40.026  35.596  36.931  1.00  0.00     0.127 S 
ATOM     47  O   UNL A   1      39.378  35.941  38.195  1.00  0.00    -0.237 OA
ATOM     48  O   UNL A   1      41.458  35.314  37.037  1.00  0.00    -0.237 OA
ATOM     49  O   UNL A   1      39.654  36.422  35.790  1.00  0.00    -0.744 OA
ENDBRANCH  43  46
ENDBRANCH  25  39
BRANCH  26  50
ATOM     50  C   UNL A   1      42.162  26.316  27.584  1.00  0.00     0.023 A 
ATOM     51  C   UNL A   1      43.000  26.904  26.618  1.00  0.00     0.012 A 
ATOM     52  C   UNL A   1      41.819  24.954  27.459  1.00  0.00     0.148 A 
ATOM     53  C   UNL A   1      43.470  26.158  25.536  1.00  0.00     0.002 A 
ATOM     54  C   UNL A   1      42.340  24.202  26.414  1.00  0.00     0.091 A 
ATOM     55  F   UNL A   1      41.009  24.415  28.382  1.00  0.00    -0.205 F 
ATOM     56  C   UNL A   1      43.152  24.805  25.441  1.00  0.00     0.022 A 
BRANCH  54  57
ATOM     57  S   UNL A   1      42.106  22.424  26.308  1.00  0.00     0.127 S 
ATOM     58  O   UNL A   1      42.819  22.101  25.077  1.00  0.00    -0.237 OA
ATOM     59  O   UNL A   1      42.750  21.957  27.536  1.00  0.00    -0.237 OA
ATOM     60  O   UNL A   1      40.663  22.223  26.281  1.00  0.00    -0.744 OA
ENDBRANCH  54  57
ENDBRANCH  26  50
BRANCH  38  61
ATOM     61  C   UNL A   1      44.781  27.554  33.934  1.00  0.00     0.023 A 
ATOM     62  C   UNL A   1      45.946  28.344  33.860  1.00  0.00     0.012 A 
ATOM     63  C   UNL A   1      44.792  26.373  34.703  1.00  0.00     0.148 A 
ATOM     64  C   UNL A   1      47.111  27.950  34.514  1.00  0.00     0.002 A 
ATOM     65  C   UNL A   1      45.944  26.012  35.390  1.00  0.00     0.091 A 
ATOM     66  F   UNL A   1      43.681  25.623  34.740  1.00  0.00    -0.205 F 
ATOM     67  C   UNL A   1      47.107  26.791  35.288  1.00  0.00     0.022 A 
BRANCH  65  68
ATOM     68  S   UNL A   1      46.001  24.586  36.481  1.00  0.00     0.127 S 
ATOM     69  O   UNL A   1      45.990  23.479  35.525  1.00  0.00    -0.237 OA
ATOM     70  O   UNL A   1      47.275  24.777  37.176  1.00  0.00    -0.237 OA
ATOM     71  O   UNL A   1      44.826  24.688  37.335  1.00  0.00    -0.744 OA
ENDBRANCH  65  68
ENDBRANCH  38  61
ENDBRANCH  12  13
ENDBRANCH   5   7
ENDBRANCH   2   3
ENDBRANCH   1   2
BRANCH   1  72
ATOM     72  C   UNL A   1      33.050  27.772  23.073  1.00  0.00     0.023 C 
BRANCH  72  73
ATOM     73  C   UNL A   1      33.237  26.363  23.640  1.00  0.00     0.116 C 
BRANCH  73  74
ATOM     74  N   UNL A   1      33.522  25.284  22.697  1.00  0.00    -0.354 N 
ATOM     75  C   UNL A   1      34.029  24.013  22.853  1.00  0.00     0.245 C 
ATOM     76  H   UNL A   1      33.308  25.510  21.763  1.00  0.00     0.163 HD
ATOM     77  O   UNL A   1      34.042  23.287  21.856  1.00  0.00    -0.272 OA
BRANCH  75  78
ATOM     78  C   UNL A   1      34.475  23.490  24.241  1.00  0.00     0.119 C 
ATOM     79  C   UNL A   1      35.288  22.201  23.878  1.00  0.00     0.038 C 
ATOM     80  C   UNL A   1      35.456  24.431  24.990  1.00  0.00     0.038 C 
ATOM     81  C   UNL A   1      35.983  21.512  25.037  1.00  0.00     0.003 C 
ATOM     82  C   UNL A   1      36.163  23.735  26.171  1.00  0.00     0.003 C 
ATOM     83  C   UNL A   1      36.913  22.477  25.744  1.00  0.00     0.000 C 
BRANCH  78  84
ATOM     84  N   UNL A   1      33.305  23.235  25.119  1.00  0.00    -0.338 N 
ATOM     85  C   UNL A   1      32.213  22.413  25.006  1.00  0.00     0.253 C 
ATOM     86  H   UNL A   1      33.316  23.761  25.950  1.00  0.00     0.164 HD
ATOM     87  O   UNL A   1      31.191  22.819  25.572  1.00  0.00    -0.269 OA
BRANCH  85  88
ATOM     88  C   UNL A   1      32.147  21.061  24.317  1.00  0.00     0.057 A 
ATOM     89  C   UNL A   1      32.002  20.888  22.993  1.00  0.00     0.099 A 
ATOM     90  C   UNL A   1      32.545  19.864  25.071  1.00  0.00     0.041 A 
ATOM     91  N   UNL A   1      32.153  19.674  22.370  1.00  0.00    -0.327 N 
ATOM     92  C   UNL A   1      32.739  18.670  24.483  1.00  0.00     0.106 A 
ATOM     93  C   UNL A   1      32.523  18.515  23.010  1.00  0.00     0.266 A 
ATOM     94  H   UNL A   1      31.985  19.631  21.401  1.00  0.00     0.169 HD
ATOM     95  Cl  UNL A   1      33.271  17.294  25.363  1.00  0.00    -0.078 Cl
ATOM     96  O   UNL A   1      32.669  17.471  22.398  1.00  0.00    -0.268 OA
ENDBRANCH  85  88
ENDBRANCH  78  84
ENDBRANCH  75  78
ENDBRANCH  73  74
ENDBRANCH  72  73
ENDBRANCH   1  72
TORSDOF 16
ENDMDL
MODEL 3
REMARK VINA RESULT:     -12.4      6.187     11.471
REMARK SMILES O=C(NCCCCNC(=O)C1(NC(=O)c2c[nH]c(=O)c(Cl)c2)CCCCC1)c1ccc(-c2c3nc(c(-c4cccc(S(=O)(=O)[O-])c4F)c4ccc([nH]4)c(-c4cccc(S(=O)(=O)[O-])c4F)c4nc(c(-c5cccc(S(=O)(=O)[O-])c5F)c5ccc2[nH]5)C=C4)C=C3)cc1
REMARK SMILES IDX 5 1 4 2 3 3 1 4 2 5 28 7 29 8 90 9 30 10 89 11 31 12 32 13
REMARK SMILES IDX 33 14 83 15 34 16 88 17 82 18 84 19 35 20 87 21 81 22 80 23
REMARK SMILES IDX 36 25 68 26 48 27 67 28 49 29 52 30 66 31 85 32 50 33 51 34
REMARK SMILES IDX 65 36 86 37 53 38 37 39 38 40 46 41 39 42 41 43 47 44 40 45
REMARK SMILES IDX 42 46 43 47 44 48 45 49 69 50 70 51 78 52 71 53 73 54 79 55
REMARK SMILES IDX 72 56 74 57 75 58 76 59 77 60 54 61 55 62 63 63 56 64 58 65
REMARK SMILES IDX 64 66 57 67 59 68 60 69 61 70 62 71 6 72 7 73 8 74 9 75
REMARK SMILES IDX 10 77 11 78 23 79 27 80 24 81 26 82 25 83 12 84 13 85 14 87
REMARK SMILES IDX 15 88 16 89 22 90 17 91 20 92 18 93 21 95 19 96
REMARK H PARENT 3 6 84 24 52 35 8 76 12 86 17 94
REMARK Flexibility Score: inf
ROOT
ATOM      1  C   UNL A   1      38.092  19.739  24.802  1.00  0.00     0.023 C 
ENDROOT
BRANCH   1   2
ATOM      2  C   UNL A   1      39.004  20.172  25.928  1.00  0.00     0.116 C 
BRANCH   2   3
ATOM      3  N   UNL A   1      40.122  19.267  26.110  1.00  0.00    -0.352 N 
ATOM      4  O   UNL A   1      42.296  18.700  26.266  1.00  0.00    -0.269 OA
ATOM      5  C   UNL A   1      41.444  19.580  26.319  1.00  0.00     0.251 C 
ATOM      6  H   UNL A   1      39.908  18.306  26.080  1.00  0.00     0.163 HD
BRANCH   5   7
ATOM      7  C   UNL A   1      41.817  20.987  26.578  1.00  0.00     0.039 A 
ATOM      8  C   UNL A   1      42.155  21.399  27.871  1.00  0.00     0.014 A 
ATOM      9  C   UNL A   1      41.804  21.906  25.527  1.00  0.00     0.014 A 
ATOM     10  C   UNL A   1      42.339  22.748  28.139  1.00  0.00     0.010 A 
ATOM     11  C   UNL A   1      42.098  23.248  25.780  1.00  0.00     0.010 A 
ATOM     12  C   UNL A   1      42.350  23.681  27.091  1.00  0.00    -0.014 A 
BRANCH  12  13
ATOM     13  C   UNL A   1      42.754  25.079  27.381  1.00  0.00     0.031 A 
ATOM     14  C   UNL A   1      41.827  26.044  28.060  1.00  0.00     0.074 A 
ATOM     15  C   UNL A   1      43.988  25.467  27.001  1.00  0.00     0.049 A 
ATOM     16  N   UNL A   1      42.039  27.296  28.374  1.00  0.00    -0.248 NA
ATOM     17  C   UNL A   1      40.489  25.553  28.426  1.00  0.00     0.031 C 
ATOM     18  C   UNL A   1      44.953  24.620  26.289  1.00  0.00     0.029 A 
ATOM     19  N   UNL A   1      44.646  26.658  27.153  1.00  0.00    -0.354 N 
ATOM     20  C   UNL A   1      40.854  27.758  28.933  1.00  0.00     0.074 A 
ATOM     21  C   UNL A   1      39.922  26.650  28.914  1.00  0.00     0.031 C 
ATOM     22  C   UNL A   1      46.086  25.307  26.097  1.00  0.00     0.029 A 
ATOM     23  C   UNL A   1      45.910  26.658  26.609  1.00  0.00     0.049 A 
ATOM     24  H   UNL A   1      44.254  27.438  27.609  1.00  0.00     0.167 HD
ATOM     25  C   UNL A   1      40.576  28.990  29.425  1.00  0.00     0.034 A 
ATOM     26  C   UNL A   1      46.821  27.643  26.509  1.00  0.00     0.034 A 
ATOM     27  C   UNL A   1      41.526  30.071  29.470  1.00  0.00     0.049 A 
ATOM     28  C   UNL A   1      46.493  28.986  27.092  1.00  0.00     0.074 A 
ATOM     29  C   UNL A   1      41.363  31.337  30.006  1.00  0.00     0.029 A 
ATOM     30  N   UNL A   1      42.814  30.020  28.956  1.00  0.00    -0.354 N 
ATOM     31  N   UNL A   1      45.409  29.364  27.725  1.00  0.00    -0.248 NA
ATOM     32  C   UNL A   1      47.520  30.028  26.970  1.00  0.00     0.031 C 
ATOM     33  C   UNL A   1      42.544  32.056  29.798  1.00  0.00     0.029 A 
ATOM     34  C   UNL A   1      43.453  31.232  29.154  1.00  0.00     0.049 A 
ATOM     35  H   UNL A   1      43.214  29.235  28.516  1.00  0.00     0.167 HD
ATOM     36  C   UNL A   1      45.630  30.683  28.098  1.00  0.00     0.074 A 
ATOM     37  C   UNL A   1      46.965  31.027  27.645  1.00  0.00     0.031 C 
ATOM     38  C   UNL A   1      44.798  31.540  28.738  1.00  0.00     0.034 A 
BRANCH  25  39
ATOM     39  C   UNL A   1      39.200  29.232  29.990  1.00  0.00     0.023 A 
ATOM     40  C   UNL A   1      38.882  28.759  31.279  1.00  0.00     0.012 A 
ATOM     41  C   UNL A   1      38.248  29.991  29.280  1.00  0.00     0.148 A 
ATOM     42  C   UNL A   1      37.632  29.016  31.843  1.00  0.00     0.002 A 
ATOM     43  C   UNL A   1      37.018  30.276  29.864  1.00  0.00     0.091 A 
ATOM     44  F   UNL A   1      38.559  30.415  28.047  1.00  0.00    -0.205 F 
ATOM     45  C   UNL A   1      36.706  29.783  31.140  1.00  0.00     0.022 A 
BRANCH  43  46
ATOM     46  S   UNL A   1      35.787  31.319  29.070  1.00  0.00     0.127 S 
ATOM     47  O   UNL A   1      34.988  31.754  30.214  1.00  0.00    -0.237 OA
ATOM     48  O   UNL A   1      36.612  32.367  28.468  1.00  0.00    -0.237 OA
ATOM     49  O   UNL A   1      35.098  30.466  28.112  1.00  0.00    -0.744 OA
ENDBRANCH  43  46
ENDBRANCH  25  39
BRANCH  26  50
ATOM     50  C   UNL A   1      48.136  27.368  25.869  1.00  0.00     0.023 A 
ATOM     51  C   UNL A   1      49.185  26.834  26.641  1.00  0.00     0.012 A 
ATOM     52  C   UNL A   1      48.331  27.566  24.488  1.00  0.00     0.148 A 
ATOM     53  C   UNL A   1      50.413  26.525  26.054  1.00  0.00     0.002 A 
ATOM     54  C   UNL A   1      49.535  27.199  23.899  1.00  0.00     0.091 A 
ATOM     55  F   UNL A   1      47.325  28.087  23.771  1.00  0.00    -0.205 F 
ATOM     56  C   UNL A   1      50.583  26.694  24.683  1.00  0.00     0.022 A 
BRANCH  54  57
ATOM     57  S   UNL A   1      49.778  27.238  22.119  1.00  0.00     0.127 S 
ATOM     58  O   UNL A   1      51.154  26.768  21.995  1.00  0.00    -0.237 OA
ATOM     59  O   UNL A   1      48.759  26.298  21.651  1.00  0.00    -0.237 OA
ATOM     60  O   UNL A   1      49.537  28.620  21.725  1.00  0.00    -0.744 OA
ENDBRANCH  54  57
ENDBRANCH  26  50
BRANCH  38  61
ATOM     61  C   UNL A   1      45.314  32.926  29.010  1.00  0.00     0.023 A 
ATOM     62  C   UNL A   1      46.002  33.192  30.210  1.00  0.00     0.012 A 
ATOM     63  C   UNL A   1      45.171  33.949  28.052  1.00  0.00     0.148 A 
ATOM     64  C   UNL A   1      46.511  34.463  30.468  1.00  0.00     0.002 A 
ATOM     65  C   UNL A   1      45.722  35.200  28.295  1.00  0.00     0.091 A 
ATOM     66  F   UNL A   1      44.492  33.681  26.926  1.00  0.00    -0.205 F 
ATOM     67  C   UNL A   1      46.382  35.463  29.507  1.00  0.00     0.022 A 
BRANCH  65  68
ATOM     68  S   UNL A   1      45.682  36.519  27.077  1.00  0.00     0.127 S 
ATOM     69  O   UNL A   1      44.249  36.794  26.982  1.00  0.00    -0.237 OA
ATOM     70  O   UNL A   1      46.462  37.570  27.731  1.00  0.00    -0.237 OA
ATOM     71  O   UNL A   1      46.296  35.972  25.875  1.00  0.00    -0.744 OA
ENDBRANCH  65  68
ENDBRANCH  38  61
ENDBRANCH  12  13
ENDBRANCH   5   7
ENDBRANCH   2   3
ENDBRANCH   1   2
BRANCH   1  72
ATOM     72  C   UNL A   1      36.619  20.060  25.000  1.00  0.00     0.023 C 
BRANCH  72  73
ATOM     73  C   UNL A   1      36.205  21.532  25.052  1.00  0.00     0.116 C 
BRANCH  73  74
ATOM     74  N   UNL A   1      35.575  22.018  26.278  1.00  0.00    -0.354 N 
ATOM     75  C   UNL A   1      34.268  22.051  26.710  1.00  0.00     0.245 C 
ATOM     76  H   UNL A   1      36.213  22.397  26.926  1.00  0.00     0.163 HD
ATOM     77  O   UNL A   1      34.068  22.428  27.867  1.00  0.00    -0.272 OA
BRANCH  75  78
ATOM     78  C   UNL A   1      33.111  21.549  25.810  1.00  0.00     0.119 C 
ATOM     79  C   UNL A   1      33.434  22.217  24.430  1.00  0.00     0.038 C 
ATOM     80  C   UNL A   1      33.112  20.017  25.568  1.00  0.00     0.038 C 
ATOM     81  C   UNL A   1      32.538  21.810  23.276  1.00  0.00     0.003 C 
ATOM     82  C   UNL A   1      32.200  19.599  24.396  1.00  0.00     0.003 C 
ATOM     83  C   UNL A   1      32.561  20.306  23.094  1.00  0.00     0.000 C 
BRANCH  78  84
ATOM     84  N   UNL A   1      31.791  21.937  26.369  1.00  0.00    -0.338 N 
ATOM     85  C   UNL A   1      31.203  23.149  26.626  1.00  0.00     0.253 C 
ATOM     86  H   UNL A   1      31.223  21.168  26.604  1.00  0.00     0.164 HD
ATOM     87  O   UNL A   1      30.398  23.153  27.565  1.00  0.00    -0.269 OA
BRANCH  85  88
ATOM     88  C   UNL A   1      31.395  24.445  25.855  1.00  0.00     0.057 A 
ATOM     89  C   UNL A   1      30.613  24.850  24.842  1.00  0.00     0.099 A 
ATOM     90  C   UNL A   1      32.300  25.465  26.403  1.00  0.00     0.041 A 
ATOM     91  N   UNL A   1      30.674  26.109  24.300  1.00  0.00    -0.327 N 
ATOM     92  C   UNL A   1      32.355  26.719  25.919  1.00  0.00     0.106 A 
ATOM     93  C   UNL A   1      31.494  27.113  24.760  1.00  0.00     0.266 A 
ATOM     94  H   UNL A   1      30.093  26.307  23.531  1.00  0.00     0.169 HD
ATOM     95  Cl  UNL A   1      33.366  27.922  26.612  1.00  0.00    -0.078 Cl
ATOM     96  O   UNL A   1      31.485  28.222  24.255  1.00  0.00    -0.268 OA
ENDBRANCH  85  88
ENDBRANCH  78  84
ENDBRANCH  75  78
ENDBRANCH  73  74
ENDBRANCH  72  73
ENDBRANCH   1  72
TORSDOF 16
ENDMDL
