MODEL 1
REMARK VINA RESULT:     -11.4      0.000      0.000
REMARK SMILES CC(C)(C)OC(=O)N1CCSC[C@@H]1CC(=O)NCCCCNC(=O)c1ccc(-c2c3nc(c(-c4cccc(S(=O)(=O)[O-])c4F)c4ccc([nH]4)c(-c4cccc(S(=O)(=O)[O-])c4F)c4nc(c(-c5cccc(S(=O)(=O)[O-])c5F)c5ccc2[nH]5)C=C4)C=C3)cc1
REMARK SMILES IDX 19 1 18 2 17 3 15 4 16 5 14 7 13 8 8 9 9 10 10 11 12 12
REMARK SMILES IDX 11 13 6 14 7 15 5 16 2 17 1 18 3 19 4 20 20 21 21 22 22 23
REMARK SMILES IDX 23 24 24 26 25 27 26 28 87 29 27 30 86 31 28 32 29 33 30 34
REMARK SMILES IDX 80 35 31 36 85 37 79 38 81 39 32 40 84 41 78 42 77 43 33 45
REMARK SMILES IDX 65 46 45 47 64 48 46 49 49 50 63 51 82 52 47 53 48 54 62 56
REMARK SMILES IDX 83 57 50 58 34 59 35 60 43 61 36 62 38 63 44 64 37 65 39 66
REMARK SMILES IDX 40 67 41 68 42 69 66 70 67 71 75 72 68 73 70 74 76 75 69 76
REMARK SMILES IDX 71 77 72 78 73 79 74 80 51 81 52 82 60 83 53 84 55 85 61 86
REMARK SMILES IDX 54 87 56 88 57 89 58 90 59 91
REMARK H PARENT 17 6 22 25 81 44 49 55
REMARK Flexibility Score: inf
ROOT
ATOM      1  C   UNL A   1      31.963  27.339  26.553  1.00  0.00     0.023 C 
ENDROOT
BRANCH   1   2
ATOM      2  C   UNL A   1      31.534  26.081  25.801  1.00  0.00     0.116 C 
BRANCH   2   3
ATOM      3  N   UNL A   1      31.313  24.969  26.703  1.00  0.00    -0.356 N 
ATOM      4  C   UNL A   1      32.077  23.855  26.893  1.00  0.00     0.222 C 
ATOM      5  O   UNL A   1      31.701  22.996  27.688  1.00  0.00    -0.275 OA
ATOM      6  H   UNL A   1      30.498  25.024  27.254  1.00  0.00     0.163 HD
BRANCH   4   7
ATOM      7  C   UNL A   1      33.391  23.722  26.151  1.00  0.00     0.126 C 
BRANCH   7   8
ATOM      8  C   UNL A   1      33.306  22.695  25.004  1.00  0.00     0.107 C 
ATOM      9  N   UNL A   1      33.842  21.376  25.386  1.00  0.00    -0.303 N 
ATOM     10  C   UNL A   1      35.277  21.267  25.669  1.00  0.00     0.134 C 
ATOM     11  C   UNL A   1      36.138  21.693  24.470  1.00  0.00     0.091 C 
ATOM     12  C   UNL A   1      33.964  23.177  23.699  1.00  0.00     0.095 C 
ATOM     13  S   UNL A   1      35.768  23.378  23.874  1.00  0.00    -0.158 SA
BRANCH   9  14
ATOM     14  C   UNL A   1      33.027  20.270  25.244  1.00  0.00     0.410 C 
ATOM     15  O   UNL A   1      31.802  20.348  25.211  1.00  0.00    -0.224 OA
BRANCH  14  16
ATOM     16  O   UNL A   1      33.730  19.113  25.204  1.00  0.00    -0.444 OA
BRANCH  16  17
ATOM     17  C   UNL A   1      33.298  18.020  24.351  1.00  0.00     0.106 C 
ATOM     18  C   UNL A   1      32.442  17.126  25.261  1.00  0.00     0.056 C 
ATOM     19  C   UNL A   1      34.523  17.234  23.877  1.00  0.00     0.056 C 
ATOM     20  C   UNL A   1      32.415  18.466  23.174  1.00  0.00     0.056 C 
ENDBRANCH  16  17
ENDBRANCH  14  16
ENDBRANCH   9  14
ENDBRANCH   7   8
ENDBRANCH   4   7
ENDBRANCH   2   3
ENDBRANCH   1   2
BRANCH   1  21
ATOM     21  C   UNL A   1      31.704  28.638  25.791  1.00  0.00     0.023 C 
BRANCH  21  22
ATOM     22  C   UNL A   1      32.887  29.596  25.755  1.00  0.00     0.116 C 
BRANCH  22  23
ATOM     23  N   UNL A   1      32.543  30.937  26.206  1.00  0.00    -0.352 N 
ATOM     24  C   UNL A   1      33.190  31.713  27.137  1.00  0.00     0.251 C 
ATOM     25  H   UNL A   1      31.746  31.339  25.790  1.00  0.00     0.163 HD
ATOM     26  O   UNL A   1      32.697  32.772  27.513  1.00  0.00    -0.269 OA
BRANCH  24  27
ATOM     27  C   UNL A   1      34.467  31.235  27.703  1.00  0.00     0.039 A 
ATOM     28  C   UNL A   1      35.499  32.150  27.910  1.00  0.00     0.014 A 
ATOM     29  C   UNL A   1      34.617  29.897  28.077  1.00  0.00     0.014 A 
ATOM     30  C   UNL A   1      36.665  31.733  28.554  1.00  0.00     0.010 A 
ATOM     31  C   UNL A   1      35.742  29.505  28.792  1.00  0.00     0.010 A 
ATOM     32  C   UNL A   1      36.781  30.417  29.033  1.00  0.00    -0.014 A 
BRANCH  32  33
ATOM     33  C   UNL A   1      37.975  29.980  29.799  1.00  0.00     0.031 A 
ATOM     34  C   UNL A   1      38.237  30.532  31.174  1.00  0.00     0.074 A 
ATOM     35  C   UNL A   1      38.866  29.147  29.225  1.00  0.00     0.049 A 
ATOM     36  N   UNL A   1      39.245  30.303  31.974  1.00  0.00    -0.248 NA
ATOM     37  C   UNL A   1      37.253  31.487  31.710  1.00  0.00     0.031 C 
ATOM     38  C   UNL A   1      38.767  28.607  27.866  1.00  0.00     0.029 A 
ATOM     39  N   UNL A   1      40.044  28.628  29.700  1.00  0.00    -0.354 N 
ATOM     40  C   UNL A   1      39.037  31.107  33.089  1.00  0.00     0.074 A 
ATOM     41  C   UNL A   1      37.825  31.858  32.846  1.00  0.00     0.031 C 
ATOM     42  C   UNL A   1      39.832  27.828  27.622  1.00  0.00     0.029 A 
ATOM     43  C   UNL A   1      40.707  27.839  28.789  1.00  0.00     0.049 A 
ATOM     44  H   UNL A   1      40.383  28.804  30.608  1.00  0.00     0.167 HD
ATOM     45  C   UNL A   1      39.768  31.190  34.224  1.00  0.00     0.034 A 
ATOM     46  C   UNL A   1      41.894  27.206  28.880  1.00  0.00     0.034 A 
ATOM     47  C   UNL A   1      40.952  30.415  34.476  1.00  0.00     0.049 A 
ATOM     48  C   UNL A   1      42.673  27.295  30.163  1.00  0.00     0.074 A 
ATOM     49  C   UNL A   1      41.715  30.361  35.630  1.00  0.00     0.029 A 
ATOM     50  N   UNL A   1      41.556  29.569  33.559  1.00  0.00    -0.354 N 
ATOM     51  N   UNL A   1      42.374  27.932  31.269  1.00  0.00    -0.248 NA
ATOM     52  C   UNL A   1      43.939  26.550  30.225  1.00  0.00     0.031 C 
ATOM     53  C   UNL A   1      42.800  29.509  35.397  1.00  0.00     0.029 A 
ATOM     54  C   UNL A   1      42.690  29.001  34.113  1.00  0.00     0.049 A 
ATOM     55  H   UNL A   1      41.226  29.397  32.648  1.00  0.00     0.167 HD
ATOM     56  C   UNL A   1      43.393  27.637  32.168  1.00  0.00     0.074 A 
ATOM     57  C   UNL A   1      44.306  26.743  31.484  1.00  0.00     0.031 C 
ATOM     58  C   UNL A   1      43.565  28.076  33.438  1.00  0.00     0.034 A 
BRANCH  45  59
ATOM     59  C   UNL A   1      39.284  32.123  35.304  1.00  0.00     0.023 A 
ATOM     60  C   UNL A   1      38.337  31.670  36.245  1.00  0.00     0.012 A 
ATOM     61  C   UNL A   1      39.808  33.426  35.423  1.00  0.00     0.148 A 
ATOM     62  C   UNL A   1      37.891  32.510  37.265  1.00  0.00     0.002 A 
ATOM     63  C   UNL A   1      39.396  34.239  36.472  1.00  0.00     0.091 A 
ATOM     64  F   UNL A   1      40.694  33.845  34.508  1.00  0.00    -0.205 F 
ATOM     65  C   UNL A   1      38.428  33.788  37.386  1.00  0.00     0.022 A 
BRANCH  63  66
ATOM     66  S   UNL A   1      40.087  35.870  36.765  1.00  0.00     0.127 S 
ATOM     67  O   UNL A   1      41.513  35.567  36.893  1.00  0.00    -0.237 OA
ATOM     68  O   UNL A   1      39.723  36.581  35.540  1.00  0.00    -0.237 OA
ATOM     69  O   UNL A   1      39.446  36.370  37.972  1.00  0.00    -0.744 OA
ENDBRANCH  63  66
ENDBRANCH  45  59
BRANCH  46  70
ATOM     70  C   UNL A   1      42.393  26.387  27.738  1.00  0.00     0.023 A 
ATOM     71  C   UNL A   1      43.272  26.964  26.802  1.00  0.00     0.012 A 
ATOM     72  C   UNL A   1      42.010  25.040  27.582  1.00  0.00     0.148 A 
ATOM     73  C   UNL A   1      43.733  26.227  25.710  1.00  0.00     0.002 A 
ATOM     74  C   UNL A   1      42.519  24.295  26.525  1.00  0.00     0.091 A 
ATOM     75  F   UNL A   1      41.165  24.513  28.478  1.00  0.00    -0.205 F 
ATOM     76  C   UNL A   1      43.364  24.891  25.576  1.00  0.00     0.022 A 
BRANCH  74  77
ATOM     77  S   UNL A   1      42.202  22.536  26.346  1.00  0.00     0.127 S 
ATOM     78  O   UNL A   1      40.746  22.505  26.226  1.00  0.00    -0.237 OA
ATOM     79  O   UNL A   1      42.930  22.224  25.116  1.00  0.00    -0.237 OA
ATOM     80  O   UNL A   1      42.751  21.914  27.543  1.00  0.00    -0.744 OA
ENDBRANCH  74  77
ENDBRANCH  46  70
BRANCH  58  81
ATOM     81  C   UNL A   1      44.766  27.571  34.197  1.00  0.00     0.023 A 
ATOM     82  C   UNL A   1      45.967  28.305  34.186  1.00  0.00     0.012 A 
ATOM     83  C   UNL A   1      44.677  26.402  34.979  1.00  0.00     0.148 A 
ATOM     84  C   UNL A   1      47.074  27.865  34.911  1.00  0.00     0.002 A 
ATOM     85  C   UNL A   1      45.766  25.998  35.742  1.00  0.00     0.091 A 
ATOM     86  F   UNL A   1      43.530  25.708  34.964  1.00  0.00    -0.205 F 
ATOM     87  C   UNL A   1      46.969  26.721  35.699  1.00  0.00     0.022 A 
BRANCH  85  88
ATOM     88  S   UNL A   1      45.694  24.596  36.861  1.00  0.00     0.127 S 
ATOM     89  O   UNL A   1      45.154  23.550  35.994  1.00  0.00    -0.237 OA
ATOM     90  O   UNL A   1      47.099  24.420  37.228  1.00  0.00    -0.237 OA
ATOM     91  O   UNL A   1      44.828  25.001  37.960  1.00  0.00    -0.744 OA
ENDBRANCH  85  88
ENDBRANCH  58  81
ENDBRANCH  32  33
ENDBRANCH  24  27
ENDBRANCH  22  23
ENDBRANCH  21  22
ENDBRANCH   1  21
TORSDOF 18
ENDMDL
MODEL 2
REMARK VINA RESULT:     -11.3      2.014      2.741
REMARK SMILES CC(C)(C)OC(=O)N1CCSC[C@@H]1CC(=O)NCCCCNC(=O)c1ccc(-c2c3nc(c(-c4cccc(S(=O)(=O)[O-])c4F)c4ccc([nH]4)c(-c4cccc(S(=O)(=O)[O-])c4F)c4nc(c(-c5cccc(S(=O)(=O)[O-])c5F)c5ccc2[nH]5)C=C4)C=C3)cc1
REMARK SMILES IDX 19 1 18 2 17 3 15 4 16 5 14 7 13 8 8 9 9 10 10 11 12 12
REMARK SMILES IDX 11 13 6 14 7 15 5 16 2 17 1 18 3 19 4 20 20 21 21 22 22 23
REMARK SMILES IDX 23 24 24 26 25 27 26 28 87 29 27 30 86 31 28 32 29 33 30 34
REMARK SMILES IDX 80 35 31 36 85 37 79 38 81 39 32 40 84 41 78 42 77 43 33 45
REMARK SMILES IDX 65 46 45 47 64 48 46 49 49 50 63 51 82 52 47 53 48 54 62 56
REMARK SMILES IDX 83 57 50 58 34 59 35 60 43 61 36 62 38 63 44 64 37 65 39 66
REMARK SMILES IDX 40 67 41 68 42 69 66 70 67 71 75 72 68 73 70 74 76 75 69 76
REMARK SMILES IDX 71 77 72 78 73 79 74 80 51 81 52 82 60 83 53 84 55 85 61 86
REMARK SMILES IDX 54 87 56 88 57 89 58 90 59 91
REMARK H PARENT 17 6 22 25 81 44 49 55
REMARK Flexibility Score: inf
ROOT
ATOM      1  C   UNL A   1      31.293  29.247  23.633  1.00  0.00     0.023 C 
ENDROOT
BRANCH   1   2
ATOM      2  C   UNL A   1      30.950  27.984  22.846  1.00  0.00     0.116 C 
BRANCH   2   3
ATOM      3  N   UNL A   1      32.105  27.463  22.143  1.00  0.00    -0.356 N 
ATOM      4  C   UNL A   1      32.627  26.204  22.170  1.00  0.00     0.222 C 
ATOM      5  O   UNL A   1      33.646  25.961  21.525  1.00  0.00    -0.275 OA
ATOM      6  H   UNL A   1      32.579  28.108  21.569  1.00  0.00     0.163 HD
BRANCH   4   7
ATOM      7  C   UNL A   1      31.919  25.123  22.961  1.00  0.00     0.126 C 
BRANCH   7   8
ATOM      8  C   UNL A   1      32.773  24.612  24.138  1.00  0.00     0.107 C 
ATOM      9  N   UNL A   1      32.437  23.229  24.521  1.00  0.00    -0.303 N 
ATOM     10  C   UNL A   1      31.109  22.971  25.089  1.00  0.00     0.134 C 
ATOM     11  C   UNL A   1      30.856  23.790  26.363  1.00  0.00     0.091 C 
ATOM     12  C   UNL A   1      32.730  25.529  25.372  1.00  0.00     0.095 C 
ATOM     13  S   UNL A   1      31.071  25.587  26.126  1.00  0.00    -0.158 SA
BRANCH   9  14
ATOM     14  C   UNL A   1      33.447  22.287  24.539  1.00  0.00     0.410 C 
ATOM     15  O   UNL A   1      33.393  21.243  23.897  1.00  0.00    -0.224 OA
BRANCH  14  16
ATOM     16  O   UNL A   1      34.454  22.628  25.377  1.00  0.00    -0.444 OA
BRANCH  16  17
ATOM     17  C   UNL A   1      35.832  22.600  24.920  1.00  0.00     0.106 C 
ATOM     18  C   UNL A   1      36.537  23.703  25.723  1.00  0.00     0.056 C 
ATOM     19  C   UNL A   1      35.879  22.949  23.431  1.00  0.00     0.056 C 
ATOM     20  C   UNL A   1      36.555  21.275  25.218  1.00  0.00     0.056 C 
ENDBRANCH  16  17
ENDBRANCH  14  16
ENDBRANCH   9  14
ENDBRANCH   7   8
ENDBRANCH   4   7
ENDBRANCH   2   3
ENDBRANCH   1   2
BRANCH   1  21
ATOM     21  C   UNL A   1      31.463  29.017  25.134  1.00  0.00     0.023 C 
BRANCH  21  22
ATOM     22  C   UNL A   1      32.657  29.732  25.753  1.00  0.00     0.116 C 
BRANCH  22  23
ATOM     23  N   UNL A   1      32.333  31.072  26.222  1.00  0.00    -0.352 N 
ATOM     24  C   UNL A   1      33.003  31.833  27.150  1.00  0.00     0.251 C 
ATOM     25  H   UNL A   1      31.535  31.486  25.822  1.00  0.00     0.163 HD
ATOM     26  O   UNL A   1      32.526  32.893  27.543  1.00  0.00    -0.269 OA
BRANCH  24  27
ATOM     27  C   UNL A   1      34.283  31.336  27.691  1.00  0.00     0.039 A 
ATOM     28  C   UNL A   1      35.311  32.247  27.939  1.00  0.00     0.014 A 
ATOM     29  C   UNL A   1      34.441  29.983  28.004  1.00  0.00     0.014 A 
ATOM     30  C   UNL A   1      36.480  31.807  28.562  1.00  0.00     0.010 A 
ATOM     31  C   UNL A   1      35.569  29.565  28.698  1.00  0.00     0.010 A 
ATOM     32  C   UNL A   1      36.604  30.471  28.980  1.00  0.00    -0.014 A 
BRANCH  32  33
ATOM     33  C   UNL A   1      37.801  30.006  29.723  1.00  0.00     0.031 A 
ATOM     34  C   UNL A   1      38.068  30.503  31.119  1.00  0.00     0.074 A 
ATOM     35  C   UNL A   1      38.691  29.197  29.113  1.00  0.00     0.049 A 
ATOM     36  N   UNL A   1      39.079  30.245  31.905  1.00  0.00    -0.248 NA
ATOM     37  C   UNL A   1      37.084  31.435  31.695  1.00  0.00     0.031 C 
ATOM     38  C   UNL A   1      38.587  28.711  27.735  1.00  0.00     0.029 A 
ATOM     39  N   UNL A   1      39.871  28.662  29.564  1.00  0.00    -0.354 N 
ATOM     40  C   UNL A   1      38.874  31.004  33.051  1.00  0.00     0.074 A 
ATOM     41  C   UNL A   1      37.660  31.762  32.842  1.00  0.00     0.031 C 
ATOM     42  C   UNL A   1      39.653  27.944  27.457  1.00  0.00     0.029 A 
ATOM     43  C   UNL A   1      40.533  27.910  28.620  1.00  0.00     0.049 A 
ATOM     44  H   UNL A   1      40.213  28.803  30.476  1.00  0.00     0.167 HD
ATOM     45  C   UNL A   1      39.610  31.043  34.186  1.00  0.00     0.034 A 
ATOM     46  C   UNL A   1      41.721  27.276  28.681  1.00  0.00     0.034 A 
ATOM     47  C   UNL A   1      40.796  30.261  34.403  1.00  0.00     0.049 A 
ATOM     48  C   UNL A   1      42.504  27.316  29.964  1.00  0.00     0.074 A 
ATOM     49  C   UNL A   1      41.563  30.163  35.551  1.00  0.00     0.029 A 
ATOM     50  N   UNL A   1      41.397  29.452  33.451  1.00  0.00    -0.354 N 
ATOM     51  N   UNL A   1      42.209  27.909  31.095  1.00  0.00    -0.248 NA
ATOM     52  C   UNL A   1      43.771  26.570  29.992  1.00  0.00     0.031 C 
ATOM     53  C   UNL A   1      42.648  29.323  35.281  1.00  0.00     0.029 A 
ATOM     54  C   UNL A   1      42.534  28.866  33.977  1.00  0.00     0.049 A 
ATOM     55  H   UNL A   1      41.064  29.316  32.535  1.00  0.00     0.167 HD
ATOM     56  C   UNL A   1      43.232  27.580  31.978  1.00  0.00     0.074 A 
ATOM     57  C   UNL A   1      44.143  26.715  31.256  1.00  0.00     0.031 C 
ATOM     58  C   UNL A   1      43.408  27.969  33.264  1.00  0.00     0.034 A 
BRANCH  45  59
ATOM     59  C   UNL A   1      39.128  31.933  35.303  1.00  0.00     0.023 A 
ATOM     60  C   UNL A   1      39.286  33.330  35.201  1.00  0.00     0.012 A 
ATOM     61  C   UNL A   1      38.469  31.393  36.425  1.00  0.00     0.148 A 
ATOM     62  C   UNL A   1      38.828  34.174  36.212  1.00  0.00     0.002 A 
ATOM     63  C   UNL A   1      37.971  32.244  37.405  1.00  0.00     0.091 A 
ATOM     64  F   UNL A   1      38.344  30.061  36.515  1.00  0.00    -0.205 F 
ATOM     65  C   UNL A   1      38.162  33.632  37.307  1.00  0.00     0.022 A 
BRANCH  63  66
ATOM     66  S   UNL A   1      37.025  31.654  38.814  1.00  0.00     0.127 S 
ATOM     67  O   UNL A   1      37.990  31.811  39.902  1.00  0.00    -0.237 OA
ATOM     68  O   UNL A   1      35.908  32.596  38.849  1.00  0.00    -0.237 OA
ATOM     69  O   UNL A   1      36.655  30.281  38.503  1.00  0.00    -0.744 OA
ENDBRANCH  63  66
ENDBRANCH  45  59
BRANCH  46  70
ATOM     70  C   UNL A   1      42.216  26.503  27.506  1.00  0.00     0.023 A 
ATOM     71  C   UNL A   1      42.957  27.161  26.506  1.00  0.00     0.012 A 
ATOM     72  C   UNL A   1      41.967  25.123  27.381  1.00  0.00     0.148 A 
ATOM     73  C   UNL A   1      43.410  26.466  25.383  1.00  0.00     0.002 A 
ATOM     74  C   UNL A   1      42.471  24.425  26.290  1.00  0.00     0.091 A 
ATOM     75  F   UNL A   1      41.253  24.518  28.339  1.00  0.00    -0.205 F 
ATOM     76  C   UNL A   1      43.175  25.098  25.279  1.00  0.00     0.022 A 
BRANCH  74  77
ATOM     77  S   UNL A   1      42.330  22.641  26.138  1.00  0.00     0.127 S 
ATOM     78  O   UNL A   1      43.019  22.393  24.873  1.00  0.00    -0.237 OA
ATOM     79  O   UNL A   1      43.042  22.181  27.330  1.00  0.00    -0.237 OA
ATOM     80  O   UNL A   1      40.902  22.358  26.145  1.00  0.00    -0.744 OA
ENDBRANCH  74  77
ENDBRANCH  46  70
BRANCH  58  81
ATOM     81  C   UNL A   1      44.612  27.436  33.998  1.00  0.00     0.023 A 
ATOM     82  C   UNL A   1      45.804  28.185  34.035  1.00  0.00     0.012 A 
ATOM     83  C   UNL A   1      44.536  26.222  34.710  1.00  0.00     0.148 A 
ATOM     84  C   UNL A   1      46.913  27.719  34.739  1.00  0.00     0.002 A 
ATOM     85  C   UNL A   1      45.627  25.789  35.453  1.00  0.00     0.091 A 
ATOM     86  F   UNL A   1      43.398  25.515  34.648  1.00  0.00    -0.205 F 
ATOM     87  C   UNL A   1      46.820  26.529  35.458  1.00  0.00     0.022 A 
BRANCH  85  88
ATOM     88  S   UNL A   1      45.569  24.323  36.488  1.00  0.00     0.127 S 
ATOM     89  O   UNL A   1      45.386  23.265  35.496  1.00  0.00    -0.237 OA
ATOM     90  O   UNL A   1      46.886  24.341  37.124  1.00  0.00    -0.237 OA
ATOM     91  O   UNL A   1      44.452  24.518  37.403  1.00  0.00    -0.744 OA
ENDBRANCH  85  88
ENDBRANCH  58  81
ENDBRANCH  32  33
ENDBRANCH  24  27
ENDBRANCH  22  23
ENDBRANCH  21  22
ENDBRANCH   1  21
TORSDOF 18
ENDMDL
MODEL 3
REMARK VINA RESULT:     -11.1      1.521      8.136
REMARK SMILES CC(C)(C)OC(=O)N1CCSC[C@@H]1CC(=O)NCCCCNC(=O)c1ccc(-c2c3nc(c(-c4cccc(S(=O)(=O)[O-])c4F)c4ccc([nH]4)c(-c4cccc(S(=O)(=O)[O-])c4F)c4nc(c(-c5cccc(S(=O)(=O)[O-])c5F)c5ccc2[nH]5)C=C4)C=C3)cc1
REMARK SMILES IDX 19 1 18 2 17 3 15 4 16 5 14 7 13 8 8 9 9 10 10 11 12 12
REMARK SMILES IDX 11 13 6 14 7 15 5 16 2 17 1 18 3 19 4 20 20 21 21 22 22 23
REMARK SMILES IDX 23 24 24 26 25 27 26 28 87 29 27 30 86 31 28 32 29 33 30 34
REMARK SMILES IDX 80 35 31 36 85 37 79 38 81 39 32 40 84 41 78 42 77 43 33 45
REMARK SMILES IDX 65 46 45 47 64 48 46 49 49 50 63 51 82 52 47 53 48 54 62 56
REMARK SMILES IDX 83 57 50 58 34 59 35 60 43 61 36 62 38 63 44 64 37 65 39 66
REMARK SMILES IDX 40 67 41 68 42 69 66 70 67 71 75 72 68 73 70 74 76 75 69 76
REMARK SMILES IDX 71 77 72 78 73 79 74 80 51 81 52 82 60 83 53 84 55 85 61 86
REMARK SMILES IDX 54 87 56 88 57 89 58 90 59 91
REMARK H PARENT 17 6 22 25 81 44 49 55
REMARK Flexibility Score: inf
ROOT
ATOM      1  C   UNL A   1      31.203  28.490  24.022  1.00  0.00     0.023 C 
ENDROOT
BRANCH   1   2
ATOM      2  C   UNL A   1      30.847  27.774  22.720  1.00  0.00     0.116 C 
BRANCH   2   3
ATOM      3  N   UNL A   1      32.033  27.324  22.018  1.00  0.00    -0.356 N 
ATOM      4  C   UNL A   1      32.615  26.091  22.025  1.00  0.00     0.222 C 
ATOM      5  O   UNL A   1      33.650  25.912  21.385  1.00  0.00    -0.275 OA
ATOM      6  H   UNL A   1      32.479  28.003  21.461  1.00  0.00     0.163 HD
BRANCH   4   7
ATOM      7  C   UNL A   1      31.954  24.963  22.789  1.00  0.00     0.126 C 
BRANCH   7   8
ATOM      8  C   UNL A   1      32.906  24.325  23.820  1.00  0.00     0.107 C 
ATOM      9  N   UNL A   1      32.458  22.989  24.252  1.00  0.00    -0.303 N 
ATOM     10  C   UNL A   1      31.211  22.890  25.018  1.00  0.00     0.134 C 
ATOM     11  C   UNL A   1      31.263  23.711  26.316  1.00  0.00     0.091 C 
ATOM     12  C   UNL A   1      33.170  25.217  25.045  1.00  0.00     0.095 C 
ATOM     13  S   UNL A   1      31.667  25.471  26.046  1.00  0.00    -0.158 SA
BRANCH   9  14
ATOM     14  C   UNL A   1      33.331  21.927  24.116  1.00  0.00     0.410 C 
ATOM     15  O   UNL A   1      32.956  20.758  24.093  1.00  0.00    -0.224 OA
BRANCH  14  16
ATOM     16  O   UNL A   1      34.624  22.325  24.067  1.00  0.00    -0.444 OA
BRANCH  16  17
ATOM     17  C   UNL A   1      35.507  22.095  25.196  1.00  0.00     0.106 C 
ATOM     18  C   UNL A   1      36.522  23.248  25.144  1.00  0.00     0.056 C 
ATOM     19  C   UNL A   1      36.241  20.766  25.003  1.00  0.00     0.056 C 
ATOM     20  C   UNL A   1      34.798  22.162  26.559  1.00  0.00     0.056 C 
ENDBRANCH  16  17
ENDBRANCH  14  16
ENDBRANCH   9  14
ENDBRANCH   7   8
ENDBRANCH   4   7
ENDBRANCH   2   3
ENDBRANCH   1   2
BRANCH   1  21
ATOM     21  C   UNL A   1      32.649  28.980  24.087  1.00  0.00     0.023 C 
BRANCH  21  22
ATOM     22  C   UNL A   1      33.150  29.289  25.491  1.00  0.00     0.116 C 
BRANCH  22  23
ATOM     23  N   UNL A   1      32.635  30.548  26.012  1.00  0.00    -0.352 N 
ATOM     24  C   UNL A   1      33.162  31.335  27.007  1.00  0.00     0.251 C 
ATOM     25  H   UNL A   1      31.805  30.877  25.598  1.00  0.00     0.163 HD
ATOM     26  O   UNL A   1      32.535  32.301  27.430  1.00  0.00    -0.269 OA
BRANCH  24  27
ATOM     27  C   UNL A   1      34.475  30.979  27.580  1.00  0.00     0.039 A 
ATOM     28  C   UNL A   1      35.436  31.978  27.740  1.00  0.00     0.014 A 
ATOM     29  C   UNL A   1      34.728  29.673  28.009  1.00  0.00     0.014 A 
ATOM     30  C   UNL A   1      36.634  31.678  28.390  1.00  0.00     0.010 A 
ATOM     31  C   UNL A   1      35.884  29.398  28.729  1.00  0.00     0.010 A 
ATOM     32  C   UNL A   1      36.852  30.395  28.923  1.00  0.00    -0.014 A 
BRANCH  32  33
ATOM     33  C   UNL A   1      38.080  30.082  29.695  1.00  0.00     0.031 A 
ATOM     34  C   UNL A   1      39.094  29.115  29.146  1.00  0.00     0.074 A 
ATOM     35  C   UNL A   1      38.246  30.607  30.925  1.00  0.00     0.049 A 
ATOM     36  N   UNL A   1      40.201  28.685  29.692  1.00  0.00    -0.248 NA
ATOM     37  C   UNL A   1      38.813  28.531  27.823  1.00  0.00     0.031 C 
ATOM     38  C   UNL A   1      37.296  31.494  31.602  1.00  0.00     0.029 A 
ATOM     39  N   UNL A   1      39.259  30.452  31.837  1.00  0.00    -0.354 N 
ATOM     40  C   UNL A   1      40.731  27.760  28.800  1.00  0.00     0.074 A 
ATOM     41  C   UNL A   1      39.805  27.662  27.693  1.00  0.00     0.031 C 
ATOM     42  C   UNL A   1      37.775  31.809  32.815  1.00  0.00     0.029 A 
ATOM     43  C   UNL A   1      39.046  31.124  33.019  1.00  0.00     0.049 A 
ATOM     44  H   UNL A   1      40.063  29.910  31.663  1.00  0.00     0.167 HD
ATOM     45  C   UNL A   1      41.897  27.078  28.878  1.00  0.00     0.034 A 
ATOM     46  C   UNL A   1      39.786  31.171  34.145  1.00  0.00     0.034 A 
ATOM     47  C   UNL A   1      42.832  27.205  29.962  1.00  0.00     0.049 A 
ATOM     48  C   UNL A   1      41.090  30.423  34.193  1.00  0.00     0.074 A 
ATOM     49  C   UNL A   1      44.082  26.624  30.092  1.00  0.00     0.029 A 
ATOM     50  N   UNL A   1      42.618  27.953  31.109  1.00  0.00    -0.354 N 
ATOM     51  N   UNL A   1      41.653  29.682  33.270  1.00  0.00    -0.248 NA
ATOM     52  C   UNL A   1      41.880  30.544  35.428  1.00  0.00     0.031 C 
ATOM     53  C   UNL A   1      44.608  26.993  31.335  1.00  0.00     0.029 A 
ATOM     54  C   UNL A   1      43.703  27.835  31.961  1.00  0.00     0.049 A 
ATOM     55  H   UNL A   1      41.813  28.488  31.292  1.00  0.00     0.167 HD
ATOM     56  C   UNL A   1      42.875  29.279  33.796  1.00  0.00     0.074 A 
ATOM     57  C   UNL A   1      42.981  29.879  35.111  1.00  0.00     0.031 C 
ATOM     58  C   UNL A   1      43.818  28.475  33.247  1.00  0.00     0.034 A 
BRANCH  45  59
ATOM     59  C   UNL A   1      42.251  26.161  27.735  1.00  0.00     0.023 A 
ATOM     60  C   UNL A   1      43.052  26.640  26.678  1.00  0.00     0.012 A 
ATOM     61  C   UNL A   1      41.843  24.813  27.736  1.00  0.00     0.148 A 
ATOM     62  C   UNL A   1      43.410  25.803  25.621  1.00  0.00     0.002 A 
ATOM     63  C   UNL A   1      42.245  23.972  26.705  1.00  0.00     0.091 A 
ATOM     64  F   UNL A   1      41.066  24.380  28.740  1.00  0.00    -0.205 F 
ATOM     65  C   UNL A   1      43.016  24.468  25.641  1.00  0.00     0.022 A 
BRANCH  63  66
ATOM     66  S   UNL A   1      41.862  22.217  26.678  1.00  0.00     0.127 S 
ATOM     67  O   UNL A   1      42.648  21.727  27.811  1.00  0.00    -0.237 OA
ATOM     68  O   UNL A   1      40.416  22.216  26.894  1.00  0.00    -0.237 OA
ATOM     69  O   UNL A   1      42.283  21.733  25.371  1.00  0.00    -0.744 OA
ENDBRANCH  63  66
ENDBRANCH  45  59
BRANCH  46  70
ATOM     70  C   UNL A   1      39.336  31.999  35.300  1.00  0.00     0.023 A 
ATOM     71  C   UNL A   1      38.437  31.454  36.236  1.00  0.00     0.012 A 
ATOM     72  C   UNL A   1      39.802  33.316  35.481  1.00  0.00     0.148 A 
ATOM     73  C   UNL A   1      37.980  32.217  37.313  1.00  0.00     0.002 A 
ATOM     74  C   UNL A   1      39.389  34.050  36.587  1.00  0.00     0.091 A 
ATOM     75  F   UNL A   1      40.650  33.819  34.574  1.00  0.00    -0.205 F 
ATOM     76  C   UNL A   1      38.463  33.511  37.492  1.00  0.00     0.022 A 
BRANCH  74  77
ATOM     77  S   UNL A   1      40.056  35.673  36.970  1.00  0.00     0.127 S 
ATOM     78  O   UNL A   1      41.488  35.395  37.059  1.00  0.00    -0.237 OA
ATOM     79  O   UNL A   1      39.649  36.449  35.798  1.00  0.00    -0.237 OA
ATOM     80  O   UNL A   1      39.413  36.080  38.211  1.00  0.00    -0.744 OA
ENDBRANCH  74  77
ENDBRANCH  46  70
BRANCH  58  81
ATOM     81  C   UNL A   1      45.072  28.220  34.044  1.00  0.00     0.023 A 
ATOM     82  C   UNL A   1      46.160  29.109  33.949  1.00  0.00     0.012 A 
ATOM     83  C   UNL A   1      45.141  27.135  34.941  1.00  0.00     0.148 A 
ATOM     84  C   UNL A   1      47.312  28.903  34.707  1.00  0.00     0.002 A 
ATOM     85  C   UNL A   1      46.270  26.967  35.733  1.00  0.00     0.091 A 
ATOM     86  F   UNL A   1      44.101  26.291  35.005  1.00  0.00    -0.205 F 
ATOM     87  C   UNL A   1      47.361  27.841  35.607  1.00  0.00     0.022 A 
BRANCH  85  88
ATOM     88  S   UNL A   1      46.385  25.689  36.989  1.00  0.00     0.127 S 
ATOM     89  O   UNL A   1      45.326  26.085  37.916  1.00  0.00    -0.237 OA
ATOM     90  O   UNL A   1      46.103  24.475  36.223  1.00  0.00    -0.237 OA
ATOM     91  O   UNL A   1      47.739  25.767  37.522  1.00  0.00    -0.744 OA
ENDBRANCH  85  88
ENDBRANCH  58  81
ENDBRANCH  32  33
ENDBRANCH  24  27
ENDBRANCH  22  23
ENDBRANCH  21  22
ENDBRANCH   1  21
TORSDOF 18
ENDMDL
