MODEL 1
REMARK VINA RESULT:     -13.4      0.000      0.000
REMARK SMILES C[C@@]12CCC[C@](C)(C(=O)NCCCCNC(=O)c3ccc(-c4c5nc(c(-c6cccc(S(=O)(=O)[O-])c6F)c6ccc([nH]6)c(-c6cccc(S(=O)(=O)[O-])c6F)c6nc(c(-c7cccc(S(=O)(=O)[O-])c7F)c7ccc4[nH]7)C=C6)C=C5)cc3)[C@H]1CC[C@@]13C=C(CO)[C@@H](CC[C@@H]12)C3
REMARK SMILES IDX 13 1 12 2 11 3 10 4 8 5 9 6 6 8 1 9 2 10 3 11 81 12 92 13
REMARK SMILES IDX 4 14 82 15 84 16 91 17 5 18 7 19 83 20 85 21 93 22 90 23
REMARK SMILES IDX 86 24 89 25 87 26 88 27 14 29 15 30 16 31 17 33 18 34 19 35
REMARK SMILES IDX 80 36 20 37 79 38 21 39 22 40 23 41 73 42 24 43 78 44 72 45
REMARK SMILES IDX 74 46 25 47 77 48 71 49 70 50 26 52 58 53 38 54 57 55 39 56
REMARK SMILES IDX 42 57 56 58 75 59 40 60 41 61 55 63 76 64 43 65 27 66 28 67
REMARK SMILES IDX 36 68 29 69 31 70 37 71 30 72 32 73 33 74 34 75 35 76 59 77
REMARK SMILES IDX 60 78 68 79 61 80 63 81 69 82 62 83 64 84 65 85 66 86 67 87
REMARK SMILES IDX 44 88 45 89 53 90 46 91 48 92 54 93 47 94 49 95 50 96 51 97
REMARK SMILES IDX 52 98
REMARK H PARENT 10 7 88 28 15 32 74 51 42 62
REMARK Flexibility Score: inf
ROOT
ATOM      1  C   UNL A   1      31.770  29.222  26.784  1.00  0.00     0.023 C 
ENDROOT
BRANCH   1   2
ATOM      2  C   UNL A   1      32.162  27.978  27.553  1.00  0.00     0.023 C 
BRANCH   2   3
ATOM      3  C   UNL A   1      32.175  26.697  26.709  1.00  0.00     0.116 C 
BRANCH   3   4
ATOM      4  N   UNL A   1      30.975  26.596  25.892  1.00  0.00    -0.356 N 
ATOM      5  C   UNL A   1      30.728  26.117  24.636  1.00  0.00     0.226 C 
ATOM      6  O   UNL A   1      29.585  26.303  24.206  1.00  0.00    -0.274 OA
ATOM      7  H   UNL A   1      30.171  26.946  26.338  1.00  0.00     0.163 HD
BRANCH   5   8
ATOM      8  C   UNL A   1      31.787  25.338  23.796  1.00  0.00     0.050 C 
ATOM      9  C   UNL A   1      32.803  22.865  22.214  1.00  0.00     0.012 C 
ATOM     10  C   UNL A   1      33.307  23.171  23.669  1.00  0.00    -0.025 C 
ATOM     11  C   UNL A   1      34.563  24.071  23.604  1.00  0.00     0.007 C 
ATOM     12  C   UNL A   1      32.218  23.955  24.467  1.00  0.00     0.010 C 
ATOM     13  C   UNL A   1      33.654  21.761  24.284  1.00  0.00     0.005 C 
ATOM     14  C   UNL A   1      34.298  25.498  23.113  1.00  0.00     0.002 C 
ATOM     15  C   UNL A   1      31.081  23.055  24.934  1.00  0.00     0.006 C 
ATOM     16  C   UNL A   1      32.455  20.950  24.919  1.00  0.00    -0.008 C 
ATOM     17  C   UNL A   1      34.931  21.406  25.046  1.00  0.00     0.006 C 
ATOM     18  C   UNL A   1      33.109  26.182  23.801  1.00  0.00     0.017 C 
ATOM     19  C   UNL A   1      31.271  25.380  22.334  1.00  0.00     0.022 C 
ATOM     20  C   UNL A   1      31.503  21.821  25.701  1.00  0.00     0.012 C 
ATOM     21  C   UNL A   1      31.961  20.107  23.776  1.00  0.00    -0.018 C 
ATOM     22  C   UNL A   1      32.907  19.769  25.818  1.00  0.00     0.019 C 
ATOM     23  C   UNL A   1      35.138  19.855  24.828  1.00  0.00     0.008 C 
ATOM     24  C   UNL A   1      32.860  19.109  23.618  1.00  0.00    -0.045 C 
ATOM     25  C   UNL A   1      33.805  19.032  24.835  1.00  0.00     0.018 C 
BRANCH  24  26
ATOM     26  C   UNL A   1      32.988  18.252  22.409  1.00  0.00     0.187 C 
BRANCH  26  27
ATOM     27  O   UNL A   1      31.729  17.659  22.111  1.00  0.00    -0.392 OA
ATOM     28  H   UNL A   1      31.018  18.285  22.322  1.00  0.00     0.211 HD
ENDBRANCH  26  27
ENDBRANCH  24  26
ENDBRANCH   5   8
ENDBRANCH   3   4
ENDBRANCH   2   3
ENDBRANCH   1   2
BRANCH   1  29
ATOM     29  C   UNL A   1      32.946  30.109  26.436  1.00  0.00     0.116 C 
BRANCH  29  30
ATOM     30  N   UNL A   1      32.794  31.491  26.895  1.00  0.00    -0.352 N 
ATOM     31  C   UNL A   1      33.682  32.237  27.636  1.00  0.00     0.251 C 
ATOM     32  H   UNL A   1      31.954  31.940  26.643  1.00  0.00     0.163 HD
ATOM     33  O   UNL A   1      33.405  33.347  28.034  1.00  0.00    -0.269 OA
BRANCH  31  34
ATOM     34  C   UNL A   1      34.980  31.604  27.965  1.00  0.00     0.039 A 
ATOM     35  C   UNL A   1      36.119  32.404  28.065  1.00  0.00     0.014 A 
ATOM     36  C   UNL A   1      35.005  30.261  28.347  1.00  0.00     0.014 A 
ATOM     37  C   UNL A   1      37.275  31.867  28.635  1.00  0.00     0.010 A 
ATOM     38  C   UNL A   1      36.113  29.774  29.021  1.00  0.00     0.010 A 
ATOM     39  C   UNL A   1      37.265  30.564  29.162  1.00  0.00    -0.014 A 
BRANCH  39  40
ATOM     40  C   UNL A   1      38.447  29.987  29.851  1.00  0.00     0.031 A 
ATOM     41  C   UNL A   1      38.772  30.434  31.252  1.00  0.00     0.074 A 
ATOM     42  C   UNL A   1      39.282  29.160  29.189  1.00  0.00     0.049 A 
ATOM     43  N   UNL A   1      39.808  30.140  31.991  1.00  0.00    -0.248 NA
ATOM     44  C   UNL A   1      37.837  31.379  31.890  1.00  0.00     0.031 C 
ATOM     45  C   UNL A   1      39.138  28.740  27.792  1.00  0.00     0.029 A 
ATOM     46  N   UNL A   1      40.442  28.547  29.597  1.00  0.00    -0.354 N 
ATOM     47  C   UNL A   1      39.680  30.905  33.144  1.00  0.00     0.074 A 
ATOM     48  C   UNL A   1      38.489  31.709  32.993  1.00  0.00     0.031 C 
ATOM     49  C   UNL A   1      40.163  27.934  27.464  1.00  0.00     0.029 A 
ATOM     50  C   UNL A   1      41.049  27.798  28.615  1.00  0.00     0.049 A 
ATOM     51  H   UNL A   1      40.805  28.637  30.508  1.00  0.00     0.167 HD
ATOM     52  C   UNL A   1      40.457  30.908  34.250  1.00  0.00     0.034 A 
ATOM     53  C   UNL A   1      42.192  27.083  28.644  1.00  0.00     0.034 A 
ATOM     54  C   UNL A   1      41.577  30.032  34.437  1.00  0.00     0.049 A 
ATOM     55  C   UNL A   1      42.975  27.017  29.929  1.00  0.00     0.074 A 
ATOM     56  C   UNL A   1      42.349  29.856  35.572  1.00  0.00     0.029 A 
ATOM     57  N   UNL A   1      42.079  29.177  33.470  1.00  0.00    -0.354 N 
ATOM     58  N   UNL A   1      42.728  27.605  31.075  1.00  0.00    -0.248 NA
ATOM     59  C   UNL A   1      44.169  26.159  29.941  1.00  0.00     0.031 C 
ATOM     60  C   UNL A   1      43.325  28.897  35.286  1.00  0.00     0.029 A 
ATOM     61  C   UNL A   1      43.152  28.469  33.979  1.00  0.00     0.049 A 
ATOM     62  H   UNL A   1      41.725  29.087  32.556  1.00  0.00     0.167 HD
ATOM     63  C   UNL A   1      43.710  27.158  31.952  1.00  0.00     0.074 A 
ATOM     64  C   UNL A   1      44.543  26.233  31.211  1.00  0.00     0.031 C 
ATOM     65  C   UNL A   1      43.920  27.498  33.247  1.00  0.00     0.034 A 
BRANCH  52  66
ATOM     66  C   UNL A   1      40.076  31.827  35.378  1.00  0.00     0.023 A 
ATOM     67  C   UNL A   1      40.636  33.119  35.441  1.00  0.00     0.012 A 
ATOM     68  C   UNL A   1      39.113  31.441  36.331  1.00  0.00     0.148 A 
ATOM     69  C   UNL A   1      40.265  34.005  36.450  1.00  0.00     0.002 A 
ATOM     70  C   UNL A   1      38.715  32.346  37.308  1.00  0.00     0.091 A 
ATOM     71  F   UNL A   1      38.611  30.200  36.266  1.00  0.00    -0.205 F 
ATOM     72  C   UNL A   1      39.298  33.623  37.376  1.00  0.00     0.022 A 
BRANCH  70  73
ATOM     73  S   UNL A   1      37.421  31.983  38.499  1.00  0.00     0.127 S 
ATOM     74  O   UNL A   1      38.094  32.279  39.765  1.00  0.00    -0.237 OA
ATOM     75  O   UNL A   1      36.383  32.942  38.121  1.00  0.00    -0.237 OA
ATOM     76  O   UNL A   1      37.067  30.586  38.297  1.00  0.00    -0.744 OA
ENDBRANCH  70  73
ENDBRANCH  52  66
BRANCH  53  77
ATOM     77  C   UNL A   1      42.628  26.307  27.447  1.00  0.00     0.023 A 
ATOM     78  C   UNL A   1      43.417  26.939  26.465  1.00  0.00     0.012 A 
ATOM     79  C   UNL A   1      42.275  24.956  27.273  1.00  0.00     0.148 A 
ATOM     80  C   UNL A   1      43.808  26.254  25.313  1.00  0.00     0.002 A 
ATOM     81  C   UNL A   1      42.714  24.263  26.150  1.00  0.00     0.091 A 
ATOM     82  F   UNL A   1      41.511  24.372  28.208  1.00  0.00    -0.205 F 
ATOM     83  C   UNL A   1      43.465  24.914  25.160  1.00  0.00     0.022 A 
BRANCH  81  84
ATOM     84  S   UNL A   1      42.426  22.501  25.947  1.00  0.00     0.127 S 
ATOM     85  O   UNL A   1      40.968  22.432  25.951  1.00  0.00    -0.237 OA
ATOM     86  O   UNL A   1      43.052  22.232  24.651  1.00  0.00    -0.237 OA
ATOM     87  O   UNL A   1      43.102  21.872  27.074  1.00  0.00    -0.744 OA
ENDBRANCH  81  84
ENDBRANCH  53  77
BRANCH  65  88
ATOM     88  C   UNL A   1      45.064  26.841  33.969  1.00  0.00     0.023 A 
ATOM     89  C   UNL A   1      46.355  27.397  33.881  1.00  0.00     0.012 A 
ATOM     90  C   UNL A   1      44.841  25.733  34.809  1.00  0.00     0.148 A 
ATOM     91  C   UNL A   1      47.413  26.843  34.599  1.00  0.00     0.002 A 
ATOM     92  C   UNL A   1      45.890  25.215  35.558  1.00  0.00     0.091 A 
ATOM     93  F   UNL A   1      43.607  25.209  34.863  1.00  0.00    -0.205 F 
ATOM     94  C   UNL A   1      47.179  25.762  35.446  1.00  0.00     0.022 A 
BRANCH  92  95
ATOM     95  S   UNL A   1      45.654  23.891  36.748  1.00  0.00     0.127 S 
ATOM     96  O   UNL A   1      44.631  24.456  37.624  1.00  0.00    -0.237 OA
ATOM     97  O   UNL A   1      45.191  22.789  35.902  1.00  0.00    -0.237 OA
ATOM     98  O   UNL A   1      46.956  23.670  37.363  1.00  0.00    -0.744 OA
ENDBRANCH  92  95
ENDBRANCH  65  88
ENDBRANCH  39  40
ENDBRANCH  31  34
ENDBRANCH  29  30
ENDBRANCH   1  29
TORSDOF 16
ENDMDL
MODEL 2
REMARK VINA RESULT:     -13.3      1.642      2.020
REMARK SMILES C[C@@]12CCC[C@](C)(C(=O)NCCCCNC(=O)c3ccc(-c4c5nc(c(-c6cccc(S(=O)(=O)[O-])c6F)c6ccc([nH]6)c(-c6cccc(S(=O)(=O)[O-])c6F)c6nc(c(-c7cccc(S(=O)(=O)[O-])c7F)c7ccc4[nH]7)C=C6)C=C5)cc3)[C@H]1CC[C@@]13C=C(CO)[C@@H](CC[C@@H]12)C3
REMARK SMILES IDX 13 1 12 2 11 3 10 4 8 5 9 6 6 8 1 9 2 10 3 11 81 12 92 13
REMARK SMILES IDX 4 14 82 15 84 16 91 17 5 18 7 19 83 20 85 21 93 22 90 23
REMARK SMILES IDX 86 24 89 25 87 26 88 27 14 29 15 30 16 31 17 33 18 34 19 35
REMARK SMILES IDX 80 36 20 37 79 38 21 39 22 40 23 41 73 42 24 43 78 44 72 45
REMARK SMILES IDX 74 46 25 47 77 48 71 49 70 50 26 52 58 53 38 54 57 55 39 56
REMARK SMILES IDX 42 57 56 58 75 59 40 60 41 61 55 63 76 64 43 65 27 66 28 67
REMARK SMILES IDX 36 68 29 69 31 70 37 71 30 72 32 73 33 74 34 75 35 76 59 77
REMARK SMILES IDX 60 78 68 79 61 80 63 81 69 82 62 83 64 84 65 85 66 86 67 87
REMARK SMILES IDX 44 88 45 89 53 90 46 91 48 92 54 93 47 94 49 95 50 96 51 97
REMARK SMILES IDX 52 98
REMARK H PARENT 10 7 88 28 15 32 74 51 42 62
REMARK Flexibility Score: inf
ROOT
ATOM      1  C   UNL A   1      31.794  30.105  25.341  1.00  0.00     0.023 C 
ENDROOT
BRANCH   1   2
ATOM      2  C   UNL A   1      32.642  29.069  24.634  1.00  0.00     0.023 C 
BRANCH   2   3
ATOM      3  C   UNL A   1      32.715  27.719  25.359  1.00  0.00     0.116 C 
BRANCH   3   4
ATOM      4  N   UNL A   1      31.389  27.143  25.530  1.00  0.00    -0.356 N 
ATOM      5  C   UNL A   1      30.718  26.123  24.919  1.00  0.00     0.226 C 
ATOM      6  O   UNL A   1      29.536  25.984  25.247  1.00  0.00    -0.274 OA
ATOM      7  H   UNL A   1      30.865  27.582  26.238  1.00  0.00     0.163 HD
BRANCH   5   8
ATOM      8  C   UNL A   1      31.390  25.149  23.901  1.00  0.00     0.050 C 
ATOM      9  C   UNL A   1      32.488  22.380  23.020  1.00  0.00     0.012 C 
ATOM     10  C   UNL A   1      33.450  23.542  23.453  1.00  0.00    -0.025 C 
ATOM     11  C   UNL A   1      33.827  24.391  22.217  1.00  0.00     0.007 C 
ATOM     12  C   UNL A   1      32.732  24.492  24.463  1.00  0.00     0.010 C 
ATOM     13  C   UNL A   1      34.718  22.820  24.050  1.00  0.00     0.005 C 
ATOM     14  C   UNL A   1      32.672  25.211  21.631  1.00  0.00     0.002 C 
ATOM     15  C   UNL A   1      32.650  23.894  25.862  1.00  0.00     0.006 C 
ATOM     16  C   UNL A   1      34.637  22.384  25.567  1.00  0.00    -0.008 C 
ATOM     17  C   UNL A   1      36.175  23.151  23.722  1.00  0.00     0.006 C 
ATOM     18  C   UNL A   1      31.878  26.002  22.679  1.00  0.00     0.017 C 
ATOM     19  C   UNL A   1      30.242  24.258  23.357  1.00  0.00     0.022 C 
ATOM     20  C   UNL A   1      33.962  23.411  26.440  1.00  0.00     0.012 C 
ATOM     21  C   UNL A   1      34.117  20.975  25.496  1.00  0.00    -0.018 C 
ATOM     22  C   UNL A   1      36.013  22.024  26.188  1.00  0.00     0.019 C 
ATOM     23  C   UNL A   1      36.977  21.811  23.954  1.00  0.00     0.008 C 
ATOM     24  C   UNL A   1      35.148  20.203  25.086  1.00  0.00    -0.045 C 
ATOM     25  C   UNL A   1      36.478  20.979  25.185  1.00  0.00     0.018 C 
BRANCH  24  26
ATOM     26  C   UNL A   1      35.026  18.827  24.534  1.00  0.00     0.187 C 
BRANCH  26  27
ATOM     27  O   UNL A   1      33.961  18.145  25.188  1.00  0.00    -0.392 OA
ATOM     28  H   UNL A   1      33.189  18.115  24.602  1.00  0.00     0.211 HD
ENDBRANCH  26  27
ENDBRANCH  24  26
ENDBRANCH   5   8
ENDBRANCH   3   4
ENDBRANCH   2   3
ENDBRANCH   1   2
BRANCH   1  29
ATOM     29  C   UNL A   1      32.340  30.508  26.694  1.00  0.00     0.116 C 
BRANCH  29  30
ATOM     30  N   UNL A   1      32.273  31.948  26.948  1.00  0.00    -0.352 N 
ATOM     31  C   UNL A   1      33.232  32.748  27.528  1.00  0.00     0.251 C 
ATOM     32  H   UNL A   1      31.443  32.398  26.670  1.00  0.00     0.163 HD
ATOM     33  O   UNL A   1      33.025  33.917  27.769  1.00  0.00    -0.269 OA
BRANCH  31  34
ATOM     34  C   UNL A   1      34.516  32.105  27.889  1.00  0.00     0.039 A 
ATOM     35  C   UNL A   1      35.669  32.886  27.967  1.00  0.00     0.014 A 
ATOM     36  C   UNL A   1      34.514  30.776  28.321  1.00  0.00     0.014 A 
ATOM     37  C   UNL A   1      36.811  32.350  28.563  1.00  0.00     0.010 A 
ATOM     38  C   UNL A   1      35.609  30.295  29.020  1.00  0.00     0.010 A 
ATOM     39  C   UNL A   1      36.775  31.068  29.139  1.00  0.00    -0.014 A 
BRANCH  39  40
ATOM     40  C   UNL A   1      37.941  30.496  29.856  1.00  0.00     0.031 A 
ATOM     41  C   UNL A   1      38.233  30.947  31.263  1.00  0.00     0.074 A 
ATOM     42  C   UNL A   1      38.794  29.670  29.216  1.00  0.00     0.049 A 
ATOM     43  N   UNL A   1      39.252  30.657  32.027  1.00  0.00    -0.248 NA
ATOM     44  C   UNL A   1      37.280  31.891  31.877  1.00  0.00     0.031 C 
ATOM     45  C   UNL A   1      38.684  29.246  27.817  1.00  0.00     0.029 A 
ATOM     46  N   UNL A   1      39.946  29.061  29.652  1.00  0.00    -0.354 N 
ATOM     47  C   UNL A   1      39.095  31.425  33.174  1.00  0.00     0.074 A 
ATOM     48  C   UNL A   1      37.906  32.225  32.994  1.00  0.00     0.031 C 
ATOM     49  C   UNL A   1      39.718  28.442  27.515  1.00  0.00     0.029 A 
ATOM     50  C   UNL A   1      40.578  28.311  28.686  1.00  0.00     0.049 A 
ATOM     51  H   UNL A   1      40.287  29.153  30.571  1.00  0.00     0.167 HD
ATOM     52  C   UNL A   1      39.846  31.432  34.298  1.00  0.00     0.034 A 
ATOM     53  C   UNL A   1      41.722  27.600  28.743  1.00  0.00     0.034 A 
ATOM     54  C   UNL A   1      40.965  30.559  34.514  1.00  0.00     0.049 A 
ATOM     55  C   UNL A   1      42.474  27.538  30.046  1.00  0.00     0.074 A 
ATOM     56  C   UNL A   1      41.710  30.388  35.666  1.00  0.00     0.029 A 
ATOM     57  N   UNL A   1      41.491  29.704  33.560  1.00  0.00    -0.354 N 
ATOM     58  N   UNL A   1      42.200  28.128  31.185  1.00  0.00    -0.248 NA
ATOM     59  C   UNL A   1      43.670  26.684  30.088  1.00  0.00     0.031 C 
ATOM     60  C   UNL A   1      42.695  29.431  35.406  1.00  0.00     0.029 A 
ATOM     61  C   UNL A   1      42.554  29.000  34.096  1.00  0.00     0.049 A 
ATOM     62  H   UNL A   1      41.158  29.611  32.638  1.00  0.00     0.167 HD
ATOM     63  C   UNL A   1      43.162  27.686  32.085  1.00  0.00     0.074 A 
ATOM     64  C   UNL A   1      44.014  26.761  31.366  1.00  0.00     0.031 C 
ATOM     65  C   UNL A   1      43.341  28.029  33.384  1.00  0.00     0.034 A 
BRANCH  52  66
ATOM     66  C   UNL A   1      39.437  32.353  35.416  1.00  0.00     0.023 A 
ATOM     67  C   UNL A   1      38.603  31.868  36.444  1.00  0.00     0.012 A 
ATOM     68  C   UNL A   1      39.933  33.669  35.486  1.00  0.00     0.148 A 
ATOM     69  C   UNL A   1      38.246  32.687  37.513  1.00  0.00     0.002 A 
ATOM     70  C   UNL A   1      39.609  34.465  36.579  1.00  0.00     0.091 A 
ATOM     71  F   UNL A   1      40.705  34.116  34.486  1.00  0.00    -0.205 F 
ATOM     72  C   UNL A   1      38.757  33.980  37.586  1.00  0.00     0.022 A 
BRANCH  70  73
ATOM     73  S   UNL A   1      40.277  36.115  36.810  1.00  0.00     0.127 S 
ATOM     74  O   UNL A   1      39.849  36.782  35.580  1.00  0.00    -0.237 OA
ATOM     75  O   UNL A   1      39.582  36.559  38.018  1.00  0.00    -0.237 OA
ATOM     76  O   UNL A   1      41.716  35.951  36.958  1.00  0.00    -0.744 OA
ENDBRANCH  70  73
ENDBRANCH  52  66
BRANCH  53  77
ATOM     77  C   UNL A   1      42.187  26.822  27.558  1.00  0.00     0.023 A 
ATOM     78  C   UNL A   1      42.891  27.483  26.532  1.00  0.00     0.012 A 
ATOM     79  C   UNL A   1      41.944  25.441  27.439  1.00  0.00     0.148 A 
ATOM     80  C   UNL A   1      43.306  26.794  25.392  1.00  0.00     0.002 A 
ATOM     81  C   UNL A   1      42.409  24.749  26.325  1.00  0.00     0.091 A 
ATOM     82  F   UNL A   1      41.260  24.827  28.415  1.00  0.00    -0.205 F 
ATOM     83  C   UNL A   1      43.073  25.426  25.292  1.00  0.00     0.022 A 
BRANCH  81  84
ATOM     84  S   UNL A   1      42.265  22.963  26.188  1.00  0.00     0.127 S 
ATOM     85  O   UNL A   1      40.819  22.772  26.250  1.00  0.00    -0.237 OA
ATOM     86  O   UNL A   1      42.865  22.704  24.878  1.00  0.00    -0.237 OA
ATOM     87  O   UNL A   1      43.032  22.431  27.307  1.00  0.00    -0.744 OA
ENDBRANCH  81  84
ENDBRANCH  53  77
BRANCH  65  88
ATOM     88  C   UNL A   1      44.470  27.377  34.134  1.00  0.00     0.023 A 
ATOM     89  C   UNL A   1      45.746  27.973  34.129  1.00  0.00     0.012 A 
ATOM     90  C   UNL A   1      44.242  26.230  34.918  1.00  0.00     0.148 A 
ATOM     91  C   UNL A   1      46.786  27.421  34.875  1.00  0.00     0.002 A 
ATOM     92  C   UNL A   1      45.270  25.712  35.696  1.00  0.00     0.091 A 
ATOM     93  F   UNL A   1      43.023  25.669  34.892  1.00  0.00    -0.205 F 
ATOM     94  C   UNL A   1      46.545  26.301  35.668  1.00  0.00     0.022 A 
BRANCH  92  95
ATOM     95  S   UNL A   1      45.019  24.335  36.821  1.00  0.00     0.127 S 
ATOM     96  O   UNL A   1      44.549  23.291  35.914  1.00  0.00    -0.237 OA
ATOM     97  O   UNL A   1      46.365  24.119  37.355  1.00  0.00    -0.237 OA
ATOM     98  O   UNL A   1      44.049  24.796  37.806  1.00  0.00    -0.744 OA
ENDBRANCH  92  95
ENDBRANCH  65  88
ENDBRANCH  39  40
ENDBRANCH  31  34
ENDBRANCH  29  30
ENDBRANCH   1  29
TORSDOF 16
ENDMDL
MODEL 3
REMARK VINA RESULT:     -13.2      5.381      8.721
REMARK SMILES C[C@@]12CCC[C@](C)(C(=O)NCCCCNC(=O)c3ccc(-c4c5nc(c(-c6cccc(S(=O)(=O)[O-])c6F)c6ccc([nH]6)c(-c6cccc(S(=O)(=O)[O-])c6F)c6nc(c(-c7cccc(S(=O)(=O)[O-])c7F)c7ccc4[nH]7)C=C6)C=C5)cc3)[C@H]1CC[C@@]13C=C(CO)[C@@H](CC[C@@H]12)C3
REMARK SMILES IDX 13 1 12 2 11 3 10 4 8 5 9 6 6 8 1 9 2 10 3 11 81 12 92 13
REMARK SMILES IDX 4 14 82 15 84 16 91 17 5 18 7 19 83 20 85 21 93 22 90 23
REMARK SMILES IDX 86 24 89 25 87 26 88 27 14 29 15 30 16 31 17 33 18 34 19 35
REMARK SMILES IDX 80 36 20 37 79 38 21 39 22 40 23 41 73 42 24 43 78 44 72 45
REMARK SMILES IDX 74 46 25 47 77 48 71 49 70 50 26 52 58 53 38 54 57 55 39 56
REMARK SMILES IDX 42 57 56 58 75 59 40 60 41 61 55 63 76 64 43 65 27 66 28 67
REMARK SMILES IDX 36 68 29 69 31 70 37 71 30 72 32 73 33 74 34 75 35 76 59 77
REMARK SMILES IDX 60 78 68 79 61 80 63 81 69 82 62 83 64 84 65 85 66 86 67 87
REMARK SMILES IDX 44 88 45 89 53 90 46 91 48 92 54 93 47 94 49 95 50 96 51 97
REMARK SMILES IDX 52 98
REMARK H PARENT 10 7 88 28 15 32 74 51 42 62
REMARK Flexibility Score: inf
ROOT
ATOM      1  C   UNL A   1      37.979  19.904  24.792  1.00  0.00     0.023 C 
ENDROOT
BRANCH   1   2
ATOM      2  C   UNL A   1      37.460  21.315  24.617  1.00  0.00     0.023 C 
BRANCH   2   3
ATOM      3  C   UNL A   1      36.084  21.559  25.250  1.00  0.00     0.116 C 
BRANCH   3   4
ATOM      4  N   UNL A   1      35.062  20.740  24.615  1.00  0.00    -0.356 N 
ATOM      5  C   UNL A   1      33.697  20.779  24.601  1.00  0.00     0.226 C 
ATOM      6  O   UNL A   1      33.137  19.832  24.040  1.00  0.00    -0.274 OA
ATOM      7  H   UNL A   1      35.433  20.000  24.082  1.00  0.00     0.163 HD
BRANCH   5   8
ATOM      8  C   UNL A   1      32.871  21.956  25.206  1.00  0.00     0.050 C 
ATOM      9  C   UNL A   1      30.950  24.390  25.007  1.00  0.00     0.012 C 
ATOM     10  C   UNL A   1      32.495  24.580  25.213  1.00  0.00    -0.025 C 
ATOM     11  C   UNL A   1      32.816  24.609  26.726  1.00  0.00     0.007 C 
ATOM     12  C   UNL A   1      33.276  23.376  24.599  1.00  0.00     0.010 C 
ATOM     13  C   UNL A   1      32.828  25.966  24.539  1.00  0.00     0.005 C 
ATOM     14  C   UNL A   1      32.617  23.270  27.445  1.00  0.00     0.002 C 
ATOM     15  C   UNL A   1      33.361  23.455  23.080  1.00  0.00     0.006 C 
ATOM     16  C   UNL A   1      33.086  25.951  22.979  1.00  0.00    -0.008 C 
ATOM     17  C   UNL A   1      33.673  27.082  25.155  1.00  0.00     0.006 C 
ATOM     18  C   UNL A   1      33.256  22.076  26.722  1.00  0.00     0.017 C 
ATOM     19  C   UNL A   1      31.394  21.482  25.188  1.00  0.00     0.022 C 
ATOM     20  C   UNL A   1      33.891  24.759  22.526  1.00  0.00     0.012 C 
ATOM     21  C   UNL A   1      31.725  26.224  22.400  1.00  0.00    -0.018 C 
ATOM     22  C   UNL A   1      33.758  27.243  22.445  1.00  0.00     0.019 C 
ATOM     23  C   UNL A   1      33.152  28.420  24.498  1.00  0.00     0.008 C 
ATOM     24  C   UNL A   1      31.485  27.541  22.585  1.00  0.00    -0.045 C 
ATOM     25  C   UNL A   1      32.781  28.278  22.982  1.00  0.00     0.018 C 
BRANCH  24  26
ATOM     26  C   UNL A   1      30.149  28.192  22.504  1.00  0.00     0.187 C 
BRANCH  26  27
ATOM     27  O   UNL A   1      30.161  29.174  21.474  1.00  0.00    -0.392 OA
ATOM     28  H   UNL A   1      29.435  29.001  20.853  1.00  0.00     0.211 HD
ENDBRANCH  26  27
ENDBRANCH  24  26
ENDBRANCH   5   8
ENDBRANCH   3   4
ENDBRANCH   2   3
ENDBRANCH   1   2
BRANCH   1  29
ATOM     29  C   UNL A   1      38.762  19.706  26.072  1.00  0.00     0.116 C 
BRANCH  29  30
ATOM     30  N   UNL A   1      39.996  18.939  25.893  1.00  0.00    -0.352 N 
ATOM     31  C   UNL A   1      41.291  19.372  26.069  1.00  0.00     0.251 C 
ATOM     32  H   UNL A   1      39.886  18.002  25.612  1.00  0.00     0.163 HD
ATOM     33  O   UNL A   1      42.240  18.668  25.801  1.00  0.00    -0.269 OA
BRANCH  31  34
ATOM     34  C   UNL A   1      41.476  20.758  26.558  1.00  0.00     0.039 A 
ATOM     35  C   UNL A   1      42.249  20.977  27.699  1.00  0.00     0.014 A 
ATOM     36  C   UNL A   1      41.032  21.823  25.771  1.00  0.00     0.014 A 
ATOM     37  C   UNL A   1      42.649  22.279  28.005  1.00  0.00     0.010 A 
ATOM     38  C   UNL A   1      41.534  23.091  26.011  1.00  0.00     0.010 A 
ATOM     39  C   UNL A   1      42.337  23.339  27.137  1.00  0.00    -0.014 A 
BRANCH  39  40
ATOM     40  C   UNL A   1      42.816  24.722  27.382  1.00  0.00     0.031 A 
ATOM     41  C   UNL A   1      41.885  25.721  28.018  1.00  0.00     0.074 A 
ATOM     42  C   UNL A   1      44.029  25.109  26.939  1.00  0.00     0.049 A 
ATOM     43  N   UNL A   1      42.063  26.998  28.224  1.00  0.00    -0.248 NA
ATOM     44  C   UNL A   1      40.556  25.232  28.431  1.00  0.00     0.031 C 
ATOM     45  C   UNL A   1      44.980  24.266  26.208  1.00  0.00     0.029 A 
ATOM     46  N   UNL A   1      44.660  26.328  27.009  1.00  0.00    -0.354 N 
ATOM     47  C   UNL A   1      40.857  27.471  28.727  1.00  0.00     0.074 A 
ATOM     48  C   UNL A   1      39.940  26.356  28.759  1.00  0.00     0.031 C 
ATOM     49  C   UNL A   1      46.073  24.990  25.907  1.00  0.00     0.029 A 
ATOM     50  C   UNL A   1      45.894  26.351  26.399  1.00  0.00     0.049 A 
ATOM     51  H   UNL A   1      44.265  27.111  27.455  1.00  0.00     0.167 HD
ATOM     52  C   UNL A   1      40.551  28.713  29.166  1.00  0.00     0.034 A 
ATOM     53  C   UNL A   1      46.777  27.359  26.256  1.00  0.00     0.034 A 
ATOM     54  C   UNL A   1      41.497  29.790  29.231  1.00  0.00     0.049 A 
ATOM     55  C   UNL A   1      46.452  28.701  26.857  1.00  0.00     0.074 A 
ATOM     56  C   UNL A   1      41.331  31.046  29.785  1.00  0.00     0.029 A 
ATOM     57  N   UNL A   1      42.788  29.734  28.734  1.00  0.00    -0.354 N 
ATOM     58  N   UNL A   1      45.372  29.076  27.502  1.00  0.00    -0.248 NA
ATOM     59  C   UNL A   1      47.479  29.748  26.751  1.00  0.00     0.031 C 
ATOM     60  C   UNL A   1      42.524  31.755  29.615  1.00  0.00     0.029 A 
ATOM     61  C   UNL A   1      43.434  30.934  28.967  1.00  0.00     0.049 A 
ATOM     62  H   UNL A   1      43.188  28.956  28.282  1.00  0.00     0.167 HD
ATOM     63  C   UNL A   1      45.606  30.384  27.910  1.00  0.00     0.074 A 
ATOM     64  C   UNL A   1      46.939  30.730  27.460  1.00  0.00     0.031 C 
ATOM     65  C   UNL A   1      44.787  31.232  28.577  1.00  0.00     0.034 A 
BRANCH  52  66
ATOM     66  C   UNL A   1      39.162  28.954  29.691  1.00  0.00     0.023 A 
ATOM     67  C   UNL A   1      38.865  28.651  31.036  1.00  0.00     0.012 A 
ATOM     68  C   UNL A   1      38.175  29.544  28.879  1.00  0.00     0.148 A 
ATOM     69  C   UNL A   1      37.599  28.907  31.558  1.00  0.00     0.002 A 
ATOM     70  C   UNL A   1      36.928  29.838  29.419  1.00  0.00     0.091 A 
ATOM     71  F   UNL A   1      38.471  29.803  27.597  1.00  0.00    -0.205 F 
ATOM     72  C   UNL A   1      36.636  29.510  30.754  1.00  0.00     0.022 A 
BRANCH  70  73
ATOM     73  S   UNL A   1      35.644  30.686  28.495  1.00  0.00     0.127 S 
ATOM     74  O   UNL A   1      35.015  29.576  27.778  1.00  0.00    -0.237 OA
ATOM     75  O   UNL A   1      34.828  31.262  29.564  1.00  0.00    -0.237 OA
ATOM     76  O   UNL A   1      36.327  31.659  27.655  1.00  0.00    -0.744 OA
ENDBRANCH  70  73
ENDBRANCH  52  66
BRANCH  53  77
ATOM     77  C   UNL A   1      48.088  27.125  25.583  1.00  0.00     0.023 A 
ATOM     78  C   UNL A   1      49.177  26.650  26.340  1.00  0.00     0.012 A 
ATOM     79  C   UNL A   1      48.265  27.363  24.207  1.00  0.00     0.148 A 
ATOM     80  C   UNL A   1      50.427  26.458  25.751  1.00  0.00     0.002 A 
ATOM     81  C   UNL A   1      49.499  27.117  23.615  1.00  0.00     0.091 A 
ATOM     82  F   UNL A   1      47.225  27.829  23.501  1.00  0.00    -0.205 F 
ATOM     83  C   UNL A   1      50.587  26.683  24.387  1.00  0.00     0.022 A 
BRANCH  81  84
ATOM     84  S   UNL A   1      49.746  27.255  21.840  1.00  0.00     0.127 S 
ATOM     85  O   UNL A   1      48.733  26.340  21.323  1.00  0.00    -0.237 OA
ATOM     86  O   UNL A   1      49.477  28.674  21.599  1.00  0.00    -0.237 OA
ATOM     87  O   UNL A   1      51.134  26.870  21.617  1.00  0.00    -0.744 OA
ENDBRANCH  81  84
ENDBRANCH  53  77
BRANCH  65  88
ATOM     88  C   UNL A   1      45.310  32.602  28.905  1.00  0.00     0.023 A 
ATOM     89  C   UNL A   1      46.078  32.795  30.070  1.00  0.00     0.012 A 
ATOM     90  C   UNL A   1      45.123  33.675  28.012  1.00  0.00     0.148 A 
ATOM     91  C   UNL A   1      46.631  34.043  30.354  1.00  0.00     0.002 A 
ATOM     92  C   UNL A   1      45.716  34.903  28.277  1.00  0.00     0.091 A 
ATOM     93  F   UNL A   1      44.373  33.473  26.918  1.00  0.00    -0.205 F 
ATOM     94  C   UNL A   1      46.461  35.091  29.452  1.00  0.00     0.022 A 
BRANCH  92  95
ATOM     95  S   UNL A   1      45.632  36.275  27.122  1.00  0.00     0.127 S 
ATOM     96  O   UNL A   1      46.265  35.705  25.935  1.00  0.00    -0.237 OA
ATOM     97  O   UNL A   1      44.190  36.492  26.998  1.00  0.00    -0.237 OA
ATOM     98  O   UNL A   1      46.353  37.373  27.753  1.00  0.00    -0.744 OA
ENDBRANCH  92  95
ENDBRANCH  65  88
ENDBRANCH  39  40
ENDBRANCH  31  34
ENDBRANCH  29  30
ENDBRANCH   1  29
TORSDOF 16
ENDMDL
