MODEL 1
REMARK VINA RESULT:     -12.7      0.000      0.000
REMARK SMILES Cc1cccc(S(=O)(=O)Nc2cc(C(=O)NCCCCNC(=O)c3ccc(-c4c5nc(c(-c6cccc(S(=O)(=O)[O-])c6F)c6ccc([nH]6)c(-c6cccc(S(=O)(=O)[O-])c6F)c6nc(c(-c7cccc(S(=O)(=O)[O-])c7F)c7ccc4[nH]7)C=C6)C=C5)cc3)ccc2N2CCC[C@H](C[NH+]3CCCC3)C2)c1
REMARK SMILES IDX 18 1 17 2 16 3 14 4 15 5 13 7 11 8 12 9 89 10 88 11 87 12
REMARK SMILES IDX 10 13 7 15 8 16 9 17 6 18 1 19 2 20 3 21 102 22 4 23 5 24
REMARK SMILES IDX 90 25 91 26 101 27 92 28 94 29 93 30 95 31 96 32 97 33
REMARK SMILES IDX 100 34 98 36 99 37 19 38 20 39 21 40 22 41 23 43 24 44 25 45
REMARK SMILES IDX 86 46 26 47 85 48 27 49 28 50 29 51 79 52 30 53 84 54 78 55
REMARK SMILES IDX 80 56 31 57 83 58 77 59 76 60 32 62 64 63 44 64 63 65 45 66
REMARK SMILES IDX 48 67 62 68 81 69 46 70 47 71 61 73 82 74 49 75 33 76 34 77
REMARK SMILES IDX 42 78 35 79 37 80 43 81 36 82 38 83 39 84 40 85 41 86 65 87
REMARK SMILES IDX 66 88 74 89 67 90 69 91 75 92 68 93 70 94 71 95 72 96 73 97
REMARK SMILES IDX 50 98 51 99 59 100 52 101 54 102 60 103 53 104 55 105 56 106
REMARK SMILES IDX 57 107 58 108
REMARK H PARENT 16 6 10 14 96 35 21 42 80 61 48 72
REMARK Flexibility Score: inf
ROOT
ATOM      1  C   UNL A   1      37.945  30.035  27.920  1.00  0.00     0.023 C 
ENDROOT
BRANCH   1   2
ATOM      2  C   UNL A   1      36.745  29.851  26.981  1.00  0.00     0.116 C 
BRANCH   2   3
ATOM      3  N   UNL A   1      35.578  30.581  27.451  1.00  0.00    -0.352 N 
ATOM      4  C   UNL A   1      34.232  30.414  27.247  1.00  0.00     0.251 C 
ATOM      5  O   UNL A   1      33.459  31.212  27.778  1.00  0.00    -0.269 OA
ATOM      6  H   UNL A   1      35.797  31.346  28.030  1.00  0.00     0.163 HD
BRANCH   4   7
ATOM      7  C   UNL A   1      33.661  29.266  26.488  1.00  0.00     0.042 A 
ATOM      8  C   UNL A   1      32.613  28.320  24.534  1.00  0.00     0.073 A 
ATOM      9  C   UNL A   1      32.851  29.402  25.369  1.00  0.00     0.042 A 
ATOM     10  C   UNL A   1      32.973  27.018  24.912  1.00  0.00     0.061 A 
ATOM     11  C   UNL A   1      33.673  26.863  26.114  1.00  0.00     0.029 A 
ATOM     12  C   UNL A   1      34.048  27.975  26.875  1.00  0.00     0.016 A 
BRANCH   8  13
ATOM     13  N   UNL A   1      32.060  28.585  23.245  1.00  0.00    -0.277 N 
ATOM     14  H   UNL A   1      32.648  28.848  22.501  1.00  0.00     0.180 HD
BRANCH  13  15
ATOM     15  S   UNL A   1      30.372  28.444  22.995  1.00  0.00     0.261 S 
ATOM     16  O   UNL A   1      29.884  27.876  24.255  1.00  0.00    -0.201 OA
ATOM     17  O   UNL A   1      30.199  27.708  21.778  1.00  0.00    -0.201 OA
BRANCH  15  18
ATOM     18  C   UNL A   1      29.544  30.014  22.790  1.00  0.00     0.088 A 
ATOM     19  C   UNL A   1      28.021  32.342  20.161  1.00  0.00     0.044 C 
ATOM     20  C   UNL A   1      28.476  31.770  21.473  1.00  0.00    -0.050 A 
ATOM     21  C   UNL A   1      28.556  32.631  22.565  1.00  0.00     0.003 A 
ATOM     22  C   UNL A   1      28.902  30.432  21.614  1.00  0.00     0.025 A 
ATOM     23  C   UNL A   1      29.112  32.183  23.753  1.00  0.00     0.002 A 
ATOM     24  C   UNL A   1      29.603  30.890  23.875  1.00  0.00     0.022 A 
ENDBRANCH  15  18
ENDBRANCH  13  15
ENDBRANCH   8  13
BRANCH  10  25
ATOM     25  N   UNL A   1      32.641  25.904  24.171  1.00  0.00    -0.369 N 
ATOM     26  C   UNL A   1      31.283  25.396  24.288  1.00  0.00     0.116 C 
ATOM     27  C   UNL A   1      33.494  25.387  23.107  1.00  0.00     0.126 C 
ATOM     28  C   UNL A   1      31.339  23.880  24.413  1.00  0.00     0.022 C 
ATOM     29  C   UNL A   1      33.595  23.856  23.210  1.00  0.00     0.064 C 
ATOM     30  C   UNL A   1      32.167  23.280  23.277  1.00  0.00     0.013 C 
BRANCH  29  31
ATOM     31  C   UNL A   1      34.540  23.499  24.386  1.00  0.00     0.267 C 
BRANCH  31  32
ATOM     32  N   UNL A   1      35.988  23.679  24.250  1.00  0.00    -0.335 N 
ATOM     33  C   UNL A   1      36.653  22.726  23.365  1.00  0.00     0.262 C 
ATOM     34  C   UNL A   1      36.748  23.743  25.493  1.00  0.00     0.262 C 
ATOM     35  H   UNL A   1      36.003  24.604  23.820  1.00  0.00     0.348 HD
ATOM     36  C   UNL A   1      37.289  21.709  24.291  1.00  0.00     0.067 C 
ATOM     37  C   UNL A   1      37.657  22.519  25.521  1.00  0.00     0.067 C 
ENDBRANCH  31  32
ENDBRANCH  29  31
ENDBRANCH  10  25
ENDBRANCH   4   7
ENDBRANCH   2   3
ENDBRANCH   1   2
BRANCH   1  38
ATOM     38  C   UNL A   1      37.724  31.118  28.966  1.00  0.00     0.023 C 
BRANCH  38  39
ATOM     39  C   UNL A   1      38.709  31.025  30.111  1.00  0.00     0.116 C 
BRANCH  39  40
ATOM     40  N   UNL A   1      38.110  30.563  31.341  1.00  0.00    -0.352 N 
ATOM     41  C   UNL A   1      37.928  29.260  31.766  1.00  0.00     0.251 C 
ATOM     42  H   UNL A   1      37.792  31.264  31.955  1.00  0.00     0.163 HD
ATOM     43  O   UNL A   1      37.036  29.029  32.577  1.00  0.00    -0.269 OA
BRANCH  41  44
ATOM     44  C   UNL A   1      38.930  28.222  31.403  1.00  0.00     0.039 A 
ATOM     45  C   UNL A   1      40.178  28.335  32.033  1.00  0.00     0.014 A 
ATOM     46  C   UNL A   1      38.807  27.453  30.251  1.00  0.00     0.014 A 
ATOM     47  C   UNL A   1      41.328  27.979  31.345  1.00  0.00     0.010 A 
ATOM     48  C   UNL A   1      39.937  27.199  29.518  1.00  0.00     0.010 A 
ATOM     49  C   UNL A   1      41.185  27.550  30.037  1.00  0.00    -0.014 A 
BRANCH  49  50
ATOM     50  C   UNL A   1      42.270  27.361  29.105  1.00  0.00     0.031 A 
ATOM     51  C   UNL A   1      42.805  26.008  28.941  1.00  0.00     0.074 A 
ATOM     52  C   UNL A   1      42.452  28.338  28.192  1.00  0.00     0.049 A 
ATOM     53  N   UNL A   1      43.776  25.710  28.158  1.00  0.00    -0.248 NA
ATOM     54  C   UNL A   1      42.291  24.871  29.698  1.00  0.00     0.031 C 
ATOM     55  C   UNL A   1      42.967  28.208  26.839  1.00  0.00     0.029 A 
ATOM     56  N   UNL A   1      42.359  29.717  28.400  1.00  0.00    -0.354 N 
ATOM     57  C   UNL A   1      43.774  24.339  28.036  1.00  0.00     0.074 A 
ATOM     58  C   UNL A   1      42.973  23.872  29.136  1.00  0.00     0.031 C 
ATOM     59  C   UNL A   1      43.404  29.408  26.427  1.00  0.00     0.029 A 
ATOM     60  C   UNL A   1      43.334  30.302  27.577  1.00  0.00     0.049 A 
ATOM     61  H   UNL A   1      41.737  30.183  29.002  1.00  0.00     0.167 HD
ATOM     62  C   UNL A   1      44.295  23.805  26.897  1.00  0.00     0.034 A 
ATOM     63  C   UNL A   1      44.359  31.075  28.036  1.00  0.00     0.034 A 
ATOM     64  C   UNL A   1      45.025  24.850  26.142  1.00  0.00     0.049 A 
ATOM     65  C   UNL A   1      45.680  30.417  27.701  1.00  0.00     0.074 A 
ATOM     66  C   UNL A   1      44.740  25.574  24.996  1.00  0.00     0.029 A 
ATOM     67  N   UNL A   1      46.090  25.516  26.760  1.00  0.00    -0.354 N 
ATOM     68  N   UNL A   1      45.777  29.173  27.315  1.00  0.00    -0.248 NA
ATOM     69  C   UNL A   1      46.971  31.093  27.699  1.00  0.00     0.031 C 
ATOM     70  C   UNL A   1      45.554  26.746  25.003  1.00  0.00     0.029 A 
ATOM     71  C   UNL A   1      46.371  26.719  26.126  1.00  0.00     0.049 A 
ATOM     72  H   UNL A   1      46.578  25.175  27.544  1.00  0.00     0.167 HD
ATOM     73  C   UNL A   1      47.067  28.860  27.016  1.00  0.00     0.074 A 
ATOM     74  C   UNL A   1      47.779  30.109  27.258  1.00  0.00     0.031 C 
ATOM     75  C   UNL A   1      47.435  27.602  26.619  1.00  0.00     0.034 A 
BRANCH  62  76
ATOM     76  C   UNL A   1      43.951  22.430  26.325  1.00  0.00     0.023 A 
ATOM     77  C   UNL A   1      42.627  21.974  26.508  1.00  0.00     0.012 A 
ATOM     78  C   UNL A   1      44.828  21.502  25.698  1.00  0.00     0.148 A 
ATOM     79  C   UNL A   1      42.205  20.691  26.125  1.00  0.00     0.002 A 
ATOM     80  C   UNL A   1      44.402  20.236  25.283  1.00  0.00     0.091 A 
ATOM     81  F   UNL A   1      46.113  21.796  25.522  1.00  0.00    -0.205 F 
ATOM     82  C   UNL A   1      43.091  19.821  25.508  1.00  0.00     0.022 A 
BRANCH  80  83
ATOM     83  S   UNL A   1      45.498  19.061  24.453  1.00  0.00     0.127 S 
ATOM     84  O   UNL A   1      45.484  17.925  25.376  1.00  0.00    -0.237 OA
ATOM     85  O   UNL A   1      44.801  18.826  23.189  1.00  0.00    -0.237 OA
ATOM     86  O   UNL A   1      46.792  19.718  24.319  1.00  0.00    -0.744 OA
ENDBRANCH  80  83
ENDBRANCH  62  76
BRANCH  63  87
ATOM     87  C   UNL A   1      43.991  31.877  29.241  1.00  0.00     0.023 A 
ATOM     88  C   UNL A   1      44.399  31.331  30.485  1.00  0.00     0.012 A 
ATOM     89  C   UNL A   1      43.781  33.262  29.149  1.00  0.00     0.148 A 
ATOM     90  C   UNL A   1      44.787  32.159  31.541  1.00  0.00     0.002 A 
ATOM     91  C   UNL A   1      44.176  34.085  30.207  1.00  0.00     0.091 A 
ATOM     92  F   UNL A   1      43.315  33.762  27.999  1.00  0.00    -0.205 F 
ATOM     93  C   UNL A   1      44.723  33.538  31.382  1.00  0.00     0.022 A 
BRANCH  91  94
ATOM     94  S   UNL A   1      44.193  35.876  30.043  1.00  0.00     0.127 S 
ATOM     95  O   UNL A   1      44.609  36.293  31.378  1.00  0.00    -0.237 OA
ATOM     96  O   UNL A   1      45.191  36.087  28.995  1.00  0.00    -0.237 OA
ATOM     97  O   UNL A   1      42.835  36.225  29.651  1.00  0.00    -0.744 OA
ENDBRANCH  91  94
ENDBRANCH  63  87
BRANCH  75  98
ATOM     98  C   UNL A   1      48.862  27.096  26.652  1.00  0.00     0.023 A 
ATOM     99  C   UNL A   1      49.273  26.089  27.547  1.00  0.00     0.012 A 
ATOM    100  C   UNL A   1      49.797  27.483  25.659  1.00  0.00     0.148 A 
ATOM    101  C   UNL A   1      50.559  25.545  27.515  1.00  0.00     0.002 A 
ATOM    102  C   UNL A   1      51.025  26.839  25.545  1.00  0.00     0.091 A 
ATOM    103  F   UNL A   1      49.512  28.487  24.819  1.00  0.00    -0.205 F 
ATOM    104  C   UNL A   1      51.427  25.901  26.496  1.00  0.00     0.022 A 
BRANCH 102 105
ATOM    105  S   UNL A   1      52.049  27.047  24.083  1.00  0.00     0.127 S 
ATOM    106  O   UNL A   1      52.714  28.318  24.358  1.00  0.00    -0.237 OA
ATOM    107  O   UNL A   1      52.922  25.874  24.147  1.00  0.00    -0.237 OA
ATOM    108  O   UNL A   1      51.121  27.037  22.961  1.00  0.00    -0.744 OA
ENDBRANCH 102 105
ENDBRANCH  75  98
ENDBRANCH  49  50
ENDBRANCH  41  44
ENDBRANCH  39  40
ENDBRANCH  38  39
ENDBRANCH   1  38
TORSDOF 20
ENDMDL
MODEL 2
REMARK VINA RESULT:     -12.5      1.821      2.097
REMARK SMILES Cc1cccc(S(=O)(=O)Nc2cc(C(=O)NCCCCNC(=O)c3ccc(-c4c5nc(c(-c6cccc(S(=O)(=O)[O-])c6F)c6ccc([nH]6)c(-c6cccc(S(=O)(=O)[O-])c6F)c6nc(c(-c7cccc(S(=O)(=O)[O-])c7F)c7ccc4[nH]7)C=C6)C=C5)cc3)ccc2N2CCC[C@H](C[NH+]3CCCC3)C2)c1
REMARK SMILES IDX 18 1 17 2 16 3 14 4 15 5 13 7 11 8 12 9 89 10 88 11 87 12
REMARK SMILES IDX 10 13 7 15 8 16 9 17 6 18 1 19 2 20 3 21 102 22 4 23 5 24
REMARK SMILES IDX 90 25 91 26 101 27 92 28 94 29 93 30 95 31 96 32 97 33
REMARK SMILES IDX 100 34 98 36 99 37 19 38 20 39 21 40 22 41 23 43 24 44 25 45
REMARK SMILES IDX 86 46 26 47 85 48 27 49 28 50 29 51 79 52 30 53 84 54 78 55
REMARK SMILES IDX 80 56 31 57 83 58 77 59 76 60 32 62 64 63 44 64 63 65 45 66
REMARK SMILES IDX 48 67 62 68 81 69 46 70 47 71 61 73 82 74 49 75 33 76 34 77
REMARK SMILES IDX 42 78 35 79 37 80 43 81 36 82 38 83 39 84 40 85 41 86 65 87
REMARK SMILES IDX 66 88 74 89 67 90 69 91 75 92 68 93 70 94 71 95 72 96 73 97
REMARK SMILES IDX 50 98 51 99 59 100 52 101 54 102 60 103 53 104 55 105 56 106
REMARK SMILES IDX 57 107 58 108
REMARK H PARENT 16 6 10 14 96 35 21 42 80 61 48 72
REMARK Flexibility Score: inf
ROOT
ATOM      1  C   UNL A   1      37.865  29.957  28.096  1.00  0.00     0.023 C 
ENDROOT
BRANCH   1   2
ATOM      2  C   UNL A   1      36.645  29.602  27.236  1.00  0.00     0.116 C 
BRANCH   2   3
ATOM      3  N   UNL A   1      35.494  30.427  27.569  1.00  0.00    -0.352 N 
ATOM      4  C   UNL A   1      34.165  30.346  27.240  1.00  0.00     0.251 C 
ATOM      5  O   UNL A   1      33.405  31.215  27.671  1.00  0.00    -0.269 OA
ATOM      6  H   UNL A   1      35.712  31.194  28.146  1.00  0.00     0.163 HD
BRANCH   4   7
ATOM      7  C   UNL A   1      33.587  29.215  26.461  1.00  0.00     0.042 A 
ATOM      8  C   UNL A   1      32.528  28.311  24.493  1.00  0.00     0.073 A 
ATOM      9  C   UNL A   1      32.773  29.376  25.348  1.00  0.00     0.042 A 
ATOM     10  C   UNL A   1      32.886  27.002  24.843  1.00  0.00     0.061 A 
ATOM     11  C   UNL A   1      33.590  26.820  26.039  1.00  0.00     0.029 A 
ATOM     12  C   UNL A   1      33.972  27.916  26.820  1.00  0.00     0.016 A 
BRANCH   8  13
ATOM     13  N   UNL A   1      31.969  28.604  23.213  1.00  0.00    -0.277 N 
ATOM     14  H   UNL A   1      32.554  28.883  22.472  1.00  0.00     0.180 HD
BRANCH  13  15
ATOM     15  S   UNL A   1      30.281  28.467  22.966  1.00  0.00     0.261 S 
ATOM     16  O   UNL A   1      29.790  27.926  24.237  1.00  0.00    -0.201 OA
ATOM     17  O   UNL A   1      30.102  27.710  21.763  1.00  0.00    -0.201 OA
BRANCH  15  18
ATOM     18  C   UNL A   1      29.461  30.038  22.732  1.00  0.00     0.088 A 
ATOM     19  C   UNL A   1      27.984  32.342  20.056  1.00  0.00     0.044 C 
ATOM     20  C   UNL A   1      28.418  31.783  21.380  1.00  0.00    -0.050 A 
ATOM     21  C   UNL A   1      28.486  32.656  22.464  1.00  0.00     0.003 A 
ATOM     22  C   UNL A   1      28.838  30.445  21.542  1.00  0.00     0.025 A 
ATOM     23  C   UNL A   1      29.024  32.219  23.664  1.00  0.00     0.002 A 
ATOM     24  C   UNL A   1      29.509  30.926  23.808  1.00  0.00     0.022 A 
ENDBRANCH  15  18
ENDBRANCH  13  15
ENDBRANCH   8  13
BRANCH  10  25
ATOM     25  N   UNL A   1      32.547  25.903  24.083  1.00  0.00    -0.369 N 
ATOM     26  C   UNL A   1      31.183  25.408  24.183  1.00  0.00     0.116 C 
ATOM     27  C   UNL A   1      33.401  25.395  23.015  1.00  0.00     0.126 C 
ATOM     28  C   UNL A   1      31.223  23.889  24.283  1.00  0.00     0.022 C 
ATOM     29  C   UNL A   1      33.486  23.862  23.093  1.00  0.00     0.064 C 
ATOM     30  C   UNL A   1      32.052  23.299  23.142  1.00  0.00     0.013 C 
BRANCH  29  31
ATOM     31  C   UNL A   1      34.420  23.476  24.269  1.00  0.00     0.267 C 
BRANCH  31  32
ATOM     32  N   UNL A   1      35.849  23.796  24.211  1.00  0.00    -0.335 N 
ATOM     33  C   UNL A   1      36.674  22.833  23.488  1.00  0.00     0.262 C 
ATOM     34  C   UNL A   1      36.497  24.074  25.488  1.00  0.00     0.262 C 
ATOM     35  H   UNL A   1      35.805  24.666  23.681  1.00  0.00     0.348 HD
ATOM     36  C   UNL A   1      37.333  21.994  24.565  1.00  0.00     0.067 C 
ATOM     37  C   UNL A   1      37.519  22.966  25.717  1.00  0.00     0.067 C 
ENDBRANCH  31  32
ENDBRANCH  29  31
ENDBRANCH  10  25
ENDBRANCH   4   7
ENDBRANCH   2   3
ENDBRANCH   1   2
BRANCH   1  38
ATOM     38  C   UNL A   1      37.534  30.901  29.243  1.00  0.00     0.023 C 
BRANCH  38  39
ATOM     39  C   UNL A   1      38.588  30.884  30.328  1.00  0.00     0.116 C 
BRANCH  39  40
ATOM     40  N   UNL A   1      38.086  30.426  31.603  1.00  0.00    -0.352 N 
ATOM     41  C   UNL A   1      37.973  29.127  32.059  1.00  0.00     0.251 C 
ATOM     42  H   UNL A   1      37.787  31.128  32.225  1.00  0.00     0.163 HD
ATOM     43  O   UNL A   1      37.144  28.884  32.931  1.00  0.00    -0.269 OA
BRANCH  41  44
ATOM     44  C   UNL A   1      38.982  28.113  31.648  1.00  0.00     0.039 A 
ATOM     45  C   UNL A   1      40.240  28.226  32.255  1.00  0.00     0.014 A 
ATOM     46  C   UNL A   1      38.845  27.373  30.478  1.00  0.00     0.014 A 
ATOM     47  C   UNL A   1      41.381  27.906  31.534  1.00  0.00     0.010 A 
ATOM     48  C   UNL A   1      39.963  27.155  29.715  1.00  0.00     0.010 A 
ATOM     49  C   UNL A   1      41.216  27.509  30.218  1.00  0.00    -0.014 A 
BRANCH  49  50
ATOM     50  C   UNL A   1      42.284  27.361  29.259  1.00  0.00     0.031 A 
ATOM     51  C   UNL A   1      42.835  26.021  29.049  1.00  0.00     0.074 A 
ATOM     52  C   UNL A   1      42.432  28.363  28.368  1.00  0.00     0.049 A 
ATOM     53  N   UNL A   1      43.794  25.758  28.239  1.00  0.00    -0.248 NA
ATOM     54  C   UNL A   1      42.354  24.858  29.787  1.00  0.00     0.031 C 
ATOM     55  C   UNL A   1      42.920  28.276  27.001  1.00  0.00     0.029 A 
ATOM     56  N   UNL A   1      42.323  29.735  28.614  1.00  0.00    -0.354 N 
ATOM     57  C   UNL A   1      43.809  24.391  28.081  1.00  0.00     0.074 A 
ATOM     58  C   UNL A   1      43.039  23.883  29.185  1.00  0.00     0.031 C 
ATOM     59  C   UNL A   1      43.331  29.492  26.612  1.00  0.00     0.029 A 
ATOM     60  C   UNL A   1      43.271  30.356  27.785  1.00  0.00     0.049 A 
ATOM     61  H   UNL A   1      41.707  30.177  29.240  1.00  0.00     0.167 HD
ATOM     62  C   UNL A   1      44.314  23.894  26.918  1.00  0.00     0.034 A 
ATOM     63  C   UNL A   1      44.294  31.132  28.243  1.00  0.00     0.034 A 
ATOM     64  C   UNL A   1      45.012  24.968  26.176  1.00  0.00     0.049 A 
ATOM     65  C   UNL A   1      45.618  30.504  27.864  1.00  0.00     0.074 A 
ATOM     66  C   UNL A   1      44.692  25.717  25.055  1.00  0.00     0.029 A 
ATOM     67  N   UNL A   1      46.080  25.635  26.788  1.00  0.00    -0.354 N 
ATOM     68  N   UNL A   1      45.725  29.272  27.444  1.00  0.00    -0.248 NA
ATOM     69  C   UNL A   1      46.899  31.199  27.852  1.00  0.00     0.031 C 
ATOM     70  C   UNL A   1      45.489  26.901  25.076  1.00  0.00     0.029 A 
ATOM     71  C   UNL A   1      46.329  26.857  26.179  1.00  0.00     0.049 A 
ATOM     72  H   UNL A   1      46.590  25.281  27.553  1.00  0.00     0.167 HD
ATOM     73  C   UNL A   1      47.013  28.986  27.110  1.00  0.00     0.074 A 
ATOM     74  C   UNL A   1      47.711  30.239  27.370  1.00  0.00     0.031 C 
ATOM     75  C   UNL A   1      47.391  27.745  26.673  1.00  0.00     0.034 A 
BRANCH  62  76
ATOM     76  C   UNL A   1      43.978  22.528  26.318  1.00  0.00     0.023 A 
ATOM     77  C   UNL A   1      42.649  22.074  26.465  1.00  0.00     0.012 A 
ATOM     78  C   UNL A   1      44.865  21.608  25.697  1.00  0.00     0.148 A 
ATOM     79  C   UNL A   1      42.232  20.799  26.054  1.00  0.00     0.002 A 
ATOM     80  C   UNL A   1      44.445  20.349  25.254  1.00  0.00     0.091 A 
ATOM     81  F   UNL A   1      46.155  21.899  25.553  1.00  0.00    -0.205 F 
ATOM     82  C   UNL A   1      43.128  19.935  25.443  1.00  0.00     0.022 A 
BRANCH  80  83
ATOM     83  S   UNL A   1      45.555  19.183  24.431  1.00  0.00     0.127 S 
ATOM     84  O   UNL A   1      46.802  19.945  24.361  1.00  0.00    -0.237 OA
ATOM     85  O   UNL A   1      45.580  18.062  25.371  1.00  0.00    -0.237 OA
ATOM     86  O   UNL A   1      44.957  18.876  23.138  1.00  0.00    -0.744 OA
ENDBRANCH  80  83
ENDBRANCH  62  76
BRANCH  63  87
ATOM     87  C   UNL A   1      43.941  31.898  29.475  1.00  0.00     0.023 A 
ATOM     88  C   UNL A   1      42.804  32.740  29.364  1.00  0.00     0.012 A 
ATOM     89  C   UNL A   1      44.313  31.434  30.747  1.00  0.00     0.148 A 
ATOM     90  C   UNL A   1      41.949  32.941  30.450  1.00  0.00     0.002 A 
ATOM     91  C   UNL A   1      43.451  31.633  31.827  1.00  0.00     0.091 A 
ATOM     92  F   UNL A   1      45.434  30.711  30.858  1.00  0.00    -0.205 F 
ATOM     93  C   UNL A   1      42.247  32.343  31.669  1.00  0.00     0.022 A 
BRANCH  91  94
ATOM     94  S   UNL A   1      43.734  30.827  33.411  1.00  0.00     0.127 S 
ATOM     95  O   UNL A   1      44.918  31.530  33.894  1.00  0.00    -0.237 OA
ATOM     96  O   UNL A   1      42.503  31.125  34.140  1.00  0.00    -0.237 OA
ATOM     97  O   UNL A   1      43.907  29.419  33.084  1.00  0.00    -0.744 OA
ENDBRANCH  91  94
ENDBRANCH  63  87
BRANCH  75  98
ATOM     98  C   UNL A   1      48.826  27.259  26.663  1.00  0.00     0.023 A 
ATOM     99  C   UNL A   1      49.573  27.173  25.472  1.00  0.00     0.012 A 
ATOM    100  C   UNL A   1      49.533  27.047  27.873  1.00  0.00     0.148 A 
ATOM    101  C   UNL A   1      50.925  26.824  25.467  1.00  0.00     0.002 A 
ATOM    102  C   UNL A   1      50.908  26.837  27.869  1.00  0.00     0.091 A 
ATOM    103  F   UNL A   1      48.879  27.034  29.043  1.00  0.00    -0.205 F 
ATOM    104  C   UNL A   1      51.601  26.683  26.668  1.00  0.00     0.022 A 
BRANCH 102 105
ATOM    105  S   UNL A   1      51.867  26.947  29.386  1.00  0.00     0.127 S 
ATOM    106  O   UNL A   1      51.532  28.288  29.857  1.00  0.00    -0.237 OA
ATOM    107  O   UNL A   1      51.304  25.859  30.187  1.00  0.00    -0.237 OA
ATOM    108  O   UNL A   1      53.249  26.734  28.982  1.00  0.00    -0.744 OA
ENDBRANCH 102 105
ENDBRANCH  75  98
ENDBRANCH  49  50
ENDBRANCH  41  44
ENDBRANCH  39  40
ENDBRANCH  38  39
ENDBRANCH   1  38
TORSDOF 20
ENDMDL
MODEL 3
REMARK VINA RESULT:     -12.2      5.613      9.921
REMARK SMILES Cc1cccc(S(=O)(=O)Nc2cc(C(=O)NCCCCNC(=O)c3ccc(-c4c5nc(c(-c6cccc(S(=O)(=O)[O-])c6F)c6ccc([nH]6)c(-c6cccc(S(=O)(=O)[O-])c6F)c6nc(c(-c7cccc(S(=O)(=O)[O-])c7F)c7ccc4[nH]7)C=C6)C=C5)cc3)ccc2N2CCC[C@H](C[NH+]3CCCC3)C2)c1
REMARK SMILES IDX 18 1 17 2 16 3 14 4 15 5 13 7 11 8 12 9 89 10 88 11 87 12
REMARK SMILES IDX 10 13 7 15 8 16 9 17 6 18 1 19 2 20 3 21 102 22 4 23 5 24
REMARK SMILES IDX 90 25 91 26 101 27 92 28 94 29 93 30 95 31 96 32 97 33
REMARK SMILES IDX 100 34 98 36 99 37 19 38 20 39 21 40 22 41 23 43 24 44 25 45
REMARK SMILES IDX 86 46 26 47 85 48 27 49 28 50 29 51 79 52 30 53 84 54 78 55
REMARK SMILES IDX 80 56 31 57 83 58 77 59 76 60 32 62 64 63 44 64 63 65 45 66
REMARK SMILES IDX 48 67 62 68 81 69 46 70 47 71 61 73 82 74 49 75 33 76 34 77
REMARK SMILES IDX 42 78 35 79 37 80 43 81 36 82 38 83 39 84 40 85 41 86 65 87
REMARK SMILES IDX 66 88 74 89 67 90 69 91 75 92 68 93 70 94 71 95 72 96 73 97
REMARK SMILES IDX 50 98 51 99 59 100 52 101 54 102 60 103 53 104 55 105 56 106
REMARK SMILES IDX 57 107 58 108
REMARK H PARENT 16 6 10 14 96 35 21 42 80 61 48 72
REMARK Flexibility Score: inf
ROOT
ATOM      1  C   UNL A   1      40.804  23.766  27.668  1.00  0.00     0.023 C 
ENDROOT
BRANCH   1   2
ATOM      2  C   UNL A   1      39.378  23.480  27.180  1.00  0.00     0.116 C 
BRANCH   2   3
ATOM      3  N   UNL A   1      39.290  22.197  26.499  1.00  0.00    -0.352 N 
ATOM      4  C   UNL A   1      38.327  21.631  25.704  1.00  0.00     0.251 C 
ATOM      5  O   UNL A   1      38.527  20.498  25.264  1.00  0.00    -0.269 OA
ATOM      6  H   UNL A   1      40.078  21.623  26.635  1.00  0.00     0.163 HD
BRANCH   4   7
ATOM      7  C   UNL A   1      37.095  22.352  25.280  1.00  0.00     0.042 A 
ATOM      8  C   UNL A   1      34.791  22.389  24.569  1.00  0.00     0.073 A 
ATOM      9  C   UNL A   1      36.015  21.743  24.654  1.00  0.00     0.042 A 
ATOM     10  C   UNL A   1      34.664  23.749  24.887  1.00  0.00     0.061 A 
ATOM     11  C   UNL A   1      35.794  24.404  25.391  1.00  0.00     0.029 A 
ATOM     12  C   UNL A   1      36.984  23.706  25.622  1.00  0.00     0.016 A 
BRANCH   8  13
ATOM     13  N   UNL A   1      33.650  21.606  24.221  1.00  0.00    -0.277 N 
ATOM     14  H   UNL A   1      33.260  21.675  23.319  1.00  0.00     0.180 HD
BRANCH  13  15
ATOM     15  S   UNL A   1      32.959  20.545  25.372  1.00  0.00     0.261 S 
ATOM     16  O   UNL A   1      31.516  20.729  25.188  1.00  0.00    -0.201 OA
ATOM     17  O   UNL A   1      33.554  20.867  26.635  1.00  0.00    -0.201 OA
BRANCH  15  18
ATOM     18  C   UNL A   1      33.297  18.819  25.050  1.00  0.00     0.088 A 
ATOM     19  C   UNL A   1      32.185  15.270  25.955  1.00  0.00     0.044 C 
ATOM     20  C   UNL A   1      32.918  16.424  25.335  1.00  0.00    -0.050 A 
ATOM     21  C   UNL A   1      34.139  16.163  24.718  1.00  0.00     0.003 A 
ATOM     22  C   UNL A   1      32.462  17.757  25.430  1.00  0.00     0.025 A 
ATOM     23  C   UNL A   1      34.919  17.216  24.267  1.00  0.00     0.002 A 
ATOM     24  C   UNL A   1      34.512  18.533  24.425  1.00  0.00     0.022 A 
ENDBRANCH  15  18
ENDBRANCH  13  15
ENDBRANCH   8  13
BRANCH  10  25
ATOM     25  N   UNL A   1      33.498  24.459  24.695  1.00  0.00    -0.369 N 
ATOM     26  C   UNL A   1      33.055  24.669  23.325  1.00  0.00     0.116 C 
ATOM     27  C   UNL A   1      32.580  24.769  25.785  1.00  0.00     0.126 C 
ATOM     28  C   UNL A   1      32.606  26.116  23.176  1.00  0.00     0.022 C 
ATOM     29  C   UNL A   1      32.118  26.232  25.684  1.00  0.00     0.064 C 
ATOM     30  C   UNL A   1      31.586  26.474  24.258  1.00  0.00     0.013 C 
BRANCH  29  31
ATOM     31  C   UNL A   1      33.275  27.151  26.156  1.00  0.00     0.267 C 
BRANCH  31  32
ATOM     32  N   UNL A   1      33.065  28.095  27.256  1.00  0.00    -0.335 N 
ATOM     33  C   UNL A   1      31.738  28.703  27.310  1.00  0.00     0.262 C 
ATOM     34  C   UNL A   1      34.052  29.160  27.387  1.00  0.00     0.262 C 
ATOM     35  H   UNL A   1      33.176  27.460  28.047  1.00  0.00     0.348 HD
ATOM     36  C   UNL A   1      31.915  30.085  26.714  1.00  0.00     0.067 C 
ATOM     37  C   UNL A   1      33.327  30.474  27.114  1.00  0.00     0.067 C 
ENDBRANCH  31  32
ENDBRANCH  29  31
ENDBRANCH  10  25
ENDBRANCH   4   7
ENDBRANCH   2   3
ENDBRANCH   1   2
BRANCH   1  38
ATOM     38  C   UNL A   1      41.863  23.511  26.605  1.00  0.00     0.023 C 
BRANCH  38  39
ATOM     39  C   UNL A   1      42.165  24.745  25.783  1.00  0.00     0.116 C 
BRANCH  39  40
ATOM     40  N   UNL A   1      43.468  24.709  25.161  1.00  0.00    -0.352 N 
ATOM     41  C   UNL A   1      44.617  25.373  25.546  1.00  0.00     0.251 C 
ATOM     42  H   UNL A   1      43.548  24.139  24.362  1.00  0.00     0.163 HD
ATOM     43  O   UNL A   1      45.476  25.595  24.698  1.00  0.00    -0.269 OA
BRANCH  41  44
ATOM     44  C   UNL A   1      44.879  25.611  26.992  1.00  0.00     0.039 A 
ATOM     45  C   UNL A   1      45.268  26.914  27.333  1.00  0.00     0.014 A 
ATOM     46  C   UNL A   1      45.122  24.565  27.876  1.00  0.00     0.014 A 
ATOM     47  C   UNL A   1      46.177  27.111  28.361  1.00  0.00     0.010 A 
ATOM     48  C   UNL A   1      46.101  24.731  28.821  1.00  0.00     0.010 A 
ATOM     49  C   UNL A   1      46.683  25.989  28.992  1.00  0.00    -0.014 A 
BRANCH  49  50
ATOM     50  C   UNL A   1      47.794  25.988  29.913  1.00  0.00     0.031 A 
ATOM     51  C   UNL A   1      49.126  25.693  29.380  1.00  0.00     0.074 A 
ATOM     52  C   UNL A   1      47.599  26.620  31.088  1.00  0.00     0.049 A 
ATOM     53  N   UNL A   1      50.191  25.646  30.092  1.00  0.00    -0.248 NA
ATOM     54  C   UNL A   1      49.348  25.385  27.970  1.00  0.00     0.031 C 
ATOM     55  C   UNL A   1      48.584  27.311  31.904  1.00  0.00     0.029 A 
ATOM     56  N   UNL A   1      46.445  26.598  31.878  1.00  0.00    -0.354 N 
ATOM     57  C   UNL A   1      51.251  25.664  29.215  1.00  0.00     0.074 A 
ATOM     58  C   UNL A   1      50.681  25.317  27.940  1.00  0.00     0.031 C 
ATOM     59  C   UNL A   1      48.115  27.409  33.157  1.00  0.00     0.029 A 
ATOM     60  C   UNL A   1      46.884  26.628  33.211  1.00  0.00     0.049 A 
ATOM     61  H   UNL A   1      45.514  26.567  31.563  1.00  0.00     0.167 HD
ATOM     62  C   UNL A   1      52.434  26.166  29.664  1.00  0.00     0.034 A 
ATOM     63  C   UNL A   1      46.608  25.660  34.129  1.00  0.00     0.034 A 
ATOM     64  C   UNL A   1      52.385  26.327  31.135  1.00  0.00     0.049 A 
ATOM     65  C   UNL A   1      47.897  25.025  34.603  1.00  0.00     0.074 A 
ATOM     66  C   UNL A   1      52.253  27.425  31.971  1.00  0.00     0.029 A 
ATOM     67  N   UNL A   1      52.131  25.206  31.934  1.00  0.00    -0.354 N 
ATOM     68  N   UNL A   1      49.037  25.188  33.987  1.00  0.00    -0.248 NA
ATOM     69  C   UNL A   1      48.039  24.231  35.817  1.00  0.00     0.031 C 
ATOM     70  C   UNL A   1      51.792  26.958  33.239  1.00  0.00     0.029 A 
ATOM     71  C   UNL A   1      51.687  25.575  33.197  1.00  0.00     0.049 A 
ATOM     72  H   UNL A   1      52.251  24.275  31.638  1.00  0.00     0.167 HD
ATOM     73  C   UNL A   1      50.043  24.565  34.661  1.00  0.00     0.074 A 
ATOM     74  C   UNL A   1      49.365  23.990  35.816  1.00  0.00     0.031 C 
ATOM     75  C   UNL A   1      51.332  24.561  34.198  1.00  0.00     0.034 A 
BRANCH  62  76
ATOM     76  C   UNL A   1      53.541  26.748  28.784  1.00  0.00     0.023 A 
ATOM     77  C   UNL A   1      54.851  26.266  29.002  1.00  0.00     0.012 A 
ATOM     78  C   UNL A   1      53.432  27.786  27.820  1.00  0.00     0.148 A 
ATOM     79  C   UNL A   1      55.972  26.788  28.338  1.00  0.00     0.002 A 
ATOM     80  C   UNL A   1      54.543  28.284  27.129  1.00  0.00     0.091 A 
ATOM     81  F   UNL A   1      52.259  28.358  27.568  1.00  0.00    -0.205 F 
ATOM     82  C   UNL A   1      55.820  27.794  27.397  1.00  0.00     0.022 A 
BRANCH  80  83
ATOM     83  S   UNL A   1      54.413  29.580  25.875  1.00  0.00     0.127 S 
ATOM     84  O   UNL A   1      55.797  29.703  25.417  1.00  0.00    -0.237 OA
ATOM     85  O   UNL A   1      53.502  28.978  24.902  1.00  0.00    -0.237 OA
ATOM     86  O   UNL A   1      53.888  30.762  26.547  1.00  0.00    -0.744 OA
ENDBRANCH  80  83
ENDBRANCH  62  76
BRANCH  63  87
ATOM     87  C   UNL A   1      45.272  25.024  33.923  1.00  0.00     0.023 A 
ATOM     88  C   UNL A   1      45.293  23.625  33.684  1.00  0.00     0.012 A 
ATOM     89  C   UNL A   1      44.108  25.598  34.458  1.00  0.00     0.148 A 
ATOM     90  C   UNL A   1      44.270  22.800  34.156  1.00  0.00     0.002 A 
ATOM     91  C   UNL A   1      43.091  24.767  34.933  1.00  0.00     0.091 A 
ATOM     92  F   UNL A   1      44.062  26.928  34.602  1.00  0.00    -0.205 F 
ATOM     93  C   UNL A   1      43.193  23.368  34.826  1.00  0.00     0.022 A 
BRANCH  91  94
ATOM     94  S   UNL A   1      41.708  25.426  35.876  1.00  0.00     0.127 S 
ATOM     95  O   UNL A   1      42.387  26.019  37.024  1.00  0.00    -0.237 OA
ATOM     96  O   UNL A   1      41.122  26.388  34.945  1.00  0.00    -0.237 OA
ATOM     97  O   UNL A   1      40.864  24.272  36.151  1.00  0.00    -0.744 OA
ENDBRANCH  91  94
ENDBRANCH  63  87
BRANCH  75  98
ATOM     98  C   UNL A   1      52.390  23.586  34.673  1.00  0.00     0.023 A 
ATOM     99  C   UNL A   1      53.094  23.782  35.877  1.00  0.00     0.012 A 
ATOM    100  C   UNL A   1      52.585  22.344  34.017  1.00  0.00     0.148 A 
ATOM    101  C   UNL A   1      53.997  22.838  36.372  1.00  0.00     0.002 A 
ATOM    102  C   UNL A   1      53.378  21.354  34.587  1.00  0.00     0.091 A 
ATOM    103  F   UNL A   1      52.013  22.112  32.828  1.00  0.00    -0.205 F 
ATOM    104  C   UNL A   1      54.119  21.611  35.741  1.00  0.00     0.022 A 
BRANCH 102 105
ATOM    105  S   UNL A   1      53.331  19.664  33.976  1.00  0.00     0.127 S 
ATOM    106  O   UNL A   1      51.940  19.293  34.224  1.00  0.00    -0.237 OA
ATOM    107  O   UNL A   1      53.676  19.836  32.564  1.00  0.00    -0.237 OA
ATOM    108  O   UNL A   1      54.335  18.948  34.751  1.00  0.00    -0.744 OA
ENDBRANCH 102 105
ENDBRANCH  75  98
ENDBRANCH  49  50
ENDBRANCH  41  44
ENDBRANCH  39  40
ENDBRANCH  38  39
ENDBRANCH   1  38
TORSDOF 20
ENDMDL
