MODEL 1
REMARK VINA RESULT:     -12.3      0.000      0.000
REMARK SMILES C=C(C)COc1ccc2c(C)c(CC(=O)NCCCCNC(=O)c3ccc(-c4c5nc(c(-c6cccc(S(=O)(=O)[O-])c6F)c6ccc([nH]6)c(-c6cccc(S(=O)(=O)[O-])c6F)c6nc(c(-c7cccc(S(=O)(=O)[O-])c7F)c7ccc4[nH]7)C=C6)C=C5)cc3)c(=O)oc2c1
REMARK SMILES IDX 18 1 17 2 16 3 14 4 15 5 13 7 12 8 6 9 7 10 91 11 8 12 90 13
REMARK SMILES IDX 9 14 89 15 10 16 87 17 11 18 88 19 5 20 4 21 2 22 1 23 3 24
REMARK SMILES IDX 19 25 20 26 21 27 22 28 23 30 24 31 25 32 86 33 26 34 85 35
REMARK SMILES IDX 27 36 28 37 29 38 79 39 30 40 84 41 78 42 80 43 31 44 83 45
REMARK SMILES IDX 77 46 76 47 32 49 64 50 44 51 63 52 45 53 48 54 62 55 81 56
REMARK SMILES IDX 46 57 47 58 61 60 82 61 49 62 33 63 34 64 42 65 35 66 37 67
REMARK SMILES IDX 43 68 36 69 38 70 39 71 40 72 41 73 65 74 66 75 74 76 67 77
REMARK SMILES IDX 69 78 75 79 68 80 70 81 71 82 72 83 73 84 50 85 51 86 59 87
REMARK SMILES IDX 52 88 54 89 60 90 53 91 55 92 56 93 57 94 58 95
REMARK H PARENT 16 6 21 29 80 48 48 59
REMARK Flexibility Score: inf
ROOT
ATOM      1  C   UNL A   1      32.010  29.312  24.259  1.00  0.00     0.023 C 
ENDROOT
BRANCH   1   2
ATOM      2  C   UNL A   1      31.373  28.516  23.117  1.00  0.00     0.116 C 
BRANCH   2   3
ATOM      3  N   UNL A   1      32.369  27.847  22.303  1.00  0.00    -0.356 N 
ATOM      4  C   UNL A   1      33.261  26.870  22.635  1.00  0.00     0.224 C 
ATOM      5  O   UNL A   1      34.025  26.457  21.760  1.00  0.00    -0.275 OA
ATOM      6  H   UNL A   1      32.408  28.145  21.366  1.00  0.00     0.163 HD
BRANCH   4   7
ATOM      7  C   UNL A   1      33.292  26.278  24.039  1.00  0.00     0.143 C 
BRANCH   7   8
ATOM      8  C   UNL A   1      33.085  24.784  24.045  1.00  0.00     0.051 A 
ATOM      9  C   UNL A   1      32.616  19.823  24.818  1.00  0.00     0.123 A 
ATOM     10  C   UNL A   1      33.988  20.059  24.851  1.00  0.00     0.047 A 
ATOM     11  C   UNL A   1      31.745  20.891  24.673  1.00  0.00     0.094 A 
ATOM     12  C   UNL A   1      34.482  21.364  24.676  1.00  0.00     0.016 A 
ATOM     13  C   UNL A   1      32.250  22.163  24.442  1.00  0.00     0.142 A 
ATOM     14  C   UNL A   1      33.612  22.443  24.448  1.00  0.00     0.021 A 
ATOM     15  O   UNL A   1      31.287  23.139  24.170  1.00  0.00    -0.422 OA
ATOM     16  C   UNL A   1      34.031  23.851  24.302  1.00  0.00    -0.029 A 
ATOM     17  C   UNL A   1      31.682  24.387  23.750  1.00  0.00     0.340 A 
ATOM     18  C   UNL A   1      35.487  24.173  24.515  1.00  0.00     0.046 C 
ATOM     19  O   UNL A   1      30.879  25.155  23.231  1.00  0.00    -0.246 OA
BRANCH   9  20
ATOM     20  O   UNL A   1      32.153  18.547  24.993  1.00  0.00    -0.489 OA
BRANCH  20  21
ATOM     21  C   UNL A   1      33.117  17.693  25.641  1.00  0.00     0.260 C 
BRANCH  21  22
ATOM     22  C   UNL A   1      33.368  16.399  24.891  1.00  0.00    -0.043 C 
ATOM     23  C   UNL A   1      32.942  15.208  25.346  1.00  0.00     0.011 C 
ATOM     24  C   UNL A   1      34.043  16.534  23.554  1.00  0.00     0.042 C 
ENDBRANCH  21  22
ENDBRANCH  20  21
ENDBRANCH   9  20
ENDBRANCH   7   8
ENDBRANCH   4   7
ENDBRANCH   2   3
ENDBRANCH   1   2
BRANCH   1  25
ATOM     25  C   UNL A   1      31.491  28.957  25.654  1.00  0.00     0.023 C 
BRANCH  25  26
ATOM     26  C   UNL A   1      32.229  29.623  26.809  1.00  0.00     0.116 C 
BRANCH  26  27
ATOM     27  N   UNL A   1      32.212  31.076  26.734  1.00  0.00    -0.352 N 
ATOM     28  C   UNL A   1      33.116  31.970  27.255  1.00  0.00     0.251 C 
ATOM     29  H   UNL A   1      31.453  31.471  26.247  1.00  0.00     0.163 HD
ATOM     30  O   UNL A   1      32.882  33.176  27.210  1.00  0.00    -0.269 OA
BRANCH  28  31
ATOM     31  C   UNL A   1      34.355  31.474  27.893  1.00  0.00     0.039 A 
ATOM     32  C   UNL A   1      35.363  32.388  28.212  1.00  0.00     0.014 A 
ATOM     33  C   UNL A   1      34.520  30.118  28.183  1.00  0.00     0.014 A 
ATOM     34  C   UNL A   1      36.517  31.945  28.863  1.00  0.00     0.010 A 
ATOM     35  C   UNL A   1      35.630  29.693  28.907  1.00  0.00     0.010 A 
ATOM     36  C   UNL A   1      36.652  30.597  29.236  1.00  0.00    -0.014 A 
BRANCH  36  37
ATOM     37  C   UNL A   1      37.864  30.110  29.942  1.00  0.00     0.031 A 
ATOM     38  C   UNL A   1      38.159  30.577  31.343  1.00  0.00     0.074 A 
ATOM     39  C   UNL A   1      38.736  29.304  29.303  1.00  0.00     0.049 A 
ATOM     40  N   UNL A   1      39.181  30.295  32.110  1.00  0.00    -0.248 NA
ATOM     41  C   UNL A   1      37.195  31.509  31.954  1.00  0.00     0.031 C 
ATOM     42  C   UNL A   1      38.607  28.844  27.919  1.00  0.00     0.029 A 
ATOM     43  N   UNL A   1      39.916  28.746  29.728  1.00  0.00    -0.354 N 
ATOM     44  C   UNL A   1      39.004  31.040  33.270  1.00  0.00     0.074 A 
ATOM     45  C   UNL A   1      37.799  31.819  33.091  1.00  0.00     0.031 C 
ATOM     46  C   UNL A   1      39.659  28.068  27.613  1.00  0.00     0.029 A 
ATOM     47  C   UNL A   1      40.552  27.996  28.767  1.00  0.00     0.049 A 
ATOM     48  H   UNL A   1      40.274  28.872  30.637  1.00  0.00     0.167 HD
ATOM     49  C   UNL A   1      39.754  31.051  34.397  1.00  0.00     0.034 A 
ATOM     50  C   UNL A   1      41.721  27.328  28.809  1.00  0.00     0.034 A 
ATOM     51  C   UNL A   1      40.926  30.241  34.590  1.00  0.00     0.049 A 
ATOM     52  C   UNL A   1      42.510  27.315  30.090  1.00  0.00     0.074 A 
ATOM     53  C   UNL A   1      41.710  30.117  35.723  1.00  0.00     0.029 A 
ATOM     54  N   UNL A   1      41.487  29.421  33.624  1.00  0.00    -0.354 N 
ATOM     55  N   UNL A   1      42.243  27.906  31.230  1.00  0.00    -0.248 NA
ATOM     56  C   UNL A   1      43.737  26.505  30.108  1.00  0.00     0.031 C 
ATOM     57  C   UNL A   1      42.761  29.241  35.433  1.00  0.00     0.029 A 
ATOM     58  C   UNL A   1      42.609  28.789  34.133  1.00  0.00     0.049 A 
ATOM     59  H   UNL A   1      41.140  29.305  32.710  1.00  0.00     0.167 HD
ATOM     60  C   UNL A   1      43.241  27.503  32.111  1.00  0.00     0.074 A 
ATOM     61  C   UNL A   1      44.107  26.605  31.377  1.00  0.00     0.031 C 
ATOM     62  C   UNL A   1      43.428  27.852  33.409  1.00  0.00     0.034 A 
BRANCH  49  63
ATOM     63  C   UNL A   1      39.299  31.934  35.532  1.00  0.00     0.023 A 
ATOM     64  C   UNL A   1      38.422  31.419  36.510  1.00  0.00     0.012 A 
ATOM     65  C   UNL A   1      39.775  33.253  35.659  1.00  0.00     0.148 A 
ATOM     66  C   UNL A   1      37.995  32.215  37.572  1.00  0.00     0.002 A 
ATOM     67  C   UNL A   1      39.384  34.024  36.748  1.00  0.00     0.091 A 
ATOM     68  F   UNL A   1      40.592  33.733  34.711  1.00  0.00    -0.205 F 
ATOM     69  C   UNL A   1      38.483  33.512  37.696  1.00  0.00     0.022 A 
BRANCH  67  70
ATOM     70  S   UNL A   1      40.023  35.676  37.047  1.00  0.00     0.127 S 
ATOM     71  O   UNL A   1      39.341  36.036  38.289  1.00  0.00    -0.237 OA
ATOM     72  O   UNL A   1      41.458  35.428  37.188  1.00  0.00    -0.237 OA
ATOM     73  O   UNL A   1      39.655  36.466  35.880  1.00  0.00    -0.744 OA
ENDBRANCH  67  70
ENDBRANCH  49  63
BRANCH  50  74
ATOM     74  C   UNL A   1      42.182  26.552  27.622  1.00  0.00     0.023 A 
ATOM     75  C   UNL A   1      42.932  27.199  26.619  1.00  0.00     0.012 A 
ATOM     76  C   UNL A   1      41.898  25.179  27.487  1.00  0.00     0.148 A 
ATOM     77  C   UNL A   1      43.353  26.505  25.485  1.00  0.00     0.002 A 
ATOM     78  C   UNL A   1      42.370  24.480  26.383  1.00  0.00     0.091 A 
ATOM     79  F   UNL A   1      41.179  24.584  28.449  1.00  0.00    -0.205 F 
ATOM     80  C   UNL A   1      43.081  25.145  25.371  1.00  0.00     0.022 A 
BRANCH  78  81
ATOM     81  S   UNL A   1      42.178  22.703  26.212  1.00  0.00     0.127 S 
ATOM     82  O   UNL A   1      42.807  22.457  24.917  1.00  0.00    -0.237 OA
ATOM     83  O   UNL A   1      42.929  22.207  27.367  1.00  0.00    -0.237 OA
ATOM     84  O   UNL A   1      40.744  22.454  26.277  1.00  0.00    -0.744 OA
ENDBRANCH  78  81
ENDBRANCH  50  74
BRANCH  62  85
ATOM     85  C   UNL A   1      44.577  27.214  34.146  1.00  0.00     0.023 A 
ATOM     86  C   UNL A   1      45.856  27.805  34.117  1.00  0.00     0.012 A 
ATOM     87  C   UNL A   1      44.367  26.057  34.923  1.00  0.00     0.148 A 
ATOM     88  C   UNL A   1      46.918  27.230  34.816  1.00  0.00     0.002 A 
ATOM     89  C   UNL A   1      45.417  25.521  35.660  1.00  0.00     0.091 A 
ATOM     90  F   UNL A   1      43.149  25.497  34.923  1.00  0.00    -0.205 F 
ATOM     91  C   UNL A   1      46.696  26.097  35.595  1.00  0.00     0.022 A 
BRANCH  89  92
ATOM     92  S   UNL A   1      45.195  24.126  36.770  1.00  0.00     0.127 S 
ATOM     93  O   UNL A   1      44.774  23.074  35.847  1.00  0.00    -0.237 OA
ATOM     94  O   UNL A   1      46.539  23.952  37.323  1.00  0.00    -0.237 OA
ATOM     95  O   UNL A   1      44.194  24.544  37.743  1.00  0.00    -0.744 OA
ENDBRANCH  89  92
ENDBRANCH  62  85
ENDBRANCH  36  37
ENDBRANCH  28  31
ENDBRANCH  26  27
ENDBRANCH  25  26
ENDBRANCH   1  25
TORSDOF 18
ENDMDL
MODEL 2
REMARK VINA RESULT:     -12.3      5.780      9.469
REMARK SMILES C=C(C)COc1ccc2c(C)c(CC(=O)NCCCCNC(=O)c3ccc(-c4c5nc(c(-c6cccc(S(=O)(=O)[O-])c6F)c6ccc([nH]6)c(-c6cccc(S(=O)(=O)[O-])c6F)c6nc(c(-c7cccc(S(=O)(=O)[O-])c7F)c7ccc4[nH]7)C=C6)C=C5)cc3)c(=O)oc2c1
REMARK SMILES IDX 18 1 17 2 16 3 14 4 15 5 13 7 12 8 6 9 7 10 91 11 8 12 90 13
REMARK SMILES IDX 9 14 89 15 10 16 87 17 11 18 88 19 5 20 4 21 2 22 1 23 3 24
REMARK SMILES IDX 19 25 20 26 21 27 22 28 23 30 24 31 25 32 86 33 26 34 85 35
REMARK SMILES IDX 27 36 28 37 29 38 79 39 30 40 84 41 78 42 80 43 31 44 83 45
REMARK SMILES IDX 77 46 76 47 32 49 64 50 44 51 63 52 45 53 48 54 62 55 81 56
REMARK SMILES IDX 46 57 47 58 61 60 82 61 49 62 33 63 34 64 42 65 35 66 37 67
REMARK SMILES IDX 43 68 36 69 38 70 39 71 40 72 41 73 65 74 66 75 74 76 67 77
REMARK SMILES IDX 69 78 75 79 68 80 70 81 71 82 72 83 73 84 50 85 51 86 59 87
REMARK SMILES IDX 52 88 54 89 60 90 53 91 55 92 56 93 57 94 58 95
REMARK H PARENT 16 6 21 29 80 48 48 59
REMARK Flexibility Score: inf
ROOT
ATOM      1  C   UNL A   1      37.270  21.117  24.677  1.00  0.00     0.023 C 
ENDROOT
BRANCH   1   2
ATOM      2  C   UNL A   1      35.815  20.848  25.068  1.00  0.00     0.116 C 
BRANCH   2   3
ATOM      3  N   UNL A   1      35.497  21.388  26.377  1.00  0.00    -0.356 N 
ATOM      4  C   UNL A   1      34.377  22.032  26.811  1.00  0.00     0.224 C 
ATOM      5  O   UNL A   1      34.340  22.412  27.984  1.00  0.00    -0.275 OA
ATOM      6  H   UNL A   1      36.200  21.273  27.056  1.00  0.00     0.163 HD
BRANCH   4   7
ATOM      7  C   UNL A   1      33.186  22.250  25.885  1.00  0.00     0.143 C 
BRANCH   7   8
ATOM      8  C   UNL A   1      32.798  23.703  25.769  1.00  0.00     0.051 A 
ATOM      9  C   UNL A   1      31.339  28.393  24.628  1.00  0.00     0.123 A 
ATOM     10  C   UNL A   1      32.546  28.223  23.955  1.00  0.00     0.047 A 
ATOM     11  C   UNL A   1      30.800  27.332  25.338  1.00  0.00     0.094 A 
ATOM     12  C   UNL A   1      33.237  27.002  24.046  1.00  0.00     0.016 A 
ATOM     13  C   UNL A   1      31.523  26.154  25.467  1.00  0.00     0.142 A 
ATOM     14  C   UNL A   1      32.740  25.946  24.827  1.00  0.00     0.021 A 
ATOM     15  O   UNL A   1      30.952  25.203  26.317  1.00  0.00    -0.422 OA
ATOM     16  C   UNL A   1      33.367  24.614  24.946  1.00  0.00    -0.029 A 
ATOM     17  C   UNL A   1      31.667  24.080  26.660  1.00  0.00     0.340 A 
ATOM     18  C   UNL A   1      34.572  24.330  24.089  1.00  0.00     0.046 C 
ATOM     19  O   UNL A   1      31.325  23.387  27.612  1.00  0.00    -0.246 OA
BRANCH   9  20
ATOM     20  O   UNL A   1      30.678  29.588  24.525  1.00  0.00    -0.489 OA
BRANCH  20  21
ATOM     21  C   UNL A   1      30.110  29.794  23.217  1.00  0.00     0.260 C 
BRANCH  21  22
ATOM     22  C   UNL A   1      28.645  30.184  23.256  1.00  0.00    -0.043 C 
ATOM     23  C   UNL A   1      28.241  31.439  23.519  1.00  0.00     0.011 C 
ATOM     24  C   UNL A   1      27.666  29.103  22.887  1.00  0.00     0.042 C 
ENDBRANCH  21  22
ENDBRANCH  20  21
ENDBRANCH   9  20
ENDBRANCH   7   8
ENDBRANCH   4   7
ENDBRANCH   2   3
ENDBRANCH   1   2
BRANCH   1  25
ATOM     25  C   UNL A   1      38.232  19.961  24.957  1.00  0.00     0.023 C 
BRANCH  25  26
ATOM     26  C   UNL A   1      39.383  20.290  25.900  1.00  0.00     0.116 C 
BRANCH  26  27
ATOM     27  N   UNL A   1      40.385  19.237  25.966  1.00  0.00    -0.352 N 
ATOM     28  C   UNL A   1      41.743  19.357  26.134  1.00  0.00     0.251 C 
ATOM     29  H   UNL A   1      40.045  18.317  25.877  1.00  0.00     0.163 HD
ATOM     30  O   UNL A   1      42.464  18.367  26.038  1.00  0.00    -0.269 OA
BRANCH  28  31
ATOM     31  C   UNL A   1      42.334  20.686  26.404  1.00  0.00     0.039 A 
ATOM     32  C   UNL A   1      42.669  21.509  25.325  1.00  0.00     0.014 A 
ATOM     33  C   UNL A   1      42.550  21.124  27.713  1.00  0.00     0.014 A 
ATOM     34  C   UNL A   1      43.179  22.787  25.562  1.00  0.00     0.010 A 
ATOM     35  C   UNL A   1      42.977  22.428  27.947  1.00  0.00     0.010 A 
ATOM     36  C   UNL A   1      43.317  23.267  26.875  1.00  0.00    -0.014 A 
BRANCH  36  37
ATOM     37  C   UNL A   1      43.843  24.629  27.148  1.00  0.00     0.031 A 
ATOM     38  C   UNL A   1      42.931  25.691  27.705  1.00  0.00     0.074 A 
ATOM     39  C   UNL A   1      45.117  24.934  26.830  1.00  0.00     0.049 A 
ATOM     40  N   UNL A   1      43.192  26.945  27.975  1.00  0.00    -0.248 NA
ATOM     41  C   UNL A   1      41.535  25.304  27.966  1.00  0.00     0.031 C 
ATOM     42  C   UNL A   1      46.079  24.019  26.211  1.00  0.00     0.029 A 
ATOM     43  N   UNL A   1      45.818  26.107  26.966  1.00  0.00    -0.354 N 
ATOM     44  C   UNL A   1      41.991  27.501  28.398  1.00  0.00     0.074 A 
ATOM     45  C   UNL A   1      40.990  26.461  28.309  1.00  0.00     0.031 C 
ATOM     46  C   UNL A   1      47.244  24.661  26.029  1.00  0.00     0.029 A 
ATOM     47  C   UNL A   1      47.107  26.039  26.492  1.00  0.00     0.049 A 
ATOM     48  H   UNL A   1      45.432  26.921  27.365  1.00  0.00     0.167 HD
ATOM     49  C   UNL A   1      41.746  28.753  28.852  1.00  0.00     0.034 A 
ATOM     50  C   UNL A   1      48.069  26.981  26.436  1.00  0.00     0.034 A 
ATOM     51  C   UNL A   1      42.752  29.771  28.982  1.00  0.00     0.049 A 
ATOM     52  C   UNL A   1      47.786  28.350  26.994  1.00  0.00     0.074 A 
ATOM     53  C   UNL A   1      42.624  31.045  29.507  1.00  0.00     0.029 A 
ATOM     54  N   UNL A   1      44.071  29.635  28.578  1.00  0.00    -0.354 N 
ATOM     55  N   UNL A   1      46.682  28.810  27.532  1.00  0.00    -0.248 NA
ATOM     56  C   UNL A   1      48.895  29.315  26.981  1.00  0.00     0.031 C 
ATOM     57  C   UNL A   1      43.862  31.688  29.397  1.00  0.00     0.029 A 
ATOM     58  C   UNL A   1      44.768  30.802  28.840  1.00  0.00     0.049 A 
ATOM     59  H   UNL A   1      44.455  28.828  28.166  1.00  0.00     0.167 HD
ATOM     60  C   UNL A   1      46.977  30.100  27.962  1.00  0.00     0.074 A 
ATOM     61  C   UNL A   1      48.368  30.339  27.637  1.00  0.00     0.031 C 
ATOM     62  C   UNL A   1      46.167  31.006  28.565  1.00  0.00     0.034 A 
BRANCH  49  63
ATOM     63  C   UNL A   1      40.339  29.075  29.290  1.00  0.00     0.023 A 
ATOM     64  C   UNL A   1      39.398  29.525  28.340  1.00  0.00     0.012 A 
ATOM     65  C   UNL A   1      39.934  28.886  30.626  1.00  0.00     0.148 A 
ATOM     66  C   UNL A   1      38.089  29.821  28.721  1.00  0.00     0.002 A 
ATOM     67  C   UNL A   1      38.615  29.134  30.987  1.00  0.00     0.091 A 
ATOM     68  F   UNL A   1      40.847  28.475  31.518  1.00  0.00    -0.205 F 
ATOM     69  C   UNL A   1      37.696  29.616  30.040  1.00  0.00     0.022 A 
BRANCH  67  70
ATOM     70  S   UNL A   1      37.987  28.820  32.640  1.00  0.00     0.127 S 
ATOM     71  O   UNL A   1      38.893  29.627  33.458  1.00  0.00    -0.237 OA
ATOM     72  O   UNL A   1      36.621  29.337  32.552  1.00  0.00    -0.237 OA
ATOM     73  O   UNL A   1      38.081  27.381  32.840  1.00  0.00    -0.744 OA
ENDBRANCH  67  70
ENDBRANCH  49  63
BRANCH  50  74
ATOM     74  C   UNL A   1      49.416  26.642  25.896  1.00  0.00     0.023 A 
ATOM     75  C   UNL A   1      50.300  25.866  26.673  1.00  0.00     0.012 A 
ATOM     76  C   UNL A   1      49.823  27.068  24.617  1.00  0.00     0.148 A 
ATOM     77  C   UNL A   1      51.577  25.556  26.204  1.00  0.00     0.002 A 
ATOM     78  C   UNL A   1      51.074  26.707  24.131  1.00  0.00     0.091 A 
ATOM     79  F   UNL A   1      48.970  27.810  23.896  1.00  0.00    -0.205 F 
ATOM     80  C   UNL A   1      51.960  25.968  24.931  1.00  0.00     0.022 A 
BRANCH  78  81
ATOM     81  S   UNL A   1      51.605  27.084  22.458  1.00  0.00     0.127 S 
ATOM     82  O   UNL A   1      50.449  26.659  21.674  1.00  0.00    -0.237 OA
ATOM     83  O   UNL A   1      51.806  28.533  22.526  1.00  0.00    -0.237 OA
ATOM     84  O   UNL A   1      52.827  26.318  22.252  1.00  0.00    -0.744 OA
ENDBRANCH  78  81
ENDBRANCH  50  74
BRANCH  62  85
ATOM     85  C   UNL A   1      46.774  32.323  28.975  1.00  0.00     0.023 A 
ATOM     86  C   UNL A   1      47.391  32.459  30.235  1.00  0.00     0.012 A 
ATOM     87  C   UNL A   1      46.787  33.409  28.077  1.00  0.00     0.148 A 
ATOM     88  C   UNL A   1      47.973  33.670  30.610  1.00  0.00     0.002 A 
ATOM     89  C   UNL A   1      47.417  34.594  28.438  1.00  0.00     0.091 A 
ATOM     90  F   UNL A   1      46.179  33.267  26.891  1.00  0.00    -0.205 F 
ATOM     91  C   UNL A   1      47.996  34.732  29.709  1.00  0.00     0.022 A 
BRANCH  89  92
ATOM     92  S   UNL A   1      47.584  35.975  27.301  1.00  0.00     0.127 S 
ATOM     93  O   UNL A   1      48.259  36.968  28.135  1.00  0.00    -0.237 OA
ATOM     94  O   UNL A   1      48.413  35.405  26.238  1.00  0.00    -0.237 OA
ATOM     95  O   UNL A   1      46.229  36.320  26.889  1.00  0.00    -0.744 OA
ENDBRANCH  89  92
ENDBRANCH  62  85
ENDBRANCH  36  37
ENDBRANCH  28  31
ENDBRANCH  26  27
ENDBRANCH  25  26
ENDBRANCH   1  25
TORSDOF 18
ENDMDL
MODEL 3
REMARK VINA RESULT:     -12.2      5.476      9.247
REMARK SMILES C=C(C)COc1ccc2c(C)c(CC(=O)NCCCCNC(=O)c3ccc(-c4c5nc(c(-c6cccc(S(=O)(=O)[O-])c6F)c6ccc([nH]6)c(-c6cccc(S(=O)(=O)[O-])c6F)c6nc(c(-c7cccc(S(=O)(=O)[O-])c7F)c7ccc4[nH]7)C=C6)C=C5)cc3)c(=O)oc2c1
REMARK SMILES IDX 18 1 17 2 16 3 14 4 15 5 13 7 12 8 6 9 7 10 91 11 8 12 90 13
REMARK SMILES IDX 9 14 89 15 10 16 87 17 11 18 88 19 5 20 4 21 2 22 1 23 3 24
REMARK SMILES IDX 19 25 20 26 21 27 22 28 23 30 24 31 25 32 86 33 26 34 85 35
REMARK SMILES IDX 27 36 28 37 29 38 79 39 30 40 84 41 78 42 80 43 31 44 83 45
REMARK SMILES IDX 77 46 76 47 32 49 64 50 44 51 63 52 45 53 48 54 62 55 81 56
REMARK SMILES IDX 46 57 47 58 61 60 82 61 49 62 33 63 34 64 42 65 35 66 37 67
REMARK SMILES IDX 43 68 36 69 38 70 39 71 40 72 41 73 65 74 66 75 74 76 67 77
REMARK SMILES IDX 69 78 75 79 68 80 70 81 71 82 72 83 73 84 50 85 51 86 59 87
REMARK SMILES IDX 52 88 54 89 60 90 53 91 55 92 56 93 57 94 58 95
REMARK H PARENT 16 6 21 29 80 48 48 59
REMARK Flexibility Score: inf
ROOT
ATOM      1  C   UNL A   1      36.645  20.515  24.499  1.00  0.00     0.023 C 
ENDROOT
BRANCH   1   2
ATOM      2  C   UNL A   1      35.616  20.951  25.544  1.00  0.00     0.116 C 
BRANCH   2   3
ATOM      3  N   UNL A   1      34.257  20.826  25.050  1.00  0.00    -0.356 N 
ATOM      4  C   UNL A   1      33.099  21.366  25.524  1.00  0.00     0.224 C 
ATOM      5  O   UNL A   1      32.049  21.108  24.931  1.00  0.00    -0.275 OA
ATOM      6  H   UNL A   1      34.156  20.264  24.249  1.00  0.00     0.163 HD
BRANCH   4   7
ATOM      7  C   UNL A   1      33.101  22.293  26.735  1.00  0.00     0.143 C 
BRANCH   7   8
ATOM      8  C   UNL A   1      32.736  23.713  26.380  1.00  0.00     0.051 A 
ATOM      9  C   UNL A   1      31.738  28.268  24.461  1.00  0.00     0.123 A 
ATOM     10  C   UNL A   1      33.126  28.173  24.447  1.00  0.00     0.047 A 
ATOM     11  C   UNL A   1      30.986  27.183  24.882  1.00  0.00     0.094 A 
ATOM     12  C   UNL A   1      33.758  27.006  24.912  1.00  0.00     0.016 A 
ATOM     13  C   UNL A   1      31.625  26.062  25.394  1.00  0.00     0.142 A 
ATOM     14  C   UNL A   1      33.009  25.930  25.416  1.00  0.00     0.021 A 
ATOM     15  O   UNL A   1      30.772  25.087  25.919  1.00  0.00    -0.422 OA
ATOM     16  C   UNL A   1      33.576  24.648  25.881  1.00  0.00    -0.029 A 
ATOM     17  C   UNL A   1      31.299  24.023  26.612  1.00  0.00     0.340 A 
ATOM     18  C   UNL A   1      35.057  24.436  25.709  1.00  0.00     0.046 C 
ATOM     19  O   UNL A   1      30.585  23.323  27.322  1.00  0.00    -0.246 OA
BRANCH   9  20
ATOM     20  O   UNL A   1      31.140  29.411  24.001  1.00  0.00    -0.489 OA
BRANCH  20  21
ATOM     21  C   UNL A   1      30.202  29.153  22.938  1.00  0.00     0.260 C 
BRANCH  21  22
ATOM     22  C   UNL A   1      29.073  30.165  22.879  1.00  0.00    -0.043 C 
ATOM     23  C   UNL A   1      28.022  30.024  22.053  1.00  0.00     0.011 C 
ATOM     24  C   UNL A   1      29.149  31.294  23.869  1.00  0.00     0.042 C 
ENDBRANCH  21  22
ENDBRANCH  20  21
ENDBRANCH   9  20
ENDBRANCH   7   8
ENDBRANCH   4   7
ENDBRANCH   2   3
ENDBRANCH   1   2
BRANCH   1  25
ATOM     25  C   UNL A   1      37.684  19.512  25.004  1.00  0.00     0.023 C 
BRANCH  25  26
ATOM     26  C   UNL A   1      38.808  20.109  25.842  1.00  0.00     0.116 C 
BRANCH  26  27
ATOM     27  N   UNL A   1      39.933  19.204  26.015  1.00  0.00    -0.352 N 
ATOM     28  C   UNL A   1      41.247  19.511  26.275  1.00  0.00     0.251 C 
ATOM     29  H   UNL A   1      39.727  18.244  25.936  1.00  0.00     0.163 HD
ATOM     30  O   UNL A   1      42.098  18.625  26.265  1.00  0.00    -0.269 OA
BRANCH  28  31
ATOM     31  C   UNL A   1      41.635  20.914  26.538  1.00  0.00     0.039 A 
ATOM     32  C   UNL A   1      42.239  21.231  27.758  1.00  0.00     0.014 A 
ATOM     33  C   UNL A   1      41.412  21.911  25.586  1.00  0.00     0.014 A 
ATOM     34  C   UNL A   1      42.660  22.541  28.001  1.00  0.00     0.010 A 
ATOM     35  C   UNL A   1      41.908  23.195  25.796  1.00  0.00     0.010 A 
ATOM     36  C   UNL A   1      42.518  23.530  27.014  1.00  0.00    -0.014 A 
BRANCH  36  37
ATOM     37  C   UNL A   1      42.972  24.924  27.249  1.00  0.00     0.031 A 
ATOM     38  C   UNL A   1      42.057  25.912  27.924  1.00  0.00     0.074 A 
ATOM     39  C   UNL A   1      44.177  25.325  26.794  1.00  0.00     0.049 A 
ATOM     40  N   UNL A   1      42.256  27.178  28.185  1.00  0.00    -0.248 NA
ATOM     41  C   UNL A   1      40.730  25.420  28.334  1.00  0.00     0.031 C 
ATOM     42  C   UNL A   1      45.124  24.488  26.054  1.00  0.00     0.029 A 
ATOM     43  N   UNL A   1      44.802  26.544  26.870  1.00  0.00    -0.354 N 
ATOM     44  C   UNL A   1      41.074  27.641  28.750  1.00  0.00     0.074 A 
ATOM     45  C   UNL A   1      40.147  26.532  28.757  1.00  0.00     0.031 C 
ATOM     46  C   UNL A   1      46.212  25.215  25.753  1.00  0.00     0.029 A 
ATOM     47  C   UNL A   1      46.030  26.576  26.252  1.00  0.00     0.049 A 
ATOM     48  H   UNL A   1      44.407  27.324  27.324  1.00  0.00     0.167 HD
ATOM     49  C   UNL A   1      40.793  28.868  29.251  1.00  0.00     0.034 A 
ATOM     50  C   UNL A   1      46.910  27.585  26.104  1.00  0.00     0.034 A 
ATOM     51  C   UNL A   1      41.732  29.956  29.284  1.00  0.00     0.049 A 
ATOM     52  C   UNL A   1      46.595  28.925  26.714  1.00  0.00     0.074 A 
ATOM     53  C   UNL A   1      41.574  31.212  29.842  1.00  0.00     0.029 A 
ATOM     54  N   UNL A   1      43.003  29.920  28.731  1.00  0.00    -0.354 N 
ATOM     55  N   UNL A   1      45.530  29.299  27.381  1.00  0.00    -0.248 NA
ATOM     56  C   UNL A   1      47.623  29.969  26.592  1.00  0.00     0.031 C 
ATOM     57  C   UNL A   1      42.742  31.945  29.604  1.00  0.00     0.029 A 
ATOM     58  C   UNL A   1      43.640  31.132  28.932  1.00  0.00     0.049 A 
ATOM     59  H   UNL A   1      43.394  29.147  28.264  1.00  0.00     0.167 HD
ATOM     60  C   UNL A   1      45.778  30.602  27.798  1.00  0.00     0.074 A 
ATOM     61  C   UNL A   1      47.102  30.946  27.322  1.00  0.00     0.031 C 
ATOM     62  C   UNL A   1      44.980  31.441  28.504  1.00  0.00     0.034 A 
BRANCH  49  63
ATOM     63  C   UNL A   1      39.426  29.082  29.851  1.00  0.00     0.023 A 
ATOM     64  C   UNL A   1      39.184  28.707  31.189  1.00  0.00     0.012 A 
ATOM     65  C   UNL A   1      38.399  29.699  29.110  1.00  0.00     0.148 A 
ATOM     66  C   UNL A   1      37.929  28.904  31.766  1.00  0.00     0.002 A 
ATOM     67  C   UNL A   1      37.167  29.938  29.709  1.00  0.00     0.091 A 
ATOM     68  F   UNL A   1      38.641  30.032  27.835  1.00  0.00    -0.205 F 
ATOM     69  C   UNL A   1      36.926  29.527  31.031  1.00  0.00     0.022 A 
BRANCH  67  70
ATOM     70  S   UNL A   1      35.837  30.811  28.877  1.00  0.00     0.127 S 
ATOM     71  O   UNL A   1      36.580  31.742  28.028  1.00  0.00    -0.237 OA
ATOM     72  O   UNL A   1      35.166  29.729  28.154  1.00  0.00    -0.237 OA
ATOM     73  O   UNL A   1      35.039  31.426  29.928  1.00  0.00    -0.744 OA
ENDBRANCH  67  70
ENDBRANCH  49  63
BRANCH  50  74
ATOM     74  C   UNL A   1      48.207  27.351  25.409  1.00  0.00     0.023 A 
ATOM     75  C   UNL A   1      49.321  26.908  26.150  1.00  0.00     0.012 A 
ATOM     76  C   UNL A   1      48.343  27.547  24.021  1.00  0.00     0.148 A 
ATOM     77  C   UNL A   1      50.555  26.707  25.530  1.00  0.00     0.002 A 
ATOM     78  C   UNL A   1      49.558  27.289  23.399  1.00  0.00     0.091 A 
ATOM     79  F   UNL A   1      47.273  27.974  23.335  1.00  0.00    -0.205 F 
ATOM     80  C   UNL A   1      50.671  26.888  24.156  1.00  0.00     0.022 A 
BRANCH  78  81
ATOM     81  S   UNL A   1      49.769  27.372  21.618  1.00  0.00     0.127 S 
ATOM     82  O   UNL A   1      51.162  26.963  21.462  1.00  0.00    -0.237 OA
ATOM     83  O   UNL A   1      48.783  26.394  21.153  1.00  0.00    -0.237 OA
ATOM     84  O   UNL A   1      49.468  28.749  21.250  1.00  0.00    -0.744 OA
ENDBRANCH  78  81
ENDBRANCH  50  74
BRANCH  62  85
ATOM     85  C   UNL A   1      45.534  32.795  28.866  1.00  0.00     0.023 A 
ATOM     86  C   UNL A   1      46.281  32.964  30.048  1.00  0.00     0.012 A 
ATOM     87  C   UNL A   1      45.364  33.888  27.992  1.00  0.00     0.148 A 
ATOM     88  C   UNL A   1      46.815  34.211  30.376  1.00  0.00     0.002 A 
ATOM     89  C   UNL A   1      45.944  35.113  28.299  1.00  0.00     0.091 A 
ATOM     90  F   UNL A   1      44.634  33.713  26.882  1.00  0.00    -0.205 F 
ATOM     91  C   UNL A   1      46.656  35.280  29.498  1.00  0.00     0.022 A 
BRANCH  89  92
ATOM     92  S   UNL A   1      45.878  36.513  27.177  1.00  0.00     0.127 S 
ATOM     93  O   UNL A   1      46.531  37.558  27.964  1.00  0.00    -0.237 OA
ATOM     94  O   UNL A   1      46.655  36.033  26.034  1.00  0.00    -0.237 OA
ATOM     95  O   UNL A   1      44.465  36.733  26.895  1.00  0.00    -0.744 OA
ENDBRANCH  89  92
ENDBRANCH  62  85
ENDBRANCH  36  37
ENDBRANCH  28  31
ENDBRANCH  26  27
ENDBRANCH  25  26
ENDBRANCH   1  25
TORSDOF 18
ENDMDL
