MODEL 1
REMARK VINA RESULT:     -13.6      0.000      0.000
REMARK SMILES COc1ccc2c(c1OC)C(=O)O[C@@H]2Nc1nonc1C(=O)NCCCCNC(=O)c1ccc(-c2c3nc(c(-c4cccc(S(=O)(=O)[O-])c4F)c4ccc([nH]4)c(-c4cccc(S(=O)(=O)[O-])c4F)c4nc(c(-c5cccc(S(=O)(=O)[O-])c5F)c5ccc2[nH]5)C=C4)C=C3)cc1
REMARK SMILES IDX 25 1 24 2 23 3 21 4 22 5 20 7 16 8 17 9 18 10 19 11 15 12
REMARK SMILES IDX 14 14 3 15 4 16 8 17 5 18 7 19 6 20 11 21 12 22 13 23 2 24
REMARK SMILES IDX 1 25 9 26 10 27 26 28 27 29 28 30 29 31 30 33 31 34 32 35
REMARK SMILES IDX 93 36 33 37 92 38 34 39 35 40 36 41 86 42 37 43 91 44 85 45
REMARK SMILES IDX 87 46 38 47 90 48 84 49 83 50 39 52 71 53 51 54 70 55 52 56
REMARK SMILES IDX 55 57 69 58 88 59 53 60 54 61 68 63 89 64 56 65 40 66 41 67
REMARK SMILES IDX 49 68 42 69 44 70 50 71 43 72 45 73 46 74 47 75 48 76 72 77
REMARK SMILES IDX 73 78 81 79 74 80 76 81 82 82 75 83 77 84 78 85 79 86 80 87
REMARK SMILES IDX 57 88 58 89 66 90 59 91 61 92 67 93 60 94 62 95 63 96 64 97
REMARK SMILES IDX 65 98
REMARK H PARENT 23 6 15 13 28 32 87 51 55 62
REMARK Flexibility Score: inf
ROOT
ATOM      1  C   UNL A   1      35.494  29.336  27.425  1.00  0.00     0.023 C 
ENDROOT
BRANCH   1   2
ATOM      2  C   UNL A   1      34.865  28.368  26.418  1.00  0.00     0.116 C 
BRANCH   2   3
ATOM      3  N   UNL A   1      34.163  28.972  25.302  1.00  0.00    -0.350 N 
ATOM      4  C   UNL A   1      32.897  28.689  24.838  1.00  0.00     0.277 C 
ATOM      5  O   UNL A   1      32.544  29.181  23.767  1.00  0.00    -0.267 OA
ATOM      6  H   UNL A   1      34.653  29.672  24.814  1.00  0.00     0.163 HD
BRANCH   4   7
ATOM      7  C   UNL A   1      32.066  27.772  25.590  1.00  0.00     0.216 A 
ATOM      8  C   UNL A   1      31.088  26.821  25.192  1.00  0.00     0.207 A 
ATOM      9  N   UNL A   1      30.450  26.397  26.286  1.00  0.00    -0.031 NA
ATOM     10  O   UNL A   1      31.067  27.010  27.357  1.00  0.00    -0.242 OA
ATOM     11  N   UNL A   1      32.081  27.842  26.931  1.00  0.00    -0.042 NA
BRANCH   8  12
ATOM     12  N   UNL A   1      30.646  26.441  23.967  1.00  0.00    -0.326 N 
ATOM     13  H   UNL A   1      30.285  27.172  23.415  1.00  0.00     0.166 HD
BRANCH  12  14
ATOM     14  C   UNL A   1      30.621  25.147  23.344  1.00  0.00     0.307 C 
ATOM     15  C   UNL A   1      33.987  21.639  24.722  1.00  0.00     0.161 A 
ATOM     16  C   UNL A   1      32.411  21.590  25.615  1.00  0.00     0.051 A 
ATOM     17  C   UNL A   1      34.302  22.958  23.520  1.00  0.00     0.175 A 
ATOM     18  C   UNL A   1      31.114  22.784  25.199  1.00  0.00     0.014 A 
ATOM     19  C   UNL A   1      32.987  24.135  23.135  1.00  0.00     0.114 A 
ATOM     20  C   UNL A   1      31.448  24.099  24.006  1.00  0.00     0.032 A 
ATOM     21  C   UNL A   1      32.739  25.115  22.095  1.00  0.00     0.344 C 
ATOM     22  O   UNL A   1      33.535  25.559  21.297  1.00  0.00    -0.246 OA
ATOM     23  O   UNL A   1      31.385  25.377  22.102  1.00  0.00    -0.434 OA
BRANCH  15  24
ATOM     24  O   UNL A   1      34.853  20.656  25.107  1.00  0.00    -0.493 OA
ATOM     25  C   UNL A   1      34.537  19.347  24.665  1.00  0.00     0.278 C 
ENDBRANCH  15  24
BRANCH  17  26
ATOM     26  O   UNL A   1      35.538  22.958  22.936  1.00  0.00    -0.492 OA
ATOM     27  C   UNL A   1      36.629  23.344  23.758  1.00  0.00     0.278 C 
ENDBRANCH  17  26
ENDBRANCH  12  14
ENDBRANCH   8  12
ENDBRANCH   4   7
ENDBRANCH   2   3
ENDBRANCH   1   2
BRANCH   1  28
ATOM     28  C   UNL A   1      34.868  30.878  27.936  1.00  0.00     0.023 C 
BRANCH  28  29
ATOM     29  C   UNL A   1      33.107  32.118  27.533  1.00  0.00     0.116 C 
BRANCH  29  30
ATOM     30  N   UNL A   1      32.812  33.678  27.770  1.00  0.00    -0.352 N 
ATOM     31  C   UNL A   1      33.285  34.605  28.674  1.00  0.00     0.251 C 
ATOM     32  H   UNL A   1      32.156  34.052  27.137  1.00  0.00     0.163 HD
ATOM     33  O   UNL A   1      32.707  35.685  28.783  1.00  0.00    -0.269 OA
BRANCH  31  34
ATOM     34  C   UNL A   1      34.478  34.347  29.495  1.00  0.00     0.039 A 
ATOM     35  C   UNL A   1      35.751  34.530  28.938  1.00  0.00     0.014 A 
ATOM     36  C   UNL A   1      34.333  33.800  30.770  1.00  0.00     0.014 A 
ATOM     37  C   UNL A   1      36.885  34.178  29.667  1.00  0.00     0.010 A 
ATOM     38  C   UNL A   1      35.461  33.481  31.514  1.00  0.00     0.010 A 
ATOM     39  C   UNL A   1      36.736  33.625  30.945  1.00  0.00    -0.014 A 
BRANCH  39  40
ATOM     40  C   UNL A   1      37.878  32.983  31.624  1.00  0.00     0.031 A 
ATOM     41  C   UNL A   1      38.529  31.813  30.938  1.00  0.00     0.074 A 
ATOM     42  C   UNL A   1      38.267  33.399  32.840  1.00  0.00     0.049 A 
ATOM     43  N   UNL A   1      39.471  31.020  31.369  1.00  0.00    -0.248 NA
ATOM     44  C   UNL A   1      38.029  31.475  29.592  1.00  0.00     0.031 C 
ATOM     45  C   UNL A   1      37.670  34.511  33.581  1.00  0.00     0.029 A 
ATOM     46  N   UNL A   1      39.232  32.911  33.680  1.00  0.00    -0.354 N 
ATOM     47  C   UNL A   1      39.647  30.070  30.370  1.00  0.00     0.074 A 
ATOM     48  C   UNL A   1      38.700  30.368  29.320  1.00  0.00     0.031 C 
ATOM     49  C   UNL A   1      38.266  34.604  34.782  1.00  0.00     0.029 A 
ATOM     50  C   UNL A   1      39.261  33.541  34.902  1.00  0.00     0.049 A 
ATOM     51  H   UNL A   1      39.844  32.181  33.434  1.00  0.00     0.167 HD
ATOM     52  C   UNL A   1      40.530  29.046  30.330  1.00  0.00     0.034 A 
ATOM     53  C   UNL A   1      39.992  33.261  35.998  1.00  0.00     0.034 A 
ATOM     54  C   UNL A   1      41.470  28.784  31.384  1.00  0.00     0.049 A 
ATOM     55  C   UNL A   1      40.977  32.123  35.924  1.00  0.00     0.074 A 
ATOM     56  C   UNL A   1      42.455  27.819  31.439  1.00  0.00     0.029 A 
ATOM     57  N   UNL A   1      41.523  29.488  32.579  1.00  0.00    -0.354 N 
ATOM     58  N   UNL A   1      41.217  31.303  34.928  1.00  0.00    -0.248 NA
ATOM     59  C   UNL A   1      41.815  31.890  37.108  1.00  0.00     0.031 C 
ATOM     60  C   UNL A   1      43.075  27.908  32.690  1.00  0.00     0.029 A 
ATOM     61  C   UNL A   1      42.513  28.968  33.389  1.00  0.00     0.049 A 
ATOM     62  H   UNL A   1      40.941  30.247  32.815  1.00  0.00     0.167 HD
ATOM     63  C   UNL A   1      42.257  30.484  35.347  1.00  0.00     0.074 A 
ATOM     64  C   UNL A   1      42.613  30.920  36.683  1.00  0.00     0.031 C 
ATOM     65  C   UNL A   1      42.864  29.459  34.697  1.00  0.00     0.034 A 
BRANCH  52  66
ATOM     66  C   UNL A   1      40.520  28.150  29.119  1.00  0.00     0.023 A 
ATOM     67  C   UNL A   1      39.549  27.133  28.998  1.00  0.00     0.012 A 
ATOM     68  C   UNL A   1      41.453  28.339  28.082  1.00  0.00     0.148 A 
ATOM     69  C   UNL A   1      39.532  26.296  27.882  1.00  0.00     0.002 A 
ATOM     70  C   UNL A   1      41.397  27.534  26.949  1.00  0.00     0.091 A 
ATOM     71  F   UNL A   1      42.383  29.293  28.225  1.00  0.00    -0.205 F 
ATOM     72  C   UNL A   1      40.447  26.504  26.854  1.00  0.00     0.022 A 
BRANCH  70  73
ATOM     73  S   UNL A   1      42.483  27.769  25.538  1.00  0.00     0.127 S 
ATOM     74  O   UNL A   1      43.794  27.833  26.181  1.00  0.00    -0.237 OA
ATOM     75  O   UNL A   1      42.242  26.550  24.766  1.00  0.00    -0.237 OA
ATOM     76  O   UNL A   1      42.048  28.999  24.892  1.00  0.00    -0.744 OA
ENDBRANCH  70  73
ENDBRANCH  52  66
BRANCH  53  77
ATOM     77  C   UNL A   1      39.842  34.082  37.233  1.00  0.00     0.023 A 
ATOM     78  C   UNL A   1      40.367  35.389  37.274  1.00  0.00     0.012 A 
ATOM     79  C   UNL A   1      39.161  33.582  38.360  1.00  0.00     0.148 A 
ATOM     80  C   UNL A   1      40.249  36.167  38.428  1.00  0.00     0.002 A 
ATOM     81  C   UNL A   1      38.996  34.384  39.483  1.00  0.00     0.091 A 
ATOM     82  F   UNL A   1      38.676  32.334  38.305  1.00  0.00    -0.205 F 
ATOM     83  C   UNL A   1      39.556  35.669  39.527  1.00  0.00     0.022 A 
BRANCH  81  84
ATOM     84  S   UNL A   1      38.008  33.873  40.895  1.00  0.00     0.127 S 
ATOM     85  O   UNL A   1      37.861  35.128  41.626  1.00  0.00    -0.237 OA
ATOM     86  O   UNL A   1      36.788  33.389  40.248  1.00  0.00    -0.237 OA
ATOM     87  O   UNL A   1      38.783  32.837  41.565  1.00  0.00    -0.744 OA
ENDBRANCH  81  84
ENDBRANCH  53  77
BRANCH  65  88
ATOM     88  C   UNL A   1      44.007  28.775  35.397  1.00  0.00     0.023 A 
ATOM     89  C   UNL A   1      45.324  29.246  35.232  1.00  0.00     0.012 A 
ATOM     90  C   UNL A   1      43.753  27.713  36.287  1.00  0.00     0.148 A 
ATOM     91  C   UNL A   1      46.377  28.644  35.918  1.00  0.00     0.002 A 
ATOM     92  C   UNL A   1      44.799  27.159  37.010  1.00  0.00     0.091 A 
ATOM     93  F   UNL A   1      42.492  27.274  36.415  1.00  0.00    -0.205 F 
ATOM     94  C   UNL A   1      46.114  27.612  36.814  1.00  0.00     0.022 A 
BRANCH  92  95
ATOM     95  S   UNL A   1      44.539  25.903  38.266  1.00  0.00     0.127 S 
ATOM     96  O   UNL A   1      43.773  26.641  39.270  1.00  0.00    -0.237 OA
ATOM     97  O   UNL A   1      43.775  24.892  37.535  1.00  0.00    -0.237 OA
ATOM     98  O   UNL A   1      45.865  25.472  38.688  1.00  0.00    -0.744 OA
ENDBRANCH  92  95
ENDBRANCH  65  88
ENDBRANCH  39  40
ENDBRANCH  31  34
ENDBRANCH  29  30
ENDBRANCH  28  29
ENDBRANCH   1  28
TORSDOF 18
ENDMDL
MODEL 2
REMARK VINA RESULT:     -13.5      1.022      7.739
REMARK SMILES COc1ccc2c(c1OC)C(=O)O[C@@H]2Nc1nonc1C(=O)NCCCCNC(=O)c1ccc(-c2c3nc(c(-c4cccc(S(=O)(=O)[O-])c4F)c4ccc([nH]4)c(-c4cccc(S(=O)(=O)[O-])c4F)c4nc(c(-c5cccc(S(=O)(=O)[O-])c5F)c5ccc2[nH]5)C=C4)C=C3)cc1
REMARK SMILES IDX 25 1 24 2 23 3 21 4 22 5 20 7 16 8 17 9 18 10 19 11 15 12
REMARK SMILES IDX 14 14 3 15 4 16 8 17 5 18 7 19 6 20 11 21 12 22 13 23 2 24
REMARK SMILES IDX 1 25 9 26 10 27 26 28 27 29 28 30 29 31 30 33 31 34 32 35
REMARK SMILES IDX 93 36 33 37 92 38 34 39 35 40 36 41 86 42 37 43 91 44 85 45
REMARK SMILES IDX 87 46 38 47 90 48 84 49 83 50 39 52 71 53 51 54 70 55 52 56
REMARK SMILES IDX 55 57 69 58 88 59 53 60 54 61 68 63 89 64 56 65 40 66 41 67
REMARK SMILES IDX 49 68 42 69 44 70 50 71 43 72 45 73 46 74 47 75 48 76 72 77
REMARK SMILES IDX 73 78 81 79 74 80 76 81 82 82 75 83 77 84 78 85 79 86 80 87
REMARK SMILES IDX 57 88 58 89 66 90 59 91 61 92 67 93 60 94 62 95 63 96 64 97
REMARK SMILES IDX 65 98
REMARK H PARENT 23 6 15 13 28 32 87 51 55 62
REMARK Flexibility Score: inf
ROOT
ATOM      1  C   UNL A   1      34.828  29.103  27.138  1.00  0.00     0.023 C 
ENDROOT
BRANCH   1   2
ATOM      2  C   UNL A   1      33.876  28.078  26.515  1.00  0.00     0.116 C 
BRANCH   2   3
ATOM      3  N   UNL A   1      32.756  28.615  25.767  1.00  0.00    -0.350 N 
ATOM      4  C   UNL A   1      31.713  27.930  25.185  1.00  0.00     0.277 C 
ATOM      5  O   UNL A   1      30.953  28.546  24.439  1.00  0.00    -0.267 OA
ATOM      6  H   UNL A   1      32.740  29.594  25.662  1.00  0.00     0.163 HD
BRANCH   4   7
ATOM      7  C   UNL A   1      31.596  26.505  25.418  1.00  0.00     0.216 A 
ATOM      8  C   UNL A   1      31.708  25.382  24.555  1.00  0.00     0.207 A 
ATOM      9  N   UNL A   1      31.288  24.302  25.220  1.00  0.00    -0.031 NA
ATOM     10  O   UNL A   1      30.992  24.725  26.499  1.00  0.00    -0.242 OA
ATOM     11  N   UNL A   1      31.204  26.082  26.631  1.00  0.00    -0.042 NA
BRANCH   8  12
ATOM     12  N   UNL A   1      32.000  25.286  23.234  1.00  0.00    -0.326 N 
ATOM     13  H   UNL A   1      31.544  25.947  22.663  1.00  0.00     0.166 HD
BRANCH  12  14
ATOM     14  C   UNL A   1      32.866  24.380  22.532  1.00  0.00     0.307 C 
ATOM     15  C   UNL A   1      33.559  19.700  24.307  1.00  0.00     0.161 A 
ATOM     16  C   UNL A   1      32.230  19.874  23.087  1.00  0.00     0.051 A 
ATOM     17  C   UNL A   1      34.450  21.168  24.887  1.00  0.00     0.175 A 
ATOM     18  C   UNL A   1      31.896  21.500  22.361  1.00  0.00     0.014 A 
ATOM     19  C   UNL A   1      34.085  22.773  24.144  1.00  0.00     0.114 A 
ATOM     20  C   UNL A   1      32.785  22.955  22.958  1.00  0.00     0.032 A 
ATOM     21  C   UNL A   1      34.719  24.077  24.120  1.00  0.00     0.344 C 
ATOM     22  O   UNL A   1      35.609  24.477  24.839  1.00  0.00    -0.246 OA
ATOM     23  O   UNL A   1      34.200  24.759  23.039  1.00  0.00    -0.434 OA
BRANCH  15  24
ATOM     24  O   UNL A   1      33.729  18.415  24.736  1.00  0.00    -0.493 OA
ATOM     25  C   UNL A   1      32.851  17.985  25.762  1.00  0.00     0.278 C 
ENDBRANCH  15  24
BRANCH  17  26
ATOM     26  O   UNL A   1      35.395  20.957  25.851  1.00  0.00    -0.492 OA
ATOM     27  C   UNL A   1      36.740  20.844  25.409  1.00  0.00     0.278 C 
ENDBRANCH  17  26
ENDBRANCH  12  14
ENDBRANCH   8  12
ENDBRANCH   4   7
ENDBRANCH   2   3
ENDBRANCH   1   2
BRANCH   1  28
ATOM     28  C   UNL A   1      34.468  30.753  27.563  1.00  0.00     0.023 C 
BRANCH  28  29
ATOM     29  C   UNL A   1      32.793  32.147  27.340  1.00  0.00     0.116 C 
BRANCH  29  30
ATOM     30  N   UNL A   1      32.649  33.715  27.651  1.00  0.00    -0.352 N 
ATOM     31  C   UNL A   1      33.180  34.542  28.617  1.00  0.00     0.251 C 
ATOM     32  H   UNL A   1      32.057  34.186  27.019  1.00  0.00     0.163 HD
ATOM     33  O   UNL A   1      32.710  35.669  28.766  1.00  0.00    -0.269 OA
BRANCH  31  34
ATOM     34  C   UNL A   1      34.309  34.122  29.460  1.00  0.00     0.039 A 
ATOM     35  C   UNL A   1      35.621  34.372  29.031  1.00  0.00     0.014 A 
ATOM     36  C   UNL A   1      34.071  33.365  30.608  1.00  0.00     0.014 A 
ATOM     37  C   UNL A   1      36.696  33.876  29.764  1.00  0.00     0.010 A 
ATOM     38  C   UNL A   1      35.140  32.900  31.360  1.00  0.00     0.010 A 
ATOM     39  C   UNL A   1      36.454  33.114  30.913  1.00  0.00    -0.014 A 
BRANCH  39  40
ATOM     40  C   UNL A   1      37.540  32.341  31.546  1.00  0.00     0.031 A 
ATOM     41  C   UNL A   1      38.058  32.824  32.873  1.00  0.00     0.074 A 
ATOM     42  C   UNL A   1      38.079  31.286  30.914  1.00  0.00     0.049 A 
ATOM     43  N   UNL A   1      39.065  32.386  33.577  1.00  0.00    -0.248 NA
ATOM     44  C   UNL A   1      37.358  33.975  33.475  1.00  0.00     0.031 C 
ATOM     45  C   UNL A   1      37.649  30.771  29.614  1.00  0.00     0.029 A 
ATOM     46  N   UNL A   1      39.130  30.481  31.266  1.00  0.00    -0.354 N 
ATOM     47  C   UNL A   1      39.146  33.230  34.679  1.00  0.00     0.074 A 
ATOM     48  C   UNL A   1      38.102  34.220  34.542  1.00  0.00     0.031 C 
ATOM     49  C   UNL A   1      38.449  29.750  29.263  1.00  0.00     0.029 A 
ATOM     50  C   UNL A   1      39.463  29.563  30.299  1.00  0.00     0.049 A 
ATOM     51  H   UNL A   1      39.602  30.553  32.127  1.00  0.00     0.167 HD
ATOM     52  C   UNL A   1      40.010  33.174  35.718  1.00  0.00     0.034 A 
ATOM     53  C   UNL A   1      40.491  28.695  30.252  1.00  0.00     0.034 A 
ATOM     54  C   UNL A   1      41.028  32.168  35.834  1.00  0.00     0.049 A 
ATOM     55  C   UNL A   1      41.432  28.645  31.427  1.00  0.00     0.074 A 
ATOM     56  C   UNL A   1      41.925  31.965  36.863  1.00  0.00     0.029 A 
ATOM     57  N   UNL A   1      41.291  31.205  34.870  1.00  0.00    -0.354 N 
ATOM     58  N   UNL A   1      41.428  29.371  32.519  1.00  0.00    -0.248 NA
ATOM     59  C   UNL A   1      42.499  27.635  31.383  1.00  0.00     0.031 C 
ATOM     60  C   UNL A   1      42.764  30.907  36.500  1.00  0.00     0.029 A 
ATOM     61  C   UNL A   1      42.350  30.414  35.270  1.00  0.00     0.049 A 
ATOM     62  H   UNL A   1      40.796  31.101  34.025  1.00  0.00     0.167 HD
ATOM     63  C   UNL A   1      42.462  28.884  33.309  1.00  0.00     0.074 A 
ATOM     64  C   UNL A   1      43.060  27.787  32.575  1.00  0.00     0.031 C 
ATOM     65  C   UNL A   1      42.888  29.304  34.528  1.00  0.00     0.034 A 
BRANCH  52  66
ATOM     66  C   UNL A   1      39.886  34.218  36.798  1.00  0.00     0.023 A 
ATOM     67  C   UNL A   1      40.248  35.556  36.536  1.00  0.00     0.012 A 
ATOM     68  C   UNL A   1      39.375  33.878  38.065  1.00  0.00     0.148 A 
ATOM     69  C   UNL A   1      40.140  36.529  37.529  1.00  0.00     0.002 A 
ATOM     70  C   UNL A   1      39.220  34.864  39.033  1.00  0.00     0.091 A 
ATOM     71  F   UNL A   1      39.058  32.597  38.304  1.00  0.00    -0.205 F 
ATOM     72  C   UNL A   1      39.615  36.186  38.772  1.00  0.00     0.022 A 
BRANCH  70  73
ATOM     73  S   UNL A   1      38.486  34.540  40.640  1.00  0.00     0.127 S 
ATOM     74  O   UNL A   1      37.311  33.750  40.274  1.00  0.00    -0.237 OA
ATOM     75  O   UNL A   1      39.545  33.784  41.309  1.00  0.00    -0.237 OA
ATOM     76  O   UNL A   1      38.200  35.842  41.225  1.00  0.00    -0.744 OA
ENDBRANCH  70  73
ENDBRANCH  52  66
BRANCH  53  77
ATOM     77  C   UNL A   1      40.664  27.794  29.076  1.00  0.00     0.023 A 
ATOM     78  C   UNL A   1      39.915  26.604  28.989  1.00  0.00     0.012 A 
ATOM     79  C   UNL A   1      41.550  28.124  28.032  1.00  0.00     0.148 A 
ATOM     80  C   UNL A   1      40.075  25.741  27.903  1.00  0.00     0.002 A 
ATOM     81  C   UNL A   1      41.660  27.289  26.926  1.00  0.00     0.091 A 
ATOM     82  F   UNL A   1      42.260  29.256  28.137  1.00  0.00    -0.205 F 
ATOM     83  C   UNL A   1      40.939  26.088  26.868  1.00  0.00     0.022 A 
BRANCH  81  84
ATOM     84  S   UNL A   1      42.650  27.720  25.490  1.00  0.00     0.127 S 
ATOM     85  O   UNL A   1      43.979  27.872  26.077  1.00  0.00    -0.237 OA
ATOM     86  O   UNL A   1      42.482  26.539  24.643  1.00  0.00    -0.237 OA
ATOM     87  O   UNL A   1      42.055  28.936  24.950  1.00  0.00    -0.744 OA
ENDBRANCH  81  84
ENDBRANCH  53  77
BRANCH  65  88
ATOM     88  C   UNL A   1      44.019  28.543  35.165  1.00  0.00     0.023 A 
ATOM     89  C   UNL A   1      45.354  28.871  34.861  1.00  0.00     0.012 A 
ATOM     90  C   UNL A   1      43.747  27.554  36.131  1.00  0.00     0.148 A 
ATOM     91  C   UNL A   1      46.404  28.199  35.486  1.00  0.00     0.002 A 
ATOM     92  C   UNL A   1      44.797  26.933  36.792  1.00  0.00     0.091 A 
ATOM     93  F   UNL A   1      42.467  27.251  36.391  1.00  0.00    -0.205 F 
ATOM     94  C   UNL A   1      46.125  27.242  36.459  1.00  0.00     0.022 A 
BRANCH  92  95
ATOM     95  S   UNL A   1      44.533  25.771  38.134  1.00  0.00     0.127 S 
ATOM     96  O   UNL A   1      43.819  24.691  37.455  1.00  0.00    -0.237 OA
ATOM     97  O   UNL A   1      45.902  25.444  38.531  1.00  0.00    -0.237 OA
ATOM     98  O   UNL A   1      43.764  26.487  39.144  1.00  0.00    -0.744 OA
ENDBRANCH  92  95
ENDBRANCH  65  88
ENDBRANCH  39  40
ENDBRANCH  31  34
ENDBRANCH  29  30
ENDBRANCH  28  29
ENDBRANCH   1  28
TORSDOF 18
ENDMDL
MODEL 3
REMARK VINA RESULT:     -13.5      1.910      2.473
REMARK SMILES COc1ccc2c(c1OC)C(=O)O[C@@H]2Nc1nonc1C(=O)NCCCCNC(=O)c1ccc(-c2c3nc(c(-c4cccc(S(=O)(=O)[O-])c4F)c4ccc([nH]4)c(-c4cccc(S(=O)(=O)[O-])c4F)c4nc(c(-c5cccc(S(=O)(=O)[O-])c5F)c5ccc2[nH]5)C=C4)C=C3)cc1
REMARK SMILES IDX 25 1 24 2 23 3 21 4 22 5 20 7 16 8 17 9 18 10 19 11 15 12
REMARK SMILES IDX 14 14 3 15 4 16 8 17 5 18 7 19 6 20 11 21 12 22 13 23 2 24
REMARK SMILES IDX 1 25 9 26 10 27 26 28 27 29 28 30 29 31 30 33 31 34 32 35
REMARK SMILES IDX 93 36 33 37 92 38 34 39 35 40 36 41 86 42 37 43 91 44 85 45
REMARK SMILES IDX 87 46 38 47 90 48 84 49 83 50 39 52 71 53 51 54 70 55 52 56
REMARK SMILES IDX 55 57 69 58 88 59 53 60 54 61 68 63 89 64 56 65 40 66 41 67
REMARK SMILES IDX 49 68 42 69 44 70 50 71 43 72 45 73 46 74 47 75 48 76 72 77
REMARK SMILES IDX 73 78 81 79 74 80 76 81 82 82 75 83 77 84 78 85 79 86 80 87
REMARK SMILES IDX 57 88 58 89 66 90 59 91 61 92 67 93 60 94 62 95 63 96 64 97
REMARK SMILES IDX 65 98
REMARK H PARENT 23 6 15 13 28 32 87 51 55 62
REMARK Flexibility Score: inf
ROOT
ATOM      1  C   UNL A   1      32.893  28.487  26.598  1.00  0.00     0.023 C 
ENDROOT
BRANCH   1   2
ATOM      2  C   UNL A   1      32.692  27.668  25.320  1.00  0.00     0.116 C 
BRANCH   2   3
ATOM      3  N   UNL A   1      31.366  27.710  24.734  1.00  0.00    -0.350 N 
ATOM      4  C   UNL A   1      30.422  26.708  24.690  1.00  0.00     0.277 C 
ATOM      5  O   UNL A   1      29.423  26.875  23.991  1.00  0.00    -0.267 OA
ATOM      6  H   UNL A   1      31.107  28.562  24.314  1.00  0.00     0.163 HD
BRANCH   4   7
ATOM      7  C   UNL A   1      30.677  25.475  25.407  1.00  0.00     0.216 A 
ATOM      8  C   UNL A   1      30.700  24.116  24.995  1.00  0.00     0.207 A 
ATOM      9  N   UNL A   1      30.759  23.350  26.089  1.00  0.00    -0.031 NA
ATOM     10  O   UNL A   1      30.850  24.213  27.161  1.00  0.00    -0.242 OA
ATOM     11  N   UNL A   1      30.823  25.526  26.742  1.00  0.00    -0.042 NA
BRANCH   8  12
ATOM     12  N   UNL A   1      30.527  23.539  23.780  1.00  0.00    -0.326 N 
ATOM     13  H   UNL A   1      29.607  23.581  23.432  1.00  0.00     0.166 HD
BRANCH  12  14
ATOM     14  C   UNL A   1      31.468  22.878  22.918  1.00  0.00     0.307 C 
ATOM     15  C   UNL A   1      35.552  20.660  24.900  1.00  0.00     0.161 A 
ATOM     16  C   UNL A   1      34.113  19.579  24.686  1.00  0.00     0.051 A 
ATOM     17  C   UNL A   1      35.418  22.427  24.518  1.00  0.00     0.175 A 
ATOM     18  C   UNL A   1      32.593  20.252  23.967  1.00  0.00     0.014 A 
ATOM     19  C   UNL A   1      33.884  23.063  23.809  1.00  0.00     0.114 A 
ATOM     20  C   UNL A   1      32.472  22.016  23.603  1.00  0.00     0.032 A 
ATOM     21  C   UNL A   1      33.474  24.282  23.140  1.00  0.00     0.344 C 
ATOM     22  O   UNL A   1      34.072  25.335  23.097  1.00  0.00    -0.246 OA
ATOM     23  O   UNL A   1      32.312  23.995  22.453  1.00  0.00    -0.434 OA
BRANCH  15  24
ATOM     24  O   UNL A   1      36.640  20.012  25.410  1.00  0.00    -0.493 OA
ATOM     25  C   UNL A   1      37.832  20.113  24.650  1.00  0.00     0.278 C 
ENDBRANCH  15  24
BRANCH  17  26
ATOM     26  O   UNL A   1      36.529  23.182  24.765  1.00  0.00    -0.492 OA
ATOM     27  C   UNL A   1      36.414  24.171  25.777  1.00  0.00     0.278 C 
ENDBRANCH  17  26
ENDBRANCH  12  14
ENDBRANCH   8  12
ENDBRANCH   4   7
ENDBRANCH   2   3
ENDBRANCH   1   2
BRANCH   1  28
ATOM     28  C   UNL A   1      33.175  30.201  26.718  1.00  0.00     0.023 C 
BRANCH  28  29
ATOM     29  C   UNL A   1      31.981  32.017  26.998  1.00  0.00     0.116 C 
BRANCH  29  30
ATOM     30  N   UNL A   1      32.390  33.533  27.333  1.00  0.00    -0.352 N 
ATOM     31  C   UNL A   1      33.402  34.098  28.079  1.00  0.00     0.251 C 
ATOM     32  H   UNL A   1      31.793  34.198  26.918  1.00  0.00     0.163 HD
ATOM     33  O   UNL A   1      33.340  35.293  28.363  1.00  0.00    -0.269 OA
BRANCH  31  34
ATOM     34  C   UNL A   1      34.566  33.317  28.523  1.00  0.00     0.039 A 
ATOM     35  C   UNL A   1      34.375  32.208  29.358  1.00  0.00     0.014 A 
ATOM     36  C   UNL A   1      35.853  33.763  28.219  1.00  0.00     0.014 A 
ATOM     37  C   UNL A   1      35.477  31.532  29.877  1.00  0.00     0.010 A 
ATOM     38  C   UNL A   1      36.953  33.072  28.706  1.00  0.00     0.010 A 
ATOM     39  C   UNL A   1      36.767  31.984  29.574  1.00  0.00    -0.014 A 
BRANCH  39  40
ATOM     40  C   UNL A   1      37.935  31.482  30.323  1.00  0.00     0.031 A 
ATOM     41  C   UNL A   1      38.788  30.435  29.663  1.00  0.00     0.074 A 
ATOM     42  C   UNL A   1      38.173  31.909  31.575  1.00  0.00     0.049 A 
ATOM     43  N   UNL A   1      39.798  29.764  30.147  1.00  0.00    -0.248 NA
ATOM     44  C   UNL A   1      38.438  30.075  28.276  1.00  0.00     0.031 C 
ATOM     45  C   UNL A   1      37.377  32.904  32.292  1.00  0.00     0.029 A 
ATOM     46  N   UNL A   1      39.134  31.529  32.474  1.00  0.00    -0.354 N 
ATOM     47  C   UNL A   1      40.174  28.879  29.143  1.00  0.00     0.074 A 
ATOM     48  C   UNL A   1      39.274  29.079  28.031  1.00  0.00     0.031 C 
ATOM     49  C   UNL A   1      37.867  33.039  33.536  1.00  0.00     0.029 A 
ATOM     50  C   UNL A   1      38.988  32.118  33.708  1.00  0.00     0.049 A 
ATOM     51  H   UNL A   1      39.858  30.898  32.259  1.00  0.00     0.167 HD
ATOM     52  C   UNL A   1      41.191  27.988  29.148  1.00  0.00     0.034 A 
ATOM     53  C   UNL A   1      39.671  31.905  34.849  1.00  0.00     0.034 A 
ATOM     54  C   UNL A   1      42.080  27.822  30.263  1.00  0.00     0.049 A 
ATOM     55  C   UNL A   1      40.806  30.915  34.825  1.00  0.00     0.074 A 
ATOM     56  C   UNL A   1      43.183  26.998  30.372  1.00  0.00     0.029 A 
ATOM     57  N   UNL A   1      41.950  28.488  31.474  1.00  0.00    -0.354 N 
ATOM     58  N   UNL A   1      41.227  30.167  33.833  1.00  0.00    -0.248 NA
ATOM     59  C   UNL A   1      41.581  30.760  36.064  1.00  0.00     0.031 C 
ATOM     60  C   UNL A   1      43.693  27.131  31.667  1.00  0.00     0.029 A 
ATOM     61  C   UNL A   1      42.942  28.082  32.345  1.00  0.00     0.049 A 
ATOM     62  H   UNL A   1      41.253  29.152  31.682  1.00  0.00     0.167 HD
ATOM     63  C   UNL A   1      42.339  29.485  34.311  1.00  0.00     0.074 A 
ATOM     64  C   UNL A   1      42.534  29.922  35.679  1.00  0.00     0.031 C 
ATOM     65  C   UNL A   1      43.127  28.574  33.686  1.00  0.00     0.034 A 
BRANCH  52  66
ATOM     66  C   UNL A   1      41.392  27.137  27.920  1.00  0.00     0.023 A 
ATOM     67  C   UNL A   1      41.938  27.702  26.748  1.00  0.00     0.012 A 
ATOM     68  C   UNL A   1      41.070  25.767  27.939  1.00  0.00     0.148 A 
ATOM     69  C   UNL A   1      42.126  26.924  25.605  1.00  0.00     0.002 A 
ATOM     70  C   UNL A   1      41.308  24.987  26.813  1.00  0.00     0.091 A 
ATOM     71  F   UNL A   1      40.529  25.253  29.053  1.00  0.00    -0.205 F 
ATOM     72  C   UNL A   1      41.822  25.566  25.642  1.00  0.00     0.022 A 
BRANCH  70  73
ATOM     73  S   UNL A   1      41.021  23.214  26.782  1.00  0.00     0.127 S 
ATOM     74  O   UNL A   1      41.645  22.792  28.035  1.00  0.00    -0.237 OA
ATOM     75  O   UNL A   1      39.560  23.145  26.775  1.00  0.00    -0.237 OA
ATOM     76  O   UNL A   1      41.664  22.720  25.573  1.00  0.00    -0.744 OA
ENDBRANCH  70  73
ENDBRANCH  52  66
BRANCH  53  77
ATOM     77  C   UNL A   1      39.320  32.658  36.088  1.00  0.00     0.023 A 
ATOM     78  C   UNL A   1      39.858  33.943  36.303  1.00  0.00     0.012 A 
ATOM     79  C   UNL A   1      38.438  32.117  37.043  1.00  0.00     0.148 A 
ATOM     80  C   UNL A   1      39.552  34.656  37.463  1.00  0.00     0.002 A 
ATOM     81  C   UNL A   1      38.093  32.857  38.167  1.00  0.00     0.091 A 
ATOM     82  F   UNL A   1      37.943  30.890  36.825  1.00  0.00    -0.205 F 
ATOM     83  C   UNL A   1      38.663  34.119  38.390  1.00  0.00     0.022 A 
BRANCH  81  84
ATOM     84  S   UNL A   1      36.857  32.298  39.346  1.00  0.00     0.127 S 
ATOM     85  O   UNL A   1      35.614  32.618  38.651  1.00  0.00    -0.237 OA
ATOM     86  O   UNL A   1      37.159  30.869  39.443  1.00  0.00    -0.237 OA
ATOM     87  O   UNL A   1      37.110  33.049  40.569  1.00  0.00    -0.744 OA
ENDBRANCH  81  84
ENDBRANCH  53  77
BRANCH  65  88
ATOM     88  C   UNL A   1      44.299  28.030  34.455  1.00  0.00     0.023 A 
ATOM     89  C   UNL A   1      45.571  28.619  34.320  1.00  0.00     0.012 A 
ATOM     90  C   UNL A   1      44.112  26.981  35.377  1.00  0.00     0.148 A 
ATOM     91  C   UNL A   1      46.649  28.148  35.068  1.00  0.00     0.002 A 
ATOM     92  C   UNL A   1      45.176  26.558  36.161  1.00  0.00     0.091 A 
ATOM     93  F   UNL A   1      42.895  26.428  35.476  1.00  0.00    -0.205 F 
ATOM     94  C   UNL A   1      46.448  27.129  35.996  1.00  0.00     0.022 A 
BRANCH  92  95
ATOM     95  S   UNL A   1      44.985  25.330  37.456  1.00  0.00     0.127 S 
ATOM     96  O   UNL A   1      46.203  25.533  38.239  1.00  0.00    -0.237 OA
ATOM     97  O   UNL A   1      43.754  25.767  38.115  1.00  0.00    -0.237 OA
ATOM     98  O   UNL A   1      44.887  24.043  36.781  1.00  0.00    -0.744 OA
ENDBRANCH  92  95
ENDBRANCH  65  88
ENDBRANCH  39  40
ENDBRANCH  31  34
ENDBRANCH  29  30
ENDBRANCH  28  29
ENDBRANCH   1  28
TORSDOF 18
ENDMDL
