MODEL 1
REMARK VINA RESULT:     -10.9      0.000      0.000
REMARK SMILES CCC[N@H+]1CCC[C@H]([C@@H](C)Nc2cccc(C(=O)NCCCCNC(=O)c3ccc(-c4c5nc(c(-c6cccc(S(=O)(=O)[O-])c6F)c6ccc([nH]6)c(-c6cccc(S(=O)(=O)[O-])c6F)c6nc(c(-c7cccc(S(=O)(=O)[O-])c7F)c7ccc4[nH]7)C=C6)C=C5)cc3)c2)C1
REMARK SMILES IDX 20 1 19 2 17 3 18 4 16 6 12 7 13 8 90 9 14 10 15 11 11 12
REMARK SMILES IDX 9 14 10 15 8 16 4 17 5 18 91 19 6 21 7 22 3 23 2 24 1 25
REMARK SMILES IDX 21 26 22 27 23 28 24 29 25 30 26 32 27 33 28 34 89 35 29 36
REMARK SMILES IDX 88 37 30 38 31 39 32 40 82 41 33 42 87 43 81 44 83 45 34 46
REMARK SMILES IDX 86 47 80 48 79 49 35 51 67 52 47 53 66 54 48 55 51 56 65 57
REMARK SMILES IDX 84 58 49 59 50 60 64 62 85 63 52 64 36 65 37 66 45 67 38 68
REMARK SMILES IDX 40 69 46 70 39 71 41 72 42 73 43 74 44 75 68 76 69 77 77 78
REMARK SMILES IDX 70 79 72 80 78 81 71 82 73 83 74 84 75 85 76 86 53 87 54 88
REMARK SMILES IDX 62 89 55 90 57 91 63 92 56 93 58 94 59 95 60 96 61 97
REMARK H PARENT 19 5 11 13 4 20 24 31 83 50 51 61
REMARK Flexibility Score: inf
ROOT
ATOM      1  C   UNL A   1      35.586  20.693  25.093  1.00  0.00     0.116 C 
ENDROOT
BRANCH   1   2
ATOM      2  N   UNL A   1      34.377  19.897  24.927  1.00  0.00    -0.352 N 
ATOM      3  C   UNL A   1      33.049  20.239  25.108  1.00  0.00     0.251 C 
ATOM      4  O   UNL A   1      32.171  19.404  24.896  1.00  0.00    -0.269 OA
ATOM      5  H   UNL A   1      34.530  18.968  24.640  1.00  0.00     0.163 HD
BRANCH   3   6
ATOM      6  C   UNL A   1      32.666  21.575  25.632  1.00  0.00     0.041 A 
ATOM      7  C   UNL A   1      32.440  23.959  25.213  1.00  0.00     0.035 A 
ATOM      8  C   UNL A   1      32.452  24.164  26.598  1.00  0.00     0.026 A 
ATOM      9  C   UNL A   1      32.393  22.638  24.771  1.00  0.00     0.039 A 
ATOM     10  C   UNL A   1      32.514  23.090  27.494  1.00  0.00     0.003 A 
ATOM     11  C   UNL A   1      32.663  21.793  27.009  1.00  0.00     0.014 A 
BRANCH   7  12
ATOM     12  N   UNL A   1      32.496  25.045  24.353  1.00  0.00    -0.382 N 
ATOM     13  H   UNL A   1      33.358  25.245  23.922  1.00  0.00     0.160 HD
BRANCH  12  14
ATOM     14  C   UNL A   1      31.358  25.916  24.042  1.00  0.00     0.084 C 
ATOM     15  C   UNL A   1      30.223  25.052  23.485  1.00  0.00     0.031 C 
BRANCH  14  16
ATOM     16  C   UNL A   1      31.777  27.042  23.055  1.00  0.00     0.066 C 
ATOM     17  N   UNL A   1      31.575  28.850  24.741  1.00  0.00    -0.335 N 
ATOM     18  C   UNL A   1      30.446  29.473  24.030  1.00  0.00     0.262 C 
ATOM     19  C   UNL A   1      32.476  28.214  23.771  1.00  0.00     0.267 C 
ATOM     20  H   UNL A   1      31.226  28.123  25.365  1.00  0.00     0.348 HD
ATOM     21  C   UNL A   1      29.665  28.457  23.186  1.00  0.00     0.062 C 
ATOM     22  C   UNL A   1      30.576  27.622  22.283  1.00  0.00     0.017 C 
BRANCH  17  23
ATOM     23  C   UNL A   1      32.262  29.825  25.601  1.00  0.00     0.261 C 
BRANCH  23  24
ATOM     24  C   UNL A   1      32.125  29.584  27.117  1.00  0.00     0.058 C 
ATOM     25  C   UNL A   1      31.633  28.207  27.537  1.00  0.00     0.010 C 
ENDBRANCH  23  24
ENDBRANCH  17  23
ENDBRANCH  14  16
ENDBRANCH  12  14
ENDBRANCH   7  12
ENDBRANCH   3   6
ENDBRANCH   1   2
BRANCH   1  26
ATOM     26  C   UNL A   1      35.767  21.829  24.095  1.00  0.00     0.023 C 
BRANCH  26  27
ATOM     27  C   UNL A   1      36.811  22.877  24.444  1.00  0.00     0.023 C 
BRANCH  27  28
ATOM     28  C   UNL A   1      37.252  22.928  25.901  1.00  0.00     0.116 C 
BRANCH  28  29
ATOM     29  N   UNL A   1      38.497  22.220  26.177  1.00  0.00    -0.352 N 
ATOM     30  C   UNL A   1      39.680  22.702  26.690  1.00  0.00     0.251 C 
ATOM     31  H   UNL A   1      38.490  21.259  25.967  1.00  0.00     0.163 HD
ATOM     32  O   UNL A   1      40.648  21.954  26.808  1.00  0.00    -0.269 OA
BRANCH  30  33
ATOM     33  C   UNL A   1      39.798  24.132  27.054  1.00  0.00     0.039 A 
ATOM     34  C   UNL A   1      39.621  24.506  28.389  1.00  0.00     0.014 A 
ATOM     35  C   UNL A   1      40.138  25.090  26.097  1.00  0.00     0.014 A 
ATOM     36  C   UNL A   1      39.883  25.822  28.779  1.00  0.00     0.010 A 
ATOM     37  C   UNL A   1      40.483  26.376  26.503  1.00  0.00     0.010 A 
ATOM     38  C   UNL A   1      40.367  26.755  27.848  1.00  0.00    -0.014 A 
BRANCH  38  39
ATOM     39  C   UNL A   1      40.791  28.118  28.263  1.00  0.00     0.031 A 
ATOM     40  C   UNL A   1      42.250  28.486  28.294  1.00  0.00     0.074 A 
ATOM     41  C   UNL A   1      39.871  28.991  28.721  1.00  0.00     0.049 A 
ATOM     42  N   UNL A   1      42.811  29.600  28.687  1.00  0.00    -0.248 NA
ATOM     43  C   UNL A   1      43.206  27.455  27.860  1.00  0.00     0.031 C 
ATOM     44  C   UNL A   1      38.435  28.722  28.840  1.00  0.00     0.029 A 
ATOM     45  N   UNL A   1      40.008  30.269  29.202  1.00  0.00    -0.354 N 
ATOM     46  C   UNL A   1      44.181  29.391  28.589  1.00  0.00     0.074 A 
ATOM     47  C   UNL A   1      44.369  28.031  28.132  1.00  0.00     0.031 C 
ATOM     48  C   UNL A   1      37.826  29.803  29.354  1.00  0.00     0.029 A 
ATOM     49  C   UNL A   1      38.825  30.831  29.624  1.00  0.00     0.049 A 
ATOM     50  H   UNL A   1      40.871  30.741  29.240  1.00  0.00     0.167 HD
ATOM     51  C   UNL A   1      45.193  30.260  28.822  1.00  0.00     0.034 A 
ATOM     52  C   UNL A   1      38.571  32.038  30.170  1.00  0.00     0.034 A 
ATOM     53  C   UNL A   1      45.003  31.629  29.220  1.00  0.00     0.049 A 
ATOM     54  C   UNL A   1      39.704  33.010  30.354  1.00  0.00     0.074 A 
ATOM     55  C   UNL A   1      45.955  32.621  29.372  1.00  0.00     0.029 A 
ATOM     56  N   UNL A   1      43.779  32.198  29.536  1.00  0.00    -0.354 N 
ATOM     57  N   UNL A   1      40.977  32.856  30.078  1.00  0.00    -0.248 NA
ATOM     58  C   UNL A   1      39.362  34.338  30.888  1.00  0.00     0.031 C 
ATOM     59  C   UNL A   1      45.307  33.787  29.795  1.00  0.00     0.029 A 
ATOM     60  C   UNL A   1      43.951  33.526  29.890  1.00  0.00     0.049 A 
ATOM     61  H   UNL A   1      42.915  31.728  29.512  1.00  0.00     0.167 HD
ATOM     62  C   UNL A   1      41.583  34.072  30.374  1.00  0.00     0.074 A 
ATOM     63  C   UNL A   1      40.532  34.960  30.830  1.00  0.00     0.031 C 
ATOM     64  C   UNL A   1      42.892  34.416  30.293  1.00  0.00     0.034 A 
BRANCH  51  65
ATOM     65  C   UNL A   1      46.598  29.772  28.585  1.00  0.00     0.023 A 
ATOM     66  C   UNL A   1      47.188  29.951  27.317  1.00  0.00     0.012 A 
ATOM     67  C   UNL A   1      47.348  29.178  29.617  1.00  0.00     0.148 A 
ATOM     68  C   UNL A   1      48.488  29.510  27.067  1.00  0.00     0.002 A 
ATOM     69  C   UNL A   1      48.659  28.781  29.374  1.00  0.00     0.091 A 
ATOM     70  F   UNL A   1      46.765  28.992  30.811  1.00  0.00    -0.205 F 
ATOM     71  C   UNL A   1      49.225  28.934  28.098  1.00  0.00     0.022 A 
BRANCH  69  72
ATOM     72  S   UNL A   1      49.716  28.100  30.658  1.00  0.00     0.127 S 
ATOM     73  O   UNL A   1      49.103  26.792  30.882  1.00  0.00    -0.237 OA
ATOM     74  O   UNL A   1      51.020  28.058  29.996  1.00  0.00    -0.237 OA
ATOM     75  O   UNL A   1      49.636  29.033  31.774  1.00  0.00    -0.744 OA
ENDBRANCH  69  72
ENDBRANCH  51  65
BRANCH  52  76
ATOM     76  C   UNL A   1      37.170  32.421  30.499  1.00  0.00     0.023 A 
ATOM     77  C   UNL A   1      36.715  32.289  31.825  1.00  0.00     0.012 A 
ATOM     78  C   UNL A   1      36.305  32.958  29.527  1.00  0.00     0.148 A 
ATOM     79  C   UNL A   1      35.416  32.659  32.173  1.00  0.00     0.002 A 
ATOM     80  C   UNL A   1      35.028  33.374  29.891  1.00  0.00     0.091 A 
ATOM     81  F   UNL A   1      36.752  33.065  28.268  1.00  0.00    -0.205 F 
ATOM     82  C   UNL A   1      34.577  33.212  31.210  1.00  0.00     0.022 A 
BRANCH  80  83
ATOM     83  S   UNL A   1      33.926  34.218  28.750  1.00  0.00     0.127 S 
ATOM     84  O   UNL A   1      32.802  34.561  29.616  1.00  0.00    -0.237 OA
ATOM     85  O   UNL A   1      34.746  35.353  28.323  1.00  0.00    -0.237 OA
ATOM     86  O   UNL A   1      33.643  33.255  27.694  1.00  0.00    -0.744 OA
ENDBRANCH  80  83
ENDBRANCH  52  76
BRANCH  64  87
ATOM     87  C   UNL A   1      43.271  35.820  30.683  1.00  0.00     0.023 A 
ATOM     88  C   UNL A   1      43.594  36.107  32.024  1.00  0.00     0.012 A 
ATOM     89  C   UNL A   1      43.382  36.834  29.712  1.00  0.00     0.148 A 
ATOM     90  C   UNL A   1      43.995  37.390  32.398  1.00  0.00     0.002 A 
ATOM     91  C   UNL A   1      43.825  38.098  30.084  1.00  0.00     0.091 A 
ATOM     92  F   UNL A   1      43.050  36.547  28.445  1.00  0.00    -0.205 F 
ATOM     93  C   UNL A   1      44.123  38.380  31.427  1.00  0.00     0.022 A 
BRANCH  91  94
ATOM     94  S   UNL A   1      44.108  39.407  28.885  1.00  0.00     0.127 S 
ATOM     95  O   UNL A   1      42.771  39.594  28.326  1.00  0.00    -0.237 OA
ATOM     96  O   UNL A   1      44.577  40.508  29.728  1.00  0.00    -0.237 OA
ATOM     97  O   UNL A   1      45.109  38.889  27.960  1.00  0.00    -0.744 OA
ENDBRANCH  91  94
ENDBRANCH  64  87
ENDBRANCH  38  39
ENDBRANCH  30  33
ENDBRANCH  28  29
ENDBRANCH  27  28
ENDBRANCH  26  27
ENDBRANCH   1  26
TORSDOF 19
ENDMDL
MODEL 2
REMARK VINA RESULT:     -10.8      5.268      9.131
REMARK SMILES CCC[N@H+]1CCC[C@H]([C@@H](C)Nc2cccc(C(=O)NCCCCNC(=O)c3ccc(-c4c5nc(c(-c6cccc(S(=O)(=O)[O-])c6F)c6ccc([nH]6)c(-c6cccc(S(=O)(=O)[O-])c6F)c6nc(c(-c7cccc(S(=O)(=O)[O-])c7F)c7ccc4[nH]7)C=C6)C=C5)cc3)c2)C1
REMARK SMILES IDX 20 1 19 2 17 3 18 4 16 6 12 7 13 8 90 9 14 10 15 11 11 12
REMARK SMILES IDX 9 14 10 15 8 16 4 17 5 18 91 19 6 21 7 22 3 23 2 24 1 25
REMARK SMILES IDX 21 26 22 27 23 28 24 29 25 30 26 32 27 33 28 34 89 35 29 36
REMARK SMILES IDX 88 37 30 38 31 39 32 40 82 41 33 42 87 43 81 44 83 45 34 46
REMARK SMILES IDX 86 47 80 48 79 49 35 51 67 52 47 53 66 54 48 55 51 56 65 57
REMARK SMILES IDX 84 58 49 59 50 60 64 62 85 63 52 64 36 65 37 66 45 67 38 68
REMARK SMILES IDX 40 69 46 70 39 71 41 72 42 73 43 74 44 75 68 76 69 77 77 78
REMARK SMILES IDX 70 79 72 80 78 81 71 82 73 83 74 84 75 85 76 86 53 87 54 88
REMARK SMILES IDX 62 89 55 90 57 91 63 92 56 93 58 94 59 95 60 96 61 97
REMARK H PARENT 19 5 11 13 4 20 24 31 83 50 51 61
REMARK Flexibility Score: inf
ROOT
ATOM      1  C   UNL A   1      31.781  28.924  26.110  1.00  0.00     0.116 C 
ENDROOT
BRANCH   1   2
ATOM      2  N   UNL A   1      31.066  29.531  24.995  1.00  0.00    -0.352 N 
ATOM      3  C   UNL A   1      30.930  29.112  23.684  1.00  0.00     0.251 C 
ATOM      4  O   UNL A   1      30.260  29.779  22.898  1.00  0.00    -0.269 OA
ATOM      5  H   UNL A   1      30.605  30.375  25.210  1.00  0.00     0.163 HD
BRANCH   3   6
ATOM      6  C   UNL A   1      31.648  27.910  23.186  1.00  0.00     0.041 A 
ATOM      7  C   UNL A   1      32.002  25.511  23.356  1.00  0.00     0.035 A 
ATOM      8  C   UNL A   1      33.229  25.685  22.704  1.00  0.00     0.026 A 
ATOM      9  C   UNL A   1      31.169  26.625  23.441  1.00  0.00     0.039 A 
ATOM     10  C   UNL A   1      33.640  26.944  22.248  1.00  0.00     0.003 A 
ATOM     11  C   UNL A   1      32.866  28.067  22.527  1.00  0.00     0.014 A 
BRANCH   7  12
ATOM     12  N   UNL A   1      31.676  24.278  23.898  1.00  0.00    -0.382 N 
ATOM     13  H   UNL A   1      31.058  23.703  23.391  1.00  0.00     0.160 HD
BRANCH  12  14
ATOM     14  C   UNL A   1      32.189  23.771  25.175  1.00  0.00     0.084 C 
ATOM     15  C   UNL A   1      32.172  24.916  26.193  1.00  0.00     0.031 C 
BRANCH  14  16
ATOM     16  C   UNL A   1      33.609  23.164  24.999  1.00  0.00     0.066 C 
ATOM     17  N   UNL A   1      32.967  20.937  25.885  1.00  0.00    -0.335 N 
ATOM     18  C   UNL A   1      33.833  21.088  27.066  1.00  0.00     0.262 C 
ATOM     19  C   UNL A   1      33.564  21.644  24.745  1.00  0.00     0.267 C 
ATOM     20  H   UNL A   1      32.058  21.360  26.072  1.00  0.00     0.348 HD
ATOM     21  C   UNL A   1      34.059  22.561  27.431  1.00  0.00     0.062 C 
ATOM     22  C   UNL A   1      34.505  23.400  26.231  1.00  0.00     0.017 C 
BRANCH  17  23
ATOM     23  C   UNL A   1      32.702  19.519  25.600  1.00  0.00     0.261 C 
BRANCH  23  24
ATOM     24  C   UNL A   1      33.480  18.927  24.408  1.00  0.00     0.058 C 
ATOM     25  C   UNL A   1      32.642  18.374  23.265  1.00  0.00     0.010 C 
ENDBRANCH  23  24
ENDBRANCH  17  23
ENDBRANCH  14  16
ENDBRANCH  12  14
ENDBRANCH   7  12
ENDBRANCH   3   6
ENDBRANCH   1   2
BRANCH   1  26
ATOM     26  C   UNL A   1      32.566  29.887  26.990  1.00  0.00     0.023 C 
BRANCH  26  27
ATOM     27  C   UNL A   1      32.155  31.349  26.930  1.00  0.00     0.023 C 
BRANCH  27  28
ATOM     28  C   UNL A   1      33.234  32.366  27.278  1.00  0.00     0.116 C 
BRANCH  28  29
ATOM     29  N   UNL A   1      32.724  33.687  27.628  1.00  0.00    -0.352 N 
ATOM     30  C   UNL A   1      33.166  34.565  28.591  1.00  0.00     0.251 C 
ATOM     31  H   UNL A   1      31.954  33.994  27.099  1.00  0.00     0.163 HD
ATOM     32  O   UNL A   1      32.571  35.625  28.774  1.00  0.00    -0.269 OA
BRANCH  30  33
ATOM     33  C   UNL A   1      34.327  34.210  29.437  1.00  0.00     0.039 A 
ATOM     34  C   UNL A   1      34.104  33.535  30.641  1.00  0.00     0.014 A 
ATOM     35  C   UNL A   1      35.630  34.488  29.020  1.00  0.00     0.014 A 
ATOM     36  C   UNL A   1      35.191  33.052  31.374  1.00  0.00     0.010 A 
ATOM     37  C   UNL A   1      36.706  33.931  29.706  1.00  0.00     0.010 A 
ATOM     38  C   UNL A   1      36.500  33.202  30.886  1.00  0.00    -0.014 A 
BRANCH  38  39
ATOM     39  C   UNL A   1      37.660  32.573  31.569  1.00  0.00     0.031 A 
ATOM     40  C   UNL A   1      38.393  31.426  30.928  1.00  0.00     0.074 A 
ATOM     41  C   UNL A   1      37.985  32.960  32.820  1.00  0.00     0.049 A 
ATOM     42  N   UNL A   1      39.384  30.714  31.399  1.00  0.00    -0.248 NA
ATOM     43  C   UNL A   1      37.931  31.001  29.596  1.00  0.00     0.031 C 
ATOM     44  C   UNL A   1      37.288  33.989  33.595  1.00  0.00     0.029 A 
ATOM     45  N   UNL A   1      38.963  32.511  33.672  1.00  0.00    -0.354 N 
ATOM     46  C   UNL A   1      39.635  29.735  30.447  1.00  0.00     0.074 A 
ATOM     47  C   UNL A   1      38.670  29.921  29.385  1.00  0.00     0.031 C 
ATOM     48  C   UNL A   1      37.864  34.096  34.803  1.00  0.00     0.029 A 
ATOM     49  C   UNL A   1      38.953  33.130  34.901  1.00  0.00     0.049 A 
ATOM     50  H   UNL A   1      39.613  31.813  33.427  1.00  0.00     0.167 HD
ATOM     51  C   UNL A   1      40.603  28.786  30.436  1.00  0.00     0.034 A 
ATOM     52  C   UNL A   1      39.730  32.941  35.986  1.00  0.00     0.034 A 
ATOM     53  C   UNL A   1      41.596  28.639  31.465  1.00  0.00     0.049 A 
ATOM     54  C   UNL A   1      40.841  31.929  35.923  1.00  0.00     0.074 A 
ATOM     55  C   UNL A   1      42.685  27.786  31.493  1.00  0.00     0.029 A 
ATOM     56  N   UNL A   1      41.621  29.357  32.650  1.00  0.00    -0.354 N 
ATOM     57  N   UNL A   1      41.180  31.137  34.934  1.00  0.00    -0.248 NA
ATOM     58  C   UNL A   1      41.704  31.812  37.109  1.00  0.00     0.031 C 
ATOM     59  C   UNL A   1      43.359  27.978  32.704  1.00  0.00     0.029 A 
ATOM     60  C   UNL A   1      42.701  28.963  33.421  1.00  0.00     0.049 A 
ATOM     61  H   UNL A   1      40.967  30.047  32.905  1.00  0.00     0.167 HD
ATOM     62  C   UNL A   1      42.310  30.450  35.365  1.00  0.00     0.074 A 
ATOM     63  C   UNL A   1      42.611  30.937  36.696  1.00  0.00     0.031 C 
ATOM     64  C   UNL A   1      43.022  29.491  34.723  1.00  0.00     0.034 A 
BRANCH  51  65
ATOM     65  C   UNL A   1      40.671  27.876  29.238  1.00  0.00     0.023 A 
ATOM     66  C   UNL A   1      39.820  26.753  29.173  1.00  0.00     0.012 A 
ATOM     67  C   UNL A   1      41.538  28.148  28.163  1.00  0.00     0.148 A 
ATOM     68  C   UNL A   1      39.859  25.892  28.077  1.00  0.00     0.002 A 
ATOM     69  C   UNL A   1      41.540  27.309  27.053  1.00  0.00     0.091 A 
ATOM     70  F   UNL A   1      42.358  29.205  28.250  1.00  0.00    -0.205 F 
ATOM     71  C   UNL A   1      40.712  26.176  27.014  1.00  0.00     0.022 A 
BRANCH  69  72
ATOM     72  S   UNL A   1      42.546  27.634  25.600  1.00  0.00     0.127 S 
ATOM     73  O   UNL A   1      43.888  27.689  26.177  1.00  0.00    -0.237 OA
ATOM     74  O   UNL A   1      42.285  26.456  24.772  1.00  0.00    -0.237 OA
ATOM     75  O   UNL A   1      42.047  28.884  25.043  1.00  0.00    -0.744 OA
ENDBRANCH  69  72
ENDBRANCH  51  65
BRANCH  52  76
ATOM     76  C   UNL A   1      39.534  33.792  37.194  1.00  0.00     0.023 A 
ATOM     77  C   UNL A   1      39.945  35.138  37.159  1.00  0.00     0.012 A 
ATOM     78  C   UNL A   1      38.904  33.295  38.351  1.00  0.00     0.148 A 
ATOM     79  C   UNL A   1      39.757  35.969  38.264  1.00  0.00     0.002 A 
ATOM     80  C   UNL A   1      38.671  34.143  39.429  1.00  0.00     0.091 A 
ATOM     81  F   UNL A   1      38.530  32.008  38.368  1.00  0.00    -0.205 F 
ATOM     82  C   UNL A   1      39.110  35.476  39.393  1.00  0.00     0.022 A 
BRANCH  80  83
ATOM     83  S   UNL A   1      37.730  33.632  40.872  1.00  0.00     0.127 S 
ATOM     84  O   UNL A   1      37.736  34.848  41.680  1.00  0.00    -0.237 OA
ATOM     85  O   UNL A   1      36.435  33.290  40.282  1.00  0.00    -0.237 OA
ATOM     86  O   UNL A   1      38.452  32.497  41.429  1.00  0.00    -0.744 OA
ENDBRANCH  80  83
ENDBRANCH  52  76
BRANCH  64  87
ATOM     87  C   UNL A   1      44.215  28.912  35.436  1.00  0.00     0.023 A 
ATOM     88  C   UNL A   1      45.492  29.468  35.222  1.00  0.00     0.012 A 
ATOM     89  C   UNL A   1      44.061  27.871  36.374  1.00  0.00     0.148 A 
ATOM     90  C   UNL A   1      46.603  28.978  35.909  1.00  0.00     0.002 A 
ATOM     91  C   UNL A   1      45.165  27.420  37.088  1.00  0.00     0.091 A 
ATOM     92  F   UNL A   1      42.842  27.342  36.548  1.00  0.00    -0.205 F 
ATOM     93  C   UNL A   1      46.437  27.964  36.850  1.00  0.00     0.022 A 
BRANCH  91  94
ATOM     94  S   UNL A   1      45.027  26.183  38.385  1.00  0.00     0.127 S 
ATOM     95  O   UNL A   1      44.554  25.019  37.639  1.00  0.00    -0.237 OA
ATOM     96  O   UNL A   1      46.406  26.081  38.867  1.00  0.00    -0.237 OA
ATOM     97  O   UNL A   1      44.089  26.730  39.357  1.00  0.00    -0.744 OA
ENDBRANCH  91  94
ENDBRANCH  64  87
ENDBRANCH  38  39
ENDBRANCH  30  33
ENDBRANCH  28  29
ENDBRANCH  27  28
ENDBRANCH  26  27
ENDBRANCH   1  26
TORSDOF 19
ENDMDL
MODEL 3
REMARK VINA RESULT:     -10.6      1.551      2.193
REMARK SMILES CCC[N@H+]1CCC[C@H]([C@@H](C)Nc2cccc(C(=O)NCCCCNC(=O)c3ccc(-c4c5nc(c(-c6cccc(S(=O)(=O)[O-])c6F)c6ccc([nH]6)c(-c6cccc(S(=O)(=O)[O-])c6F)c6nc(c(-c7cccc(S(=O)(=O)[O-])c7F)c7ccc4[nH]7)C=C6)C=C5)cc3)c2)C1
REMARK SMILES IDX 20 1 19 2 17 3 18 4 16 6 12 7 13 8 90 9 14 10 15 11 11 12
REMARK SMILES IDX 9 14 10 15 8 16 4 17 5 18 91 19 6 21 7 22 3 23 2 24 1 25
REMARK SMILES IDX 21 26 22 27 23 28 24 29 25 30 26 32 27 33 28 34 89 35 29 36
REMARK SMILES IDX 88 37 30 38 31 39 32 40 82 41 33 42 87 43 81 44 83 45 34 46
REMARK SMILES IDX 86 47 80 48 79 49 35 51 67 52 47 53 66 54 48 55 51 56 65 57
REMARK SMILES IDX 84 58 49 59 50 60 64 62 85 63 52 64 36 65 37 66 45 67 38 68
REMARK SMILES IDX 40 69 46 70 39 71 41 72 42 73 43 74 44 75 68 76 69 77 77 78
REMARK SMILES IDX 70 79 72 80 78 81 71 82 73 83 74 84 75 85 76 86 53 87 54 88
REMARK SMILES IDX 62 89 55 90 57 91 63 92 56 93 58 94 59 95 60 96 61 97
REMARK H PARENT 19 5 11 13 4 20 24 31 83 50 51 61
REMARK Flexibility Score: inf
ROOT
ATOM      1  C   UNL A   1      34.865  21.393  25.484  1.00  0.00     0.116 C 
ENDROOT
BRANCH   1   2
ATOM      2  N   UNL A   1      34.447  21.650  24.112  1.00  0.00    -0.352 N 
ATOM      3  C   UNL A   1      33.374  22.373  23.624  1.00  0.00     0.251 C 
ATOM      4  O   UNL A   1      33.211  22.477  22.410  1.00  0.00    -0.269 OA
ATOM      5  H   UNL A   1      35.021  21.244  23.422  1.00  0.00     0.163 HD
BRANCH   3   6
ATOM      6  C   UNL A   1      32.366  22.962  24.543  1.00  0.00     0.041 A 
ATOM      7  C   UNL A   1      31.663  24.874  25.870  1.00  0.00     0.035 A 
ATOM      8  C   UNL A   1      30.847  24.010  26.610  1.00  0.00     0.026 A 
ATOM      9  C   UNL A   1      32.289  24.340  24.745  1.00  0.00     0.039 A 
ATOM     10  C   UNL A   1      30.745  22.651  26.292  1.00  0.00     0.003 A 
ATOM     11  C   UNL A   1      31.538  22.116  25.280  1.00  0.00     0.014 A 
BRANCH   7  12
ATOM     12  N   UNL A   1      31.834  26.186  26.281  1.00  0.00    -0.382 N 
ATOM     13  H   UNL A   1      31.287  26.506  27.035  1.00  0.00     0.160 HD
BRANCH  12  14
ATOM     14  C   UNL A   1      32.772  27.132  25.669  1.00  0.00     0.084 C 
ATOM     15  C   UNL A   1      34.056  27.154  26.506  1.00  0.00     0.031 C 
BRANCH  14  16
ATOM     16  C   UNL A   1      32.132  28.543  25.542  1.00  0.00     0.066 C 
ATOM     17  N   UNL A   1      31.086  28.073  23.342  1.00  0.00    -0.335 N 
ATOM     18  C   UNL A   1      31.940  29.058  22.656  1.00  0.00     0.262 C 
ATOM     19  C   UNL A   1      30.830  28.519  24.717  1.00  0.00     0.267 C 
ATOM     20  H   UNL A   1      31.571  27.177  23.391  1.00  0.00     0.348 HD
ATOM     21  C   UNL A   1      33.271  29.276  23.386  1.00  0.00     0.062 C 
ATOM     22  C   UNL A   1      33.081  29.561  24.878  1.00  0.00     0.017 C 
BRANCH  17  23
ATOM     23  C   UNL A   1      29.850  27.824  22.584  1.00  0.00     0.261 C 
BRANCH  23  24
ATOM     24  C   UNL A   1      28.590  28.526  23.126  1.00  0.00     0.058 C 
ATOM     25  C   UNL A   1      27.987  29.604  22.238  1.00  0.00     0.010 C 
ENDBRANCH  23  24
ENDBRANCH  17  23
ENDBRANCH  14  16
ENDBRANCH  12  14
ENDBRANCH   7  12
ENDBRANCH   3   6
ENDBRANCH   1   2
BRANCH   1  26
ATOM     26  C   UNL A   1      35.407  22.596  26.243  1.00  0.00     0.023 C 
BRANCH  26  27
ATOM     27  C   UNL A   1      36.146  23.640  25.421  1.00  0.00     0.023 C 
BRANCH  27  28
ATOM     28  C   UNL A   1      37.334  23.139  24.611  1.00  0.00     0.116 C 
BRANCH  28  29
ATOM     29  N   UNL A   1      38.228  22.248  25.342  1.00  0.00    -0.352 N 
ATOM     30  C   UNL A   1      39.166  22.548  26.303  1.00  0.00     0.251 C 
ATOM     31  H   UNL A   1      38.148  21.294  25.115  1.00  0.00     0.163 HD
ATOM     32  O   UNL A   1      39.867  21.657  26.776  1.00  0.00    -0.269 OA
BRANCH  30  33
ATOM     33  C   UNL A   1      39.361  23.952  26.731  1.00  0.00     0.039 A 
ATOM     34  C   UNL A   1      38.938  24.333  28.007  1.00  0.00     0.014 A 
ATOM     35  C   UNL A   1      40.008  24.870  25.902  1.00  0.00     0.014 A 
ATOM     36  C   UNL A   1      39.255  25.607  28.488  1.00  0.00     0.010 A 
ATOM     37  C   UNL A   1      40.397  26.104  26.415  1.00  0.00     0.010 A 
ATOM     38  C   UNL A   1      40.032  26.485  27.715  1.00  0.00    -0.014 A 
BRANCH  38  39
ATOM     39  C   UNL A   1      40.506  27.785  28.257  1.00  0.00     0.031 A 
ATOM     40  C   UNL A   1      41.977  28.050  28.428  1.00  0.00     0.074 A 
ATOM     41  C   UNL A   1      39.607  28.687  28.701  1.00  0.00     0.049 A 
ATOM     42  N   UNL A   1      42.573  29.095  28.941  1.00  0.00    -0.248 NA
ATOM     43  C   UNL A   1      42.900  26.986  27.998  1.00  0.00     0.031 C 
ATOM     44  C   UNL A   1      38.153  28.510  28.688  1.00  0.00     0.029 A 
ATOM     45  N   UNL A   1      39.784  29.920  29.280  1.00  0.00    -0.354 N 
ATOM     46  C   UNL A   1      43.930  28.800  28.935  1.00  0.00     0.074 A 
ATOM     47  C   UNL A   1      44.069  27.463  28.400  1.00  0.00     0.031 C 
ATOM     48  C   UNL A   1      37.572  29.594  29.227  1.00  0.00     0.029 A 
ATOM     49  C   UNL A   1      38.608  30.532  29.647  1.00  0.00     0.049 A 
ATOM     50  H   UNL A   1      40.669  30.328  29.419  1.00  0.00     0.167 HD
ATOM     51  C   UNL A   1      44.972  29.582  29.307  1.00  0.00     0.034 A 
ATOM     52  C   UNL A   1      38.386  31.715  30.254  1.00  0.00     0.034 A 
ATOM     53  C   UNL A   1      44.836  30.931  29.785  1.00  0.00     0.049 A 
ATOM     54  C   UNL A   1      39.558  32.594  30.594  1.00  0.00     0.074 A 
ATOM     55  C   UNL A   1      45.832  31.844  30.080  1.00  0.00     0.029 A 
ATOM     56  N   UNL A   1      43.628  31.561  30.043  1.00  0.00    -0.354 N 
ATOM     57  N   UNL A   1      40.837  32.371  30.408  1.00  0.00    -0.248 NA
ATOM     58  C   UNL A   1      39.257  33.904  31.192  1.00  0.00     0.031 C 
ATOM     59  C   UNL A   1      45.226  33.022  30.532  1.00  0.00     0.029 A 
ATOM     60  C   UNL A   1      43.853  32.848  30.502  1.00  0.00     0.049 A 
ATOM     61  H   UNL A   1      42.741  31.153  29.919  1.00  0.00     0.167 HD
ATOM     62  C   UNL A   1      41.491  33.522  30.836  1.00  0.00     0.074 A 
ATOM     63  C   UNL A   1      40.464  34.448  31.269  1.00  0.00     0.031 C 
ATOM     64  C   UNL A   1      42.822  33.780  30.882  1.00  0.00     0.034 A 
BRANCH  51  65
ATOM     65  C   UNL A   1      46.358  29.015  29.148  1.00  0.00     0.023 A 
ATOM     66  C   UNL A   1      46.950  28.322  30.224  1.00  0.00     0.012 A 
ATOM     67  C   UNL A   1      47.058  29.127  27.932  1.00  0.00     0.148 A 
ATOM     68  C   UNL A   1      48.232  27.784  30.108  1.00  0.00     0.002 A 
ATOM     69  C   UNL A   1      48.318  28.551  27.808  1.00  0.00     0.091 A 
ATOM     70  F   UNL A   1      46.493  29.810  26.926  1.00  0.00    -0.205 F 
ATOM     71  C   UNL A   1      48.911  27.891  28.897  1.00  0.00     0.022 A 
BRANCH  69  72
ATOM     72  S   UNL A   1      49.239  28.567  26.266  1.00  0.00     0.127 S 
ATOM     73  O   UNL A   1      48.187  28.290  25.290  1.00  0.00    -0.237 OA
ATOM     74  O   UNL A   1      49.761  29.933  26.230  1.00  0.00    -0.237 OA
ATOM     75  O   UNL A   1      50.259  27.535  26.402  1.00  0.00    -0.744 OA
ENDBRANCH  69  72
ENDBRANCH  51  65
BRANCH  52  76
ATOM     76  C   UNL A   1      36.988  32.171  30.499  1.00  0.00     0.023 A 
ATOM     77  C   UNL A   1      36.464  32.108  31.804  1.00  0.00     0.012 A 
ATOM     78  C   UNL A   1      36.197  32.708  29.466  1.00  0.00     0.148 A 
ATOM     79  C   UNL A   1      35.167  32.547  32.073  1.00  0.00     0.002 A 
ATOM     80  C   UNL A   1      34.925  33.193  29.750  1.00  0.00     0.091 A 
ATOM     81  F   UNL A   1      36.710  32.749  28.228  1.00  0.00    -0.205 F 
ATOM     82  C   UNL A   1      34.403  33.100  31.050  1.00  0.00     0.022 A 
BRANCH  80  83
ATOM     83  S   UNL A   1      33.919  34.041  28.526  1.00  0.00     0.127 S 
ATOM     84  O   UNL A   1      33.452  32.930  27.701  1.00  0.00    -0.237 OA
ATOM     85  O   UNL A   1      32.892  34.666  29.360  1.00  0.00    -0.237 OA
ATOM     86  O   UNL A   1      34.813  34.986  27.871  1.00  0.00    -0.744 OA
ENDBRANCH  80  83
ENDBRANCH  52  76
BRANCH  64  87
ATOM     87  C   UNL A   1      43.255  35.126  31.398  1.00  0.00     0.023 A 
ATOM     88  C   UNL A   1      43.528  35.291  32.771  1.00  0.00     0.012 A 
ATOM     89  C   UNL A   1      43.465  36.205  30.516  1.00  0.00     0.148 A 
ATOM     90  C   UNL A   1      43.977  36.517  33.262  1.00  0.00     0.002 A 
ATOM     91  C   UNL A   1      43.955  37.409  31.006  1.00  0.00     0.091 A 
ATOM     92  F   UNL A   1      43.180  36.035  29.217  1.00  0.00    -0.205 F 
ATOM     93  C   UNL A   1      44.202  37.571  32.379  1.00  0.00     0.022 A 
BRANCH  91  94
ATOM     94  S   UNL A   1      44.364  38.788  29.928  1.00  0.00     0.127 S 
ATOM     95  O   UNL A   1      43.055  39.135  29.378  1.00  0.00    -0.237 OA
ATOM     96  O   UNL A   1      44.910  39.769  30.868  1.00  0.00    -0.237 OA
ATOM     97  O   UNL A   1      45.331  38.270  28.970  1.00  0.00    -0.744 OA
ENDBRANCH  91  94
ENDBRANCH  64  87
ENDBRANCH  38  39
ENDBRANCH  30  33
ENDBRANCH  28  29
ENDBRANCH  27  28
ENDBRANCH  26  27
ENDBRANCH   1  26
TORSDOF 19
ENDMDL
