MODEL 1
REMARK VINA RESULT:     -12.6      0.000      0.000
REMARK SMILES CC1=C2C(=O)N(C[C@H]3CCCO3)C(=O)N=C2S[C@@H]1C(=O)NCCCCNC(=O)c1ccc(-c2c3nc(c(-c4cccc(S(=O)(=O)[O-])c4F)c4ccc([nH]4)c(-c4cccc(S(=O)(=O)[O-])c4F)c4nc(c(-c5cccc(S(=O)(=O)[O-])c5F)c5ccc2[nH]5)C=C4)C=C3)cc1
REMARK SMILES IDX 24 1 23 2 22 3 21 4 19 5 20 6 18 8 1 9 2 10 3 11 4 12 16 13
REMARK SMILES IDX 17 14 5 15 6 16 15 17 13 18 14 19 7 20 8 21 9 22 12 23 10 24
REMARK SMILES IDX 11 25 25 26 26 27 27 28 28 30 29 31 30 32 91 33 31 34 90 35
REMARK SMILES IDX 32 36 33 37 34 38 84 39 35 40 89 41 83 42 85 43 36 44 88 45
REMARK SMILES IDX 82 46 81 47 37 49 69 50 49 51 68 52 50 53 53 54 67 55 86 56
REMARK SMILES IDX 51 57 52 58 66 60 87 61 54 62 38 63 39 64 47 65 40 66 42 67
REMARK SMILES IDX 48 68 41 69 43 70 44 71 45 72 46 73 70 74 71 75 79 76 72 77
REMARK SMILES IDX 74 78 80 79 73 80 75 81 76 82 77 83 78 84 55 85 56 86 64 87
REMARK SMILES IDX 57 88 59 89 65 90 58 91 60 92 61 93 62 94 63 95
REMARK H PARENT 21 7 26 29 85 48 53 59
REMARK Flexibility Score: inf
ROOT
ATOM      1  C   UNL A   1      31.965  29.957  25.383  1.00  0.00     0.023 C 
ENDROOT
BRANCH   1   2
ATOM      2  C   UNL A   1      33.176  29.207  24.829  1.00  0.00     0.023 C 
BRANCH   2   3
ATOM      3  C   UNL A   1      33.121  28.951  23.327  1.00  0.00     0.116 C 
BRANCH   3   4
ATOM      4  N   UNL A   1      31.784  29.133  22.793  1.00  0.00    -0.355 N 
ATOM      5  C   UNL A   1      30.843  28.228  22.402  1.00  0.00     0.237 C 
ATOM      6  O   UNL A   1      29.762  28.671  22.000  1.00  0.00    -0.273 OA
ATOM      7  H   UNL A   1      31.510  30.074  22.697  1.00  0.00     0.163 HD
BRANCH   5   8
ATOM      8  C   UNL A   1      31.046  26.710  22.505  1.00  0.00     0.169 C 
ATOM      9  C   UNL A   1      30.499  26.548  25.018  1.00  0.00     0.042 C 
ATOM     10  C   UNL A   1      31.413  26.219  23.879  1.00  0.00    -0.035 C 
ATOM     11  C   UNL A   1      32.537  25.493  23.947  1.00  0.00     0.073 C 
ATOM     12  C   UNL A   1      33.223  24.924  25.104  1.00  0.00     0.264 C 
ATOM     13  C   UNL A   1      33.159  25.249  22.660  1.00  0.00     0.116 C 
ATOM     14  S   UNL A   1      32.360  26.116  21.385  1.00  0.00    -0.087 SA
ATOM     15  O   UNL A   1      33.154  25.452  26.205  1.00  0.00    -0.268 OA
ATOM     16  N   UNL A   1      33.977  23.826  24.769  1.00  0.00    -0.256 N 
ATOM     17  N   UNL A   1      34.167  24.483  22.467  1.00  0.00    -0.186 NA
ATOM     18  C   UNL A   1      34.630  23.741  23.530  1.00  0.00     0.351 C 
ATOM     19  O   UNL A   1      35.592  22.991  23.376  1.00  0.00    -0.246 OA
BRANCH  16  20
ATOM     20  C   UNL A   1      34.109  22.692  25.684  1.00  0.00     0.163 C 
BRANCH  20  21
ATOM     21  C   UNL A   1      32.905  21.792  26.027  1.00  0.00     0.138 C 
ATOM     22  C   UNL A   1      31.910  21.492  24.911  1.00  0.00     0.036 C 
ATOM     23  O   UNL A   1      33.459  20.485  26.349  1.00  0.00    -0.376 OA
ATOM     24  C   UNL A   1      32.553  20.362  24.154  1.00  0.00     0.031 C 
ATOM     25  C   UNL A   1      33.223  19.581  25.257  1.00  0.00     0.160 C 
ENDBRANCH  20  21
ENDBRANCH  16  20
ENDBRANCH   5   8
ENDBRANCH   3   4
ENDBRANCH   2   3
ENDBRANCH   1   2
BRANCH   1  26
ATOM     26  C   UNL A   1      32.108  30.457  26.818  1.00  0.00     0.116 C 
BRANCH  26  27
ATOM     27  N   UNL A   1      32.158  31.909  26.922  1.00  0.00    -0.352 N 
ATOM     28  C   UNL A   1      33.155  32.692  27.455  1.00  0.00     0.251 C 
ATOM     29  H   UNL A   1      31.378  32.393  26.566  1.00  0.00     0.163 HD
ATOM     30  O   UNL A   1      33.006  33.905  27.558  1.00  0.00    -0.269 OA
BRANCH  28  31
ATOM     31  C   UNL A   1      34.394  32.047  27.937  1.00  0.00     0.039 A 
ATOM     32  C   UNL A   1      35.541  32.829  28.099  1.00  0.00     0.014 A 
ATOM     33  C   UNL A   1      34.399  30.694  28.286  1.00  0.00     0.014 A 
ATOM     34  C   UNL A   1      36.675  32.268  28.689  1.00  0.00     0.010 A 
ATOM     35  C   UNL A   1      35.509  30.157  28.928  1.00  0.00     0.010 A 
ATOM     36  C   UNL A   1      36.654  30.940  29.145  1.00  0.00    -0.014 A 
BRANCH  36  37
ATOM     37  C   UNL A   1      37.797  30.361  29.894  1.00  0.00     0.031 A 
ATOM     38  C   UNL A   1      38.088  30.807  31.300  1.00  0.00     0.074 A 
ATOM     39  C   UNL A   1      38.646  29.526  29.261  1.00  0.00     0.049 A 
ATOM     40  N   UNL A   1      39.087  30.479  32.076  1.00  0.00    -0.248 NA
ATOM     41  C   UNL A   1      37.152  31.773  31.901  1.00  0.00     0.031 C 
ATOM     42  C   UNL A   1      38.529  29.099  27.863  1.00  0.00     0.029 A 
ATOM     43  N   UNL A   1      39.799  28.920  29.695  1.00  0.00    -0.354 N 
ATOM     44  C   UNL A   1      38.927  31.227  33.235  1.00  0.00     0.074 A 
ATOM     45  C   UNL A   1      37.746  32.041  33.055  1.00  0.00     0.031 C 
ATOM     46  C   UNL A   1      39.572  28.313  27.555  1.00  0.00     0.029 A 
ATOM     47  C   UNL A   1      40.441  28.193  28.721  1.00  0.00     0.049 A 
ATOM     48  H   UNL A   1      40.133  28.998  30.618  1.00  0.00     0.167 HD
ATOM     49  C   UNL A   1      39.681  31.215  34.359  1.00  0.00     0.034 A 
ATOM     50  C   UNL A   1      41.605  27.513  28.759  1.00  0.00     0.034 A 
ATOM     51  C   UNL A   1      40.812  30.350  34.563  1.00  0.00     0.049 A 
ATOM     52  C   UNL A   1      42.374  27.451  30.049  1.00  0.00     0.074 A 
ATOM     53  C   UNL A   1      41.556  30.168  35.715  1.00  0.00     0.029 A 
ATOM     54  N   UNL A   1      41.363  29.528  33.594  1.00  0.00    -0.354 N 
ATOM     55  N   UNL A   1      42.094  28.009  31.202  1.00  0.00    -0.248 NA
ATOM     56  C   UNL A   1      43.599  26.637  30.059  1.00  0.00     0.031 C 
ATOM     57  C   UNL A   1      42.565  29.240  35.439  1.00  0.00     0.029 A 
ATOM     58  C   UNL A   1      42.445  28.842  34.117  1.00  0.00     0.049 A 
ATOM     59  H   UNL A   1      41.035  29.445  32.670  1.00  0.00     0.167 HD
ATOM     60  C   UNL A   1      43.089  27.592  32.079  1.00  0.00     0.074 A 
ATOM     61  C   UNL A   1      43.965  26.714  31.331  1.00  0.00     0.031 C 
ATOM     62  C   UNL A   1      43.272  27.924  33.380  1.00  0.00     0.034 A 
BRANCH  49  63
ATOM     63  C   UNL A   1      39.267  32.111  35.493  1.00  0.00     0.023 A 
ATOM     64  C   UNL A   1      38.433  31.599  36.507  1.00  0.00     0.012 A 
ATOM     65  C   UNL A   1      39.764  33.425  35.601  1.00  0.00     0.148 A 
ATOM     66  C   UNL A   1      38.080  32.387  37.602  1.00  0.00     0.002 A 
ATOM     67  C   UNL A   1      39.438  34.192  36.714  1.00  0.00     0.091 A 
ATOM     68  F   UNL A   1      40.537  33.900  34.615  1.00  0.00    -0.205 F 
ATOM     69  C   UNL A   1      38.592  33.678  37.710  1.00  0.00     0.022 A 
BRANCH  67  70
ATOM     70  S   UNL A   1      40.100  35.841  36.981  1.00  0.00     0.127 S 
ATOM     71  O   UNL A   1      39.448  36.220  38.234  1.00  0.00    -0.237 OA
ATOM     72  O   UNL A   1      41.535  35.583  37.096  1.00  0.00    -0.237 OA
ATOM     73  O   UNL A   1      39.714  36.621  35.814  1.00  0.00    -0.744 OA
ENDBRANCH  67  70
ENDBRANCH  49  63
BRANCH  50  74
ATOM     74  C   UNL A   1      42.072  26.775  27.553  1.00  0.00     0.023 A 
ATOM     75  C   UNL A   1      42.766  27.472  26.545  1.00  0.00     0.012 A 
ATOM     76  C   UNL A   1      41.866  25.390  27.411  1.00  0.00     0.148 A 
ATOM     77  C   UNL A   1      43.219  26.808  25.404  1.00  0.00     0.002 A 
ATOM     78  C   UNL A   1      42.366  24.725  26.296  1.00  0.00     0.091 A 
ATOM     79  F   UNL A   1      41.187  24.743  28.370  1.00  0.00    -0.205 F 
ATOM     80  C   UNL A   1      43.030  25.435  25.284  1.00  0.00     0.022 A 
BRANCH  78  81
ATOM     81  S   UNL A   1      42.278  22.937  26.146  1.00  0.00     0.127 S 
ATOM     82  O   UNL A   1      40.840  22.699  26.223  1.00  0.00    -0.237 OA
ATOM     83  O   UNL A   1      42.871  22.703  24.828  1.00  0.00    -0.237 OA
ATOM     84  O   UNL A   1      43.075  22.424  27.252  1.00  0.00    -0.744 OA
ENDBRANCH  78  81
ENDBRANCH  50  74
BRANCH  62  85
ATOM     85  C   UNL A   1      44.455  27.328  34.094  1.00  0.00     0.023 A 
ATOM     86  C   UNL A   1      45.693  27.999  34.058  1.00  0.00     0.012 A 
ATOM     87  C   UNL A   1      44.322  26.160  34.868  1.00  0.00     0.148 A 
ATOM     88  C   UNL A   1      46.788  27.503  34.765  1.00  0.00     0.002 A 
ATOM     89  C   UNL A   1      45.406  25.695  35.604  1.00  0.00     0.091 A 
ATOM     90  F   UNL A   1      43.140  25.525  34.872  1.00  0.00    -0.205 F 
ATOM     91  C   UNL A   1      46.641  26.360  35.547  1.00  0.00     0.022 A 
BRANCH  89  92
ATOM     92  S   UNL A   1      45.276  24.283  36.707  1.00  0.00     0.127 S 
ATOM     93  O   UNL A   1      44.291  24.751  37.679  1.00  0.00    -0.237 OA
ATOM     94  O   UNL A   1      44.798  23.227  35.814  1.00  0.00    -0.237 OA
ATOM     95  O   UNL A   1      46.619  24.063  37.228  1.00  0.00    -0.744 OA
ENDBRANCH  89  92
ENDBRANCH  62  85
ENDBRANCH  36  37
ENDBRANCH  28  31
ENDBRANCH  26  27
ENDBRANCH   1  26
TORSDOF 16
ENDMDL
MODEL 2
REMARK VINA RESULT:     -12.5      4.753     10.174
REMARK SMILES CC1=C2C(=O)N(C[C@H]3CCCO3)C(=O)N=C2S[C@@H]1C(=O)NCCCCNC(=O)c1ccc(-c2c3nc(c(-c4cccc(S(=O)(=O)[O-])c4F)c4ccc([nH]4)c(-c4cccc(S(=O)(=O)[O-])c4F)c4nc(c(-c5cccc(S(=O)(=O)[O-])c5F)c5ccc2[nH]5)C=C4)C=C3)cc1
REMARK SMILES IDX 24 1 23 2 22 3 21 4 19 5 20 6 18 8 1 9 2 10 3 11 4 12 16 13
REMARK SMILES IDX 17 14 5 15 6 16 15 17 13 18 14 19 7 20 8 21 9 22 12 23 10 24
REMARK SMILES IDX 11 25 25 26 26 27 27 28 28 30 29 31 30 32 91 33 31 34 90 35
REMARK SMILES IDX 32 36 33 37 34 38 84 39 35 40 89 41 83 42 85 43 36 44 88 45
REMARK SMILES IDX 82 46 81 47 37 49 69 50 49 51 68 52 50 53 53 54 67 55 86 56
REMARK SMILES IDX 51 57 52 58 66 60 87 61 54 62 38 63 39 64 47 65 40 66 42 67
REMARK SMILES IDX 48 68 41 69 43 70 44 71 45 72 46 73 70 74 71 75 79 76 72 77
REMARK SMILES IDX 74 78 80 79 73 80 75 81 76 82 77 83 78 84 55 85 56 86 64 87
REMARK SMILES IDX 57 88 59 89 65 90 58 91 60 92 61 93 62 94 63 95
REMARK H PARENT 21 7 26 29 85 48 53 59
REMARK Flexibility Score: inf
ROOT
ATOM      1  C   UNL A   1      35.914  21.149  25.426  1.00  0.00     0.023 C 
ENDROOT
BRANCH   1   2
ATOM      2  C   UNL A   1      35.325  22.042  26.518  1.00  0.00     0.023 C 
BRANCH   2   3
ATOM      3  C   UNL A   1      34.001  21.544  27.086  1.00  0.00     0.116 C 
BRANCH   3   4
ATOM      4  N   UNL A   1      33.406  20.512  26.258  1.00  0.00    -0.355 N 
ATOM      5  C   UNL A   1      32.407  20.569  25.332  1.00  0.00     0.237 C 
ATOM      6  O   UNL A   1      32.113  19.521  24.748  1.00  0.00    -0.273 OA
ATOM      7  H   UNL A   1      33.791  19.615  26.387  1.00  0.00     0.163 HD
BRANCH   5   8
ATOM      8  C   UNL A   1      31.696  21.873  24.945  1.00  0.00     0.169 C 
ATOM      9  C   UNL A   1      33.501  22.669  23.288  1.00  0.00     0.042 C 
ATOM     10  C   UNL A   1      32.610  22.962  24.453  1.00  0.00    -0.035 C 
ATOM     11  C   UNL A   1      32.514  24.130  25.106  1.00  0.00     0.073 C 
ATOM     12  C   UNL A   1      33.282  25.361  24.950  1.00  0.00     0.264 C 
ATOM     13  C   UNL A   1      31.485  24.150  26.127  1.00  0.00     0.116 C 
ATOM     14  S   UNL A   1      30.762  22.586  26.344  1.00  0.00    -0.087 SA
ATOM     15  O   UNL A   1      34.442  25.342  24.564  1.00  0.00    -0.268 OA
ATOM     16  N   UNL A   1      32.574  26.466  25.358  1.00  0.00    -0.256 N 
ATOM     17  N   UNL A   1      31.132  25.187  26.790  1.00  0.00    -0.186 NA
ATOM     18  C   UNL A   1      31.678  26.400  26.437  1.00  0.00     0.351 C 
ATOM     19  O   UNL A   1      31.355  27.415  27.049  1.00  0.00    -0.246 OA
BRANCH  16  20
ATOM     20  C   UNL A   1      32.712  27.749  24.669  1.00  0.00     0.163 C 
BRANCH  20  21
ATOM     21  C   UNL A   1      32.094  27.982  23.276  1.00  0.00     0.138 C 
ATOM     22  C   UNL A   1      31.176  26.899  22.721  1.00  0.00     0.036 C 
ATOM     23  O   UNL A   1      31.215  29.135  23.414  1.00  0.00    -0.376 OA
ATOM     24  C   UNL A   1      29.850  27.188  23.370  1.00  0.00     0.031 C 
ATOM     25  C   UNL A   1      29.846  28.695  23.427  1.00  0.00     0.160 C 
ENDBRANCH  20  21
ENDBRANCH  16  20
ENDBRANCH   5   8
ENDBRANCH   3   4
ENDBRANCH   2   3
ENDBRANCH   1   2
BRANCH   1  26
ATOM     26  C   UNL A   1      37.352  21.467  25.028  1.00  0.00     0.116 C 
BRANCH  26  27
ATOM     27  N   UNL A   1      38.306  20.444  25.436  1.00  0.00    -0.352 N 
ATOM     28  C   UNL A   1      39.485  20.604  26.124  1.00  0.00     0.251 C 
ATOM     29  H   UNL A   1      38.077  19.520  25.188  1.00  0.00     0.163 HD
ATOM     30  O   UNL A   1      40.232  19.648  26.310  1.00  0.00    -0.269 OA
BRANCH  28  31
ATOM     31  C   UNL A   1      39.861  21.950  26.603  1.00  0.00     0.039 A 
ATOM     32  C   UNL A   1      40.872  22.067  27.561  1.00  0.00     0.014 A 
ATOM     33  C   UNL A   1      39.260  23.089  26.061  1.00  0.00     0.014 A 
ATOM     34  C   UNL A   1      41.337  23.334  27.917  1.00  0.00     0.010 A 
ATOM     35  C   UNL A   1      39.767  24.346  26.372  1.00  0.00     0.010 A 
ATOM     36  C   UNL A   1      40.816  24.480  27.295  1.00  0.00    -0.014 A 
BRANCH  36  37
ATOM     37  C   UNL A   1      41.384  25.827  27.556  1.00  0.00     0.031 A 
ATOM     38  C   UNL A   1      42.800  26.143  27.162  1.00  0.00     0.074 A 
ATOM     39  C   UNL A   1      40.662  26.722  28.261  1.00  0.00     0.049 A 
ATOM     40  N   UNL A   1      43.491  27.230  27.385  1.00  0.00    -0.248 NA
ATOM     41  C   UNL A   1      43.547  25.090  26.454  1.00  0.00     0.031 C 
ATOM     42  C   UNL A   1      39.314  26.494  28.790  1.00  0.00     0.029 A 
ATOM     43  N   UNL A   1      40.976  27.986  28.692  1.00  0.00    -0.354 N 
ATOM     44  C   UNL A   1      44.763  26.979  26.887  1.00  0.00     0.074 A 
ATOM     45  C   UNL A   1      44.755  25.629  26.366  1.00  0.00     0.031 C 
ATOM     46  C   UNL A   1      38.925  27.576  29.482  1.00  0.00     0.029 A 
ATOM     47  C   UNL A   1      39.997  28.566  29.464  1.00  0.00     0.049 A 
ATOM     48  H   UNL A   1      41.823  28.436  28.468  1.00  0.00     0.167 HD
ATOM     49  C   UNL A   1      45.832  27.807  26.842  1.00  0.00     0.034 A 
ATOM     50  C   UNL A   1      39.968  29.757  30.094  1.00  0.00     0.034 A 
ATOM     51  C   UNL A   1      45.814  29.172  27.293  1.00  0.00     0.049 A 
ATOM     52  C   UNL A   1      41.140  30.688  29.953  1.00  0.00     0.074 A 
ATOM     53  C   UNL A   1      46.804  30.130  27.166  1.00  0.00     0.029 A 
ATOM     54  N   UNL A   1      44.758  29.771  27.959  1.00  0.00    -0.354 N 
ATOM     55  N   UNL A   1      42.263  30.505  29.301  1.00  0.00    -0.248 NA
ATOM     56  C   UNL A   1      41.030  32.005  30.600  1.00  0.00     0.031 C 
ATOM     57  C   UNL A   1      46.348  31.309  27.765  1.00  0.00     0.029 A 
ATOM     58  C   UNL A   1      45.073  31.084  28.260  1.00  0.00     0.049 A 
ATOM     59  H   UNL A   1      43.909  29.327  28.186  1.00  0.00     0.167 HD
ATOM     60  C   UNL A   1      42.980  31.689  29.435  1.00  0.00     0.074 A 
ATOM     61  C   UNL A   1      42.153  32.593  30.209  1.00  0.00     0.031 C 
ATOM     62  C   UNL A   1      44.218  31.993  28.977  1.00  0.00     0.034 A 
BRANCH  49  63
ATOM     63  C   UNL A   1      47.097  27.289  26.215  1.00  0.00     0.023 A 
ATOM     64  C   UNL A   1      47.372  27.592  24.867  1.00  0.00     0.012 A 
ATOM     65  C   UNL A   1      48.047  26.578  26.974  1.00  0.00     0.148 A 
ATOM     66  C   UNL A   1      48.564  27.178  24.275  1.00  0.00     0.002 A 
ATOM     67  C   UNL A   1      49.249  26.199  26.387  1.00  0.00     0.091 A 
ATOM     68  F   UNL A   1      47.755  26.280  28.248  1.00  0.00    -0.205 F 
ATOM     69  C   UNL A   1      49.506  26.492  25.038  1.00  0.00     0.022 A 
BRANCH  67  70
ATOM     70  S   UNL A   1      50.555  25.372  27.303  1.00  0.00     0.127 S 
ATOM     71  O   UNL A   1      50.911  26.390  28.291  1.00  0.00    -0.237 OA
ATOM     72  O   UNL A   1      49.859  24.209  27.851  1.00  0.00    -0.237 OA
ATOM     73  O   UNL A   1      51.590  25.057  26.328  1.00  0.00    -0.744 OA
ENDBRANCH  67  70
ENDBRANCH  49  63
BRANCH  50  74
ATOM     74  C   UNL A   1      38.755  30.165  30.856  1.00  0.00     0.023 A 
ATOM     75  C   UNL A   1      38.656  29.836  32.222  1.00  0.00     0.012 A 
ATOM     76  C   UNL A   1      37.717  30.899  30.252  1.00  0.00     0.148 A 
ATOM     77  C   UNL A   1      37.534  30.206  32.964  1.00  0.00     0.002 A 
ATOM     78  C   UNL A   1      36.626  31.309  31.010  1.00  0.00     0.091 A 
ATOM     79  F   UNL A   1      37.817  31.188  28.945  1.00  0.00    -0.205 F 
ATOM     80  C   UNL A   1      36.525  30.951  32.362  1.00  0.00     0.022 A 
BRANCH  78  81
ATOM     81  S   UNL A   1      35.359  32.388  30.331  1.00  0.00     0.127 S 
ATOM     82  O   UNL A   1      34.408  32.468  31.435  1.00  0.00    -0.237 OA
ATOM     83  O   UNL A   1      36.104  33.620  30.069  1.00  0.00    -0.237 OA
ATOM     84  O   UNL A   1      34.892  31.712  29.127  1.00  0.00    -0.744 OA
ENDBRANCH  78  81
ENDBRANCH  50  74
BRANCH  62  85
ATOM     85  C   UNL A   1      44.761  33.363  29.281  1.00  0.00     0.023 A 
ATOM     86  C   UNL A   1      45.464  33.575  30.483  1.00  0.00     0.012 A 
ATOM     87  C   UNL A   1      44.651  34.410  28.347  1.00  0.00     0.148 A 
ATOM     88  C   UNL A   1      46.034  34.818  30.759  1.00  0.00     0.002 A 
ATOM     89  C   UNL A   1      45.257  35.633  28.610  1.00  0.00     0.091 A 
ATOM     90  F   UNL A   1      43.959  34.193  27.219  1.00  0.00    -0.205 F 
ATOM     91  C   UNL A   1      45.942  35.841  29.819  1.00  0.00     0.022 A 
BRANCH  89  92
ATOM     92  S   UNL A   1      45.264  36.974  27.414  1.00  0.00     0.127 S 
ATOM     93  O   UNL A   1      45.944  38.033  28.155  1.00  0.00    -0.237 OA
ATOM     94  O   UNL A   1      46.039  36.407  26.309  1.00  0.00    -0.237 OA
ATOM     95  O   UNL A   1      43.864  37.226  27.096  1.00  0.00    -0.744 OA
ENDBRANCH  89  92
ENDBRANCH  62  85
ENDBRANCH  36  37
ENDBRANCH  28  31
ENDBRANCH  26  27
ENDBRANCH   1  26
TORSDOF 16
ENDMDL
MODEL 3
REMARK VINA RESULT:     -12.4      4.974     10.299
REMARK SMILES CC1=C2C(=O)N(C[C@H]3CCCO3)C(=O)N=C2S[C@@H]1C(=O)NCCCCNC(=O)c1ccc(-c2c3nc(c(-c4cccc(S(=O)(=O)[O-])c4F)c4ccc([nH]4)c(-c4cccc(S(=O)(=O)[O-])c4F)c4nc(c(-c5cccc(S(=O)(=O)[O-])c5F)c5ccc2[nH]5)C=C4)C=C3)cc1
REMARK SMILES IDX 24 1 23 2 22 3 21 4 19 5 20 6 18 8 1 9 2 10 3 11 4 12 16 13
REMARK SMILES IDX 17 14 5 15 6 16 15 17 13 18 14 19 7 20 8 21 9 22 12 23 10 24
REMARK SMILES IDX 11 25 25 26 26 27 27 28 28 30 29 31 30 32 91 33 31 34 90 35
REMARK SMILES IDX 32 36 33 37 34 38 84 39 35 40 89 41 83 42 85 43 36 44 88 45
REMARK SMILES IDX 82 46 81 47 37 49 69 50 49 51 68 52 50 53 53 54 67 55 86 56
REMARK SMILES IDX 51 57 52 58 66 60 87 61 54 62 38 63 39 64 47 65 40 66 42 67
REMARK SMILES IDX 48 68 41 69 43 70 44 71 45 72 46 73 70 74 71 75 79 76 72 77
REMARK SMILES IDX 74 78 80 79 73 80 75 81 76 82 77 83 78 84 55 85 56 86 64 87
REMARK SMILES IDX 57 88 59 89 65 90 58 91 60 92 61 93 62 94 63 95
REMARK H PARENT 21 7 26 29 85 48 53 59
REMARK Flexibility Score: inf
ROOT
ATOM      1  C   UNL A   1      36.361  21.130  25.495  1.00  0.00     0.023 C 
ENDROOT
BRANCH   1   2
ATOM      2  C   UNL A   1      35.537  22.097  26.344  1.00  0.00     0.023 C 
BRANCH   2   3
ATOM      3  C   UNL A   1      34.240  21.507  26.884  1.00  0.00     0.116 C 
BRANCH   3   4
ATOM      4  N   UNL A   1      33.714  20.466  26.020  1.00  0.00    -0.355 N 
ATOM      5  C   UNL A   1      32.716  20.490  25.091  1.00  0.00     0.237 C 
ATOM      6  O   UNL A   1      32.491  19.444  24.473  1.00  0.00    -0.273 OA
ATOM      7  H   UNL A   1      34.154  19.592  26.124  1.00  0.00     0.163 HD
BRANCH   5   8
ATOM      8  C   UNL A   1      31.926  21.758  24.742  1.00  0.00     0.169 C 
ATOM      9  C   UNL A   1      33.692  22.727  23.135  1.00  0.00     0.042 C 
ATOM     10  C   UNL A   1      32.772  22.921  24.299  1.00  0.00    -0.035 C 
ATOM     11  C   UNL A   1      32.595  24.055  24.991  1.00  0.00     0.073 C 
ATOM     12  C   UNL A   1      33.282  25.339  24.887  1.00  0.00     0.264 C 
ATOM     13  C   UNL A   1      31.556  23.973  26.000  1.00  0.00     0.116 C 
ATOM     14  S   UNL A   1      30.934  22.359  26.153  1.00  0.00    -0.087 SA
ATOM     15  O   UNL A   1      34.445  25.408  24.515  1.00  0.00    -0.268 OA
ATOM     16  N   UNL A   1      32.501  26.380  25.325  1.00  0.00    -0.256 N 
ATOM     17  N   UNL A   1      31.130  24.961  26.694  1.00  0.00    -0.186 NA
ATOM     18  C   UNL A   1      31.600  26.218  26.390  1.00  0.00     0.351 C 
ATOM     19  O   UNL A   1      31.206  27.188  27.033  1.00  0.00    -0.246 OA
BRANCH  16  20
ATOM     20  C   UNL A   1      32.562  27.693  24.683  1.00  0.00     0.163 C 
BRANCH  20  21
ATOM     21  C   UNL A   1      31.965  27.930  23.282  1.00  0.00     0.138 C 
ATOM     22  C   UNL A   1      30.866  26.982  22.814  1.00  0.00     0.036 C 
ATOM     23  O   UNL A   1      31.295  29.221  23.343  1.00  0.00    -0.376 OA
ATOM     24  C   UNL A   1      29.621  27.536  23.449  1.00  0.00     0.031 C 
ATOM     25  C   UNL A   1      29.873  29.023  23.398  1.00  0.00     0.160 C 
ENDBRANCH  20  21
ENDBRANCH  16  20
ENDBRANCH   5   8
ENDBRANCH   3   4
ENDBRANCH   2   3
ENDBRANCH   1   2
BRANCH   1  26
ATOM     26  C   UNL A   1      37.798  21.563  25.221  1.00  0.00     0.116 C 
BRANCH  26  27
ATOM     27  N   UNL A   1      38.791  20.607  25.692  1.00  0.00    -0.352 N 
ATOM     28  C   UNL A   1      39.936  20.852  26.414  1.00  0.00     0.251 C 
ATOM     29  H   UNL A   1      38.621  19.664  25.465  1.00  0.00     0.163 HD
ATOM     30  O   UNL A   1      40.726  19.944  26.654  1.00  0.00    -0.269 OA
BRANCH  28  31
ATOM     31  C   UNL A   1      40.221  22.230  26.863  1.00  0.00     0.039 A 
ATOM     32  C   UNL A   1      41.120  22.423  27.915  1.00  0.00     0.014 A 
ATOM     33  C   UNL A   1      39.650  23.322  26.205  1.00  0.00     0.014 A 
ATOM     34  C   UNL A   1      41.510  23.720  28.255  1.00  0.00     0.010 A 
ATOM     35  C   UNL A   1      40.087  24.608  26.506  1.00  0.00     0.010 A 
ATOM     36  C   UNL A   1      41.027  24.818  27.526  1.00  0.00    -0.014 A 
BRANCH  36  37
ATOM     37  C   UNL A   1      41.526  26.194  27.778  1.00  0.00     0.031 A 
ATOM     38  C   UNL A   1      42.940  26.564  27.427  1.00  0.00     0.074 A 
ATOM     39  C   UNL A   1      40.743  27.069  28.440  1.00  0.00     0.049 A 
ATOM     40  N   UNL A   1      43.575  27.684  27.651  1.00  0.00    -0.248 NA
ATOM     41  C   UNL A   1      43.756  25.532  26.766  1.00  0.00     0.031 C 
ATOM     42  C   UNL A   1      39.388  26.793  28.927  1.00  0.00     0.029 A 
ATOM     43  N   UNL A   1      40.986  28.354  28.856  1.00  0.00    -0.354 N 
ATOM     44  C   UNL A   1      44.874  27.480  27.202  1.00  0.00     0.074 A 
ATOM     45  C   UNL A   1      44.942  26.122  26.709  1.00  0.00     0.031 C 
ATOM     46  C   UNL A   1      38.928  27.869  29.583  1.00  0.00     0.029 A 
ATOM     47  C   UNL A   1      39.956  28.905  29.582  1.00  0.00     0.049 A 
ATOM     48  H   UNL A   1      41.820  28.837  28.652  1.00  0.00     0.167 HD
ATOM     49  C   UNL A   1      45.907  28.353  27.176  1.00  0.00     0.034 A 
ATOM     50  C   UNL A   1      39.854  30.106  30.186  1.00  0.00     0.034 A 
ATOM     51  C   UNL A   1      45.814  29.724  27.598  1.00  0.00     0.049 A 
ATOM     52  C   UNL A   1      40.989  31.084  30.066  1.00  0.00     0.074 A 
ATOM     53  C   UNL A   1      46.766  30.723  27.486  1.00  0.00     0.029 A 
ATOM     54  N   UNL A   1      44.710  30.289  28.216  1.00  0.00    -0.354 N 
ATOM     55  N   UNL A   1      42.141  30.939  29.457  1.00  0.00    -0.248 NA
ATOM     56  C   UNL A   1      40.799  32.407  30.681  1.00  0.00     0.031 C 
ATOM     57  C   UNL A   1      46.238  31.892  28.045  1.00  0.00     0.029 A 
ATOM     58  C   UNL A   1      44.958  31.621  28.500  1.00  0.00     0.049 A 
ATOM     59  H   UNL A   1      43.874  29.813  28.423  1.00  0.00     0.167 HD
ATOM     60  C   UNL A   1      42.800  32.155  29.590  1.00  0.00     0.074 A 
ATOM     61  C   UNL A   1      41.908  33.036  30.317  1.00  0.00     0.031 C 
ATOM     62  C   UNL A   1      44.039  32.504  29.169  1.00  0.00     0.034 A 
BRANCH  49  63
ATOM     63  C   UNL A   1      47.214  27.880  26.604  1.00  0.00     0.023 A 
ATOM     64  C   UNL A   1      48.203  27.373  27.469  1.00  0.00     0.012 A 
ATOM     65  C   UNL A   1      47.434  27.861  25.212  1.00  0.00     0.148 A 
ATOM     66  C   UNL A   1      49.401  26.872  26.963  1.00  0.00     0.002 A 
ATOM     67  C   UNL A   1      48.617  27.326  24.712  1.00  0.00     0.091 A 
ATOM     68  F   UNL A   1      46.491  28.370  24.407  1.00  0.00    -0.205 F 
ATOM     69  C   UNL A   1      49.602  26.838  25.586  1.00  0.00     0.022 A 
BRANCH  67  70
ATOM     70  S   UNL A   1      48.943  27.175  22.952  1.00  0.00     0.127 S 
ATOM     71  O   UNL A   1      50.405  27.139  22.926  1.00  0.00    -0.237 OA
ATOM     72  O   UNL A   1      48.296  25.905  22.626  1.00  0.00    -0.237 OA
ATOM     73  O   UNL A   1      48.335  28.344  22.331  1.00  0.00    -0.744 OA
ENDBRANCH  67  70
ENDBRANCH  49  63
BRANCH  50  74
ATOM     74  C   UNL A   1      38.598  30.473  30.897  1.00  0.00     0.023 A 
ATOM     75  C   UNL A   1      38.444  30.118  32.251  1.00  0.00     0.012 A 
ATOM     76  C   UNL A   1      37.574  31.197  30.258  1.00  0.00     0.148 A 
ATOM     77  C   UNL A   1      37.281  30.451  32.946  1.00  0.00     0.002 A 
ATOM     78  C   UNL A   1      36.440  31.570  30.971  1.00  0.00     0.091 A 
ATOM     79  F   UNL A   1      37.727  31.511  28.963  1.00  0.00    -0.205 F 
ATOM     80  C   UNL A   1      36.284  31.185  32.311  1.00  0.00     0.022 A 
BRANCH  78  81
ATOM     81  S   UNL A   1      35.182  32.634  30.253  1.00  0.00     0.127 S 
ATOM     82  O   UNL A   1      34.675  31.807  29.163  1.00  0.00    -0.237 OA
ATOM     83  O   UNL A   1      34.253  32.818  31.369  1.00  0.00    -0.237 OA
ATOM     84  O   UNL A   1      35.890  33.847  29.866  1.00  0.00    -0.744 OA
ENDBRANCH  78  81
ENDBRANCH  50  74
BRANCH  62  85
ATOM     85  C   UNL A   1      44.511  33.902  29.464  1.00  0.00     0.023 A 
ATOM     86  C   UNL A   1      45.205  34.158  30.663  1.00  0.00     0.012 A 
ATOM     87  C   UNL A   1      44.347  34.936  28.523  1.00  0.00     0.148 A 
ATOM     88  C   UNL A   1      45.710  35.430  30.930  1.00  0.00     0.002 A 
ATOM     89  C   UNL A   1      44.890  36.190  28.778  1.00  0.00     0.091 A 
ATOM     90  F   UNL A   1      43.664  34.677  27.397  1.00  0.00    -0.205 F 
ATOM     91  C   UNL A   1      45.564  36.442  29.983  1.00  0.00     0.022 A 
BRANCH  89  92
ATOM     92  S   UNL A   1      44.825  37.522  27.573  1.00  0.00     0.127 S 
ATOM     93  O   UNL A   1      45.209  38.676  28.381  1.00  0.00    -0.237 OA
ATOM     94  O   UNL A   1      45.824  37.106  26.588  1.00  0.00    -0.237 OA
ATOM     95  O   UNL A   1      43.457  37.533  27.069  1.00  0.00    -0.744 OA
ENDBRANCH  89  92
ENDBRANCH  62  85
ENDBRANCH  36  37
ENDBRANCH  28  31
ENDBRANCH  26  27
ENDBRANCH   1  26
TORSDOF 16
ENDMDL
