MODEL 1
REMARK VINA RESULT:     -12.5      0.000      0.000
REMARK SMILES O=C(NCCCCNC(=O)[C@H]1CC[C@@H]2CCCC[C@@H]2N1C(=O)NC1CC1)c1ccc(-c2c3nc(c(-c4cccc(S(=O)(=O)[O-])c4F)c4ccc([nH]4)c(-c4cccc(S(=O)(=O)[O-])c4F)c4nc(c(-c5cccc(S(=O)(=O)[O-])c5F)c5ccc2[nH]5)C=C4)C=C3)cc1
REMARK SMILES IDX 5 1 4 2 3 3 1 4 2 5 27 7 28 8 89 9 29 10 88 11 30 12 31 13
REMARK SMILES IDX 32 14 82 15 33 16 87 17 81 18 83 19 34 20 86 21 80 22 79 23
REMARK SMILES IDX 35 25 67 26 47 27 66 28 48 29 51 30 65 31 84 32 49 33 50 34
REMARK SMILES IDX 64 36 85 37 52 38 36 39 37 40 45 41 38 42 40 43 46 44 39 45
REMARK SMILES IDX 41 46 42 47 43 48 44 49 68 50 69 51 77 52 70 53 72 54 78 55
REMARK SMILES IDX 71 56 73 57 74 58 75 59 76 60 53 61 54 62 62 63 55 64 57 65
REMARK SMILES IDX 63 66 56 67 58 68 59 69 60 70 61 71 6 72 7 73 8 74 9 75
REMARK SMILES IDX 10 77 11 78 12 79 20 80 13 81 19 82 14 83 18 84 15 85 17 86
REMARK SMILES IDX 16 87 21 88 22 89 23 90 24 92 25 93 26 94
REMARK H PARENT 3 6 83 24 51 35 8 76 23 91
REMARK Flexibility Score: inf
ROOT
ATOM      1  C   UNL A   1      31.753  28.676  26.225  1.00  0.00     0.023 C 
ENDROOT
BRANCH   1   2
ATOM      2  C   UNL A   1      32.815  29.704  25.853  1.00  0.00     0.116 C 
BRANCH   2   3
ATOM      3  N   UNL A   1      32.499  31.048  26.312  1.00  0.00    -0.352 N 
ATOM      4  O   UNL A   1      32.680  32.915  27.563  1.00  0.00    -0.269 OA
ATOM      5  C   UNL A   1      33.179  31.854  27.195  1.00  0.00     0.251 C 
ATOM      6  H   UNL A   1      31.678  31.439  25.935  1.00  0.00     0.163 HD
BRANCH   5   7
ATOM      7  C   UNL A   1      34.486  31.414  27.724  1.00  0.00     0.039 A 
ATOM      8  C   UNL A   1      34.704  30.072  28.037  1.00  0.00     0.014 A 
ATOM      9  C   UNL A   1      35.487  32.360  27.957  1.00  0.00     0.014 A 
ATOM     10  C   UNL A   1      35.826  29.713  28.770  1.00  0.00     0.010 A 
ATOM     11  C   UNL A   1      36.671  31.972  28.593  1.00  0.00     0.010 A 
ATOM     12  C   UNL A   1      36.828  30.656  29.056  1.00  0.00    -0.014 A 
BRANCH  12  13
ATOM     13  C   UNL A   1      38.036  30.223  29.807  1.00  0.00     0.031 A 
ATOM     14  C   UNL A   1      38.274  30.656  31.230  1.00  0.00     0.074 A 
ATOM     15  C   UNL A   1      38.914  29.401  29.197  1.00  0.00     0.049 A 
ATOM     16  N   UNL A   1      39.247  30.317  32.039  1.00  0.00    -0.248 NA
ATOM     17  C   UNL A   1      37.310  31.596  31.823  1.00  0.00     0.031 C 
ATOM     18  C   UNL A   1      38.812  28.944  27.808  1.00  0.00     0.029 A 
ATOM     19  N   UNL A   1      40.053  28.797  29.661  1.00  0.00    -0.354 N 
ATOM     20  C   UNL A   1      39.042  31.035  33.212  1.00  0.00     0.074 A 
ATOM     21  C   UNL A   1      37.854  31.835  33.010  1.00  0.00     0.031 C 
ATOM     22  C   UNL A   1      39.819  28.098  27.547  1.00  0.00     0.029 A 
ATOM     23  C   UNL A   1      40.673  28.003  28.725  1.00  0.00     0.049 A 
ATOM     24  H   UNL A   1      40.395  28.919  30.576  1.00  0.00     0.167 HD
ATOM     25  C   UNL A   1      39.770  31.021  34.355  1.00  0.00     0.034 A 
ATOM     26  C   UNL A   1      41.810  27.287  28.795  1.00  0.00     0.034 A 
ATOM     27  C   UNL A   1      40.930  30.194  34.563  1.00  0.00     0.049 A 
ATOM     28  C   UNL A   1      42.579  27.272  30.084  1.00  0.00     0.074 A 
ATOM     29  C   UNL A   1      41.693  30.055  35.711  1.00  0.00     0.029 A 
ATOM     30  N   UNL A   1      41.509  29.379  33.601  1.00  0.00    -0.354 N 
ATOM     31  N   UNL A   1      42.295  27.858  31.221  1.00  0.00    -0.248 NA
ATOM     32  C   UNL A   1      43.811  26.472  30.108  1.00  0.00     0.031 C 
ATOM     33  C   UNL A   1      42.751  29.184  35.432  1.00  0.00     0.029 A 
ATOM     34  C   UNL A   1      42.624  28.745  34.123  1.00  0.00     0.049 A 
ATOM     35  H   UNL A   1      41.174  29.268  32.682  1.00  0.00     0.167 HD
ATOM     36  C   UNL A   1      43.290  27.468  32.108  1.00  0.00     0.074 A 
ATOM     37  C   UNL A   1      44.171  26.577  31.379  1.00  0.00     0.031 C 
ATOM     38  C   UNL A   1      43.465  27.823  33.404  1.00  0.00     0.034 A 
BRANCH  25  39
ATOM     39  C   UNL A   1      39.327  31.915  35.488  1.00  0.00     0.023 A 
ATOM     40  C   UNL A   1      38.491  31.407  36.502  1.00  0.00     0.012 A 
ATOM     41  C   UNL A   1      39.799  33.241  35.583  1.00  0.00     0.148 A 
ATOM     42  C   UNL A   1      38.102  32.213  37.573  1.00  0.00     0.002 A 
ATOM     43  C   UNL A   1      39.444  34.022  36.677  1.00  0.00     0.091 A 
ATOM     44  F   UNL A   1      40.580  33.714  34.601  1.00  0.00    -0.205 F 
ATOM     45  C   UNL A   1      38.586  33.515  37.666  1.00  0.00     0.022 A 
BRANCH  43  46
ATOM     46  S   UNL A   1      40.085  35.682  36.931  1.00  0.00     0.127 S 
ATOM     47  O   UNL A   1      41.523  35.434  37.012  1.00  0.00    -0.237 OA
ATOM     48  O   UNL A   1      39.653  36.368  35.713  1.00  0.00    -0.237 OA
ATOM     49  O   UNL A   1      39.464  36.170  38.154  1.00  0.00    -0.744 OA
ENDBRANCH  43  46
ENDBRANCH  25  39
BRANCH  26  50
ATOM     50  C   UNL A   1      42.259  26.490  27.620  1.00  0.00     0.023 A 
ATOM     51  C   UNL A   1      43.077  27.093  26.645  1.00  0.00     0.012 A 
ATOM     52  C   UNL A   1      41.909  25.133  27.481  1.00  0.00     0.148 A 
ATOM     53  C   UNL A   1      43.510  26.366  25.535  1.00  0.00     0.002 A 
ATOM     54  C   UNL A   1      42.393  24.400  26.406  1.00  0.00     0.091 A 
ATOM     55  F   UNL A   1      41.122  24.582  28.417  1.00  0.00    -0.205 F 
ATOM     56  C   UNL A   1      43.177  25.019  25.421  1.00  0.00     0.022 A 
BRANCH  54  57
ATOM     57  S   UNL A   1      42.131  22.631  26.253  1.00  0.00     0.127 S 
ATOM     58  O   UNL A   1      42.682  22.138  27.513  1.00  0.00    -0.237 OA
ATOM     59  O   UNL A   1      40.674  22.550  26.143  1.00  0.00    -0.237 OA
ATOM     60  O   UNL A   1      42.845  22.229  25.048  1.00  0.00    -0.744 OA
ENDBRANCH  54  57
ENDBRANCH  26  50
BRANCH  38  61
ATOM     61  C   UNL A   1      44.625  27.206  34.141  1.00  0.00     0.023 A 
ATOM     62  C   UNL A   1      45.900  27.804  34.084  1.00  0.00     0.012 A 
ATOM     63  C   UNL A   1      44.437  26.053  34.930  1.00  0.00     0.148 A 
ATOM     64  C   UNL A   1      46.978  27.239  34.766  1.00  0.00     0.002 A 
ATOM     65  C   UNL A   1      45.503  25.529  35.649  1.00  0.00     0.091 A 
ATOM     66  F   UNL A   1      43.222  25.487  34.954  1.00  0.00    -0.205 F 
ATOM     67  C   UNL A   1      46.777  26.111  35.557  1.00  0.00     0.022 A 
BRANCH  65  68
ATOM     68  S   UNL A   1      45.309  24.140  36.772  1.00  0.00     0.127 S 
ATOM     69  O   UNL A   1      46.671  23.974  37.276  1.00  0.00    -0.237 OA
ATOM     70  O   UNL A   1      44.355  24.662  37.751  1.00  0.00    -0.237 OA
ATOM     71  O   UNL A   1      44.802  23.040  35.964  1.00  0.00    -0.744 OA
ENDBRANCH  65  68
ENDBRANCH  38  61
ENDBRANCH  12  13
ENDBRANCH   5   7
ENDBRANCH   2   3
ENDBRANCH   1   2
BRANCH   1  72
ATOM     72  C   UNL A   1      31.452  27.619  25.165  1.00  0.00     0.023 C 
BRANCH  72  73
ATOM     73  C   UNL A   1      32.200  26.302  25.316  1.00  0.00     0.116 C 
BRANCH  73  74
ATOM     74  N   UNL A   1      31.336  25.179  25.622  1.00  0.00    -0.354 N 
ATOM     75  C   UNL A   1      31.760  24.040  26.250  1.00  0.00     0.242 C 
ATOM     76  H   UNL A   1      30.388  25.239  25.362  1.00  0.00     0.163 HD
ATOM     77  O   UNL A   1      31.136  23.685  27.251  1.00  0.00    -0.273 OA
BRANCH  75  78
ATOM     78  C   UNL A   1      32.986  23.279  25.730  1.00  0.00     0.176 C 
ATOM     79  C   UNL A   1      33.116  22.026  26.616  1.00  0.00     0.036 C 
ATOM     80  N   UNL A   1      33.276  22.926  24.310  1.00  0.00    -0.310 N 
ATOM     81  C   UNL A   1      34.535  21.490  26.559  1.00  0.00     0.008 C 
ATOM     82  C   UNL A   1      34.639  22.335  24.132  1.00  0.00     0.091 C 
ATOM     83  C   UNL A   1      34.922  21.177  25.113  1.00  0.00     0.012 C 
ATOM     84  C   UNL A   1      35.757  23.393  24.026  1.00  0.00     0.025 C 
ATOM     85  C   UNL A   1      36.384  20.751  24.994  1.00  0.00     0.006 C 
ATOM     86  C   UNL A   1      36.898  23.275  25.036  1.00  0.00     0.002 C 
ATOM     87  C   UNL A   1      37.353  21.858  25.391  1.00  0.00     0.000 C 
BRANCH  80  88
ATOM     88  C   UNL A   1      32.492  22.876  23.189  1.00  0.00     0.318 C 
ATOM     89  O   UNL A   1      31.857  21.848  22.900  1.00  0.00    -0.249 OA
ATOM     90  N   UNL A   1      32.302  23.833  22.275  1.00  0.00    -0.335 N 
ATOM     91  H   UNL A   1      31.596  23.561  21.644  1.00  0.00     0.165 HD
BRANCH  90  92
ATOM     92  C   UNL A   1      32.792  25.112  21.926  1.00  0.00     0.084 C 
ATOM     93  C   UNL A   1      32.532  25.576  20.501  1.00  0.00     0.027 C 
ATOM     94  C   UNL A   1      31.898  26.289  21.642  1.00  0.00     0.027 C 
ENDBRANCH  90  92
ENDBRANCH  80  88
ENDBRANCH  75  78
ENDBRANCH  73  74
ENDBRANCH  72  73
ENDBRANCH   1  72
TORSDOF 16
ENDMDL
MODEL 2
REMARK VINA RESULT:     -12.5      5.029     10.183
REMARK SMILES O=C(NCCCCNC(=O)[C@H]1CC[C@@H]2CCCC[C@@H]2N1C(=O)NC1CC1)c1ccc(-c2c3nc(c(-c4cccc(S(=O)(=O)[O-])c4F)c4ccc([nH]4)c(-c4cccc(S(=O)(=O)[O-])c4F)c4nc(c(-c5cccc(S(=O)(=O)[O-])c5F)c5ccc2[nH]5)C=C4)C=C3)cc1
REMARK SMILES IDX 5 1 4 2 3 3 1 4 2 5 27 7 28 8 89 9 29 10 88 11 30 12 31 13
REMARK SMILES IDX 32 14 82 15 33 16 87 17 81 18 83 19 34 20 86 21 80 22 79 23
REMARK SMILES IDX 35 25 67 26 47 27 66 28 48 29 51 30 65 31 84 32 49 33 50 34
REMARK SMILES IDX 64 36 85 37 52 38 36 39 37 40 45 41 38 42 40 43 46 44 39 45
REMARK SMILES IDX 41 46 42 47 43 48 44 49 68 50 69 51 77 52 70 53 72 54 78 55
REMARK SMILES IDX 71 56 73 57 74 58 75 59 76 60 53 61 54 62 62 63 55 64 57 65
REMARK SMILES IDX 63 66 56 67 58 68 59 69 60 70 61 71 6 72 7 73 8 74 9 75
REMARK SMILES IDX 10 77 11 78 12 79 20 80 13 81 19 82 14 83 18 84 15 85 17 86
REMARK SMILES IDX 16 87 21 88 22 89 23 90 24 92 25 93 26 94
REMARK H PARENT 3 6 83 24 51 35 8 76 23 91
REMARK Flexibility Score: inf
ROOT
ATOM      1  C   UNL A   1      35.377  21.660  24.618  1.00  0.00     0.023 C 
ENDROOT
BRANCH   1   2
ATOM      2  C   UNL A   1      36.540  21.982  25.548  1.00  0.00     0.116 C 
BRANCH   2   3
ATOM      3  N   UNL A   1      37.562  20.947  25.570  1.00  0.00    -0.352 N 
ATOM      4  O   UNL A   1      39.630  20.071  25.760  1.00  0.00    -0.269 OA
ATOM      5  C   UNL A   1      38.885  21.031  25.938  1.00  0.00     0.251 C 
ATOM      6  H   UNL A   1      37.263  20.056  25.279  1.00  0.00     0.163 HD
BRANCH   5   7
ATOM      7  C   UNL A   1      39.404  22.292  26.506  1.00  0.00     0.039 A 
ATOM      8  C   UNL A   1      38.903  23.519  26.072  1.00  0.00     0.014 A 
ATOM      9  C   UNL A   1      40.437  22.249  27.445  1.00  0.00     0.014 A 
ATOM     10  C   UNL A   1      39.568  24.689  26.411  1.00  0.00     0.010 A 
ATOM     11  C   UNL A   1      41.031  23.440  27.875  1.00  0.00     0.010 A 
ATOM     12  C   UNL A   1      40.639  24.667  27.320  1.00  0.00    -0.014 A 
BRANCH  12  13
ATOM     13  C   UNL A   1      41.299  25.947  27.690  1.00  0.00     0.031 A 
ATOM     14  C   UNL A   1      42.693  26.278  27.223  1.00  0.00     0.074 A 
ATOM     15  C   UNL A   1      40.612  26.834  28.437  1.00  0.00     0.049 A 
ATOM     16  N   UNL A   1      43.383  27.375  27.411  1.00  0.00    -0.248 NA
ATOM     17  C   UNL A   1      43.413  25.248  26.456  1.00  0.00     0.031 C 
ATOM     18  C   UNL A   1      39.269  26.613  28.983  1.00  0.00     0.029 A 
ATOM     19  N   UNL A   1      40.935  28.098  28.860  1.00  0.00    -0.354 N 
ATOM     20  C   UNL A   1      44.628  27.151  26.834  1.00  0.00     0.074 A 
ATOM     21  C   UNL A   1      44.604  25.811  26.292  1.00  0.00     0.031 C 
ATOM     22  C   UNL A   1      38.867  27.716  29.628  1.00  0.00     0.029 A 
ATOM     23  C   UNL A   1      39.943  28.699  29.599  1.00  0.00     0.049 A 
ATOM     24  H   UNL A   1      41.794  28.533  28.653  1.00  0.00     0.167 HD
ATOM     25  C   UNL A   1      45.690  27.990  26.754  1.00  0.00     0.034 A 
ATOM     26  C   UNL A   1      39.904  29.902  30.201  1.00  0.00     0.034 A 
ATOM     27  C   UNL A   1      45.696  29.337  27.263  1.00  0.00     0.049 A 
ATOM     28  C   UNL A   1      41.087  30.817  30.072  1.00  0.00     0.074 A 
ATOM     29  C   UNL A   1      46.697  30.289  27.166  1.00  0.00     0.029 A 
ATOM     30  N   UNL A   1      44.660  29.921  27.977  1.00  0.00    -0.354 N 
ATOM     31  N   UNL A   1      42.204  30.633  29.412  1.00  0.00    -0.248 NA
ATOM     32  C   UNL A   1      40.991  32.118  30.746  1.00  0.00     0.031 C 
ATOM     33  C   UNL A   1      46.281  31.435  27.852  1.00  0.00     0.029 A 
ATOM     34  C   UNL A   1      45.002  31.214  28.339  1.00  0.00     0.049 A 
ATOM     35  H   UNL A   1      43.807  29.481  28.195  1.00  0.00     0.167 HD
ATOM     36  C   UNL A   1      42.929  31.808  29.557  1.00  0.00     0.074 A 
ATOM     37  C   UNL A   1      42.112  32.705  30.351  1.00  0.00     0.031 C 
ATOM     38  C   UNL A   1      44.162  32.114  29.086  1.00  0.00     0.034 A 
BRANCH  25  39
ATOM     39  C   UNL A   1      46.940  27.486  26.074  1.00  0.00     0.023 A 
ATOM     40  C   UNL A   1      47.823  26.632  26.764  1.00  0.00     0.012 A 
ATOM     41  C   UNL A   1      47.202  27.804  24.725  1.00  0.00     0.148 A 
ATOM     42  C   UNL A   1      48.964  26.130  26.136  1.00  0.00     0.002 A 
ATOM     43  C   UNL A   1      48.316  27.263  24.093  1.00  0.00     0.091 A 
ATOM     44  F   UNL A   1      46.362  28.632  24.088  1.00  0.00    -0.205 F 
ATOM     45  C   UNL A   1      49.205  26.437  24.799  1.00  0.00     0.022 A 
BRANCH  43  46
ATOM     46  S   UNL A   1      48.666  27.530  22.350  1.00  0.00     0.127 S 
ATOM     47  O   UNL A   1      48.710  26.159  21.845  1.00  0.00    -0.237 OA
ATOM     48  O   UNL A   1      47.502  28.302  21.917  1.00  0.00    -0.237 OA
ATOM     49  O   UNL A   1      49.928  28.256  22.300  1.00  0.00    -0.744 OA
ENDBRANCH  43  46
ENDBRANCH  25  39
BRANCH  26  50
ATOM     50  C   UNL A   1      38.682  30.321  30.942  1.00  0.00     0.023 A 
ATOM     51  C   UNL A   1      38.562  30.018  32.312  1.00  0.00     0.012 A 
ATOM     52  C   UNL A   1      37.656  31.046  30.305  1.00  0.00     0.148 A 
ATOM     53  C   UNL A   1      37.426  30.401  33.026  1.00  0.00     0.002 A 
ATOM     54  C   UNL A   1      36.557  31.476  31.036  1.00  0.00     0.091 A 
ATOM     55  F   UNL A   1      37.786  31.316  28.998  1.00  0.00    -0.205 F 
ATOM     56  C   UNL A   1      36.430  31.138  32.392  1.00  0.00     0.022 A 
BRANCH  54  57
ATOM     57  S   UNL A   1      35.296  32.546  30.336  1.00  0.00     0.127 S 
ATOM     58  O   UNL A   1      34.839  31.761  29.192  1.00  0.00    -0.237 OA
ATOM     59  O   UNL A   1      34.340  32.646  31.438  1.00  0.00    -0.237 OA
ATOM     60  O   UNL A   1      35.974  33.796  30.016  1.00  0.00    -0.744 OA
ENDBRANCH  54  57
ENDBRANCH  26  50
BRANCH  38  61
ATOM     61  C   UNL A   1      44.689  33.498  29.369  1.00  0.00     0.023 A 
ATOM     62  C   UNL A   1      45.412  33.753  30.551  1.00  0.00     0.012 A 
ATOM     63  C   UNL A   1      44.501  34.536  28.435  1.00  0.00     0.148 A 
ATOM     64  C   UNL A   1      45.905  35.031  30.817  1.00  0.00     0.002 A 
ATOM     65  C   UNL A   1      45.042  35.791  28.682  1.00  0.00     0.091 A 
ATOM     66  F   UNL A   1      43.791  34.279  27.327  1.00  0.00    -0.205 F 
ATOM     67  C   UNL A   1      45.730  36.045  29.879  1.00  0.00     0.022 A 
BRANCH  65  68
ATOM     68  S   UNL A   1      44.952  37.125  27.483  1.00  0.00     0.127 S 
ATOM     69  O   UNL A   1      45.411  38.266  28.273  1.00  0.00    -0.237 OA
ATOM     70  O   UNL A   1      45.890  36.680  26.452  1.00  0.00    -0.237 OA
ATOM     71  O   UNL A   1      43.563  37.182  27.050  1.00  0.00    -0.744 OA
ENDBRANCH  65  68
ENDBRANCH  38  61
ENDBRANCH  12  13
ENDBRANCH   5   7
ENDBRANCH   2   3
ENDBRANCH   1   2
BRANCH   1  72
ATOM     72  C   UNL A   1      34.221  22.658  24.631  1.00  0.00     0.023 C 
BRANCH  72  73
ATOM     73  C   UNL A   1      34.502  24.001  23.972  1.00  0.00     0.116 C 
BRANCH  73  74
ATOM     74  N   UNL A   1      33.589  24.318  22.892  1.00  0.00    -0.354 N 
ATOM     75  C   UNL A   1      33.313  25.591  22.476  1.00  0.00     0.242 C 
ATOM     76  H   UNL A   1      33.140  23.573  22.431  1.00  0.00     0.163 HD
ATOM     77  O   UNL A   1      33.453  25.834  21.276  1.00  0.00    -0.273 OA
BRANCH  75  78
ATOM     78  C   UNL A   1      32.885  26.662  23.489  1.00  0.00     0.176 C 
ATOM     79  C   UNL A   1      32.913  28.001  22.730  1.00  0.00     0.036 C 
ATOM     80  N   UNL A   1      31.692  26.612  24.382  1.00  0.00    -0.310 N 
ATOM     81  C   UNL A   1      33.027  29.155  23.710  1.00  0.00     0.008 C 
ATOM     82  C   UNL A   1      31.664  27.738  25.367  1.00  0.00     0.091 C 
ATOM     83  C   UNL A   1      31.867  29.118  24.705  1.00  0.00     0.012 C 
ATOM     84  C   UNL A   1      32.527  27.479  26.619  1.00  0.00     0.025 C 
ATOM     85  C   UNL A   1      32.008  30.188  25.785  1.00  0.00     0.006 C 
ATOM     86  C   UNL A   1      33.604  28.519  26.927  1.00  0.00     0.002 C 
ATOM     87  C   UNL A   1      33.237  29.981  26.661  1.00  0.00     0.000 C 
BRANCH  80  88
ATOM     88  C   UNL A   1      30.551  25.855  24.364  1.00  0.00     0.318 C 
ATOM     89  O   UNL A   1      29.558  26.214  23.711  1.00  0.00    -0.249 OA
ATOM     90  N   UNL A   1      30.316  24.706  25.006  1.00  0.00    -0.335 N 
ATOM     91  H   UNL A   1      29.455  24.327  24.715  1.00  0.00     0.165 HD
BRANCH  90  92
ATOM     92  C   UNL A   1      30.912  23.861  25.970  1.00  0.00     0.084 C 
ATOM     93  C   UNL A   1      29.966  23.092  26.880  1.00  0.00     0.027 C 
ATOM     94  C   UNL A   1      30.829  22.360  25.916  1.00  0.00     0.027 C 
ENDBRANCH  90  92
ENDBRANCH  80  88
ENDBRANCH  75  78
ENDBRANCH  73  74
ENDBRANCH  72  73
ENDBRANCH   1  72
TORSDOF 16
ENDMDL
MODEL 3
REMARK VINA RESULT:     -12.5      4.682     10.061
REMARK SMILES O=C(NCCCCNC(=O)[C@H]1CC[C@@H]2CCCC[C@@H]2N1C(=O)NC1CC1)c1ccc(-c2c3nc(c(-c4cccc(S(=O)(=O)[O-])c4F)c4ccc([nH]4)c(-c4cccc(S(=O)(=O)[O-])c4F)c4nc(c(-c5cccc(S(=O)(=O)[O-])c5F)c5ccc2[nH]5)C=C4)C=C3)cc1
REMARK SMILES IDX 5 1 4 2 3 3 1 4 2 5 27 7 28 8 89 9 29 10 88 11 30 12 31 13
REMARK SMILES IDX 32 14 82 15 33 16 87 17 81 18 83 19 34 20 86 21 80 22 79 23
REMARK SMILES IDX 35 25 67 26 47 27 66 28 48 29 51 30 65 31 84 32 49 33 50 34
REMARK SMILES IDX 64 36 85 37 52 38 36 39 37 40 45 41 38 42 40 43 46 44 39 45
REMARK SMILES IDX 41 46 42 47 43 48 44 49 68 50 69 51 77 52 70 53 72 54 78 55
REMARK SMILES IDX 71 56 73 57 74 58 75 59 76 60 53 61 54 62 62 63 55 64 57 65
REMARK SMILES IDX 63 66 56 67 58 68 59 69 60 70 61 71 6 72 7 73 8 74 9 75
REMARK SMILES IDX 10 77 11 78 12 79 20 80 13 81 19 82 14 83 18 84 15 85 17 86
REMARK SMILES IDX 16 87 21 88 22 89 23 90 24 92 25 93 26 94
REMARK H PARENT 3 6 83 24 51 35 8 76 23 91
REMARK Flexibility Score: inf
ROOT
ATOM      1  C   UNL A   1      35.665  22.059  24.392  1.00  0.00     0.023 C 
ENDROOT
BRANCH   1   2
ATOM      2  C   UNL A   1      36.472  21.963  25.681  1.00  0.00     0.116 C 
BRANCH   2   3
ATOM      3  N   UNL A   1      37.510  20.946  25.636  1.00  0.00    -0.352 N 
ATOM      4  O   UNL A   1      39.599  20.101  25.712  1.00  0.00    -0.269 OA
ATOM      5  C   UNL A   1      38.848  21.045  25.943  1.00  0.00     0.251 C 
ATOM      6  H   UNL A   1      37.213  20.055  25.342  1.00  0.00     0.163 HD
BRANCH   5   7
ATOM      7  C   UNL A   1      39.372  22.305  26.510  1.00  0.00     0.039 A 
ATOM      8  C   UNL A   1      38.893  23.534  26.058  1.00  0.00     0.014 A 
ATOM      9  C   UNL A   1      40.389  22.256  27.466  1.00  0.00     0.014 A 
ATOM     10  C   UNL A   1      39.567  24.699  26.399  1.00  0.00     0.010 A 
ATOM     11  C   UNL A   1      40.990  23.444  27.897  1.00  0.00     0.010 A 
ATOM     12  C   UNL A   1      40.623  24.671  27.325  1.00  0.00    -0.014 A 
BRANCH  12  13
ATOM     13  C   UNL A   1      41.292  25.946  27.697  1.00  0.00     0.031 A 
ATOM     14  C   UNL A   1      42.688  26.267  27.228  1.00  0.00     0.074 A 
ATOM     15  C   UNL A   1      40.612  26.837  28.446  1.00  0.00     0.049 A 
ATOM     16  N   UNL A   1      43.385  27.360  27.418  1.00  0.00    -0.248 NA
ATOM     17  C   UNL A   1      43.399  25.233  26.460  1.00  0.00     0.031 C 
ATOM     18  C   UNL A   1      39.268  26.624  28.992  1.00  0.00     0.029 A 
ATOM     19  N   UNL A   1      40.944  28.097  28.869  1.00  0.00    -0.354 N 
ATOM     20  C   UNL A   1      44.629  27.128  26.840  1.00  0.00     0.074 A 
ATOM     21  C   UNL A   1      44.594  25.788  26.296  1.00  0.00     0.031 C 
ATOM     22  C   UNL A   1      38.874  27.730  29.638  1.00  0.00     0.029 A 
ATOM     23  C   UNL A   1      39.957  28.705  29.610  1.00  0.00     0.049 A 
ATOM     24  H   UNL A   1      41.805  28.527  28.663  1.00  0.00     0.167 HD
ATOM     25  C   UNL A   1      45.697  27.959  26.759  1.00  0.00     0.034 A 
ATOM     26  C   UNL A   1      39.927  29.907  30.214  1.00  0.00     0.034 A 
ATOM     27  C   UNL A   1      45.712  29.305  27.270  1.00  0.00     0.049 A 
ATOM     28  C   UNL A   1      41.116  30.814  30.085  1.00  0.00     0.074 A 
ATOM     29  C   UNL A   1      46.719  30.251  27.173  1.00  0.00     0.029 A 
ATOM     30  N   UNL A   1      44.681  29.896  27.986  1.00  0.00    -0.354 N 
ATOM     31  N   UNL A   1      42.231  30.623  29.423  1.00  0.00    -0.248 NA
ATOM     32  C   UNL A   1      41.030  32.115  30.760  1.00  0.00     0.031 C 
ATOM     33  C   UNL A   1      46.312  31.399  27.861  1.00  0.00     0.029 A 
ATOM     34  C   UNL A   1      45.032  31.185  28.349  1.00  0.00     0.049 A 
ATOM     35  H   UNL A   1      43.825  29.461  28.204  1.00  0.00     0.167 HD
ATOM     36  C   UNL A   1      42.964  31.793  29.570  1.00  0.00     0.074 A 
ATOM     37  C   UNL A   1      42.155  32.695  30.365  1.00  0.00     0.031 C 
ATOM     38  C   UNL A   1      44.199  32.091  29.098  1.00  0.00     0.034 A 
BRANCH  25  39
ATOM     39  C   UNL A   1      46.942  27.447  26.077  1.00  0.00     0.023 A 
ATOM     40  C   UNL A   1      47.117  27.639  24.692  1.00  0.00     0.012 A 
ATOM     41  C   UNL A   1      47.972  26.839  26.825  1.00  0.00     0.148 A 
ATOM     42  C   UNL A   1      48.279  27.202  24.055  1.00  0.00     0.002 A 
ATOM     43  C   UNL A   1      49.146  26.449  26.190  1.00  0.00     0.091 A 
ATOM     44  F   UNL A   1      47.782  26.649  28.138  1.00  0.00    -0.205 F 
ATOM     45  C   UNL A   1      49.297  26.617  24.805  1.00  0.00     0.022 A 
BRANCH  43  46
ATOM     46  S   UNL A   1      50.548  25.764  27.083  1.00  0.00     0.127 S 
ATOM     47  O   UNL A   1      50.084  24.406  27.362  1.00  0.00    -0.237 OA
ATOM     48  O   UNL A   1      51.617  25.851  26.089  1.00  0.00    -0.237 OA
ATOM     49  O   UNL A   1      50.735  26.613  28.250  1.00  0.00    -0.744 OA
ENDBRANCH  43  46
ENDBRANCH  25  39
BRANCH  26  50
ATOM     50  C   UNL A   1      38.709  30.334  30.956  1.00  0.00     0.023 A 
ATOM     51  C   UNL A   1      38.593  30.043  32.329  1.00  0.00     0.012 A 
ATOM     52  C   UNL A   1      37.681  31.055  30.318  1.00  0.00     0.148 A 
ATOM     53  C   UNL A   1      37.461  30.433  33.044  1.00  0.00     0.002 A 
ATOM     54  C   UNL A   1      36.585  31.493  31.049  1.00  0.00     0.091 A 
ATOM     55  F   UNL A   1      37.806  31.315  29.008  1.00  0.00    -0.205 F 
ATOM     56  C   UNL A   1      36.463  31.166  32.408  1.00  0.00     0.022 A 
BRANCH  54  57
ATOM     57  S   UNL A   1      35.323  32.559  30.346  1.00  0.00     0.127 S 
ATOM     58  O   UNL A   1      34.371  32.662  31.449  1.00  0.00    -0.237 OA
ATOM     59  O   UNL A   1      36.081  33.780  30.068  1.00  0.00    -0.237 OA
ATOM     60  O   UNL A   1      34.842  31.869  29.156  1.00  0.00    -0.744 OA
ENDBRANCH  54  57
ENDBRANCH  26  50
BRANCH  38  61
ATOM     61  C   UNL A   1      44.736  33.470  29.382  1.00  0.00     0.023 A 
ATOM     62  C   UNL A   1      45.413  33.732  30.589  1.00  0.00     0.012 A 
ATOM     63  C   UNL A   1      44.604  34.496  28.425  1.00  0.00     0.148 A 
ATOM     64  C   UNL A   1      45.915  35.007  30.857  1.00  0.00     0.002 A 
ATOM     65  C   UNL A   1      45.154  35.747  28.676  1.00  0.00     0.091 A 
ATOM     66  F   UNL A   1      43.938  34.233  27.292  1.00  0.00    -0.205 F 
ATOM     67  C   UNL A   1      45.796  36.008  29.898  1.00  0.00     0.022 A 
BRANCH  65  68
ATOM     68  S   UNL A   1      45.137  37.064  27.455  1.00  0.00     0.127 S 
ATOM     69  O   UNL A   1      45.763  38.161  28.191  1.00  0.00    -0.237 OA
ATOM     70  O   UNL A   1      45.957  36.502  26.381  1.00  0.00    -0.237 OA
ATOM     71  O   UNL A   1      43.738  37.264  27.102  1.00  0.00    -0.744 OA
ENDBRANCH  65  68
ENDBRANCH  38  61
ENDBRANCH  12  13
ENDBRANCH   5   7
ENDBRANCH   2   3
ENDBRANCH   1   2
BRANCH   1  72
ATOM     72  C   UNL A   1      35.283  23.470  23.951  1.00  0.00     0.023 C 
BRANCH  72  73
ATOM     73  C   UNL A   1      33.819  23.844  24.134  1.00  0.00     0.116 C 
BRANCH  73  74
ATOM     74  N   UNL A   1      33.209  24.392  22.939  1.00  0.00    -0.354 N 
ATOM     75  C   UNL A   1      33.207  25.724  22.626  1.00  0.00     0.242 C 
ATOM     76  H   UNL A   1      32.769  23.770  22.316  1.00  0.00     0.163 HD
ATOM     77  O   UNL A   1      33.631  26.041  21.514  1.00  0.00    -0.273 OA
BRANCH  75  78
ATOM     78  C   UNL A   1      32.727  26.760  23.651  1.00  0.00     0.176 C 
ATOM     79  C   UNL A   1      32.713  28.112  22.914  1.00  0.00     0.036 C 
ATOM     80  N   UNL A   1      31.526  26.650  24.528  1.00  0.00    -0.310 N 
ATOM     81  C   UNL A   1      32.772  29.252  23.914  1.00  0.00     0.008 C 
ATOM     82  C   UNL A   1      31.444  27.758  25.532  1.00  0.00     0.091 C 
ATOM     83  C   UNL A   1      31.602  29.155  24.894  1.00  0.00     0.012 C 
ATOM     84  C   UNL A   1      32.302  27.510  26.790  1.00  0.00     0.025 C 
ATOM     85  C   UNL A   1      31.691  30.211  25.993  1.00  0.00     0.006 C 
ATOM     86  C   UNL A   1      33.335  28.585  27.127  1.00  0.00     0.002 C 
ATOM     87  C   UNL A   1      32.916  30.036  26.881  1.00  0.00     0.000 C 
BRANCH  80  88
ATOM     88  C   UNL A   1      30.416  25.851  24.484  1.00  0.00     0.318 C 
ATOM     89  O   UNL A   1      29.438  26.156  23.781  1.00  0.00    -0.249 OA
ATOM     90  N   UNL A   1      30.195  24.711  25.146  1.00  0.00    -0.335 N 
ATOM     91  H   UNL A   1      29.361  24.293  24.830  1.00  0.00     0.165 HD
BRANCH  90  92
ATOM     92  C   UNL A   1      30.780  23.914  26.156  1.00  0.00     0.084 C 
ATOM     93  C   UNL A   1      29.847  22.979  26.913  1.00  0.00     0.027 C 
ATOM     94  C   UNL A   1      30.921  22.419  26.050  1.00  0.00     0.027 C 
ENDBRANCH  90  92
ENDBRANCH  80  88
ENDBRANCH  75  78
ENDBRANCH  73  74
ENDBRANCH  72  73
ENDBRANCH   1  72
TORSDOF 16
ENDMDL
