MODEL 1
REMARK VINA RESULT:     -10.7      0.000      0.000
REMARK SMILES CC(C)(C)C(=O)N1CCCC[C@@H]1C(=O)NCCCCNC(=O)c1ccc(-c2c3nc(c(-c4cccc(S(=O)(=O)[O-])c4F)c4ccc([nH]4)c(-c4cccc(S(=O)(=O)[O-])c4F)c4nc(c(-c5cccc(S(=O)(=O)[O-])c5F)c5ccc2[nH]5)C=C4)C=C3)cc1
REMARK SMILES IDX 18 1 17 2 16 3 15 4 13 5 14 6 12 8 7 9 8 10 9 11 11 12 10 13
REMARK SMILES IDX 5 14 6 15 2 16 1 17 3 18 4 19 19 20 20 21 21 22 22 24 23 25
REMARK SMILES IDX 24 26 85 27 25 28 84 29 26 30 27 31 28 32 78 33 29 34 83 35
REMARK SMILES IDX 77 36 79 37 30 38 82 39 76 40 75 41 31 43 63 44 43 45 62 46
REMARK SMILES IDX 44 47 47 48 61 49 80 50 45 51 46 52 60 54 81 55 48 56 32 57
REMARK SMILES IDX 33 58 41 59 34 60 36 61 42 62 35 63 37 64 38 65 39 66 40 67
REMARK SMILES IDX 64 68 65 69 73 70 66 71 68 72 74 73 67 74 69 75 70 76 71 77
REMARK SMILES IDX 72 78 49 79 50 80 58 81 51 82 53 83 59 84 52 85 54 86 55 87
REMARK SMILES IDX 56 88 57 89
REMARK H PARENT 15 7 20 23 79 42 47 53
REMARK Flexibility Score: inf
ROOT
ATOM      1  C   UNL A   1      32.781  28.955  25.214  1.00  0.00     0.023 C 
ENDROOT
BRANCH   1   2
ATOM      2  C   UNL A   1      32.134  27.583  25.399  1.00  0.00     0.023 C 
BRANCH   2   3
ATOM      3  C   UNL A   1      33.007  26.429  24.924  1.00  0.00     0.116 C 
BRANCH   3   4
ATOM      4  N   UNL A   1      33.037  25.372  25.917  1.00  0.00    -0.354 N 
ATOM      5  C   UNL A   1      33.920  24.347  26.067  1.00  0.00     0.242 C 
ATOM      6  O   UNL A   1      33.650  23.471  26.896  1.00  0.00    -0.273 OA
ATOM      7  H   UNL A   1      32.310  25.398  26.581  1.00  0.00     0.163 HD
BRANCH   5   8
ATOM      8  C   UNL A   1      35.116  24.169  25.118  1.00  0.00     0.174 C 
ATOM      9  N   UNL A   1      34.937  23.348  23.893  1.00  0.00    -0.330 N 
ATOM     10  C   UNL A   1      36.181  22.877  23.279  1.00  0.00     0.120 C 
ATOM     11  C   UNL A   1      37.034  22.076  24.242  1.00  0.00     0.022 C 
ATOM     12  C   UNL A   1      36.187  23.549  26.077  1.00  0.00     0.035 C 
ATOM     13  C   UNL A   1      37.421  22.955  25.417  1.00  0.00     0.004 C 
BRANCH   9  14
ATOM     14  C   UNL A   1      33.805  23.152  23.113  1.00  0.00     0.228 C 
ATOM     15  O   UNL A   1      33.655  23.927  22.154  1.00  0.00    -0.274 OA
BRANCH  14  16
ATOM     16  C   UNL A   1      32.640  22.173  23.456  1.00  0.00     0.041 C 
ATOM     17  C   UNL A   1      33.235  21.063  24.368  1.00  0.00     0.021 C 
ATOM     18  C   UNL A   1      32.163  21.518  22.152  1.00  0.00     0.021 C 
ATOM     19  C   UNL A   1      31.422  22.703  24.207  1.00  0.00     0.021 C 
ENDBRANCH  14  16
ENDBRANCH   9  14
ENDBRANCH   5   8
ENDBRANCH   3   4
ENDBRANCH   2   3
ENDBRANCH   1   2
BRANCH   1  20
ATOM     20  C   UNL A   1      33.911  29.250  26.192  1.00  0.00     0.116 C 
BRANCH  20  21
ATOM     21  N   UNL A   1      33.782  30.571  26.790  1.00  0.00    -0.352 N 
ATOM     22  C   UNL A   1      34.537  31.135  27.792  1.00  0.00     0.251 C 
ATOM     23  H   UNL A   1      33.061  31.136  26.430  1.00  0.00     0.163 HD
ATOM     24  O   UNL A   1      34.168  32.161  28.346  1.00  0.00    -0.269 OA
BRANCH  22  25
ATOM     25  C   UNL A   1      35.793  30.471  28.198  1.00  0.00     0.039 A 
ATOM     26  C   UNL A   1      36.944  30.662  27.432  1.00  0.00     0.014 A 
ATOM     27  C   UNL A   1      35.830  29.686  29.354  1.00  0.00     0.014 A 
ATOM     28  C   UNL A   1      38.151  30.106  27.860  1.00  0.00     0.010 A 
ATOM     29  C   UNL A   1      37.048  29.210  29.822  1.00  0.00     0.010 A 
ATOM     30  C   UNL A   1      38.219  29.401  29.074  1.00  0.00    -0.014 A 
BRANCH  30  31
ATOM     31  C   UNL A   1      39.502  28.847  29.573  1.00  0.00     0.031 A 
ATOM     32  C   UNL A   1      40.225  29.528  30.705  1.00  0.00     0.074 A 
ATOM     33  C   UNL A   1      40.058  27.785  28.958  1.00  0.00     0.049 A 
ATOM     34  N   UNL A   1      41.379  29.231  31.243  1.00  0.00    -0.248 NA
ATOM     35  C   UNL A   1      39.582  30.717  31.289  1.00  0.00     0.031 C 
ATOM     36  C   UNL A   1      39.494  27.086  27.800  1.00  0.00     0.029 A 
ATOM     37  N   UNL A   1      41.234  27.121  29.204  1.00  0.00    -0.354 N 
ATOM     38  C   UNL A   1      41.616  30.211  32.198  1.00  0.00     0.074 A 
ATOM     39  C   UNL A   1      40.506  31.136  32.141  1.00  0.00     0.031 C 
ATOM     40  C   UNL A   1      40.320  26.090  27.443  1.00  0.00     0.029 A 
ATOM     41  C   UNL A   1      41.487  26.098  28.320  1.00  0.00     0.049 A 
ATOM     42  H   UNL A   1      41.840  27.357  29.943  1.00  0.00     0.167 HD
ATOM     43  C   UNL A   1      42.648  30.317  33.068  1.00  0.00     0.034 A 
ATOM     44  C   UNL A   1      42.542  25.267  28.222  1.00  0.00     0.034 A 
ATOM     45  C   UNL A   1      43.730  29.374  33.149  1.00  0.00     0.049 A 
ATOM     46  C   UNL A   1      43.661  25.386  29.222  1.00  0.00     0.074 A 
ATOM     47  C   UNL A   1      44.778  29.343  34.051  1.00  0.00     0.029 A 
ATOM     48  N   UNL A   1      43.910  28.301  32.289  1.00  0.00    -0.354 N 
ATOM     49  N   UNL A   1      43.791  26.227  30.219  1.00  0.00    -0.248 NA
ATOM     50  C   UNL A   1      44.761  24.417  29.107  1.00  0.00     0.031 C 
ATOM     51  C   UNL A   1      45.610  28.270  33.717  1.00  0.00     0.029 A 
ATOM     52  C   UNL A   1      45.058  27.609  32.632  1.00  0.00     0.049 A 
ATOM     53  H   UNL A   1      43.309  28.067  31.545  1.00  0.00     0.167 HD
ATOM     54  C   UNL A   1      44.962  25.863  30.875  1.00  0.00     0.074 A 
ATOM     55  C   UNL A   1      45.494  24.715  30.172  1.00  0.00     0.031 C 
ATOM     56  C   UNL A   1      45.549  26.435  31.956  1.00  0.00     0.034 A 
BRANCH  43  57
ATOM     57  C   UNL A   1      42.636  31.475  34.034  1.00  0.00     0.023 A 
ATOM     58  C   UNL A   1      43.236  32.697  33.667  1.00  0.00     0.012 A 
ATOM     59  C   UNL A   1      41.986  31.372  35.278  1.00  0.00     0.148 A 
ATOM     60  C   UNL A   1      43.222  33.786  34.537  1.00  0.00     0.002 A 
ATOM     61  C   UNL A   1      41.933  32.476  36.121  1.00  0.00     0.091 A 
ATOM     62  F   UNL A   1      41.440  30.195  35.619  1.00  0.00    -0.205 F 
ATOM     63  C   UNL A   1      42.562  33.679  35.759  1.00  0.00     0.022 A 
BRANCH  61  64
ATOM     64  S   UNL A   1      41.035  32.467  37.676  1.00  0.00     0.127 S 
ATOM     65  O   UNL A   1      41.900  31.632  38.510  1.00  0.00    -0.237 OA
ATOM     66  O   UNL A   1      41.029  33.886  38.035  1.00  0.00    -0.237 OA
ATOM     67  O   UNL A   1      39.724  31.908  37.383  1.00  0.00    -0.744 OA
ENDBRANCH  61  64
ENDBRANCH  43  57
BRANCH  44  68
ATOM     68  C   UNL A   1      42.567  24.210  27.171  1.00  0.00     0.023 A 
ATOM     69  C   UNL A   1      43.280  24.435  25.977  1.00  0.00     0.012 A 
ATOM     70  C   UNL A   1      41.905  22.982  27.354  1.00  0.00     0.148 A 
ATOM     71  C   UNL A   1      43.302  23.472  24.969  1.00  0.00     0.002 A 
ATOM     72  C   UNL A   1      41.979  22.002  26.370  1.00  0.00     0.091 A 
ATOM     73  F   UNL A   1      41.225  22.789  28.493  1.00  0.00    -0.205 F 
ATOM     74  C   UNL A   1      42.660  22.252  25.169  1.00  0.00     0.022 A 
BRANCH  72  75
ATOM     75  S   UNL A   1      41.293  20.358  26.592  1.00  0.00     0.127 S 
ATOM     76  O   UNL A   1      41.860  19.968  27.881  1.00  0.00    -0.237 OA
ATOM     77  O   UNL A   1      39.856  20.631  26.607  1.00  0.00    -0.237 OA
ATOM     78  O   UNL A   1      41.744  19.584  25.443  1.00  0.00    -0.744 OA
ENDBRANCH  72  75
ENDBRANCH  44  68
BRANCH  56  79
ATOM     79  C   UNL A   1      46.809  25.802  32.486  1.00  0.00     0.023 A 
ATOM     80  C   UNL A   1      48.067  26.233  32.020  1.00  0.00     0.012 A 
ATOM     81  C   UNL A   1      46.743  24.830  33.504  1.00  0.00     0.148 A 
ATOM     82  C   UNL A   1      49.239  25.679  32.535  1.00  0.00     0.002 A 
ATOM     83  C   UNL A   1      47.915  24.324  34.050  1.00  0.00     0.091 A 
ATOM     84  F   UNL A   1      45.536  24.422  33.920  1.00  0.00    -0.205 F 
ATOM     85  C   UNL A   1      49.164  24.736  33.557  1.00  0.00     0.022 A 
BRANCH  83  86
ATOM     86  S   UNL A   1      47.918  23.181  35.436  1.00  0.00     0.127 S 
ATOM     87  O   UNL A   1      47.180  23.936  36.446  1.00  0.00    -0.237 OA
ATOM     88  O   UNL A   1      47.200  22.030  34.888  1.00  0.00    -0.237 OA
ATOM     89  O   UNL A   1      49.319  22.928  35.747  1.00  0.00    -0.744 OA
ENDBRANCH  83  86
ENDBRANCH  56  79
ENDBRANCH  30  31
ENDBRANCH  22  25
ENDBRANCH  20  21
ENDBRANCH   1  20
TORSDOF 16
ENDMDL
MODEL 2
REMARK VINA RESULT:     -10.5      4.054      9.414
REMARK SMILES CC(C)(C)C(=O)N1CCCC[C@@H]1C(=O)NCCCCNC(=O)c1ccc(-c2c3nc(c(-c4cccc(S(=O)(=O)[O-])c4F)c4ccc([nH]4)c(-c4cccc(S(=O)(=O)[O-])c4F)c4nc(c(-c5cccc(S(=O)(=O)[O-])c5F)c5ccc2[nH]5)C=C4)C=C3)cc1
REMARK SMILES IDX 18 1 17 2 16 3 15 4 13 5 14 6 12 8 7 9 8 10 9 11 11 12 10 13
REMARK SMILES IDX 5 14 6 15 2 16 1 17 3 18 4 19 19 20 20 21 21 22 22 24 23 25
REMARK SMILES IDX 24 26 85 27 25 28 84 29 26 30 27 31 28 32 78 33 29 34 83 35
REMARK SMILES IDX 77 36 79 37 30 38 82 39 76 40 75 41 31 43 63 44 43 45 62 46
REMARK SMILES IDX 44 47 47 48 61 49 80 50 45 51 46 52 60 54 81 55 48 56 32 57
REMARK SMILES IDX 33 58 41 59 34 60 36 61 42 62 35 63 37 64 38 65 39 66 40 67
REMARK SMILES IDX 64 68 65 69 73 70 66 71 68 72 74 73 67 74 69 75 70 76 71 77
REMARK SMILES IDX 72 78 49 79 50 80 58 81 51 82 53 83 59 84 52 85 54 86 55 87
REMARK SMILES IDX 56 88 57 89
REMARK H PARENT 15 7 20 23 79 42 47 53
REMARK Flexibility Score: inf
ROOT
ATOM      1  C   UNL A   1      35.592  22.528  25.341  1.00  0.00     0.023 C 
ENDROOT
BRANCH   1   2
ATOM      2  C   UNL A   1      34.419  22.555  26.319  1.00  0.00     0.023 C 
BRANCH   2   3
ATOM      3  C   UNL A   1      33.218  23.342  25.810  1.00  0.00     0.116 C 
BRANCH   3   4
ATOM      4  N   UNL A   1      33.636  24.344  24.849  1.00  0.00    -0.354 N 
ATOM      5  C   UNL A   1      33.606  25.702  24.942  1.00  0.00     0.242 C 
ATOM      6  O   UNL A   1      33.868  26.355  23.926  1.00  0.00    -0.273 OA
ATOM      7  H   UNL A   1      33.994  23.991  24.002  1.00  0.00     0.163 HD
BRANCH   5   8
ATOM      8  C   UNL A   1      33.083  26.412  26.202  1.00  0.00     0.174 C 
ATOM      9  N   UNL A   1      31.643  26.765  26.274  1.00  0.00    -0.330 N 
ATOM     10  C   UNL A   1      31.307  27.785  27.271  1.00  0.00     0.120 C 
ATOM     11  C   UNL A   1      32.080  29.072  27.064  1.00  0.00     0.022 C 
ATOM     12  C   UNL A   1      33.994  27.685  26.243  1.00  0.00     0.035 C 
ATOM     13  C   UNL A   1      33.566  28.790  27.197  1.00  0.00     0.004 C 
BRANCH   9  14
ATOM     14  C   UNL A   1      30.542  26.125  25.719  1.00  0.00     0.228 C 
ATOM     15  O   UNL A   1      30.063  25.184  26.374  1.00  0.00    -0.274 OA
BRANCH  14  16
ATOM     16  C   UNL A   1      29.994  26.373  24.279  1.00  0.00     0.041 C 
ATOM     17  C   UNL A   1      30.444  25.164  23.411  1.00  0.00     0.021 C 
ATOM     18  C   UNL A   1      30.661  27.639  23.723  1.00  0.00     0.021 C 
ATOM     19  C   UNL A   1      28.488  26.485  24.068  1.00  0.00     0.021 C 
ENDBRANCH  14  16
ENDBRANCH   9  14
ENDBRANCH   5   8
ENDBRANCH   3   4
ENDBRANCH   2   3
ENDBRANCH   1   2
BRANCH   1  20
ATOM     20  C   UNL A   1      36.827  23.280  25.824  1.00  0.00     0.116 C 
BRANCH  20  21
ATOM     21  N   UNL A   1      37.929  22.378  26.123  1.00  0.00    -0.352 N 
ATOM     22  C   UNL A   1      39.209  22.692  26.520  1.00  0.00     0.251 C 
ATOM     23  H   UNL A   1      37.735  21.418  26.030  1.00  0.00     0.163 HD
ATOM     24  O   UNL A   1      40.087  21.841  26.513  1.00  0.00    -0.269 OA
BRANCH  22  25
ATOM     25  C   UNL A   1      39.505  24.077  26.940  1.00  0.00     0.039 A 
ATOM     26  C   UNL A   1      39.309  24.443  28.272  1.00  0.00     0.014 A 
ATOM     27  C   UNL A   1      40.006  24.999  26.015  1.00  0.00     0.014 A 
ATOM     28  C   UNL A   1      39.668  25.725  28.689  1.00  0.00     0.010 A 
ATOM     29  C   UNL A   1      40.444  26.242  26.453  1.00  0.00     0.010 A 
ATOM     30  C   UNL A   1      40.266  26.625  27.790  1.00  0.00    -0.014 A 
BRANCH  30  31
ATOM     31  C   UNL A   1      40.705  27.974  28.227  1.00  0.00     0.031 A 
ATOM     32  C   UNL A   1      42.171  28.318  28.247  1.00  0.00     0.074 A 
ATOM     33  C   UNL A   1      39.796  28.859  28.681  1.00  0.00     0.049 A 
ATOM     34  N   UNL A   1      42.753  29.419  28.646  1.00  0.00    -0.248 NA
ATOM     35  C   UNL A   1      43.108  27.279  27.788  1.00  0.00     0.031 C 
ATOM     36  C   UNL A   1      38.355  28.616  28.785  1.00  0.00     0.029 A 
ATOM     37  N   UNL A   1      39.952  30.135  29.165  1.00  0.00    -0.354 N 
ATOM     38  C   UNL A   1      44.118  29.193  28.521  1.00  0.00     0.074 A 
ATOM     39  C   UNL A   1      44.281  27.837  28.047  1.00  0.00     0.031 C 
ATOM     40  C   UNL A   1      37.761  29.708  29.293  1.00  0.00     0.029 A 
ATOM     41  C   UNL A   1      38.777  30.714  29.582  1.00  0.00     0.049 A 
ATOM     42  H   UNL A   1      40.823  30.590  29.209  1.00  0.00     0.167 HD
ATOM     43  C   UNL A   1      45.145  30.046  28.749  1.00  0.00     0.034 A 
ATOM     44  C   UNL A   1      38.545  31.917  30.143  1.00  0.00     0.034 A 
ATOM     45  C   UNL A   1      44.977  31.407  29.182  1.00  0.00     0.049 A 
ATOM     46  C   UNL A   1      39.700  32.858  30.356  1.00  0.00     0.074 A 
ATOM     47  C   UNL A   1      45.945  32.378  29.359  1.00  0.00     0.029 A 
ATOM     48  N   UNL A   1      43.763  31.986  29.517  1.00  0.00    -0.354 N 
ATOM     49  N   UNL A   1      40.970  32.681  30.086  1.00  0.00    -0.248 NA
ATOM     50  C   UNL A   1      39.385  34.180  30.916  1.00  0.00     0.031 C 
ATOM     51  C   UNL A   1      45.320  33.535  29.833  1.00  0.00     0.029 A 
ATOM     52  C   UNL A   1      43.958  33.297  29.912  1.00  0.00     0.049 A 
ATOM     53  H   UNL A   1      42.890  31.530  29.480  1.00  0.00     0.167 HD
ATOM     54  C   UNL A   1      41.599  33.879  30.402  1.00  0.00     0.074 A 
ATOM     55  C   UNL A   1      40.567  34.781  30.868  1.00  0.00     0.031 C 
ATOM     56  C   UNL A   1      42.914  34.202  30.324  1.00  0.00     0.034 A 
BRANCH  43  57
ATOM     57  C   UNL A   1      46.543  29.544  28.494  1.00  0.00     0.023 A 
ATOM     58  C   UNL A   1      47.141  29.752  27.234  1.00  0.00     0.012 A 
ATOM     59  C   UNL A   1      47.284  28.918  29.514  1.00  0.00     0.148 A 
ATOM     60  C   UNL A   1      48.439  29.311  26.981  1.00  0.00     0.002 A 
ATOM     61  C   UNL A   1      48.596  28.526  29.271  1.00  0.00     0.091 A 
ATOM     62  F   UNL A   1      46.692  28.710  30.700  1.00  0.00    -0.205 F 
ATOM     63  C   UNL A   1      49.169  28.708  28.002  1.00  0.00     0.022 A 
BRANCH  61  64
ATOM     64  S   UNL A   1      49.648  27.818  30.543  1.00  0.00     0.127 S 
ATOM     65  O   UNL A   1      49.506  28.798  31.620  1.00  0.00    -0.237 OA
ATOM     66  O   UNL A   1      48.996  26.533  30.799  1.00  0.00    -0.237 OA
ATOM     67  O   UNL A   1      50.977  27.721  29.960  1.00  0.00    -0.744 OA
ENDBRANCH  61  64
ENDBRANCH  43  57
BRANCH  44  68
ATOM     68  C   UNL A   1      37.154  32.324  30.491  1.00  0.00     0.023 A 
ATOM     69  C   UNL A   1      36.682  32.130  31.805  1.00  0.00     0.012 A 
ATOM     70  C   UNL A   1      36.305  32.917  29.538  1.00  0.00     0.148 A 
ATOM     71  C   UNL A   1      35.378  32.483  32.152  1.00  0.00     0.002 A 
ATOM     72  C   UNL A   1      35.026  33.320  29.905  1.00  0.00     0.091 A 
ATOM     73  F   UNL A   1      36.769  33.086  28.292  1.00  0.00    -0.205 F 
ATOM     74  C   UNL A   1      34.553  33.086  31.205  1.00  0.00     0.022 A 
BRANCH  72  75
ATOM     75  S   UNL A   1      33.941  34.219  28.792  1.00  0.00     0.127 S 
ATOM     76  O   UNL A   1      34.816  35.290  28.321  1.00  0.00    -0.237 OA
ATOM     77  O   UNL A   1      33.624  33.198  27.793  1.00  0.00    -0.237 OA
ATOM     78  O   UNL A   1      32.806  34.639  29.602  1.00  0.00    -0.744 OA
ENDBRANCH  72  75
ENDBRANCH  44  68
BRANCH  56  79
ATOM     79  C   UNL A   1      43.316  35.604  30.699  1.00  0.00     0.023 A 
ATOM     80  C   UNL A   1      43.516  36.575  29.699  1.00  0.00     0.012 A 
ATOM     81  C   UNL A   1      43.422  35.974  32.055  1.00  0.00     0.148 A 
ATOM     82  C   UNL A   1      43.850  37.885  30.041  1.00  0.00     0.002 A 
ATOM     83  C   UNL A   1      43.701  37.293  32.389  1.00  0.00     0.091 A 
ATOM     84  F   UNL A   1      43.245  35.031  32.991  1.00  0.00    -0.205 F 
ATOM     85  C   UNL A   1      43.930  38.247  31.384  1.00  0.00     0.022 A 
BRANCH  83  86
ATOM     86  S   UNL A   1      43.724  37.873  34.089  1.00  0.00     0.127 S 
ATOM     87  O   UNL A   1      42.357  37.585  34.521  1.00  0.00    -0.237 OA
ATOM     88  O   UNL A   1      44.748  37.018  34.692  1.00  0.00    -0.237 OA
ATOM     89  O   UNL A   1      44.075  39.286  34.028  1.00  0.00    -0.744 OA
ENDBRANCH  83  86
ENDBRANCH  56  79
ENDBRANCH  30  31
ENDBRANCH  22  25
ENDBRANCH  20  21
ENDBRANCH   1  20
TORSDOF 16
ENDMDL
MODEL 3
REMARK VINA RESULT:     -10.4      4.750      9.596
REMARK SMILES CC(C)(C)C(=O)N1CCCC[C@@H]1C(=O)NCCCCNC(=O)c1ccc(-c2c3nc(c(-c4cccc(S(=O)(=O)[O-])c4F)c4ccc([nH]4)c(-c4cccc(S(=O)(=O)[O-])c4F)c4nc(c(-c5cccc(S(=O)(=O)[O-])c5F)c5ccc2[nH]5)C=C4)C=C3)cc1
REMARK SMILES IDX 18 1 17 2 16 3 15 4 13 5 14 6 12 8 7 9 8 10 9 11 11 12 10 13
REMARK SMILES IDX 5 14 6 15 2 16 1 17 3 18 4 19 19 20 20 21 21 22 22 24 23 25
REMARK SMILES IDX 24 26 85 27 25 28 84 29 26 30 27 31 28 32 78 33 29 34 83 35
REMARK SMILES IDX 77 36 79 37 30 38 82 39 76 40 75 41 31 43 63 44 43 45 62 46
REMARK SMILES IDX 44 47 47 48 61 49 80 50 45 51 46 52 60 54 81 55 48 56 32 57
REMARK SMILES IDX 33 58 41 59 34 60 36 61 42 62 35 63 37 64 38 65 39 66 40 67
REMARK SMILES IDX 64 68 65 69 73 70 66 71 68 72 74 73 67 74 69 75 70 76 71 77
REMARK SMILES IDX 72 78 49 79 50 80 58 81 51 82 53 83 59 84 52 85 54 86 55 87
REMARK SMILES IDX 56 88 57 89
REMARK H PARENT 15 7 20 23 79 42 47 53
REMARK Flexibility Score: inf
ROOT
ATOM      1  C   UNL A   1      36.054  22.580  23.819  1.00  0.00     0.023 C 
ENDROOT
BRANCH   1   2
ATOM      2  C   UNL A   1      34.622  23.053  23.575  1.00  0.00     0.023 C 
BRANCH   2   3
ATOM      3  C   UNL A   1      34.183  24.176  24.505  1.00  0.00     0.116 C 
BRANCH   3   4
ATOM      4  N   UNL A   1      34.205  25.450  23.812  1.00  0.00    -0.354 N 
ATOM      5  C   UNL A   1      33.863  26.689  24.262  1.00  0.00     0.242 C 
ATOM      6  O   UNL A   1      33.811  27.606  23.437  1.00  0.00    -0.273 OA
ATOM      7  H   UNL A   1      34.512  25.415  22.878  1.00  0.00     0.163 HD
BRANCH   5   8
ATOM      8  C   UNL A   1      33.371  26.916  25.701  1.00  0.00     0.174 C 
ATOM      9  N   UNL A   1      31.910  26.904  25.964  1.00  0.00    -0.330 N 
ATOM     10  C   UNL A   1      31.504  27.532  27.224  1.00  0.00     0.120 C 
ATOM     11  C   UNL A   1      31.973  28.969  27.330  1.00  0.00     0.022 C 
ATOM     12  C   UNL A   1      34.006  28.308  26.032  1.00  0.00     0.035 C 
ATOM     13  C   UNL A   1      33.490  29.006  27.280  1.00  0.00     0.004 C 
BRANCH   9  14
ATOM     14  C   UNL A   1      30.898  26.195  25.329  1.00  0.00     0.228 C 
ATOM     15  O   UNL A   1      30.717  25.028  25.713  1.00  0.00    -0.274 OA
BRANCH  14  16
ATOM     16  C   UNL A   1      30.117  26.684  24.069  1.00  0.00     0.041 C 
ATOM     17  C   UNL A   1      30.711  25.927  22.848  1.00  0.00     0.021 C 
ATOM     18  C   UNL A   1      30.393  28.183  23.885  1.00  0.00     0.021 C 
ATOM     19  C   UNL A   1      28.611  26.454  23.994  1.00  0.00     0.021 C 
ENDBRANCH  14  16
ENDBRANCH   9  14
ENDBRANCH   5   8
ENDBRANCH   3   4
ENDBRANCH   2   3
ENDBRANCH   1   2
BRANCH   1  20
ATOM     20  C   UNL A   1      36.407  22.387  25.289  1.00  0.00     0.116 C 
BRANCH  20  21
ATOM     21  N   UNL A   1      37.299  21.254  25.490  1.00  0.00    -0.352 N 
ATOM     22  C   UNL A   1      38.623  21.262  25.862  1.00  0.00     0.251 C 
ATOM     23  H   UNL A   1      36.903  20.365  25.341  1.00  0.00     0.163 HD
ATOM     24  O   UNL A   1      39.301  20.249  25.769  1.00  0.00    -0.269 OA
BRANCH  22  25
ATOM     25  C   UNL A   1      39.215  22.521  26.361  1.00  0.00     0.039 A 
ATOM     26  C   UNL A   1      40.410  22.475  27.079  1.00  0.00     0.014 A 
ATOM     27  C   UNL A   1      38.596  23.744  26.086  1.00  0.00     0.014 A 
ATOM     28  C   UNL A   1      41.015  23.668  27.478  1.00  0.00     0.010 A 
ATOM     29  C   UNL A   1      39.246  24.930  26.407  1.00  0.00     0.010 A 
ATOM     30  C   UNL A   1      40.454  24.906  27.119  1.00  0.00    -0.014 A 
BRANCH  30  31
ATOM     31  C   UNL A   1      41.109  26.185  27.487  1.00  0.00     0.031 A 
ATOM     32  C   UNL A   1      42.548  26.427  27.115  1.00  0.00     0.074 A 
ATOM     33  C   UNL A   1      40.440  27.093  28.225  1.00  0.00     0.049 A 
ATOM     34  N   UNL A   1      43.310  27.453  27.392  1.00  0.00    -0.248 NA
ATOM     35  C   UNL A   1      43.230  25.365  26.356  1.00  0.00     0.031 C 
ATOM     36  C   UNL A   1      39.068  26.940  28.716  1.00  0.00     0.029 A 
ATOM     37  N   UNL A   1      40.831  28.315  28.713  1.00  0.00    -0.354 N 
ATOM     38  C   UNL A   1      44.563  27.146  26.878  1.00  0.00     0.074 A 
ATOM     39  C   UNL A   1      44.472  25.821  26.305  1.00  0.00     0.031 C 
ATOM     40  C   UNL A   1      38.732  28.028  29.427  1.00  0.00     0.029 A 
ATOM     41  C   UNL A   1      39.870  28.939  29.473  1.00  0.00     0.049 A 
ATOM     42  H   UNL A   1      41.717  28.706  28.536  1.00  0.00     0.167 HD
ATOM     43  C   UNL A   1      45.682  27.908  26.855  1.00  0.00     0.034 A 
ATOM     44  C   UNL A   1      39.906  30.109  30.141  1.00  0.00     0.034 A 
ATOM     45  C   UNL A   1      45.757  29.240  27.390  1.00  0.00     0.049 A 
ATOM     46  C   UNL A   1      41.151  30.951  30.072  1.00  0.00     0.074 A 
ATOM     47  C   UNL A   1      46.816  30.128  27.340  1.00  0.00     0.029 A 
ATOM     48  N   UNL A   1      44.736  29.873  28.083  1.00  0.00    -0.354 N 
ATOM     49  N   UNL A   1      42.278  30.710  29.447  1.00  0.00    -0.248 NA
ATOM     50  C   UNL A   1      41.118  32.246  30.768  1.00  0.00     0.031 C 
ATOM     51  C   UNL A   1      46.447  31.286  28.032  1.00  0.00     0.029 A 
ATOM     52  C   UNL A   1      45.144  31.135  28.476  1.00  0.00     0.049 A 
ATOM     53  H   UNL A   1      43.851  29.482  28.267  1.00  0.00     0.167 HD
ATOM     54  C   UNL A   1      43.070  31.836  29.638  1.00  0.00     0.074 A 
ATOM     55  C   UNL A   1      42.287  32.768  30.423  1.00  0.00     0.031 C 
ATOM     56  C   UNL A   1      44.335  32.074  29.212  1.00  0.00     0.034 A 
BRANCH  43  57
ATOM     57  C   UNL A   1      46.908  27.334  26.192  1.00  0.00     0.023 A 
ATOM     58  C   UNL A   1      47.112  27.531  24.810  1.00  0.00     0.012 A 
ATOM     59  C   UNL A   1      47.882  26.649  26.942  1.00  0.00     0.148 A 
ATOM     60  C   UNL A   1      48.246  27.023  24.179  1.00  0.00     0.002 A 
ATOM     61  C   UNL A   1      49.035  26.189  26.316  1.00  0.00     0.091 A 
ATOM     62  F   UNL A   1      47.661  26.453  28.250  1.00  0.00    -0.205 F 
ATOM     63  C   UNL A   1      49.212  26.362  24.934  1.00  0.00     0.022 A 
BRANCH  61  64
ATOM     64  S   UNL A   1      50.377  25.401  27.213  1.00  0.00     0.127 S 
ATOM     65  O   UNL A   1      50.750  26.448  28.164  1.00  0.00    -0.237 OA
ATOM     66  O   UNL A   1      49.707  24.245  27.812  1.00  0.00    -0.237 OA
ATOM     67  O   UNL A   1      51.388  25.071  26.220  1.00  0.00    -0.744 OA
ENDBRANCH  61  64
ENDBRANCH  43  57
BRANCH  44  68
ATOM     68  C   UNL A   1      38.705  30.581  30.886  1.00  0.00     0.023 A 
ATOM     69  C   UNL A   1      38.623  30.368  32.276  1.00  0.00     0.012 A 
ATOM     70  C   UNL A   1      37.656  31.254  30.232  1.00  0.00     0.148 A 
ATOM     71  C   UNL A   1      37.501  30.782  32.994  1.00  0.00     0.002 A 
ATOM     72  C   UNL A   1      36.566  31.715  30.962  1.00  0.00     0.091 A 
ATOM     73  F   UNL A   1      37.748  31.440  28.908  1.00  0.00    -0.205 F 
ATOM     74  C   UNL A   1      36.477  31.463  32.340  1.00  0.00     0.022 A 
BRANCH  72  75
ATOM     75  S   UNL A   1      35.265  32.712  30.229  1.00  0.00     0.127 S 
ATOM     76  O   UNL A   1      36.009  33.879  29.762  1.00  0.00    -0.237 OA
ATOM     77  O   UNL A   1      34.772  31.830  29.171  1.00  0.00    -0.237 OA
ATOM     78  O   UNL A   1      34.308  32.959  31.299  1.00  0.00    -0.744 OA
ENDBRANCH  72  75
ENDBRANCH  44  68
BRANCH  56  79
ATOM     79  C   UNL A   1      44.944  33.413  29.535  1.00  0.00     0.023 A 
ATOM     80  C   UNL A   1      45.621  33.607  30.755  1.00  0.00     0.012 A 
ATOM     81  C   UNL A   1      44.907  34.458  28.589  1.00  0.00     0.148 A 
ATOM     82  C   UNL A   1      46.221  34.833  31.043  1.00  0.00     0.002 A 
ATOM     83  C   UNL A   1      45.554  35.656  28.862  1.00  0.00     0.091 A 
ATOM     84  F   UNL A   1      44.243  34.258  27.442  1.00  0.00    -0.205 F 
ATOM     85  C   UNL A   1      46.199  35.852  30.093  1.00  0.00     0.022 A 
BRANCH  83  86
ATOM     86  S   UNL A   1      45.664  36.987  27.659  1.00  0.00     0.127 S 
ATOM     87  O   UNL A   1      46.464  37.975  28.380  1.00  0.00    -0.237 OA
ATOM     88  O   UNL A   1      46.354  36.338  26.543  1.00  0.00    -0.237 OA
ATOM     89  O   UNL A   1      44.291  37.384  27.373  1.00  0.00    -0.744 OA
ENDBRANCH  83  86
ENDBRANCH  56  79
ENDBRANCH  30  31
ENDBRANCH  22  25
ENDBRANCH  20  21
ENDBRANCH   1  20
TORSDOF 16
ENDMDL
