MODEL 1
REMARK VINA RESULT:     -11.8      0.000      0.000
REMARK SMILES O=C(NCCCCNC(=O)[C@H]1CSC2(CCCCC2)[NH2+]1)c1ccc(-c2c3nc(c(-c4cccc(S(=O)(=O)[O-])c4F)c4ccc([nH]4)c(-c4cccc(S(=O)(=O)[O-])c4F)c4nc(c(-c5cccc(S(=O)(=O)[O-])c5F)c5ccc2[nH]5)C=C4)C=C3)cc1
REMARK SMILES IDX 4 1 3 2 1 3 2 4 21 6 22 7 83 8 23 9 82 10 24 11 25 12 26 13
REMARK SMILES IDX 76 14 27 15 81 16 75 17 77 18 28 19 80 20 74 21 73 22 29 24
REMARK SMILES IDX 61 25 41 26 60 27 42 28 45 29 59 30 78 31 43 32 44 33 58 35
REMARK SMILES IDX 79 36 46 37 30 38 31 39 39 40 32 41 34 42 40 43 33 44 35 45
REMARK SMILES IDX 36 46 37 47 38 48 62 49 63 50 71 51 64 52 66 53 72 54 65 55
REMARK SMILES IDX 67 56 68 57 69 58 70 59 47 60 48 61 56 62 49 63 51 64 57 65
REMARK SMILES IDX 50 66 52 67 53 68 54 69 55 70 5 71 6 72 7 73 8 74 9 75 10 77
REMARK SMILES IDX 11 78 12 79 20 80 13 81 14 82 15 85 19 86 16 87 18 88 17 89
REMARK H PARENT 3 5 77 23 45 34 8 76 20 83 20 84
REMARK Flexibility Score: inf
ROOT
ATOM      1  C   UNL A   1      38.890  20.579  26.003  1.00  0.00     0.116 C 
ENDROOT
BRANCH   1   2
ATOM      2  N   UNL A   1      39.850  19.488  25.930  1.00  0.00    -0.352 N 
ATOM      3  O   UNL A   1      41.936  18.601  25.988  1.00  0.00    -0.269 OA
ATOM      4  C   UNL A   1      41.218  19.575  26.120  1.00  0.00     0.251 C 
ATOM      5  H   UNL A   1      39.490  18.596  25.725  1.00  0.00     0.163 HD
BRANCH   4   6
ATOM      6  C   UNL A   1      41.781  20.907  26.440  1.00  0.00     0.039 A 
ATOM      7  C   UNL A   1      41.989  21.272  27.773  1.00  0.00     0.014 A 
ATOM      8  C   UNL A   1      41.977  21.828  25.409  1.00  0.00     0.014 A 
ATOM      9  C   UNL A   1      42.241  22.601  28.086  1.00  0.00     0.010 A 
ATOM     10  C   UNL A   1      42.318  23.146  25.725  1.00  0.00     0.010 A 
ATOM     11  C   UNL A   1      42.418  23.551  27.066  1.00  0.00    -0.014 A 
BRANCH  11  12
ATOM     12  C   UNL A   1      42.808  24.938  27.421  1.00  0.00     0.031 A 
ATOM     13  C   UNL A   1      41.842  25.892  28.067  1.00  0.00     0.074 A 
ATOM     14  C   UNL A   1      44.059  25.337  27.118  1.00  0.00     0.049 A 
ATOM     15  N   UNL A   1      42.032  27.141  28.408  1.00  0.00    -0.248 NA
ATOM     16  C   UNL A   1      40.489  25.392  28.365  1.00  0.00     0.031 C 
ATOM     17  C   UNL A   1      45.062  24.507  26.444  1.00  0.00     0.029 A 
ATOM     18  N   UNL A   1      44.697  26.534  27.312  1.00  0.00    -0.354 N 
ATOM     19  C   UNL A   1      40.817  27.594  28.910  1.00  0.00     0.074 A 
ATOM     20  C   UNL A   1      39.895  26.480  28.843  1.00  0.00     0.031 C 
ATOM     21  C   UNL A   1      46.186  25.216  26.283  1.00  0.00     0.029 A 
ATOM     22  C   UNL A   1      45.967  26.566  26.786  1.00  0.00     0.049 A 
ATOM     23  H   UNL A   1      44.286  27.296  27.781  1.00  0.00     0.167 HD
ATOM     24  C   UNL A   1      40.508  28.823  29.388  1.00  0.00     0.034 A 
ATOM     25  C   UNL A   1      46.848  27.577  26.680  1.00  0.00     0.034 A 
ATOM     26  C   UNL A   1      41.453  29.904  29.502  1.00  0.00     0.049 A 
ATOM     27  C   UNL A   1      46.479  28.919  27.237  1.00  0.00     0.074 A 
ATOM     28  C   UNL A   1      41.270  31.144  30.092  1.00  0.00     0.029 A 
ATOM     29  N   UNL A   1      42.744  29.887  29.000  1.00  0.00    -0.354 N 
ATOM     30  N   UNL A   1      45.384  29.275  27.864  1.00  0.00    -0.248 NA
ATOM     31  C   UNL A   1      47.468  29.995  27.089  1.00  0.00     0.031 C 
ATOM     32  C   UNL A   1      42.444  31.885  29.922  1.00  0.00     0.029 A 
ATOM     33  C   UNL A   1      43.360  31.105  29.236  1.00  0.00     0.049 A 
ATOM     34  H   UNL A   1      43.161  29.122  28.542  1.00  0.00     0.167 HD
ATOM     35  C   UNL A   1      45.554  30.613  28.191  1.00  0.00     0.074 A 
ATOM     36  C   UNL A   1      46.873  30.994  27.726  1.00  0.00     0.031 C 
ATOM     37  C   UNL A   1      44.685  31.457  28.799  1.00  0.00     0.034 A 
BRANCH  24  38
ATOM     38  C   UNL A   1      39.105  29.076  29.871  1.00  0.00     0.023 A 
ATOM     39  C   UNL A   1      38.746  28.718  31.186  1.00  0.00     0.012 A 
ATOM     40  C   UNL A   1      38.184  29.778  29.069  1.00  0.00     0.148 A 
ATOM     41  C   UNL A   1      37.488  29.047  31.691  1.00  0.00     0.002 A 
ATOM     42  C   UNL A   1      36.943  30.130  29.590  1.00  0.00     0.091 A 
ATOM     43  F   UNL A   1      38.539  30.092  27.814  1.00  0.00    -0.205 F 
ATOM     44  C   UNL A   1      36.593  29.762  30.899  1.00  0.00     0.022 A 
BRANCH  42  45
ATOM     45  S   UNL A   1      35.747  31.110  28.674  1.00  0.00     0.127 S 
ATOM     46  O   UNL A   1      35.161  30.105  27.788  1.00  0.00    -0.237 OA
ATOM     47  O   UNL A   1      34.855  31.580  29.735  1.00  0.00    -0.237 OA
ATOM     48  O   UNL A   1      36.510  32.159  28.011  1.00  0.00    -0.744 OA
ENDBRANCH  42  45
ENDBRANCH  24  38
BRANCH  25  49
ATOM     49  C   UNL A   1      48.163  27.336  26.027  1.00  0.00     0.023 A 
ATOM     50  C   UNL A   1      49.239  26.844  26.788  1.00  0.00     0.012 A 
ATOM     51  C   UNL A   1      48.331  27.523  24.641  1.00  0.00     0.148 A 
ATOM     52  C   UNL A   1      50.463  26.558  26.183  1.00  0.00     0.002 A 
ATOM     53  C   UNL A   1      49.532  27.177  24.034  1.00  0.00     0.091 A 
ATOM     54  F   UNL A   1      47.303  28.015  23.933  1.00  0.00    -0.205 F 
ATOM     55  C   UNL A   1      50.605  26.709  24.805  1.00  0.00     0.022 A 
BRANCH  53  56
ATOM     56  S   UNL A   1      49.714  27.191  22.247  1.00  0.00     0.127 S 
ATOM     57  O   UNL A   1      48.681  26.248  21.832  1.00  0.00    -0.237 OA
ATOM     58  O   UNL A   1      49.441  28.591  21.914  1.00  0.00    -0.237 OA
ATOM     59  O   UNL A   1      51.094  26.787  22.007  1.00  0.00    -0.744 OA
ENDBRANCH  53  56
ENDBRANCH  25  49
BRANCH  37  60
ATOM     60  C   UNL A   1      45.128  32.882  28.987  1.00  0.00     0.023 A 
ATOM     61  C   UNL A   1      45.844  33.230  30.149  1.00  0.00     0.012 A 
ATOM     62  C   UNL A   1      44.900  33.853  27.994  1.00  0.00     0.148 A 
ATOM     63  C   UNL A   1      46.305  34.532  30.334  1.00  0.00     0.002 A 
ATOM     64  C   UNL A   1      45.400  35.138  28.165  1.00  0.00     0.091 A 
ATOM     65  F   UNL A   1      44.200  33.502  26.906  1.00  0.00    -0.205 F 
ATOM     66  C   UNL A   1      46.094  35.482  29.337  1.00  0.00     0.022 A 
BRANCH  64  67
ATOM     67  S   UNL A   1      45.247  36.405  26.901  1.00  0.00     0.127 S 
ATOM     68  O   UNL A   1      45.887  37.549  27.547  1.00  0.00    -0.237 OA
ATOM     69  O   UNL A   1      46.005  35.829  25.790  1.00  0.00    -0.237 OA
ATOM     70  O   UNL A   1      43.819  36.549  26.648  1.00  0.00    -0.744 OA
ENDBRANCH  64  67
ENDBRANCH  37  60
ENDBRANCH  11  12
ENDBRANCH   4   6
ENDBRANCH   1   2
BRANCH   1  71
ATOM     71  C   UNL A   1      37.783  20.526  24.958  1.00  0.00     0.023 C 
BRANCH  71  72
ATOM     72  C   UNL A   1      37.216  21.881  24.547  1.00  0.00     0.023 C 
BRANCH  72  73
ATOM     73  C   UNL A   1      35.730  21.870  24.191  1.00  0.00     0.116 C 
BRANCH  73  74
ATOM     74  N   UNL A   1      34.931  22.841  24.902  1.00  0.00    -0.351 N 
ATOM     75  C   UNL A   1      33.929  22.699  25.812  1.00  0.00     0.279 C 
ATOM     76  H   UNL A   1      35.153  23.777  24.691  1.00  0.00     0.163 HD
ATOM     77  O   UNL A   1      33.640  23.718  26.455  1.00  0.00    -0.268 OA
BRANCH  75  78
ATOM     78  C   UNL A   1      33.079  21.421  26.003  1.00  0.00     0.283 C 
ATOM     79  C   UNL A   1      31.988  21.326  24.951  1.00  0.00     0.151 C 
ATOM     80  N   UNL A   1      33.828  20.151  26.189  1.00  0.00    -0.322 N 
ATOM     81  S   UNL A   1      32.515  19.996  23.870  1.00  0.00    -0.089 SA
ATOM     82  C   UNL A   1      33.464  19.144  25.178  1.00  0.00     0.143 C 
ATOM     83  H   UNL A   1      33.618  19.778  27.115  1.00  0.00     0.348 HD
ATOM     84  H   UNL A   1      34.822  20.353  26.090  1.00  0.00     0.348 HD
ATOM     85  C   UNL A   1      34.728  18.426  24.648  1.00  0.00     0.081 C 
ATOM     86  C   UNL A   1      32.549  18.058  25.791  1.00  0.00     0.081 C 
ATOM     87  C   UNL A   1      34.429  17.352  23.608  1.00  0.00     0.007 C 
ATOM     88  C   UNL A   1      32.217  16.926  24.801  1.00  0.00     0.007 C 
ATOM     89  C   UNL A   1      33.458  16.312  24.151  1.00  0.00     0.001 C 
ENDBRANCH  75  78
ENDBRANCH  73  74
ENDBRANCH  72  73
ENDBRANCH  71  72
ENDBRANCH   1  71
TORSDOF 14
ENDMDL
MODEL 2
REMARK VINA RESULT:     -11.8      6.783     11.969
REMARK SMILES O=C(NCCCCNC(=O)[C@H]1CSC2(CCCCC2)[NH2+]1)c1ccc(-c2c3nc(c(-c4cccc(S(=O)(=O)[O-])c4F)c4ccc([nH]4)c(-c4cccc(S(=O)(=O)[O-])c4F)c4nc(c(-c5cccc(S(=O)(=O)[O-])c5F)c5ccc2[nH]5)C=C4)C=C3)cc1
REMARK SMILES IDX 4 1 3 2 1 3 2 4 21 6 22 7 83 8 23 9 82 10 24 11 25 12 26 13
REMARK SMILES IDX 76 14 27 15 81 16 75 17 77 18 28 19 80 20 74 21 73 22 29 24
REMARK SMILES IDX 61 25 41 26 60 27 42 28 45 29 59 30 78 31 43 32 44 33 58 35
REMARK SMILES IDX 79 36 46 37 30 38 31 39 39 40 32 41 34 42 40 43 33 44 35 45
REMARK SMILES IDX 36 46 37 47 38 48 62 49 63 50 71 51 64 52 66 53 72 54 65 55
REMARK SMILES IDX 67 56 68 57 69 58 70 59 47 60 48 61 56 62 49 63 51 64 57 65
REMARK SMILES IDX 50 66 52 67 53 68 54 69 55 70 5 71 6 72 7 73 8 74 9 75 10 77
REMARK SMILES IDX 11 78 12 79 20 80 13 81 14 82 15 85 19 86 16 87 18 88 17 89
REMARK H PARENT 3 5 77 23 45 34 8 76 20 83 20 84
REMARK Flexibility Score: inf
ROOT
ATOM      1  C   UNL A   1      32.985  32.239  26.973  1.00  0.00     0.116 C 
ENDROOT
BRANCH   1   2
ATOM      2  N   UNL A   1      32.557  33.567  27.381  1.00  0.00    -0.352 N 
ATOM      3  O   UNL A   1      32.655  35.439  28.657  1.00  0.00    -0.269 OA
ATOM      4  C   UNL A   1      33.127  34.356  28.365  1.00  0.00     0.251 C 
ATOM      5  H   UNL A   1      31.780  33.946  26.909  1.00  0.00     0.163 HD
BRANCH   4   6
ATOM      6  C   UNL A   1      34.303  33.811  29.082  1.00  0.00     0.039 A 
ATOM      7  C   UNL A   1      35.591  34.200  28.703  1.00  0.00     0.014 A 
ATOM      8  C   UNL A   1      34.113  32.816  30.043  1.00  0.00     0.014 A 
ATOM      9  C   UNL A   1      36.686  33.487  29.171  1.00  0.00     0.010 A 
ATOM     10  C   UNL A   1      35.224  32.160  30.578  1.00  0.00     0.010 A 
ATOM     11  C   UNL A   1      36.517  32.466  30.121  1.00  0.00    -0.014 A 
BRANCH  11  12
ATOM     12  C   UNL A   1      37.712  31.801  30.698  1.00  0.00     0.031 A 
ATOM     13  C   UNL A   1      38.479  30.753  29.940  1.00  0.00     0.074 A 
ATOM     14  C   UNL A   1      38.079  32.143  31.948  1.00  0.00     0.049 A 
ATOM     15  N   UNL A   1      39.524  30.067  30.327  1.00  0.00    -0.248 NA
ATOM     16  C   UNL A   1      38.018  30.423  28.581  1.00  0.00     0.031 C 
ATOM     17  C   UNL A   1      37.374  33.113  32.792  1.00  0.00     0.029 A 
ATOM     18  N   UNL A   1      39.112  31.709  32.736  1.00  0.00    -0.354 N 
ATOM     19  C   UNL A   1      39.816  29.190  29.288  1.00  0.00     0.074 A 
ATOM     20  C   UNL A   1      38.845  29.439  28.244  1.00  0.00     0.031 C 
ATOM     21  C   UNL A   1      37.995  33.201  33.975  1.00  0.00     0.029 A 
ATOM     22  C   UNL A   1      39.102  32.255  33.998  1.00  0.00     0.049 A 
ATOM     23  H   UNL A   1      39.795  31.069  32.429  1.00  0.00     0.167 HD
ATOM     24  C   UNL A   1      40.808  28.271  29.215  1.00  0.00     0.034 A 
ATOM     25  C   UNL A   1      39.871  31.998  35.072  1.00  0.00     0.034 A 
ATOM     26  C   UNL A   1      41.802  28.075  30.238  1.00  0.00     0.049 A 
ATOM     27  C   UNL A   1      40.972  30.988  34.949  1.00  0.00     0.074 A 
ATOM     28  C   UNL A   1      42.922  27.261  30.202  1.00  0.00     0.029 A 
ATOM     29  N   UNL A   1      41.787  28.677  31.486  1.00  0.00    -0.354 N 
ATOM     30  N   UNL A   1      41.337  30.295  33.897  1.00  0.00    -0.248 NA
ATOM     31  C   UNL A   1      41.777  30.733  36.150  1.00  0.00     0.031 C 
ATOM     32  C   UNL A   1      43.568  27.352  31.438  1.00  0.00     0.029 A 
ATOM     33  C   UNL A   1      42.859  28.230  32.240  1.00  0.00     0.049 A 
ATOM     34  H   UNL A   1      41.114  29.327  31.790  1.00  0.00     0.167 HD
ATOM     35  C   UNL A   1      42.417  29.527  34.307  1.00  0.00     0.074 A 
ATOM     36  C   UNL A   1      42.672  29.868  35.692  1.00  0.00     0.031 C 
ATOM     37  C   UNL A   1      43.119  28.604  33.606  1.00  0.00     0.034 A 
BRANCH  24  38
ATOM     38  C   UNL A   1      40.914  27.422  27.976  1.00  0.00     0.023 A 
ATOM     39  C   UNL A   1      41.561  27.936  26.834  1.00  0.00     0.012 A 
ATOM     40  C   UNL A   1      40.486  26.080  27.984  1.00  0.00     0.148 A 
ATOM     41  C   UNL A   1      41.771  27.129  25.716  1.00  0.00     0.002 A 
ATOM     42  C   UNL A   1      40.728  25.272  26.878  1.00  0.00     0.091 A 
ATOM     43  F   UNL A   1      39.857  25.618  29.074  1.00  0.00    -0.205 F 
ATOM     44  C   UNL A   1      41.367  25.797  25.742  1.00  0.00     0.022 A 
BRANCH  42  45
ATOM     45  S   UNL A   1      40.307  23.525  26.840  1.00  0.00     0.127 S 
ATOM     46  O   UNL A   1      38.891  23.572  26.478  1.00  0.00    -0.237 OA
ATOM     47  O   UNL A   1      41.188  23.018  25.786  1.00  0.00    -0.237 OA
ATOM     48  O   UNL A   1      40.596  23.014  28.172  1.00  0.00    -0.744 OA
ENDBRANCH  42  45
ENDBRANCH  24  38
BRANCH  25  49
ATOM     49  C   UNL A   1      39.617  32.728  36.344  1.00  0.00     0.023 A 
ATOM     50  C   UNL A   1      40.246  33.965  36.575  1.00  0.00     0.012 A 
ATOM     51  C   UNL A   1      38.700  32.236  37.293  1.00  0.00     0.148 A 
ATOM     52  C   UNL A   1      39.978  34.691  37.735  1.00  0.00     0.002 A 
ATOM     53  C   UNL A   1      38.390  32.992  38.416  1.00  0.00     0.091 A 
ATOM     54  F   UNL A   1      38.127  31.044  37.070  1.00  0.00    -0.205 F 
ATOM     55  C   UNL A   1      39.039  34.213  38.648  1.00  0.00     0.022 A 
BRANCH  53  56
ATOM     56  S   UNL A   1      37.070  32.508  39.534  1.00  0.00     0.127 S 
ATOM     57  O   UNL A   1      35.896  32.601  38.672  1.00  0.00    -0.237 OA
ATOM     58  O   UNL A   1      37.457  31.146  39.906  1.00  0.00    -0.237 OA
ATOM     59  O   UNL A   1      37.141  33.462  40.634  1.00  0.00    -0.744 OA
ENDBRANCH  53  56
ENDBRANCH  25  49
BRANCH  37  60
ATOM     60  C   UNL A   1      44.225  27.887  34.329  1.00  0.00     0.023 A 
ATOM     61  C   UNL A   1      45.505  28.474  34.382  1.00  0.00     0.012 A 
ATOM     62  C   UNL A   1      43.987  26.677  35.008  1.00  0.00     0.148 A 
ATOM     63  C   UNL A   1      46.540  27.855  35.080  1.00  0.00     0.002 A 
ATOM     64  C   UNL A   1      45.012  26.088  35.738  1.00  0.00     0.091 A 
ATOM     65  F   UNL A   1      42.766  26.129  34.928  1.00  0.00    -0.205 F 
ATOM     66  C   UNL A   1      46.290  26.669  35.767  1.00  0.00     0.022 A 
BRANCH  64  67
ATOM     67  S   UNL A   1      44.763  24.605  36.720  1.00  0.00     0.127 S 
ATOM     68  O   UNL A   1      46.112  24.345  37.216  1.00  0.00    -0.237 OA
ATOM     69  O   UNL A   1      43.815  25.061  37.738  1.00  0.00    -0.237 OA
ATOM     70  O   UNL A   1      44.230  23.603  35.806  1.00  0.00    -0.744 OA
ENDBRANCH  64  67
ENDBRANCH  37  60
ENDBRANCH  11  12
ENDBRANCH   4   6
ENDBRANCH   1   2
BRANCH   1  71
ATOM     71  C   UNL A   1      31.857  31.231  26.793  1.00  0.00     0.023 C 
BRANCH  71  72
ATOM     72  C   UNL A   1      32.259  29.770  26.972  1.00  0.00     0.023 C 
BRANCH  72  73
ATOM     73  C   UNL A   1      31.514  28.787  26.070  1.00  0.00     0.116 C 
BRANCH  73  74
ATOM     74  N   UNL A   1      32.351  27.798  25.432  1.00  0.00    -0.351 N 
ATOM     75  C   UNL A   1      32.678  27.592  24.127  1.00  0.00     0.279 C 
ATOM     76  H   UNL A   1      32.761  27.156  26.056  1.00  0.00     0.163 HD
ATOM     77  O   UNL A   1      33.644  26.843  23.929  1.00  0.00    -0.268 OA
BRANCH  75  78
ATOM     78  C   UNL A   1      31.874  28.124  22.917  1.00  0.00     0.283 C 
ATOM     79  C   UNL A   1      30.709  27.205  22.588  1.00  0.00     0.151 C 
ATOM     80  N   UNL A   1      31.497  29.560  22.953  1.00  0.00    -0.322 N 
ATOM     81  S   UNL A   1      29.253  28.120  23.093  1.00  0.00    -0.089 SA
ATOM     82  C   UNL A   1      30.040  29.750  22.845  1.00  0.00     0.143 C 
ATOM     83  H   UNL A   1      31.950  30.039  22.175  1.00  0.00     0.348 HD
ATOM     84  H   UNL A   1      31.800  29.944  23.847  1.00  0.00     0.348 HD
ATOM     85  C   UNL A   1      29.557  30.823  23.849  1.00  0.00     0.081 C 
ATOM     86  C   UNL A   1      29.657  30.247  21.431  1.00  0.00     0.081 C 
ATOM     87  C   UNL A   1      28.058  31.090  23.782  1.00  0.00     0.007 C 
ATOM     88  C   UNL A   1      28.154  30.555  21.292  1.00  0.00     0.007 C 
ATOM     89  C   UNL A   1      27.630  31.496  22.379  1.00  0.00     0.001 C 
ENDBRANCH  75  78
ENDBRANCH  73  74
ENDBRANCH  72  73
ENDBRANCH  71  72
ENDBRANCH   1  71
TORSDOF 14
ENDMDL
MODEL 3
REMARK VINA RESULT:     -11.7      1.649      3.040
REMARK SMILES O=C(NCCCCNC(=O)[C@H]1CSC2(CCCCC2)[NH2+]1)c1ccc(-c2c3nc(c(-c4cccc(S(=O)(=O)[O-])c4F)c4ccc([nH]4)c(-c4cccc(S(=O)(=O)[O-])c4F)c4nc(c(-c5cccc(S(=O)(=O)[O-])c5F)c5ccc2[nH]5)C=C4)C=C3)cc1
REMARK SMILES IDX 4 1 3 2 1 3 2 4 21 6 22 7 83 8 23 9 82 10 24 11 25 12 26 13
REMARK SMILES IDX 76 14 27 15 81 16 75 17 77 18 28 19 80 20 74 21 73 22 29 24
REMARK SMILES IDX 61 25 41 26 60 27 42 28 45 29 59 30 78 31 43 32 44 33 58 35
REMARK SMILES IDX 79 36 46 37 30 38 31 39 39 40 32 41 34 42 40 43 33 44 35 45
REMARK SMILES IDX 36 46 37 47 38 48 62 49 63 50 71 51 64 52 66 53 72 54 65 55
REMARK SMILES IDX 67 56 68 57 69 58 70 59 47 60 48 61 56 62 49 63 51 64 57 65
REMARK SMILES IDX 50 66 52 67 53 68 54 69 55 70 5 71 6 72 7 73 8 74 9 75 10 77
REMARK SMILES IDX 11 78 12 79 20 80 13 81 14 82 15 85 19 86 16 87 18 88 17 89
REMARK H PARENT 3 5 77 23 45 34 8 76 20 83 20 84
REMARK Flexibility Score: inf
ROOT
ATOM      1  C   UNL A   1      38.912  20.573  25.744  1.00  0.00     0.116 C 
ENDROOT
BRANCH   1   2
ATOM      2  N   UNL A   1      39.850  19.463  25.801  1.00  0.00    -0.352 N 
ATOM      3  O   UNL A   1      41.901  18.539  26.087  1.00  0.00    -0.269 OA
ATOM      4  C   UNL A   1      41.196  19.531  26.116  1.00  0.00     0.251 C 
ATOM      5  H   UNL A   1      39.491  18.570  25.595  1.00  0.00     0.163 HD
BRANCH   4   6
ATOM      6  C   UNL A   1      41.756  20.863  26.439  1.00  0.00     0.039 A 
ATOM      7  C   UNL A   1      41.941  21.235  27.773  1.00  0.00     0.014 A 
ATOM      8  C   UNL A   1      41.972  21.779  25.407  1.00  0.00     0.014 A 
ATOM      9  C   UNL A   1      42.191  22.564  28.085  1.00  0.00     0.010 A 
ATOM     10  C   UNL A   1      42.311  23.097  25.723  1.00  0.00     0.010 A 
ATOM     11  C   UNL A   1      42.388  23.509  27.064  1.00  0.00    -0.014 A 
BRANCH  11  12
ATOM     12  C   UNL A   1      42.775  24.897  27.419  1.00  0.00     0.031 A 
ATOM     13  C   UNL A   1      41.807  25.849  28.065  1.00  0.00     0.074 A 
ATOM     14  C   UNL A   1      44.025  25.298  27.116  1.00  0.00     0.049 A 
ATOM     15  N   UNL A   1      41.994  27.098  28.406  1.00  0.00    -0.248 NA
ATOM     16  C   UNL A   1      40.455  25.345  28.362  1.00  0.00     0.031 C 
ATOM     17  C   UNL A   1      45.030  24.471  26.441  1.00  0.00     0.029 A 
ATOM     18  N   UNL A   1      44.660  26.497  27.310  1.00  0.00    -0.354 N 
ATOM     19  C   UNL A   1      40.778  27.548  28.908  1.00  0.00     0.074 A 
ATOM     20  C   UNL A   1      39.858  26.432  28.841  1.00  0.00     0.031 C 
ATOM     21  C   UNL A   1      46.152  25.183  26.281  1.00  0.00     0.029 A 
ATOM     22  C   UNL A   1      45.930  26.532  26.784  1.00  0.00     0.049 A 
ATOM     23  H   UNL A   1      44.247  27.258  27.779  1.00  0.00     0.167 HD
ATOM     24  C   UNL A   1      40.466  28.776  29.386  1.00  0.00     0.034 A 
ATOM     25  C   UNL A   1      46.808  27.545  26.679  1.00  0.00     0.034 A 
ATOM     26  C   UNL A   1      41.408  29.860  29.501  1.00  0.00     0.049 A 
ATOM     27  C   UNL A   1      46.437  28.887  27.236  1.00  0.00     0.074 A 
ATOM     28  C   UNL A   1      41.223  31.099  30.090  1.00  0.00     0.029 A 
ATOM     29  N   UNL A   1      42.699  29.846  28.998  1.00  0.00    -0.354 N 
ATOM     30  N   UNL A   1      45.341  29.240  27.863  1.00  0.00    -0.248 NA
ATOM     31  C   UNL A   1      47.423  29.965  27.088  1.00  0.00     0.031 C 
ATOM     32  C   UNL A   1      42.394  31.843  29.920  1.00  0.00     0.029 A 
ATOM     33  C   UNL A   1      43.312  31.064  29.235  1.00  0.00     0.049 A 
ATOM     34  H   UNL A   1      43.118  29.082  28.540  1.00  0.00     0.167 HD
ATOM     35  C   UNL A   1      45.507  30.578  28.189  1.00  0.00     0.074 A 
ATOM     36  C   UNL A   1      46.825  30.962  27.725  1.00  0.00     0.031 C 
ATOM     37  C   UNL A   1      44.637  31.420  28.797  1.00  0.00     0.034 A 
BRANCH  24  38
ATOM     38  C   UNL A   1      39.062  29.026  29.869  1.00  0.00     0.023 A 
ATOM     39  C   UNL A   1      38.705  28.672  31.185  1.00  0.00     0.012 A 
ATOM     40  C   UNL A   1      38.138  29.722  29.065  1.00  0.00     0.148 A 
ATOM     41  C   UNL A   1      37.447  28.998  31.690  1.00  0.00     0.002 A 
ATOM     42  C   UNL A   1      36.896  30.071  29.585  1.00  0.00     0.091 A 
ATOM     43  F   UNL A   1      38.491  30.032  27.809  1.00  0.00    -0.205 F 
ATOM     44  C   UNL A   1      36.548  29.706  30.896  1.00  0.00     0.022 A 
BRANCH  42  45
ATOM     45  S   UNL A   1      35.696  31.043  28.666  1.00  0.00     0.127 S 
ATOM     46  O   UNL A   1      34.864  31.577  29.744  1.00  0.00    -0.237 OA
ATOM     47  O   UNL A   1      36.544  32.035  28.004  1.00  0.00    -0.237 OA
ATOM     48  O   UNL A   1      35.030  30.112  27.766  1.00  0.00    -0.744 OA
ENDBRANCH  42  45
ENDBRANCH  24  38
BRANCH  25  49
ATOM     49  C   UNL A   1      48.125  27.308  26.025  1.00  0.00     0.023 A 
ATOM     50  C   UNL A   1      49.196  26.801  26.783  1.00  0.00     0.012 A 
ATOM     51  C   UNL A   1      48.296  27.512  24.642  1.00  0.00     0.148 A 
ATOM     52  C   UNL A   1      50.420  26.518  26.177  1.00  0.00     0.002 A 
ATOM     53  C   UNL A   1      49.497  27.169  24.034  1.00  0.00     0.091 A 
ATOM     54  F   UNL A   1      47.272  28.017  23.938  1.00  0.00    -0.205 F 
ATOM     55  C   UNL A   1      50.566  26.686  24.801  1.00  0.00     0.022 A 
BRANCH  53  56
ATOM     56  S   UNL A   1      49.684  27.206  22.247  1.00  0.00     0.127 S 
ATOM     57  O   UNL A   1      51.070  26.779  22.081  1.00  0.00    -0.237 OA
ATOM     58  O   UNL A   1      48.682  26.233  21.807  1.00  0.00    -0.237 OA
ATOM     59  O   UNL A   1      49.380  28.579  21.866  1.00  0.00    -0.744 OA
ENDBRANCH  53  56
ENDBRANCH  25  49
BRANCH  37  60
ATOM     60  C   UNL A   1      45.076  32.846  28.986  1.00  0.00     0.023 A 
ATOM     61  C   UNL A   1      45.733  33.209  30.178  1.00  0.00     0.012 A 
ATOM     62  C   UNL A   1      44.904  33.802  27.967  1.00  0.00     0.148 A 
ATOM     63  C   UNL A   1      46.191  34.512  30.365  1.00  0.00     0.002 A 
ATOM     64  C   UNL A   1      45.401  35.087  28.144  1.00  0.00     0.091 A 
ATOM     65  F   UNL A   1      44.260  33.436  26.850  1.00  0.00    -0.205 F 
ATOM     66  C   UNL A   1      46.035  35.447  29.345  1.00  0.00     0.022 A 
BRANCH  64  67
ATOM     67  S   UNL A   1      45.320  36.335  26.854  1.00  0.00     0.127 S 
ATOM     68  O   UNL A   1      43.880  36.446  26.636  1.00  0.00    -0.237 OA
ATOM     69  O   UNL A   1      45.931  37.495  27.504  1.00  0.00    -0.237 OA
ATOM     70  O   UNL A   1      46.082  35.801  25.732  1.00  0.00    -0.744 OA
ENDBRANCH  64  67
ENDBRANCH  37  60
ENDBRANCH  11  12
ENDBRANCH   4   6
ENDBRANCH   1   2
BRANCH   1  71
ATOM     71  C   UNL A   1      37.725  20.359  24.815  1.00  0.00     0.023 C 
BRANCH  71  72
ATOM     72  C   UNL A   1      36.954  21.624  24.447  1.00  0.00     0.023 C 
BRANCH  72  73
ATOM     73  C   UNL A   1      37.175  22.804  25.393  1.00  0.00     0.116 C 
BRANCH  73  74
ATOM     74  N   UNL A   1      36.215  22.904  26.468  1.00  0.00    -0.351 N 
ATOM     75  C   UNL A   1      34.898  23.244  26.479  1.00  0.00     0.279 C 
ATOM     76  H   UNL A   1      36.581  22.684  27.356  1.00  0.00     0.163 HD
ATOM     77  O   UNL A   1      34.278  22.957  27.513  1.00  0.00    -0.268 OA
BRANCH  75  78
ATOM     78  C   UNL A   1      34.179  24.042  25.367  1.00  0.00     0.283 C 
ATOM     79  C   UNL A   1      32.729  23.610  25.232  1.00  0.00     0.151 C 
ATOM     80  N   UNL A   1      34.351  25.518  25.395  1.00  0.00    -0.322 N 
ATOM     81  S   UNL A   1      31.783  24.984  25.890  1.00  0.00    -0.089 SA
ATOM     82  C   UNL A   1      33.060  26.222  25.475  1.00  0.00     0.143 C 
ATOM     83  H   UNL A   1      34.833  25.809  24.544  1.00  0.00     0.348 HD
ATOM     84  H   UNL A   1      34.893  25.756  26.224  1.00  0.00     0.348 HD
ATOM     85  C   UNL A   1      33.139  27.386  26.490  1.00  0.00     0.081 C 
ATOM     86  C   UNL A   1      32.689  26.839  24.105  1.00  0.00     0.081 C 
ATOM     87  C   UNL A   1      31.842  28.177  26.613  1.00  0.00     0.007 C 
ATOM     88  C   UNL A   1      31.393  27.671  24.156  1.00  0.00     0.007 C 
ATOM     89  C   UNL A   1      31.398  28.726  25.264  1.00  0.00     0.001 C 
ENDBRANCH  75  78
ENDBRANCH  73  74
ENDBRANCH  72  73
ENDBRANCH  71  72
ENDBRANCH   1  71
TORSDOF 14
ENDMDL
