MODEL 1
REMARK VINA RESULT:     -11.8      0.000      0.000
REMARK SMILES C[C@@H](Sc1nc2ccccc2c(=O)n1N)C(=O)NCCCCNC(=O)c1ccc(-c2c3nc(c(-c4cccc(S(=O)(=O)[O-])c4F)c4ccc([nH]4)c(-c4cccc(S(=O)(=O)[O-])c4F)c4nc(c(-c5cccc(S(=O)(=O)[O-])c5F)c5ccc2[nH]5)C=C4)C=C3)cc1
REMARK SMILES IDX 20 1 19 2 18 3 16 4 17 5 2 7 1 8 3 9 4 10 5 11 14 12 6 13
REMARK SMILES IDX 12 14 7 15 11 16 13 17 8 18 10 19 9 20 15 21 21 24 22 25
REMARK SMILES IDX 23 26 24 27 25 29 26 30 27 31 88 32 28 33 87 34 29 35 30 36
REMARK SMILES IDX 31 37 81 38 32 39 86 40 80 41 82 42 33 43 85 44 79 45 78 46
REMARK SMILES IDX 34 48 66 49 46 50 65 51 47 52 50 53 64 54 83 55 48 56 49 57
REMARK SMILES IDX 63 59 84 60 51 61 35 62 36 63 44 64 37 65 39 66 45 67 38 68
REMARK SMILES IDX 40 69 41 70 42 71 43 72 67 73 68 74 76 75 69 76 71 77 77 78
REMARK SMILES IDX 70 79 72 80 73 81 74 82 75 83 52 84 53 85 61 86 54 87 56 88
REMARK SMILES IDX 62 89 55 90 57 91 58 92 59 93 60 94
REMARK H PARENT 18 6 15 22 15 23 23 28 82 47 50 58
REMARK Flexibility Score: inf
ROOT
ATOM      1  C   UNL A   1      31.894  27.766  26.950  1.00  0.00     0.023 C 
ENDROOT
BRANCH   1   2
ATOM      2  C   UNL A   1      32.247  26.383  26.413  1.00  0.00     0.116 C 
BRANCH   2   3
ATOM      3  N   UNL A   1      31.307  25.377  26.875  1.00  0.00    -0.355 N 
ATOM      4  C   UNL A   1      31.297  24.025  26.696  1.00  0.00     0.233 C 
ATOM      5  O   UNL A   1      30.386  23.385  27.232  1.00  0.00    -0.274 OA
ATOM      6  H   UNL A   1      30.555  25.729  27.403  1.00  0.00     0.163 HD
BRANCH   4   7
ATOM      7  C   UNL A   1      32.364  23.302  25.870  1.00  0.00     0.141 C 
ATOM      8  C   UNL A   1      33.006  22.145  26.627  1.00  0.00     0.030 C 
BRANCH   7   9
ATOM      9  S   UNL A   1      31.660  22.918  24.225  1.00  0.00    -0.073 SA
BRANCH   9  10
ATOM     10  C   UNL A   1      31.529  24.502  23.510  1.00  0.00     0.191 A 
ATOM     11  N   UNL A   1      30.429  25.151  23.716  1.00  0.00    -0.222 NA
ATOM     12  N   UNL A   1      32.626  25.026  22.833  1.00  0.00    -0.202 N 
ATOM     13  C   UNL A   1      30.343  26.470  23.252  1.00  0.00     0.079 A 
ATOM     14  C   UNL A   1      32.628  26.336  22.352  1.00  0.00     0.280 A 
ATOM     15  C   UNL A   1      29.175  27.195  23.505  1.00  0.00     0.029 A 
ATOM     16  C   UNL A   1      31.392  27.105  22.586  1.00  0.00     0.068 A 
ATOM     17  O   UNL A   1      33.593  26.856  21.795  1.00  0.00    -0.267 OA
ATOM     18  C   UNL A   1      29.062  28.529  23.102  1.00  0.00     0.002 A 
ATOM     19  C   UNL A   1      31.289  28.440  22.176  1.00  0.00     0.016 A 
ATOM     20  C   UNL A   1      30.119  29.151  22.438  1.00  0.00     0.001 A 
BRANCH  12  21
ATOM     21  N   UNL A   1      33.813  24.256  22.609  1.00  0.00    -0.334 N 
ATOM     22  H   UNL A   1      33.872  23.333  22.945  1.00  0.00     0.178 HD
ATOM     23  H   UNL A   1      34.570  24.650  22.119  1.00  0.00     0.178 HD
ENDBRANCH  12  21
ENDBRANCH   9  10
ENDBRANCH   7   9
ENDBRANCH   4   7
ENDBRANCH   2   3
ENDBRANCH   1   2
BRANCH   1  24
ATOM     24  C   UNL A   1      31.731  28.841  25.874  1.00  0.00     0.023 C 
BRANCH  24  25
ATOM     25  C   UNL A   1      32.900  29.815  25.745  1.00  0.00     0.116 C 
BRANCH  25  26
ATOM     26  N   UNL A   1      32.592  31.146  26.247  1.00  0.00    -0.352 N 
ATOM     27  C   UNL A   1      33.247  31.873  27.212  1.00  0.00     0.251 C 
ATOM     28  H   UNL A   1      31.810  31.585  25.841  1.00  0.00     0.163 HD
ATOM     29  O   UNL A   1      32.778  32.939  27.605  1.00  0.00    -0.269 OA
BRANCH  27  30
ATOM     30  C   UNL A   1      34.500  31.349  27.795  1.00  0.00     0.039 A 
ATOM     31  C   UNL A   1      35.572  32.222  27.992  1.00  0.00     0.014 A 
ATOM     32  C   UNL A   1      34.601  30.008  28.176  1.00  0.00     0.014 A 
ATOM     33  C   UNL A   1      36.724  31.766  28.635  1.00  0.00     0.010 A 
ATOM     34  C   UNL A   1      35.721  29.575  28.878  1.00  0.00     0.010 A 
ATOM     35  C   UNL A   1      36.793  30.448  29.116  1.00  0.00    -0.014 A 
BRANCH  35  36
ATOM     36  C   UNL A   1      37.969  29.967  29.887  1.00  0.00     0.031 A 
ATOM     37  C   UNL A   1      38.223  30.476  31.279  1.00  0.00     0.074 A 
ATOM     38  C   UNL A   1      38.860  29.147  29.295  1.00  0.00     0.049 A 
ATOM     39  N   UNL A   1      39.226  30.220  32.079  1.00  0.00    -0.248 NA
ATOM     40  C   UNL A   1      37.239  31.420  31.835  1.00  0.00     0.031 C 
ATOM     41  C   UNL A   1      38.772  28.650  27.920  1.00  0.00     0.029 A 
ATOM     42  N   UNL A   1      40.034  28.609  29.764  1.00  0.00    -0.354 N 
ATOM     43  C   UNL A   1      39.016  30.998  33.211  1.00  0.00     0.074 A 
ATOM     44  C   UNL A   1      37.806  31.759  32.984  1.00  0.00     0.031 C 
ATOM     45  C   UNL A   1      39.839  27.877  27.659  1.00  0.00     0.029 A 
ATOM     46  C   UNL A   1      40.702  27.845  28.836  1.00  0.00     0.049 A 
ATOM     47  H   UNL A   1      40.365  28.757  30.680  1.00  0.00     0.167 HD
ATOM     48  C   UNL A   1      39.746  31.054  34.350  1.00  0.00     0.034 A 
ATOM     49  C   UNL A   1      41.879  27.196  28.921  1.00  0.00     0.034 A 
ATOM     50  C   UNL A   1      40.916  30.255  34.596  1.00  0.00     0.049 A 
ATOM     51  C   UNL A   1      42.643  27.232  30.218  1.00  0.00     0.074 A 
ATOM     52  C   UNL A   1      41.664  30.160  35.755  1.00  0.00     0.029 A 
ATOM     53  N   UNL A   1      41.513  29.419  33.665  1.00  0.00    -0.354 N 
ATOM     54  N   UNL A   1      42.335  27.836  31.340  1.00  0.00    -0.248 NA
ATOM     55  C   UNL A   1      43.898  26.468  30.272  1.00  0.00     0.031 C 
ATOM     56  C   UNL A   1      42.726  29.280  35.520  1.00  0.00     0.029 A 
ATOM     57  C   UNL A   1      42.626  28.810  34.220  1.00  0.00     0.049 A 
ATOM     58  H   UNL A   1      41.192  29.278  32.745  1.00  0.00     0.167 HD
ATOM     59  C   UNL A   1      43.335  27.496  32.243  1.00  0.00     0.074 A 
ATOM     60  C   UNL A   1      44.248  26.615  31.543  1.00  0.00     0.031 C 
ATOM     61  C   UNL A   1      43.492  27.888  33.531  1.00  0.00     0.034 A 
BRANCH  48  62
ATOM     62  C   UNL A   1      39.267  31.967  35.448  1.00  0.00     0.023 A 
ATOM     63  C   UNL A   1      38.327  31.492  36.385  1.00  0.00     0.012 A 
ATOM     64  C   UNL A   1      39.789  33.267  35.590  1.00  0.00     0.148 A 
ATOM     65  C   UNL A   1      37.890  32.307  37.429  1.00  0.00     0.002 A 
ATOM     66  C   UNL A   1      39.381  34.058  36.658  1.00  0.00     0.091 A 
ATOM     67  F   UNL A   1      40.664  33.710  34.676  1.00  0.00    -0.205 F 
ATOM     68  C   UNL A   1      38.423  33.585  37.571  1.00  0.00     0.022 A 
BRANCH  66  69
ATOM     69  S   UNL A   1      40.066  35.689  36.975  1.00  0.00     0.127 S 
ATOM     70  O   UNL A   1      39.651  36.421  35.780  1.00  0.00    -0.237 OA
ATOM     71  O   UNL A   1      39.373  36.082  38.202  1.00  0.00    -0.237 OA
ATOM     72  O   UNL A   1      41.502  35.497  37.125  1.00  0.00    -0.744 OA
ENDBRANCH  66  69
ENDBRANCH  48  62
BRANCH  49  73
ATOM     73  C   UNL A   1      42.370  26.386  27.770  1.00  0.00     0.023 A 
ATOM     74  C   UNL A   1      43.295  26.957  26.873  1.00  0.00     0.012 A 
ATOM     75  C   UNL A   1      41.951  25.057  27.570  1.00  0.00     0.148 A 
ATOM     76  C   UNL A   1      43.768  26.231  25.780  1.00  0.00     0.002 A 
ATOM     77  C   UNL A   1      42.469  24.321  26.508  1.00  0.00     0.091 A 
ATOM     78  F   UNL A   1      41.061  24.535  28.425  1.00  0.00    -0.205 F 
ATOM     79  C   UNL A   1      43.363  24.912  25.603  1.00  0.00     0.022 A 
BRANCH  77  80
ATOM     80  S   UNL A   1      42.103  22.577  26.280  1.00  0.00     0.127 S 
ATOM     81  O   UNL A   1      42.719  21.984  27.464  1.00  0.00    -0.237 OA
ATOM     82  O   UNL A   1      40.640  22.571  26.277  1.00  0.00    -0.237 OA
ATOM     83  O   UNL A   1      42.704  22.216  25.003  1.00  0.00    -0.744 OA
ENDBRANCH  77  80
ENDBRANCH  49  73
BRANCH  61  84
ATOM     84  C   UNL A   1      44.673  27.345  34.291  1.00  0.00     0.023 A 
ATOM     85  C   UNL A   1      45.856  28.105  34.381  1.00  0.00     0.012 A 
ATOM     86  C   UNL A   1      44.584  26.119  34.979  1.00  0.00     0.148 A 
ATOM     87  C   UNL A   1      46.942  27.639  35.121  1.00  0.00     0.002 A 
ATOM     88  C   UNL A   1      45.652  25.684  35.754  1.00  0.00     0.091 A 
ATOM     89  F   UNL A   1      43.456  25.401  34.863  1.00  0.00    -0.205 F 
ATOM     90  C   UNL A   1      46.836  26.436  35.817  1.00  0.00     0.022 A 
BRANCH  88  91
ATOM     91  S   UNL A   1      45.567  24.197  36.759  1.00  0.00     0.127 S 
ATOM     92  O   UNL A   1      44.413  24.479  37.611  1.00  0.00    -0.237 OA
ATOM     93  O   UNL A   1      45.345  23.154  35.756  1.00  0.00    -0.237 OA
ATOM     94  O   UNL A   1      46.847  24.107  37.448  1.00  0.00    -0.744 OA
ENDBRANCH  88  91
ENDBRANCH  61  84
ENDBRANCH  35  36
ENDBRANCH  27  30
ENDBRANCH  25  26
ENDBRANCH  24  25
ENDBRANCH   1  24
TORSDOF 17
ENDMDL
MODEL 2
REMARK VINA RESULT:     -11.7      1.461      7.684
REMARK SMILES C[C@@H](Sc1nc2ccccc2c(=O)n1N)C(=O)NCCCCNC(=O)c1ccc(-c2c3nc(c(-c4cccc(S(=O)(=O)[O-])c4F)c4ccc([nH]4)c(-c4cccc(S(=O)(=O)[O-])c4F)c4nc(c(-c5cccc(S(=O)(=O)[O-])c5F)c5ccc2[nH]5)C=C4)C=C3)cc1
REMARK SMILES IDX 20 1 19 2 18 3 16 4 17 5 2 7 1 8 3 9 4 10 5 11 14 12 6 13
REMARK SMILES IDX 12 14 7 15 11 16 13 17 8 18 10 19 9 20 15 21 21 24 22 25
REMARK SMILES IDX 23 26 24 27 25 29 26 30 27 31 88 32 28 33 87 34 29 35 30 36
REMARK SMILES IDX 31 37 81 38 32 39 86 40 80 41 82 42 33 43 85 44 79 45 78 46
REMARK SMILES IDX 34 48 66 49 46 50 65 51 47 52 50 53 64 54 83 55 48 56 49 57
REMARK SMILES IDX 63 59 84 60 51 61 35 62 36 63 44 64 37 65 39 66 45 67 38 68
REMARK SMILES IDX 40 69 41 70 42 71 43 72 67 73 68 74 76 75 69 76 71 77 77 78
REMARK SMILES IDX 70 79 72 80 73 81 74 82 75 83 52 84 53 85 61 86 54 87 56 88
REMARK SMILES IDX 62 89 55 90 57 91 58 92 59 93 60 94
REMARK H PARENT 18 6 15 22 15 23 23 28 82 47 50 58
REMARK Flexibility Score: inf
ROOT
ATOM      1  C   UNL A   1      31.948  27.733  26.978  1.00  0.00     0.023 C 
ENDROOT
BRANCH   1   2
ATOM      2  C   UNL A   1      32.241  26.363  26.376  1.00  0.00     0.116 C 
BRANCH   2   3
ATOM      3  N   UNL A   1      31.338  25.351  26.893  1.00  0.00    -0.355 N 
ATOM      4  C   UNL A   1      31.310  24.002  26.692  1.00  0.00     0.233 C 
ATOM      5  O   UNL A   1      30.442  23.354  27.287  1.00  0.00    -0.274 OA
ATOM      6  H   UNL A   1      30.631  25.694  27.485  1.00  0.00     0.163 HD
BRANCH   4   7
ATOM      7  C   UNL A   1      32.306  23.291  25.772  1.00  0.00     0.141 C 
ATOM      8  C   UNL A   1      32.986  22.107  26.449  1.00  0.00     0.030 C 
BRANCH   7   9
ATOM      9  S   UNL A   1      31.484  22.964  24.171  1.00  0.00    -0.073 SA
BRANCH   9  10
ATOM     10  C   UNL A   1      31.405  24.559  23.473  1.00  0.00     0.191 A 
ATOM     11  N   UNL A   1      30.326  25.241  23.684  1.00  0.00    -0.222 NA
ATOM     12  N   UNL A   1      32.519  25.055  22.803  1.00  0.00    -0.202 N 
ATOM     13  C   UNL A   1      30.283  26.567  23.233  1.00  0.00     0.079 A 
ATOM     14  C   UNL A   1      32.565  26.369  22.337  1.00  0.00     0.280 A 
ATOM     15  C   UNL A   1      29.139  27.326  23.491  1.00  0.00     0.029 A 
ATOM     16  C   UNL A   1      31.354  27.174  22.577  1.00  0.00     0.068 A 
ATOM     17  O   UNL A   1      33.548  26.863  21.787  1.00  0.00    -0.267 OA
ATOM     18  C   UNL A   1      29.070  28.667  23.103  1.00  0.00     0.002 A 
ATOM     19  C   UNL A   1      31.295  28.516  22.180  1.00  0.00     0.016 A 
ATOM     20  C   UNL A   1      30.148  29.262  22.447  1.00  0.00     0.001 A 
BRANCH  12  21
ATOM     21  N   UNL A   1      33.681  24.249  22.573  1.00  0.00    -0.334 N 
ATOM     22  H   UNL A   1      34.486  24.649  22.170  1.00  0.00     0.178 HD
ATOM     23  H   UNL A   1      33.676  23.296  22.817  1.00  0.00     0.178 HD
ENDBRANCH  12  21
ENDBRANCH   9  10
ENDBRANCH   7   9
ENDBRANCH   4   7
ENDBRANCH   2   3
ENDBRANCH   1   2
BRANCH   1  24
ATOM     24  C   UNL A   1      31.555  28.803  25.957  1.00  0.00     0.023 C 
BRANCH  24  25
ATOM     25  C   UNL A   1      32.607  29.880  25.705  1.00  0.00     0.116 C 
BRANCH  25  26
ATOM     26  N   UNL A   1      32.199  31.197  26.173  1.00  0.00    -0.352 N 
ATOM     27  C   UNL A   1      32.814  32.011  27.095  1.00  0.00     0.251 C 
ATOM     28  H   UNL A   1      31.372  31.553  25.776  1.00  0.00     0.163 HD
ATOM     29  O   UNL A   1      32.265  33.045  27.466  1.00  0.00    -0.269 OA
BRANCH  27  30
ATOM     30  C   UNL A   1      34.122  31.616  27.657  1.00  0.00     0.039 A 
ATOM     31  C   UNL A   1      35.083  32.601  27.890  1.00  0.00     0.014 A 
ATOM     32  C   UNL A   1      34.382  30.282  27.984  1.00  0.00     0.014 A 
ATOM     33  C   UNL A   1      36.284  32.260  28.515  1.00  0.00     0.010 A 
ATOM     34  C   UNL A   1      35.548  29.957  28.670  1.00  0.00     0.010 A 
ATOM     35  C   UNL A   1      36.511  30.941  28.944  1.00  0.00    -0.014 A 
BRANCH  35  36
ATOM     36  C   UNL A   1      37.738  30.572  29.696  1.00  0.00     0.031 A 
ATOM     37  C   UNL A   1      38.739  29.624  29.096  1.00  0.00     0.074 A 
ATOM     38  C   UNL A   1      37.901  31.016  30.959  1.00  0.00     0.049 A 
ATOM     39  N   UNL A   1      39.833  29.139  29.623  1.00  0.00    -0.248 NA
ATOM     40  C   UNL A   1      38.460  29.131  27.736  1.00  0.00     0.031 C 
ATOM     41  C   UNL A   1      36.960  31.872  31.684  1.00  0.00     0.029 A 
ATOM     42  N   UNL A   1      38.903  30.783  31.868  1.00  0.00    -0.354 N 
ATOM     43  C   UNL A   1      40.350  28.257  28.682  1.00  0.00     0.074 A 
ATOM     44  C   UNL A   1      39.435  28.250  27.561  1.00  0.00     0.031 C 
ATOM     45  C   UNL A   1      37.431  32.097  32.921  1.00  0.00     0.029 A 
ATOM     46  C   UNL A   1      38.692  31.381  33.089  1.00  0.00     0.049 A 
ATOM     47  H   UNL A   1      39.699  30.240  31.665  1.00  0.00     0.167 HD
ATOM     48  C   UNL A   1      41.498  27.540  28.731  1.00  0.00     0.034 A 
ATOM     49  C   UNL A   1      39.428  31.352  34.217  1.00  0.00     0.034 A 
ATOM     50  C   UNL A   1      42.433  27.592  29.822  1.00  0.00     0.049 A 
ATOM     51  C   UNL A   1      40.726  30.589  34.225  1.00  0.00     0.074 A 
ATOM     52  C   UNL A   1      43.673  26.986  29.920  1.00  0.00     0.029 A 
ATOM     53  N   UNL A   1      42.231  28.284  31.006  1.00  0.00    -0.354 N 
ATOM     54  N   UNL A   1      41.284  29.900  33.259  1.00  0.00    -0.248 NA
ATOM     55  C   UNL A   1      41.513  30.628  35.466  1.00  0.00     0.031 C 
ATOM     56  C   UNL A   1      44.213  27.297  31.173  1.00  0.00     0.029 A 
ATOM     57  C   UNL A   1      43.318  28.114  31.845  1.00  0.00     0.049 A 
ATOM     58  H   UNL A   1      41.431  28.819  31.217  1.00  0.00     0.167 HD
ATOM     59  C   UNL A   1      42.502  29.457  33.760  1.00  0.00     0.074 A 
ATOM     60  C   UNL A   1      42.610  29.973  35.110  1.00  0.00     0.031 C 
ATOM     61  C   UNL A   1      43.440  28.682  33.163  1.00  0.00     0.034 A 
BRANCH  48  62
ATOM     62  C   UNL A   1      41.839  26.680  27.543  1.00  0.00     0.023 A 
ATOM     63  C   UNL A   1      42.501  27.254  26.438  1.00  0.00     0.012 A 
ATOM     64  C   UNL A   1      41.565  25.299  27.542  1.00  0.00     0.148 A 
ATOM     65  C   UNL A   1      42.857  26.474  25.338  1.00  0.00     0.002 A 
ATOM     66  C   UNL A   1      41.961  24.520  26.461  1.00  0.00     0.091 A 
ATOM     67  F   UNL A   1      40.914  24.775  28.591  1.00  0.00    -0.205 F 
ATOM     68  C   UNL A   1      42.595  25.107  25.353  1.00  0.00     0.022 A 
BRANCH  66  69
ATOM     69  S   UNL A   1      41.741  22.737  26.419  1.00  0.00     0.127 S 
ATOM     70  O   UNL A   1      40.285  22.620  26.369  1.00  0.00    -0.237 OA
ATOM     71  O   UNL A   1      42.425  22.371  25.178  1.00  0.00    -0.237 OA
ATOM     72  O   UNL A   1      42.370  22.227  27.630  1.00  0.00    -0.744 OA
ENDBRANCH  66  69
ENDBRANCH  48  62
BRANCH  49  73
ATOM     73  C   UNL A   1      38.997  32.135  35.410  1.00  0.00     0.023 A 
ATOM     74  C   UNL A   1      39.198  33.529  35.427  1.00  0.00     0.012 A 
ATOM     75  C   UNL A   1      38.371  31.519  36.511  1.00  0.00     0.148 A 
ATOM     76  C   UNL A   1      38.814  34.291  36.530  1.00  0.00     0.002 A 
ATOM     77  C   UNL A   1      37.943  32.292  37.585  1.00  0.00     0.091 A 
ATOM     78  F   UNL A   1      38.199  30.189  36.483  1.00  0.00    -0.205 F 
ATOM     79  C   UNL A   1      38.179  33.675  37.604  1.00  0.00     0.022 A 
BRANCH  77  80
ATOM     80  S   UNL A   1      37.001  31.603  38.950  1.00  0.00     0.127 S 
ATOM     81  O   UNL A   1      37.952  31.705  40.053  1.00  0.00    -0.237 OA
ATOM     82  O   UNL A   1      35.864  32.521  39.029  1.00  0.00    -0.237 OA
ATOM     83  O   UNL A   1      36.648  30.251  38.538  1.00  0.00    -0.744 OA
ENDBRANCH  77  80
ENDBRANCH  49  73
BRANCH  61  84
ATOM     84  C   UNL A   1      44.688  28.366  33.944  1.00  0.00     0.023 A 
ATOM     85  C   UNL A   1      45.790  29.242  33.885  1.00  0.00     0.012 A 
ATOM     86  C   UNL A   1      44.740  27.244  34.794  1.00  0.00     0.148 A 
ATOM     87  C   UNL A   1      46.936  28.990  34.641  1.00  0.00     0.002 A 
ATOM     88  C   UNL A   1      45.865  27.026  35.580  1.00  0.00     0.091 A 
ATOM     89  F   UNL A   1      43.688  26.412  34.820  1.00  0.00    -0.205 F 
ATOM     90  C   UNL A   1      46.968  27.891  35.496  1.00  0.00     0.022 A 
BRANCH  88  91
ATOM     91  S   UNL A   1      45.955  25.691  36.779  1.00  0.00     0.127 S 
ATOM     92  O   UNL A   1      45.828  24.512  35.924  1.00  0.00    -0.237 OA
ATOM     93  O   UNL A   1      47.285  25.883  37.360  1.00  0.00    -0.237 OA
ATOM     94  O   UNL A   1      44.856  25.914  37.708  1.00  0.00    -0.744 OA
ENDBRANCH  88  91
ENDBRANCH  61  84
ENDBRANCH  35  36
ENDBRANCH  27  30
ENDBRANCH  25  26
ENDBRANCH  24  25
ENDBRANCH   1  24
TORSDOF 17
ENDMDL
MODEL 3
REMARK VINA RESULT:     -11.6      5.018      9.987
REMARK SMILES C[C@@H](Sc1nc2ccccc2c(=O)n1N)C(=O)NCCCCNC(=O)c1ccc(-c2c3nc(c(-c4cccc(S(=O)(=O)[O-])c4F)c4ccc([nH]4)c(-c4cccc(S(=O)(=O)[O-])c4F)c4nc(c(-c5cccc(S(=O)(=O)[O-])c5F)c5ccc2[nH]5)C=C4)C=C3)cc1
REMARK SMILES IDX 20 1 19 2 18 3 16 4 17 5 2 7 1 8 3 9 4 10 5 11 14 12 6 13
REMARK SMILES IDX 12 14 7 15 11 16 13 17 8 18 10 19 9 20 15 21 21 24 22 25
REMARK SMILES IDX 23 26 24 27 25 29 26 30 27 31 88 32 28 33 87 34 29 35 30 36
REMARK SMILES IDX 31 37 81 38 32 39 86 40 80 41 82 42 33 43 85 44 79 45 78 46
REMARK SMILES IDX 34 48 66 49 46 50 65 51 47 52 50 53 64 54 83 55 48 56 49 57
REMARK SMILES IDX 63 59 84 60 51 61 35 62 36 63 44 64 37 65 39 66 45 67 38 68
REMARK SMILES IDX 40 69 41 70 42 71 43 72 67 73 68 74 76 75 69 76 71 77 77 78
REMARK SMILES IDX 70 79 72 80 73 81 74 82 75 83 52 84 53 85 61 86 54 87 56 88
REMARK SMILES IDX 62 89 55 90 57 91 58 92 59 93 60 94
REMARK H PARENT 18 6 15 22 15 23 23 28 82 47 50 58
REMARK Flexibility Score: inf
ROOT
ATOM      1  C   UNL A   1      35.402  20.438  24.966  1.00  0.00     0.023 C 
ENDROOT
BRANCH   1   2
ATOM      2  C   UNL A   1      33.912  20.310  25.265  1.00  0.00     0.116 C 
BRANCH   2   3
ATOM      3  N   UNL A   1      33.113  21.062  24.315  1.00  0.00    -0.355 N 
ATOM      4  C   UNL A   1      32.530  22.290  24.422  1.00  0.00     0.233 C 
ATOM      5  O   UNL A   1      31.922  22.722  23.437  1.00  0.00    -0.274 OA
ATOM      6  H   UNL A   1      32.967  20.610  23.452  1.00  0.00     0.163 HD
BRANCH   4   7
ATOM      7  C   UNL A   1      32.615  23.126  25.702  1.00  0.00     0.141 C 
ATOM      8  C   UNL A   1      33.640  24.250  25.601  1.00  0.00     0.030 C 
BRANCH   7   9
ATOM      9  S   UNL A   1      30.918  23.602  26.196  1.00  0.00    -0.073 SA
BRANCH   9  10
ATOM     10  C   UNL A   1      30.902  25.307  25.835  1.00  0.00     0.191 A 
ATOM     11  N   UNL A   1      31.333  26.107  26.758  1.00  0.00    -0.222 NA
ATOM     12  N   UNL A   1      30.515  25.721  24.565  1.00  0.00    -0.202 N 
ATOM     13  C   UNL A   1      31.439  27.470  26.452  1.00  0.00     0.079 A 
ATOM     14  C   UNL A   1      30.605  27.058  24.175  1.00  0.00     0.280 A 
ATOM     15  C   UNL A   1      31.941  28.338  27.426  1.00  0.00     0.029 A 
ATOM     16  C   UNL A   1      31.106  27.990  25.200  1.00  0.00     0.068 A 
ATOM     17  O   UNL A   1      30.323  27.459  23.047  1.00  0.00    -0.267 OA
ATOM     18  C   UNL A   1      32.110  29.698  27.150  1.00  0.00     0.002 A 
ATOM     19  C   UNL A   1      31.268  29.352  24.915  1.00  0.00     0.016 A 
ATOM     20  C   UNL A   1      31.773  30.205  25.895  1.00  0.00     0.001 A 
BRANCH  12  21
ATOM     21  N   UNL A   1      30.021  24.797  23.588  1.00  0.00    -0.334 N 
ATOM     22  H   UNL A   1      29.747  25.120  22.699  1.00  0.00     0.178 HD
ATOM     23  H   UNL A   1      29.955  23.840  23.805  1.00  0.00     0.178 HD
ENDBRANCH  12  21
ENDBRANCH   9  10
ENDBRANCH   7   9
ENDBRANCH   4   7
ENDBRANCH   2   3
ENDBRANCH   1   2
BRANCH   1  24
ATOM     24  C   UNL A   1      36.114  21.541  25.753  1.00  0.00     0.023 C 
BRANCH  24  25
ATOM     25  C   UNL A   1      37.528  21.867  25.282  1.00  0.00     0.116 C 
BRANCH  25  26
ATOM     26  N   UNL A   1      38.512  20.878  25.700  1.00  0.00    -0.352 N 
ATOM     27  C   UNL A   1      39.712  21.077  26.340  1.00  0.00     0.251 C 
ATOM     28  H   UNL A   1      38.288  19.942  25.497  1.00  0.00     0.163 HD
ATOM     29  O   UNL A   1      40.482  20.136  26.511  1.00  0.00    -0.269 OA
BRANCH  27  30
ATOM     30  C   UNL A   1      40.081  22.435  26.792  1.00  0.00     0.039 A 
ATOM     31  C   UNL A   1      41.008  22.575  27.827  1.00  0.00     0.014 A 
ATOM     32  C   UNL A   1      39.538  23.563  26.171  1.00  0.00     0.014 A 
ATOM     33  C   UNL A   1      41.443  23.849  28.196  1.00  0.00     0.010 A 
ATOM     34  C   UNL A   1      40.025  24.826  26.492  1.00  0.00     0.010 A 
ATOM     35  C   UNL A   1      40.983  24.983  27.506  1.00  0.00    -0.014 A 
BRANCH  35  36
ATOM     36  C   UNL A   1      41.502  26.341  27.815  1.00  0.00     0.031 A 
ATOM     37  C   UNL A   1      42.921  26.705  27.474  1.00  0.00     0.074 A 
ATOM     38  C   UNL A   1      40.725  27.211  28.491  1.00  0.00     0.049 A 
ATOM     39  N   UNL A   1      43.568  27.815  27.721  1.00  0.00    -0.248 NA
ATOM     40  C   UNL A   1      43.729  25.680  26.792  1.00  0.00     0.031 C 
ATOM     41  C   UNL A   1      39.361  26.946  28.954  1.00  0.00     0.029 A 
ATOM     42  N   UNL A   1      40.982  28.484  28.935  1.00  0.00    -0.354 N 
ATOM     43  C   UNL A   1      44.864  27.608  27.265  1.00  0.00     0.074 A 
ATOM     44  C   UNL A   1      44.922  26.256  26.752  1.00  0.00     0.031 C 
ATOM     45  C   UNL A   1      38.900  28.024  29.609  1.00  0.00     0.029 A 
ATOM     46  C   UNL A   1      39.942  29.045  29.639  1.00  0.00     0.049 A 
ATOM     47  H   UNL A   1      41.832  28.953  28.764  1.00  0.00     0.167 HD
ATOM     48  C   UNL A   1      45.906  28.473  27.247  1.00  0.00     0.034 A 
ATOM     49  C   UNL A   1      39.840  30.245  30.244  1.00  0.00     0.034 A 
ATOM     50  C   UNL A   1      45.830  29.833  27.705  1.00  0.00     0.049 A 
ATOM     51  C   UNL A   1      40.996  31.206  30.161  1.00  0.00     0.074 A 
ATOM     52  C   UNL A   1      46.797  30.820  27.632  1.00  0.00     0.029 A 
ATOM     53  N   UNL A   1      44.728  30.398  28.329  1.00  0.00    -0.354 N 
ATOM     54  N   UNL A   1      42.156  31.053  29.569  1.00  0.00    -0.248 NA
ATOM     55  C   UNL A   1      40.816  32.520  30.797  1.00  0.00     0.031 C 
ATOM     56  C   UNL A   1      46.286  31.977  28.229  1.00  0.00     0.029 A 
ATOM     57  C   UNL A   1      44.993  31.717  28.654  1.00  0.00     0.049 A 
ATOM     58  H   UNL A   1      43.882  29.930  28.512  1.00  0.00     0.167 HD
ATOM     59  C   UNL A   1      42.828  32.260  29.728  1.00  0.00     0.074 A 
ATOM     60  C   UNL A   1      41.936  33.141  30.455  1.00  0.00     0.031 C 
ATOM     61  C   UNL A   1      44.075  32.602  29.323  1.00  0.00     0.034 A 
BRANCH  48  62
ATOM     62  C   UNL A   1      47.205  27.994  26.655  1.00  0.00     0.023 A 
ATOM     63  C   UNL A   1      48.230  27.538  27.509  1.00  0.00     0.012 A 
ATOM     64  C   UNL A   1      47.391  27.936  25.260  1.00  0.00     0.148 A 
ATOM     65  C   UNL A   1      49.432  27.061  26.986  1.00  0.00     0.002 A 
ATOM     66  C   UNL A   1      48.574  27.418  24.745  1.00  0.00     0.091 A 
ATOM     67  F   UNL A   1      46.414  28.395  24.464  1.00  0.00    -0.205 F 
ATOM     68  C   UNL A   1      49.600  26.992  25.606  1.00  0.00     0.022 A 
BRANCH  66  69
ATOM     69  S   UNL A   1      48.857  27.213  22.982  1.00  0.00     0.127 S 
ATOM     70  O   UNL A   1      50.317  27.232  22.914  1.00  0.00    -0.237 OA
ATOM     71  O   UNL A   1      48.251  25.908  22.723  1.00  0.00    -0.237 OA
ATOM     72  O   UNL A   1      48.186  28.333  22.337  1.00  0.00    -0.744 OA
ENDBRANCH  66  69
ENDBRANCH  48  62
BRANCH  49  73
ATOM     73  C   UNL A   1      38.568  30.638  30.912  1.00  0.00     0.023 A 
ATOM     74  C   UNL A   1      38.380  30.324  32.273  1.00  0.00     0.012 A 
ATOM     75  C   UNL A   1      37.558  31.338  30.224  1.00  0.00     0.148 A 
ATOM     76  C   UNL A   1      37.198  30.670  32.927  1.00  0.00     0.002 A 
ATOM     77  C   UNL A   1      36.404  31.727  30.897  1.00  0.00     0.091 A 
ATOM     78  F   UNL A   1      37.748  31.616  28.926  1.00  0.00    -0.205 F 
ATOM     79  C   UNL A   1      36.215  31.379  32.243  1.00  0.00     0.022 A 
BRANCH  77  80
ATOM     80  S   UNL A   1      35.145  32.754  30.131  1.00  0.00     0.127 S 
ATOM     81  O   UNL A   1      35.929  33.897  29.674  1.00  0.00    -0.237 OA
ATOM     82  O   UNL A   1      34.648  31.881  29.066  1.00  0.00    -0.237 OA
ATOM     83  O   UNL A   1      34.173  33.027  31.181  1.00  0.00    -0.744 OA
ENDBRANCH  77  80
ENDBRANCH  49  73
BRANCH  61  84
ATOM     84  C   UNL A   1      44.548  34.001  29.619  1.00  0.00     0.023 A 
ATOM     85  C   UNL A   1      45.188  34.279  30.843  1.00  0.00     0.012 A 
ATOM     86  C   UNL A   1      44.429  35.020  28.653  1.00  0.00     0.148 A 
ATOM     87  C   UNL A   1      45.677  35.557  31.113  1.00  0.00     0.002 A 
ATOM     88  C   UNL A   1      44.961  36.278  28.909  1.00  0.00     0.091 A 
ATOM     89  F   UNL A   1      43.799  34.740  27.502  1.00  0.00    -0.205 F 
ATOM     90  C   UNL A   1      45.575  36.551  30.142  1.00  0.00     0.022 A 
BRANCH  88  91
ATOM     91  S   UNL A   1      44.961  37.589  27.681  1.00  0.00     0.127 S 
ATOM     92  O   UNL A   1      45.774  37.003  26.618  1.00  0.00    -0.237 OA
ATOM     93  O   UNL A   1      43.538  37.717  27.360  1.00  0.00    -0.237 OA
ATOM     94  O   UNL A   1      45.535  38.754  28.340  1.00  0.00    -0.744 OA
ENDBRANCH  88  91
ENDBRANCH  61  84
ENDBRANCH  35  36
ENDBRANCH  27  30
ENDBRANCH  25  26
ENDBRANCH  24  25
ENDBRANCH   1  24
TORSDOF 17
ENDMDL
