MODEL 1
REMARK VINA RESULT:     -10.7      0.000      0.000
REMARK SMILES O=C(COc1ccccc1[C@@H]1C2=C(CCCC2=O)Nc2nc(SCc3ccccn3)nn21)NCCCCNC(=O)c1ccc(-c2c3nc(c(-c4cccc(S(=O)(=O)[O-])c4F)c4ccc([nH]4)c(-c4cccc(S(=O)(=O)[O-])c4F)c4nc(c(-c5cccc(S(=O)(=O)[O-])c5F)c5ccc2[nH]5)C=C4)C=C3)cc1
REMARK SMILES IDX 34 1 33 2 1 3 2 4 3 6 4 7 5 8 6 9 10 10 7 11 9 12 8 13 11 14
REMARK SMILES IDX 12 15 32 16 13 17 17 18 20 19 31 20 14 21 19 22 16 23 18 24
REMARK SMILES IDX 21 25 22 26 15 27 23 29 24 30 25 31 26 32 30 33 27 34 29 35
REMARK SMILES IDX 28 36 35 37 36 38 37 39 38 40 39 41 40 43 41 44 42 45 103 46
REMARK SMILES IDX 43 47 102 48 44 49 45 50 46 51 96 52 47 53 101 54 95 55
REMARK SMILES IDX 97 56 48 57 100 58 94 59 93 60 49 62 81 63 61 64 80 65 62 66
REMARK SMILES IDX 65 67 79 68 98 69 63 70 64 71 78 73 99 74 66 75 50 76 51 77
REMARK SMILES IDX 59 78 52 79 54 80 60 81 53 82 55 83 56 84 57 85 58 86 82 87
REMARK SMILES IDX 83 88 91 89 84 90 86 91 92 92 85 93 87 94 88 95 89 96 90 97
REMARK SMILES IDX 67 98 68 99 76 100 69 101 71 102 77 103 70 104 72 105 73 106
REMARK SMILES IDX 74 107 75 108
REMARK H PARENT 33 5 19 28 38 42 97 61 65 72
REMARK Flexibility Score: inf
ROOT
ATOM      1  C   UNL A   1      40.158  26.863  29.104  1.00  0.00     0.116 C 
ENDROOT
BRANCH   1   2
ATOM      2  N   UNL A   1      39.269  27.967  30.560  1.00  0.00    -0.353 N 
ATOM      3  O   UNL A   1      38.764  27.382  32.918  1.00  0.00    -0.271 OA
ATOM      4  C   UNL A   1      38.936  28.184  32.006  1.00  0.00     0.257 C 
ATOM      5  H   UNL A   1      38.856  28.726  30.087  1.00  0.00     0.163 HD
BRANCH   4   6
ATOM      6  C   UNL A   1      38.894  29.691  32.357  1.00  0.00     0.329 C 
BRANCH   6   7
ATOM      7  O   UNL A   1      37.691  30.207  31.808  1.00  0.00    -0.483 OA
BRANCH   7   8
ATOM      8  C   UNL A   1      37.809  31.434  31.213  1.00  0.00     0.125 A 
ATOM      9  C   UNL A   1      38.887  31.546  30.328  1.00  0.00     0.047 A 
ATOM     10  C   UNL A   1      37.111  32.575  31.666  1.00  0.00     0.024 A 
ATOM     11  C   UNL A   1      39.309  32.794  29.891  1.00  0.00     0.004 A 
ATOM     12  C   UNL A   1      37.607  33.831  31.241  1.00  0.00     0.010 A 
ATOM     13  C   UNL A   1      38.694  33.939  30.375  1.00  0.00     0.001 A 
BRANCH  10  14
ATOM     14  C   UNL A   1      35.860  32.614  32.558  1.00  0.00     0.181 C 
ATOM     15  C   UNL A   1      34.739  33.535  32.134  1.00  0.00     0.044 C 
ATOM     16  N   UNL A   1      36.244  32.917  33.961  1.00  0.00    -0.218 N 
ATOM     17  C   UNL A   1      34.135  34.565  33.102  1.00  0.00     0.027 C 
ATOM     18  C   UNL A   1      34.419  33.489  30.248  1.00  0.00     0.163 C 
ATOM     19  C   UNL A   1      35.609  33.801  34.814  1.00  0.00     0.227 A 
ATOM     20  N   UNL A   1      37.297  32.342  34.592  1.00  0.00    -0.141 NA
ATOM     21  C   UNL A   1      33.184  36.168  32.533  1.00  0.00     0.055 C 
ATOM     22  N   UNL A   1      34.570  34.562  34.411  1.00  0.00    -0.328 N 
ATOM     23  C   UNL A   1      33.623  35.068  29.390  1.00  0.00     0.081 C 
ATOM     24  O   UNL A   1      34.558  32.426  29.645  1.00  0.00    -0.294 OA
ATOM     25  N   UNL A   1      36.236  33.827  35.963  1.00  0.00    -0.185 NA
ATOM     26  C   UNL A   1      37.313  33.014  35.746  1.00  0.00     0.210 A 
ATOM     27  C   UNL A   1      32.936  36.455  30.601  1.00  0.00     0.014 C 
ATOM     28  H   UNL A   1      34.110  35.130  35.070  1.00  0.00     0.169 HD
BRANCH  26  29
ATOM     29  S   UNL A   1      38.642  32.855  36.859  1.00  0.00    -0.078 SA
BRANCH  29  30
ATOM     30  C   UNL A   1      39.798  34.078  36.200  1.00  0.00     0.134 C 
BRANCH  30  31
ATOM     31  C   UNL A   1      40.472  33.741  34.886  1.00  0.00     0.051 A 
ATOM     32  C   UNL A   1      40.705  34.759  33.958  1.00  0.00     0.025 A 
ATOM     33  N   UNL A   1      40.905  32.471  34.677  1.00  0.00    -0.260 NA
ATOM     34  C   UNL A   1      41.361  34.459  32.766  1.00  0.00     0.003 A 
ATOM     35  C   UNL A   1      41.504  32.201  33.495  1.00  0.00     0.111 A 
ATOM     36  C   UNL A   1      41.759  33.153  32.522  1.00  0.00     0.020 A 
ENDBRANCH  30  31
ENDBRANCH  29  30
ENDBRANCH  26  29
ENDBRANCH  10  14
ENDBRANCH   7   8
ENDBRANCH   6   7
ENDBRANCH   4   6
ENDBRANCH   1   2
BRANCH   1  37
ATOM     37  C   UNL A   1      39.777  26.111  27.652  1.00  0.00     0.023 C 
BRANCH  37  38
ATOM     38  C   UNL A   1      39.079  24.720  27.752  1.00  0.00     0.023 C 
BRANCH  38  39
ATOM     39  C   UNL A   1      38.954  23.983  26.409  1.00  0.00     0.116 C 
BRANCH  39  40
ATOM     40  N   UNL A   1      39.656  22.704  26.346  1.00  0.00    -0.352 N 
ATOM     41  C   UNL A   1      41.014  22.514  26.129  1.00  0.00     0.251 C 
ATOM     42  H   UNL A   1      39.111  21.894  26.471  1.00  0.00     0.163 HD
ATOM     43  O   UNL A   1      41.433  21.445  25.698  1.00  0.00    -0.269 OA
BRANCH  41  44
ATOM     44  C   UNL A   1      41.949  23.613  26.444  1.00  0.00     0.039 A 
ATOM     45  C   UNL A   1      42.504  23.770  27.718  1.00  0.00     0.014 A 
ATOM     46  C   UNL A   1      42.265  24.507  25.420  1.00  0.00     0.014 A 
ATOM     47  C   UNL A   1      43.412  24.809  27.931  1.00  0.00     0.010 A 
ATOM     48  C   UNL A   1      43.286  25.406  25.580  1.00  0.00     0.010 A 
ATOM     49  C   UNL A   1      43.796  25.623  26.852  1.00  0.00    -0.014 A 
BRANCH  49  50
ATOM     50  C   UNL A   1      44.782  26.685  27.004  1.00  0.00     0.031 A 
ATOM     51  C   UNL A   1      46.169  26.260  26.700  1.00  0.00     0.074 A 
ATOM     52  C   UNL A   1      44.437  27.975  27.214  1.00  0.00     0.049 A 
ATOM     53  N   UNL A   1      47.098  25.952  27.545  1.00  0.00    -0.248 NA
ATOM     54  C   UNL A   1      46.508  25.938  25.306  1.00  0.00     0.031 C 
ATOM     55  C   UNL A   1      43.087  28.564  27.205  1.00  0.00     0.029 A 
ATOM     56  N   UNL A   1      45.232  29.068  27.373  1.00  0.00    -0.354 N 
ATOM     57  C   UNL A   1      48.225  25.675  26.771  1.00  0.00     0.074 A 
ATOM     58  C   UNL A   1      47.733  25.424  25.446  1.00  0.00     0.031 C 
ATOM     59  C   UNL A   1      43.176  29.912  27.129  1.00  0.00     0.029 A 
ATOM     60  C   UNL A   1      44.566  30.290  27.271  1.00  0.00     0.049 A 
ATOM     61  H   UNL A   1      46.199  29.001  27.546  1.00  0.00     0.167 HD
ATOM     62  C   UNL A   1      49.472  25.990  27.226  1.00  0.00     0.034 A 
ATOM     63  C   UNL A   1      45.127  31.522  27.305  1.00  0.00     0.034 A 
ATOM     64  C   UNL A   1      49.407  26.386  28.614  1.00  0.00     0.049 A 
ATOM     65  C   UNL A   1      46.448  31.374  27.942  1.00  0.00     0.074 A 
ATOM     66  C   UNL A   1      49.151  25.779  29.823  1.00  0.00     0.029 A 
ATOM     67  N   UNL A   1      49.245  27.738  28.792  1.00  0.00    -0.354 N 
ATOM     68  N   UNL A   1      46.596  31.078  29.200  1.00  0.00    -0.248 NA
ATOM     69  C   UNL A   1      47.626  31.188  27.107  1.00  0.00     0.031 C 
ATOM     70  C   UNL A   1      48.552  26.787  30.637  1.00  0.00     0.029 A 
ATOM     71  C   UNL A   1      48.513  27.983  29.918  1.00  0.00     0.049 A 
ATOM     72  H   UNL A   1      49.606  28.432  28.193  1.00  0.00     0.167 HD
ATOM     73  C   UNL A   1      47.696  30.239  29.216  1.00  0.00     0.074 A 
ATOM     74  C   UNL A   1      48.390  30.498  27.959  1.00  0.00     0.031 C 
ATOM     75  C   UNL A   1      47.752  29.201  30.097  1.00  0.00     0.034 A 
BRANCH  62  76
ATOM     76  C   UNL A   1      50.665  26.429  26.383  1.00  0.00     0.023 A 
ATOM     77  C   UNL A   1      51.888  25.752  26.626  1.00  0.00     0.012 A 
ATOM     78  C   UNL A   1      50.747  27.612  25.615  1.00  0.00     0.148 A 
ATOM     79  C   UNL A   1      53.121  26.271  26.217  1.00  0.00     0.002 A 
ATOM     80  C   UNL A   1      51.971  28.098  25.163  1.00  0.00     0.091 A 
ATOM     81  F   UNL A   1      49.662  28.353  25.399  1.00  0.00    -0.205 F 
ATOM     82  C   UNL A   1      53.164  27.451  25.490  1.00  0.00     0.022 A 
BRANCH  80  83
ATOM     83  S   UNL A   1      52.088  29.608  24.189  1.00  0.00     0.127 S 
ATOM     84  O   UNL A   1      51.656  30.613  25.156  1.00  0.00    -0.237 OA
ATOM     85  O   UNL A   1      53.513  29.636  23.858  1.00  0.00    -0.237 OA
ATOM     86  O   UNL A   1      51.212  29.410  23.041  1.00  0.00    -0.744 OA
ENDBRANCH  80  83
ENDBRANCH  62  76
BRANCH  63  87
ATOM     87  C   UNL A   1      44.723  32.820  26.728  1.00  0.00     0.023 A 
ATOM     88  C   UNL A   1      44.432  32.924  25.352  1.00  0.00     0.012 A 
ATOM     89  C   UNL A   1      44.277  33.843  27.586  1.00  0.00     0.148 A 
ATOM     90  C   UNL A   1      43.673  33.990  24.854  1.00  0.00     0.002 A 
ATOM     91  C   UNL A   1      43.485  34.874  27.090  1.00  0.00     0.091 A 
ATOM     92  F   UNL A   1      44.570  33.754  28.891  1.00  0.00    -0.205 F 
ATOM     93  C   UNL A   1      43.176  34.951  25.727  1.00  0.00     0.022 A 
BRANCH  91  94
ATOM     94  S   UNL A   1      42.669  36.037  28.185  1.00  0.00     0.127 S 
ATOM     95  O   UNL A   1      43.807  36.655  28.864  1.00  0.00    -0.237 OA
ATOM     96  O   UNL A   1      41.964  36.920  27.256  1.00  0.00    -0.237 OA
ATOM     97  O   UNL A   1      41.791  35.220  29.008  1.00  0.00    -0.744 OA
ENDBRANCH  91  94
ENDBRANCH  63  87
BRANCH  75  98
ATOM     98  C   UNL A   1      46.800  29.246  31.260  1.00  0.00     0.023 A 
ATOM     99  C   UNL A   1      47.034  30.018  32.417  1.00  0.00     0.012 A 
ATOM    100  C   UNL A   1      45.581  28.566  31.130  1.00  0.00     0.148 A 
ATOM    101  C   UNL A   1      46.077  30.091  33.433  1.00  0.00     0.002 A 
ATOM    102  C   UNL A   1      44.613  28.679  32.116  1.00  0.00     0.091 A 
ATOM    103  F   UNL A   1      45.382  27.832  30.024  1.00  0.00    -0.205 F 
ATOM    104  C   UNL A   1      44.860  29.430  33.276  1.00  0.00     0.022 A 
BRANCH 102 105
ATOM    105  S   UNL A   1      42.988  27.952  31.910  1.00  0.00     0.127 S 
ATOM    106  O   UNL A   1      43.292  26.727  31.174  1.00  0.00    -0.237 OA
ATOM    107  O   UNL A   1      42.559  27.747  33.295  1.00  0.00    -0.237 OA
ATOM    108  O   UNL A   1      42.198  28.940  31.186  1.00  0.00    -0.744 OA
ENDBRANCH 102 105
ENDBRANCH  75  98
ENDBRANCH  49  50
ENDBRANCH  41  44
ENDBRANCH  39  40
ENDBRANCH  38  39
ENDBRANCH  37  38
ENDBRANCH   1  37
TORSDOF 20
ENDMDL
MODEL 2
REMARK VINA RESULT:     -10.4      4.891     13.056
REMARK SMILES O=C(COc1ccccc1[C@@H]1C2=C(CCCC2=O)Nc2nc(SCc3ccccn3)nn21)NCCCCNC(=O)c1ccc(-c2c3nc(c(-c4cccc(S(=O)(=O)[O-])c4F)c4ccc([nH]4)c(-c4cccc(S(=O)(=O)[O-])c4F)c4nc(c(-c5cccc(S(=O)(=O)[O-])c5F)c5ccc2[nH]5)C=C4)C=C3)cc1
REMARK SMILES IDX 34 1 33 2 1 3 2 4 3 6 4 7 5 8 6 9 10 10 7 11 9 12 8 13 11 14
REMARK SMILES IDX 12 15 32 16 13 17 17 18 20 19 31 20 14 21 19 22 16 23 18 24
REMARK SMILES IDX 21 25 22 26 15 27 23 29 24 30 25 31 26 32 30 33 27 34 29 35
REMARK SMILES IDX 28 36 35 37 36 38 37 39 38 40 39 41 40 43 41 44 42 45 103 46
REMARK SMILES IDX 43 47 102 48 44 49 45 50 46 51 96 52 47 53 101 54 95 55
REMARK SMILES IDX 97 56 48 57 100 58 94 59 93 60 49 62 81 63 61 64 80 65 62 66
REMARK SMILES IDX 65 67 79 68 98 69 63 70 64 71 78 73 99 74 66 75 50 76 51 77
REMARK SMILES IDX 59 78 52 79 54 80 60 81 53 82 55 83 56 84 57 85 58 86 82 87
REMARK SMILES IDX 83 88 91 89 84 90 86 91 92 92 85 93 87 94 88 95 89 96 90 97
REMARK SMILES IDX 67 98 68 99 76 100 69 101 71 102 77 103 70 104 72 105 73 106
REMARK SMILES IDX 74 107 75 108
REMARK H PARENT 33 5 19 28 38 42 97 61 65 72
REMARK Flexibility Score: inf
ROOT
ATOM      1  C   UNL A   1      33.044  28.370  24.941  1.00  0.00     0.116 C 
ENDROOT
BRANCH   1   2
ATOM      2  N   UNL A   1      33.263  26.502  24.175  1.00  0.00    -0.353 N 
ATOM      3  O   UNL A   1      33.703  25.777  21.842  1.00  0.00    -0.271 OA
ATOM      4  C   UNL A   1      33.685  25.597  23.055  1.00  0.00     0.257 C 
ATOM      5  H   UNL A   1      32.932  25.898  24.879  1.00  0.00     0.163 HD
BRANCH   4   6
ATOM      6  C   UNL A   1      34.253  24.260  23.591  1.00  0.00     0.329 C 
BRANCH   6   7
ATOM      7  O   UNL A   1      33.147  23.393  23.787  1.00  0.00    -0.483 OA
BRANCH   7   8
ATOM      8  C   UNL A   1      33.091  22.798  25.018  1.00  0.00     0.125 A 
ATOM      9  C   UNL A   1      32.238  23.435  25.927  1.00  0.00     0.047 A 
ATOM     10  C   UNL A   1      34.023  21.826  25.444  1.00  0.00     0.024 A 
ATOM     11  C   UNL A   1      32.307  23.135  27.281  1.00  0.00     0.004 A 
ATOM     12  C   UNL A   1      34.100  21.591  26.838  1.00  0.00     0.010 A 
ATOM     13  C   UNL A   1      33.263  22.242  27.742  1.00  0.00     0.001 A 
BRANCH  10  14
ATOM     14  C   UNL A   1      34.957  20.979  24.567  1.00  0.00     0.181 C 
ATOM     15  C   UNL A   1      34.666  19.499  24.479  1.00  0.00     0.044 C 
ATOM     16  N   UNL A   1      36.369  21.181  24.983  1.00  0.00    -0.218 N 
ATOM     17  C   UNL A   1      35.753  18.447  24.760  1.00  0.00     0.027 C 
ATOM     18  C   UNL A   1      32.798  19.122  24.316  1.00  0.00     0.163 C 
ATOM     19  C   UNL A   1      37.327  20.197  25.144  1.00  0.00     0.227 A 
ATOM     20  N   UNL A   1      36.904  22.395  25.264  1.00  0.00    -0.141 NA
ATOM     21  C   UNL A   1      35.379  16.610  25.290  1.00  0.00     0.055 C 
ATOM     22  N   UNL A   1      37.039  18.887  24.996  1.00  0.00    -0.328 N 
ATOM     23  C   UNL A   1      32.129  17.385  24.948  1.00  0.00     0.081 C 
ATOM     24  O   UNL A   1      32.088  19.893  23.672  1.00  0.00    -0.294 OA
ATOM     25  N   UNL A   1      38.451  20.740  25.539  1.00  0.00    -0.185 NA
ATOM     26  C   UNL A   1      38.117  22.054  25.705  1.00  0.00     0.210 A 
ATOM     27  C   UNL A   1      33.495  16.053  25.419  1.00  0.00     0.014 C 
ATOM     28  H   UNL A   1      37.767  18.227  25.057  1.00  0.00     0.169 HD
BRANCH  26  29
ATOM     29  S   UNL A   1      39.161  23.229  26.453  1.00  0.00    -0.078 SA
BRANCH  29  30
ATOM     30  C   UNL A   1      40.515  22.178  27.027  1.00  0.00     0.134 C 
BRANCH  30  31
ATOM     31  C   UNL A   1      41.830  22.293  26.284  1.00  0.00     0.051 A 
ATOM     32  C   UNL A   1      42.636  21.161  26.143  1.00  0.00     0.025 A 
ATOM     33  N   UNL A   1      42.155  23.477  25.703  1.00  0.00    -0.260 NA
ATOM     34  C   UNL A   1      43.826  21.254  25.426  1.00  0.00     0.003 A 
ATOM     35  C   UNL A   1      43.334  23.548  25.046  1.00  0.00     0.111 A 
ATOM     36  C   UNL A   1      44.190  22.473  24.875  1.00  0.00     0.020 A 
ENDBRANCH  30  31
ENDBRANCH  29  30
ENDBRANCH  26  29
ENDBRANCH  10  14
ENDBRANCH   7   8
ENDBRANCH   6   7
ENDBRANCH   4   6
ENDBRANCH   1   2
BRANCH   1  37
ATOM     37  C   UNL A   1      33.657  29.331  26.175  1.00  0.00     0.023 C 
BRANCH  37  38
ATOM     38  C   UNL A   1      34.870  28.754  26.967  1.00  0.00     0.023 C 
BRANCH  38  39
ATOM     39  C   UNL A   1      35.563  29.775  27.883  1.00  0.00     0.116 C 
BRANCH  39  40
ATOM     40  N   UNL A   1      35.572  31.145  27.374  1.00  0.00    -0.352 N 
ATOM     41  C   UNL A   1      35.839  32.297  28.100  1.00  0.00     0.251 C 
ATOM     42  H   UNL A   1      35.367  31.262  26.418  1.00  0.00     0.163 HD
ATOM     43  O   UNL A   1      35.438  33.388  27.709  1.00  0.00    -0.269 OA
BRANCH  41  44
ATOM     44  C   UNL A   1      36.633  32.191  29.341  1.00  0.00     0.039 A 
ATOM     45  C   UNL A   1      36.088  31.691  30.528  1.00  0.00     0.014 A 
ATOM     46  C   UNL A   1      37.962  32.614  29.297  1.00  0.00     0.014 A 
ATOM     47  C   UNL A   1      36.910  31.583  31.651  1.00  0.00     0.010 A 
ATOM     48  C   UNL A   1      38.808  32.338  30.339  1.00  0.00     0.010 A 
ATOM     49  C   UNL A   1      38.272  31.911  31.544  1.00  0.00    -0.014 A 
BRANCH  49  50
ATOM     50  C   UNL A   1      39.187  31.763  32.668  1.00  0.00     0.031 A 
ATOM     51  C   UNL A   1      38.943  32.726  33.768  1.00  0.00     0.074 A 
ATOM     52  C   UNL A   1      40.046  30.724  32.776  1.00  0.00     0.049 A 
ATOM     53  N   UNL A   1      39.596  33.812  34.019  1.00  0.00    -0.248 NA
ATOM     54  C   UNL A   1      37.710  32.582  34.557  1.00  0.00     0.031 C 
ATOM     55  C   UNL A   1      40.145  29.538  31.910  1.00  0.00     0.029 A 
ATOM     56  N   UNL A   1      40.951  30.449  33.754  1.00  0.00    -0.354 N 
ATOM     57  C   UNL A   1      39.020  34.332  35.178  1.00  0.00     0.074 A 
ATOM     58  C   UNL A   1      37.737  33.698  35.290  1.00  0.00     0.031 C 
ATOM     59  C   UNL A   1      40.887  28.585  32.520  1.00  0.00     0.029 A 
ATOM     60  C   UNL A   1      41.467  29.153  33.720  1.00  0.00     0.049 A 
ATOM     61  H   UNL A   1      41.220  31.111  34.431  1.00  0.00     0.167 HD
ATOM     62  C   UNL A   1      39.784  34.991  36.096  1.00  0.00     0.034 A 
ATOM     63  C   UNL A   1      42.312  28.594  34.618  1.00  0.00     0.034 A 
ATOM     64  C   UNL A   1      41.105  35.233  35.559  1.00  0.00     0.049 A 
ATOM     65  C   UNL A   1      42.963  29.702  35.340  1.00  0.00     0.074 A 
ATOM     66  C   UNL A   1      41.662  36.017  34.574  1.00  0.00     0.029 A 
ATOM     67  N   UNL A   1      42.006  34.240  35.852  1.00  0.00    -0.354 N 
ATOM     68  N   UNL A   1      43.814  30.510  34.775  1.00  0.00    -0.248 NA
ATOM     69  C   UNL A   1      42.401  30.160  36.602  1.00  0.00     0.031 C 
ATOM     70  C   UNL A   1      42.790  35.285  34.096  1.00  0.00     0.029 A 
ATOM     71  C   UNL A   1      42.912  34.109  34.839  1.00  0.00     0.049 A 
ATOM     72  H   UNL A   1      42.001  33.700  36.676  1.00  0.00     0.167 HD
ATOM     73  C   UNL A   1      43.530  31.739  35.343  1.00  0.00     0.074 A 
ATOM     74  C   UNL A   1      42.808  31.433  36.573  1.00  0.00     0.031 C 
ATOM     75  C   UNL A   1      43.631  32.877  34.598  1.00  0.00     0.034 A 
BRANCH  62  76
ATOM     76  C   UNL A   1      39.584  35.003  37.608  1.00  0.00     0.023 A 
ATOM     77  C   UNL A   1      39.553  36.280  38.226  1.00  0.00     0.012 A 
ATOM     78  C   UNL A   1      39.720  33.894  38.471  1.00  0.00     0.148 A 
ATOM     79  C   UNL A   1      39.745  36.447  39.601  1.00  0.00     0.002 A 
ATOM     80  C   UNL A   1      39.855  34.060  39.847  1.00  0.00     0.091 A 
ATOM     81  F   UNL A   1      39.831  32.663  37.976  1.00  0.00    -0.205 F 
ATOM     82  C   UNL A   1      39.905  35.335  40.414  1.00  0.00     0.022 A 
BRANCH  80  83
ATOM     83  S   UNL A   1      40.035  32.653  40.957  1.00  0.00     0.127 S 
ATOM     84  O   UNL A   1      40.134  33.316  42.254  1.00  0.00    -0.237 OA
ATOM     85  O   UNL A   1      38.786  31.929  40.722  1.00  0.00    -0.237 OA
ATOM     86  O   UNL A   1      41.229  31.945  40.511  1.00  0.00    -0.744 OA
ENDBRANCH  80  83
ENDBRANCH  62  76
BRANCH  63  87
ATOM     87  C   UNL A   1      42.542  27.198  35.041  1.00  0.00     0.023 A 
ATOM     88  C   UNL A   1      41.557  26.509  35.777  1.00  0.00     0.012 A 
ATOM     89  C   UNL A   1      43.553  26.449  34.410  1.00  0.00     0.148 A 
ATOM     90  C   UNL A   1      41.549  25.111  35.839  1.00  0.00     0.002 A 
ATOM     91  C   UNL A   1      43.512  25.058  34.438  1.00  0.00     0.091 A 
ATOM     92  F   UNL A   1      44.501  27.104  33.726  1.00  0.00    -0.205 F 
ATOM     93  C   UNL A   1      42.511  24.383  35.147  1.00  0.00     0.022 A 
BRANCH  91  94
ATOM     94  S   UNL A   1      44.611  24.068  33.424  1.00  0.00     0.127 S 
ATOM     95  O   UNL A   1      44.097  22.719  33.656  1.00  0.00    -0.237 OA
ATOM     96  O   UNL A   1      44.368  24.587  32.078  1.00  0.00    -0.237 OA
ATOM     97  O   UNL A   1      45.943  24.349  33.936  1.00  0.00    -0.744 OA
ENDBRANCH  91  94
ENDBRANCH  63  87
BRANCH  75  98
ATOM     98  C   UNL A   1      44.411  32.781  33.316  1.00  0.00     0.023 A 
ATOM     99  C   UNL A   1      45.818  32.698  33.276  1.00  0.00     0.012 A 
ATOM    100  C   UNL A   1      43.686  32.665  32.122  1.00  0.00     0.148 A 
ATOM    101  C   UNL A   1      46.489  32.525  32.062  1.00  0.00     0.002 A 
ATOM    102  C   UNL A   1      44.351  32.446  30.924  1.00  0.00     0.091 A 
ATOM    103  F   UNL A   1      42.349  32.754  32.183  1.00  0.00    -0.205 F 
ATOM    104  C   UNL A   1      45.753  32.386  30.887  1.00  0.00     0.022 A 
BRANCH 102 105
ATOM    105  S   UNL A   1      43.450  32.137  29.406  1.00  0.00     0.127 S 
ATOM    106  O   UNL A   1      42.599  31.010  29.779  1.00  0.00    -0.237 OA
ATOM    107  O   UNL A   1      42.740  33.402  29.202  1.00  0.00    -0.237 OA
ATOM    108  O   UNL A   1      44.459  31.855  28.393  1.00  0.00    -0.744 OA
ENDBRANCH 102 105
ENDBRANCH  75  98
ENDBRANCH  49  50
ENDBRANCH  41  44
ENDBRANCH  39  40
ENDBRANCH  38  39
ENDBRANCH  37  38
ENDBRANCH   1  37
TORSDOF 20
ENDMDL
MODEL 3
REMARK VINA RESULT:     -10.3      4.695     11.534
REMARK SMILES O=C(COc1ccccc1[C@@H]1C2=C(CCCC2=O)Nc2nc(SCc3ccccn3)nn21)NCCCCNC(=O)c1ccc(-c2c3nc(c(-c4cccc(S(=O)(=O)[O-])c4F)c4ccc([nH]4)c(-c4cccc(S(=O)(=O)[O-])c4F)c4nc(c(-c5cccc(S(=O)(=O)[O-])c5F)c5ccc2[nH]5)C=C4)C=C3)cc1
REMARK SMILES IDX 34 1 33 2 1 3 2 4 3 6 4 7 5 8 6 9 10 10 7 11 9 12 8 13 11 14
REMARK SMILES IDX 12 15 32 16 13 17 17 18 20 19 31 20 14 21 19 22 16 23 18 24
REMARK SMILES IDX 21 25 22 26 15 27 23 29 24 30 25 31 26 32 30 33 27 34 29 35
REMARK SMILES IDX 28 36 35 37 36 38 37 39 38 40 39 41 40 43 41 44 42 45 103 46
REMARK SMILES IDX 43 47 102 48 44 49 45 50 46 51 96 52 47 53 101 54 95 55
REMARK SMILES IDX 97 56 48 57 100 58 94 59 93 60 49 62 81 63 61 64 80 65 62 66
REMARK SMILES IDX 65 67 79 68 98 69 63 70 64 71 78 73 99 74 66 75 50 76 51 77
REMARK SMILES IDX 59 78 52 79 54 80 60 81 53 82 55 83 56 84 57 85 58 86 82 87
REMARK SMILES IDX 83 88 91 89 84 90 86 91 92 92 85 93 87 94 88 95 89 96 90 97
REMARK SMILES IDX 67 98 68 99 76 100 69 101 71 102 77 103 70 104 72 105 73 106
REMARK SMILES IDX 74 107 75 108
REMARK H PARENT 33 5 19 28 38 42 97 61 65 72
REMARK Flexibility Score: inf
ROOT
ATOM      1  C   UNL A   1      32.255  28.231  25.012  1.00  0.00     0.116 C 
ENDROOT
BRANCH   1   2
ATOM      2  N   UNL A   1      32.825  26.468  24.178  1.00  0.00    -0.353 N 
ATOM      3  O   UNL A   1      33.755  25.997  21.926  1.00  0.00    -0.271 OA
ATOM      4  C   UNL A   1      33.542  25.712  23.100  1.00  0.00     0.257 C 
ATOM      5  H   UNL A   1      32.445  25.775  24.766  1.00  0.00     0.163 HD
BRANCH   4   6
ATOM      6  C   UNL A   1      34.158  24.399  23.642  1.00  0.00     0.329 C 
BRANCH   6   7
ATOM      7  O   UNL A   1      33.085  23.489  23.829  1.00  0.00    -0.483 OA
BRANCH   7   8
ATOM      8  C   UNL A   1      33.046  22.888  25.058  1.00  0.00     0.125 A 
ATOM      9  C   UNL A   1      32.156  23.481  25.961  1.00  0.00     0.047 A 
ATOM     10  C   UNL A   1      34.018  21.960  25.490  1.00  0.00     0.024 A 
ATOM     11  C   UNL A   1      32.227  23.181  27.315  1.00  0.00     0.004 A 
ATOM     12  C   UNL A   1      34.094  21.724  26.884  1.00  0.00     0.010 A 
ATOM     13  C   UNL A   1      33.219  22.332  27.782  1.00  0.00     0.001 A 
BRANCH  10  14
ATOM     14  C   UNL A   1      35.000  21.160  24.619  1.00  0.00     0.181 C 
ATOM     15  C   UNL A   1      34.773  19.670  24.516  1.00  0.00     0.044 C 
ATOM     16  N   UNL A   1      36.396  21.418  25.056  1.00  0.00    -0.218 N 
ATOM     17  C   UNL A   1      35.899  18.663  24.804  1.00  0.00     0.027 C 
ATOM     18  C   UNL A   1      32.925  19.215  24.325  1.00  0.00     0.163 C 
ATOM     19  C   UNL A   1      37.393  20.474  25.223  1.00  0.00     0.227 A 
ATOM     20  N   UNL A   1      36.875  22.651  25.354  1.00  0.00    -0.141 NA
ATOM     21  C   UNL A   1      35.597  16.807  25.315  1.00  0.00     0.055 C 
ATOM     22  N   UNL A   1      37.162  19.155  25.061  1.00  0.00    -0.328 N 
ATOM     23  C   UNL A   1      32.322  17.447  24.935  1.00  0.00     0.081 C 
ATOM     24  O   UNL A   1      32.191  19.961  23.678  1.00  0.00    -0.294 OA
ATOM     25  N   UNL A   1      38.487  21.061  25.637  1.00  0.00    -0.185 NA
ATOM     26  C   UNL A   1      38.095  22.359  25.809  1.00  0.00     0.210 A 
ATOM     27  C   UNL A   1      33.737  16.170  25.414  1.00  0.00     0.014 C 
ATOM     28  H   UNL A   1      37.917  18.526  25.127  1.00  0.00     0.169 HD
BRANCH  26  29
ATOM     29  S   UNL A   1      39.079  23.571  26.580  1.00  0.00    -0.078 SA
BRANCH  29  30
ATOM     30  C   UNL A   1      40.307  22.544  27.417  1.00  0.00     0.134 C 
BRANCH  30  31
ATOM     31  C   UNL A   1      41.711  23.105  27.519  1.00  0.00     0.051 A 
ATOM     32  C   UNL A   1      41.951  24.192  28.362  1.00  0.00     0.025 A 
ATOM     33  N   UNL A   1      42.715  22.485  26.849  1.00  0.00    -0.260 NA
ATOM     34  C   UNL A   1      43.248  24.685  28.488  1.00  0.00     0.003 A 
ATOM     35  C   UNL A   1      43.957  23.008  26.960  1.00  0.00     0.111 A 
ATOM     36  C   UNL A   1      44.272  24.090  27.765  1.00  0.00     0.020 A 
ENDBRANCH  30  31
ENDBRANCH  29  30
ENDBRANCH  26  29
ENDBRANCH  10  14
ENDBRANCH   7   8
ENDBRANCH   6   7
ENDBRANCH   4   6
ENDBRANCH   1   2
BRANCH   1  37
ATOM     37  C   UNL A   1      32.387  29.065  26.463  1.00  0.00     0.023 C 
BRANCH  37  38
ATOM     38  C   UNL A   1      33.578  28.667  27.388  1.00  0.00     0.023 C 
BRANCH  38  39
ATOM     39  C   UNL A   1      34.619  29.782  27.582  1.00  0.00     0.116 C 
BRANCH  39  40
ATOM     40  N   UNL A   1      34.055  31.110  27.814  1.00  0.00    -0.352 N 
ATOM     41  C   UNL A   1      34.409  31.995  28.822  1.00  0.00     0.251 C 
ATOM     42  H   UNL A   1      33.353  31.407  27.191  1.00  0.00     0.163 HD
ATOM     43  O   UNL A   1      33.634  32.876  29.179  1.00  0.00    -0.269 OA
BRANCH  41  44
ATOM     44  C   UNL A   1      35.742  31.872  29.447  1.00  0.00     0.039 A 
ATOM     45  C   UNL A   1      35.908  31.393  30.750  1.00  0.00     0.014 A 
ATOM     46  C   UNL A   1      36.849  32.258  28.689  1.00  0.00     0.014 A 
ATOM     47  C   UNL A   1      37.201  31.266  31.259  1.00  0.00     0.010 A 
ATOM     48  C   UNL A   1      38.116  31.963  29.120  1.00  0.00     0.010 A 
ATOM     49  C   UNL A   1      38.300  31.555  30.432  1.00  0.00    -0.014 A 
BRANCH  49  50
ATOM     50  C   UNL A   1      39.672  31.386  30.893  1.00  0.00     0.031 A 
ATOM     51  C   UNL A   1      40.378  32.664  31.150  1.00  0.00     0.074 A 
ATOM     52  C   UNL A   1      40.182  30.182  31.235  1.00  0.00     0.049 A 
ATOM     53  N   UNL A   1      41.232  33.257  30.383  1.00  0.00    -0.248 NA
ATOM     54  C   UNL A   1      39.936  33.485  32.288  1.00  0.00     0.031 C 
ATOM     55  C   UNL A   1      39.476  28.894  31.332  1.00  0.00     0.029 A 
ATOM     56  N   UNL A   1      41.430  29.866  31.679  1.00  0.00    -0.354 N 
ATOM     57  C   UNL A   1      41.644  34.387  31.089  1.00  0.00     0.074 A 
ATOM     58  C   UNL A   1      40.638  34.604  32.091  1.00  0.00     0.031 C 
ATOM     59  C   UNL A   1      40.237  28.004  32.009  1.00  0.00     0.029 A 
ATOM     60  C   UNL A   1      41.544  28.588  32.227  1.00  0.00     0.049 A 
ATOM     61  H   UNL A   1      42.189  30.489  31.619  1.00  0.00     0.167 HD
ATOM     62  C   UNL A   1      42.925  34.841  30.984  1.00  0.00     0.034 A 
ATOM     63  C   UNL A   1      42.641  28.055  32.815  1.00  0.00     0.034 A 
ATOM     64  C   UNL A   1      43.612  34.144  29.920  1.00  0.00     0.049 A 
ATOM     65  C   UNL A   1      43.799  28.840  32.352  1.00  0.00     0.074 A 
ATOM     66  C   UNL A   1      43.548  34.094  28.545  1.00  0.00     0.029 A 
ATOM     67  N   UNL A   1      44.281  33.022  30.341  1.00  0.00    -0.354 N 
ATOM     68  N   UNL A   1      44.226  28.812  31.123  1.00  0.00    -0.248 NA
ATOM     69  C   UNL A   1      44.275  29.954  33.160  1.00  0.00     0.031 C 
ATOM     70  C   UNL A   1      43.942  32.768  28.194  1.00  0.00     0.029 A 
ATOM     71  C   UNL A   1      44.284  32.075  29.358  1.00  0.00     0.049 A 
ATOM     72  H   UNL A   1      44.701  32.916  31.226  1.00  0.00     0.167 HD
ATOM     73  C   UNL A   1      44.613  30.118  30.877  1.00  0.00     0.074 A 
ATOM     74  C   UNL A   1      44.803  30.713  32.196  1.00  0.00     0.031 C 
ATOM     75  C   UNL A   1      44.430  30.664  29.642  1.00  0.00     0.034 A 
BRANCH  62  76
ATOM     76  C   UNL A   1      43.745  35.518  32.078  1.00  0.00     0.023 A 
ATOM     77  C   UNL A   1      44.394  36.727  31.719  1.00  0.00     0.012 A 
ATOM     78  C   UNL A   1      44.156  34.925  33.293  1.00  0.00     0.148 A 
ATOM     79  C   UNL A   1      45.450  37.258  32.468  1.00  0.00     0.002 A 
ATOM     80  C   UNL A   1      45.171  35.485  34.065  1.00  0.00     0.091 A 
ATOM     81  F   UNL A   1      43.656  33.751  33.674  1.00  0.00    -0.205 F 
ATOM     82  C   UNL A   1      45.845  36.631  33.640  1.00  0.00     0.022 A 
BRANCH  80  83
ATOM     83  S   UNL A   1      45.707  34.735  35.611  1.00  0.00     0.127 S 
ATOM     84  O   UNL A   1      46.291  33.482  35.140  1.00  0.00    -0.237 OA
ATOM     85  O   UNL A   1      46.668  35.722  36.102  1.00  0.00    -0.237 OA
ATOM     86  O   UNL A   1      44.507  34.610  36.430  1.00  0.00    -0.744 OA
ENDBRANCH  80  83
ENDBRANCH  62  76
BRANCH  63  87
ATOM     87  C   UNL A   1      42.816  27.017  33.852  1.00  0.00     0.023 A 
ATOM     88  C   UNL A   1      41.851  26.861  34.867  1.00  0.00     0.012 A 
ATOM     89  C   UNL A   1      43.724  25.966  33.623  1.00  0.00     0.148 A 
ATOM     90  C   UNL A   1      41.759  25.671  35.599  1.00  0.00     0.002 A 
ATOM     91  C   UNL A   1      43.597  24.770  34.324  1.00  0.00     0.091 A 
ATOM     92  F   UNL A   1      44.654  26.122  32.671  1.00  0.00    -0.205 F 
ATOM     93  C   UNL A   1      42.616  24.615  35.309  1.00  0.00     0.022 A 
BRANCH  91  94
ATOM     94  S   UNL A   1      44.548  23.318  33.873  1.00  0.00     0.127 S 
ATOM     95  O   UNL A   1      43.979  22.303  34.759  1.00  0.00    -0.237 OA
ATOM     96  O   UNL A   1      44.221  23.140  32.459  1.00  0.00    -0.237 OA
ATOM     97  O   UNL A   1      45.933  23.687  34.120  1.00  0.00    -0.744 OA
ENDBRANCH  91  94
ENDBRANCH  63  87
BRANCH  75  98
ATOM     98  C   UNL A   1      44.172  29.709  28.509  1.00  0.00     0.023 A 
ATOM     99  C   UNL A   1      45.205  29.061  27.800  1.00  0.00     0.012 A 
ATOM    100  C   UNL A   1      42.839  29.380  28.226  1.00  0.00     0.148 A 
ATOM    101  C   UNL A   1      44.909  28.118  26.811  1.00  0.00     0.002 A 
ATOM    102  C   UNL A   1      42.549  28.410  27.279  1.00  0.00     0.091 A 
ATOM    103  F   UNL A   1      41.873  30.015  28.908  1.00  0.00    -0.205 F 
ATOM    104  C   UNL A   1      43.579  27.783  26.560  1.00  0.00     0.022 A 
BRANCH 102 105
ATOM    105  S   UNL A   1      40.868  27.854  27.004  1.00  0.00     0.127 S 
ATOM    106  O   UNL A   1      40.220  29.069  26.515  1.00  0.00    -0.237 OA
ATOM    107  O   UNL A   1      41.046  26.805  25.998  1.00  0.00    -0.237 OA
ATOM    108  O   UNL A   1      40.394  27.364  28.292  1.00  0.00    -0.744 OA
ENDBRANCH 102 105
ENDBRANCH  75  98
ENDBRANCH  49  50
ENDBRANCH  41  44
ENDBRANCH  39  40
ENDBRANCH  38  39
ENDBRANCH  37  38
ENDBRANCH   1  37
TORSDOF 20
ENDMDL
