MODEL 1
REMARK VINA RESULT:     -11.8      0.000      0.000
REMARK SMILES CSc1nc(O)nc(C)c1C(=O)N1C[C@@H](O)C[C@@H]1C(=O)NCCCCNC(=O)c1ccc(-c2c3nc(c(-c4cccc(S(=O)(=O)[O-])c4F)c4ccc([nH]4)c(-c4cccc(S(=O)(=O)[O-])c4F)c4nc(c(-c5cccc(S(=O)(=O)[O-])c5F)c5ccc2[nH]5)C=C4)C=C3)cc1
REMARK SMILES IDX 23 1 22 2 21 3 19 4 20 5 18 7 13 8 14 9 15 10 17 11 11 12
REMARK SMILES IDX 12 13 10 14 3 15 4 16 5 17 8 18 7 19 9 20 2 21 1 22 6 23
REMARK SMILES IDX 16 25 24 27 25 28 26 29 27 30 28 32 29 33 30 34 91 35 31 36
REMARK SMILES IDX 90 37 32 38 33 39 34 40 84 41 35 42 89 43 83 44 85 45 36 46
REMARK SMILES IDX 88 47 82 48 81 49 37 51 69 52 49 53 68 54 50 55 53 56 67 57
REMARK SMILES IDX 86 58 51 59 52 60 66 62 87 63 54 64 38 65 39 66 47 67 40 68
REMARK SMILES IDX 42 69 48 70 41 71 43 72 44 73 45 74 46 75 70 76 71 77 79 78
REMARK SMILES IDX 72 79 74 80 80 81 73 82 75 83 76 84 77 85 78 86 55 87 56 88
REMARK SMILES IDX 64 89 57 90 59 91 65 92 58 93 60 94 61 95 62 96 63 97
REMARK H PARENT 21 6 6 24 16 26 26 31 85 50 53 61
REMARK Flexibility Score: inf
ROOT
ATOM      1  C   UNL A   1      32.387  27.543  26.911  1.00  0.00     0.023 C 
ENDROOT
BRANCH   1   2
ATOM      2  C   UNL A   1      31.811  26.464  26.001  1.00  0.00     0.116 C 
BRANCH   2   3
ATOM      3  N   UNL A   1      31.056  25.454  26.716  1.00  0.00    -0.354 N 
ATOM      4  C   UNL A   1      30.941  24.116  26.463  1.00  0.00     0.242 C 
ATOM      5  O   UNL A   1      30.201  23.461  27.199  1.00  0.00    -0.273 OA
ATOM      6  H   UNL A   1      30.552  25.780  27.496  1.00  0.00     0.163 HD
BRANCH   4   7
ATOM      7  C   UNL A   1      31.637  23.511  25.227  1.00  0.00     0.177 C 
ATOM      8  N   UNL A   1      33.077  23.779  25.169  1.00  0.00    -0.324 N 
ATOM      9  C   UNL A   1      33.472  23.742  23.782  1.00  0.00     0.152 C 
ATOM     10  C   UNL A   1      32.341  24.465  23.077  1.00  0.00     0.136 C 
ATOM     11  C   UNL A   1      31.108  24.057  23.885  1.00  0.00     0.069 C 
BRANCH   8  12
ATOM     12  C   UNL A   1      33.928  23.212  26.096  1.00  0.00     0.259 C 
ATOM     13  O   UNL A   1      33.760  23.464  27.285  1.00  0.00    -0.269 OA
BRANCH  12  14
ATOM     14  C   UNL A   1      34.929  22.191  25.617  1.00  0.00     0.093 A 
ATOM     15  C   UNL A   1      34.655  20.830  25.389  1.00  0.00     0.116 A 
ATOM     16  N   UNL A   1      35.615  19.912  25.109  1.00  0.00    -0.188 NA
ATOM     17  C   UNL A   1      36.845  20.373  24.992  1.00  0.00     0.315 A 
ATOM     18  C   UNL A   1      36.277  22.542  25.434  1.00  0.00     0.058 A 
ATOM     19  N   UNL A   1      37.243  21.627  25.136  1.00  0.00    -0.200 NA
ATOM     20  C   UNL A   1      36.860  23.924  25.519  1.00  0.00     0.068 C 
BRANCH  15  21
ATOM     21  S   UNL A   1      33.048  20.035  25.359  1.00  0.00    -0.109 SA
ATOM     22  C   UNL A   1      32.720  20.108  23.587  1.00  0.00     0.092 C 
ENDBRANCH  15  21
BRANCH  17  23
ATOM     23  O   UNL A   1      37.837  19.487  24.719  1.00  0.00    -0.479 OA
ATOM     24  H   UNL A   1      37.846  19.033  23.898  1.00  0.00     0.297 HD
ENDBRANCH  17  23
ENDBRANCH  12  14
ENDBRANCH   8  12
BRANCH  10  25
ATOM     25  O   UNL A   1      32.199  24.073  21.722  1.00  0.00    -0.391 OA
ATOM     26  H   UNL A   1      31.422  23.500  21.630  1.00  0.00     0.211 HD
ENDBRANCH  10  25
ENDBRANCH   4   7
ENDBRANCH   2   3
ENDBRANCH   1   2
BRANCH   1  27
ATOM     27  C   UNL A   1      31.802  28.940  26.726  1.00  0.00     0.023 C 
BRANCH  27  28
ATOM     28  C   UNL A   1      32.728  29.946  26.053  1.00  0.00     0.116 C 
BRANCH  28  29
ATOM     29  N   UNL A   1      32.481  31.315  26.484  1.00  0.00    -0.352 N 
ATOM     30  C   UNL A   1      33.227  32.095  27.337  1.00  0.00     0.251 C 
ATOM     31  H   UNL A   1      31.673  31.738  26.116  1.00  0.00     0.163 HD
ATOM     32  O   UNL A   1      32.816  33.185  27.711  1.00  0.00    -0.269 OA
BRANCH  30  33
ATOM     33  C   UNL A   1      34.521  31.575  27.819  1.00  0.00     0.039 A 
ATOM     34  C   UNL A   1      35.596  32.454  27.949  1.00  0.00     0.014 A 
ATOM     35  C   UNL A   1      34.634  30.237  28.212  1.00  0.00     0.014 A 
ATOM     36  C   UNL A   1      36.772  32.006  28.551  1.00  0.00     0.010 A 
ATOM     37  C   UNL A   1      35.782  29.813  28.871  1.00  0.00     0.010 A 
ATOM     38  C   UNL A   1      36.860  30.694  29.047  1.00  0.00    -0.014 A 
BRANCH  38  39
ATOM     39  C   UNL A   1      38.076  30.233  29.753  1.00  0.00     0.031 A 
ATOM     40  C   UNL A   1      38.372  30.725  31.138  1.00  0.00     0.074 A 
ATOM     41  C   UNL A   1      38.940  29.410  29.126  1.00  0.00     0.049 A 
ATOM     42  N   UNL A   1      39.370  30.414  31.923  1.00  0.00    -0.248 NA
ATOM     43  C   UNL A   1      37.438  31.708  31.714  1.00  0.00     0.031 C 
ATOM     44  C   UNL A   1      38.802  28.931  27.748  1.00  0.00     0.029 A 
ATOM     45  N   UNL A   1      40.110  28.843  29.560  1.00  0.00    -0.354 N 
ATOM     46  C   UNL A   1      39.190  31.166  33.074  1.00  0.00     0.074 A 
ATOM     47  C   UNL A   1      38.016  31.985  32.873  1.00  0.00     0.031 C 
ATOM     48  C   UNL A   1      39.840  28.129  27.458  1.00  0.00     0.029 A 
ATOM     49  C   UNL A   1      40.719  28.043  28.621  1.00  0.00     0.049 A 
ATOM     50  H   UNL A   1      40.480  28.993  30.460  1.00  0.00     0.167 HD
ATOM     51  C   UNL A   1      39.913  31.144  34.217  1.00  0.00     0.034 A 
ATOM     52  C   UNL A   1      41.847  27.311  28.695  1.00  0.00     0.034 A 
ATOM     53  C   UNL A   1      41.052  30.298  34.434  1.00  0.00     0.049 A 
ATOM     54  C   UNL A   1      42.618  27.275  29.985  1.00  0.00     0.074 A 
ATOM     55  C   UNL A   1      41.801  30.147  35.585  1.00  0.00     0.029 A 
ATOM     56  N   UNL A   1      41.604  29.459  33.478  1.00  0.00    -0.354 N 
ATOM     57  N   UNL A   1      42.350  27.881  31.116  1.00  0.00    -0.248 NA
ATOM     58  C   UNL A   1      43.823  26.433  30.025  1.00  0.00     0.031 C 
ATOM     59  C   UNL A   1      42.810  29.214  35.327  1.00  0.00     0.029 A 
ATOM     60  C   UNL A   1      42.685  28.787  34.014  1.00  0.00     0.049 A 
ATOM     61  H   UNL A   1      41.273  29.358  32.556  1.00  0.00     0.167 HD
ATOM     62  C   UNL A   1      43.337  27.480  32.007  1.00  0.00     0.074 A 
ATOM     63  C   UNL A   1      44.205  26.569  31.290  1.00  0.00     0.031 C 
ATOM     64  C   UNL A   1      43.511  27.846  33.300  1.00  0.00     0.034 A 
BRANCH  51  65
ATOM     65  C   UNL A   1      39.434  31.997  35.355  1.00  0.00     0.023 A 
ATOM     66  C   UNL A   1      38.526  31.445  36.281  1.00  0.00     0.012 A 
ATOM     67  C   UNL A   1      39.912  33.307  35.545  1.00  0.00     0.148 A 
ATOM     68  C   UNL A   1      38.083  32.191  37.371  1.00  0.00     0.002 A 
ATOM     69  C   UNL A   1      39.489  34.034  36.651  1.00  0.00     0.091 A 
ATOM     70  F   UNL A   1      40.757  33.816  34.638  1.00  0.00    -0.205 F 
ATOM     71  C   UNL A   1      38.571  33.480  37.560  1.00  0.00     0.022 A 
BRANCH  69  72
ATOM     72  S   UNL A   1      40.090  35.686  37.017  1.00  0.00     0.127 S 
ATOM     73  O   UNL A   1      39.387  35.987  38.263  1.00  0.00    -0.237 OA
ATOM     74  O   UNL A   1      41.528  35.465  37.165  1.00  0.00    -0.237 OA
ATOM     75  O   UNL A   1      39.716  36.512  35.876  1.00  0.00    -0.744 OA
ENDBRANCH  69  72
ENDBRANCH  51  65
BRANCH  52  76
ATOM     76  C   UNL A   1      42.243  26.476  27.528  1.00  0.00     0.023 A 
ATOM     77  C   UNL A   1      43.095  27.028  26.553  1.00  0.00     0.012 A 
ATOM     78  C   UNL A   1      41.864  25.124  27.431  1.00  0.00     0.148 A 
ATOM     79  C   UNL A   1      43.563  26.246  25.496  1.00  0.00     0.002 A 
ATOM     80  C   UNL A   1      42.362  24.342  26.395  1.00  0.00     0.091 A 
ATOM     81  F   UNL A   1      41.059  24.623  28.379  1.00  0.00    -0.205 F 
ATOM     82  C   UNL A   1      43.204  24.903  25.422  1.00  0.00     0.022 A 
BRANCH  80  83
ATOM     83  S   UNL A   1      42.043  22.578  26.266  1.00  0.00     0.127 S 
ATOM     84  O   UNL A   1      42.766  22.232  25.043  1.00  0.00    -0.237 OA
ATOM     85  O   UNL A   1      42.648  22.078  27.500  1.00  0.00    -0.237 OA
ATOM     86  O   UNL A   1      40.596  22.439  26.193  1.00  0.00    -0.744 OA
ENDBRANCH  80  83
ENDBRANCH  52  76
BRANCH  64  87
ATOM     87  C   UNL A   1      44.680  27.276  34.053  1.00  0.00     0.023 A 
ATOM     88  C   UNL A   1      45.910  27.960  34.024  1.00  0.00     0.012 A 
ATOM     89  C   UNL A   1      44.511  26.177  34.919  1.00  0.00     0.148 A 
ATOM     90  C   UNL A   1      46.958  27.560  34.851  1.00  0.00     0.002 A 
ATOM     91  C   UNL A   1      45.550  25.805  35.763  1.00  0.00     0.091 A 
ATOM     92  F   UNL A   1      43.327  25.547  34.924  1.00  0.00    -0.205 F 
ATOM     93  C   UNL A   1      46.773  26.493  35.729  1.00  0.00     0.022 A 
BRANCH  91  94
ATOM     94  S   UNL A   1      45.387  24.499  36.986  1.00  0.00     0.127 S 
ATOM     95  O   UNL A   1      45.051  23.347  36.149  1.00  0.00    -0.237 OA
ATOM     96  O   UNL A   1      46.726  24.458  37.571  1.00  0.00    -0.237 OA
ATOM     97  O   UNL A   1      44.333  24.924  37.897  1.00  0.00    -0.744 OA
ENDBRANCH  91  94
ENDBRANCH  64  87
ENDBRANCH  38  39
ENDBRANCH  30  33
ENDBRANCH  28  29
ENDBRANCH  27  28
ENDBRANCH   1  27
TORSDOF 19
ENDMDL
MODEL 2
REMARK VINA RESULT:     -11.6      1.929      3.026
REMARK SMILES CSc1nc(O)nc(C)c1C(=O)N1C[C@@H](O)C[C@@H]1C(=O)NCCCCNC(=O)c1ccc(-c2c3nc(c(-c4cccc(S(=O)(=O)[O-])c4F)c4ccc([nH]4)c(-c4cccc(S(=O)(=O)[O-])c4F)c4nc(c(-c5cccc(S(=O)(=O)[O-])c5F)c5ccc2[nH]5)C=C4)C=C3)cc1
REMARK SMILES IDX 23 1 22 2 21 3 19 4 20 5 18 7 13 8 14 9 15 10 17 11 11 12
REMARK SMILES IDX 12 13 10 14 3 15 4 16 5 17 8 18 7 19 9 20 2 21 1 22 6 23
REMARK SMILES IDX 16 25 24 27 25 28 26 29 27 30 28 32 29 33 30 34 91 35 31 36
REMARK SMILES IDX 90 37 32 38 33 39 34 40 84 41 35 42 89 43 83 44 85 45 36 46
REMARK SMILES IDX 88 47 82 48 81 49 37 51 69 52 49 53 68 54 50 55 53 56 67 57
REMARK SMILES IDX 86 58 51 59 52 60 66 62 87 63 54 64 38 65 39 66 47 67 40 68
REMARK SMILES IDX 42 69 48 70 41 71 43 72 44 73 45 74 46 75 70 76 71 77 79 78
REMARK SMILES IDX 72 79 74 80 80 81 73 82 75 83 76 84 77 85 78 86 55 87 56 88
REMARK SMILES IDX 64 89 57 90 59 91 65 92 58 93 60 94 61 95 62 96 63 97
REMARK H PARENT 21 6 6 24 16 26 26 31 85 50 53 61
REMARK Flexibility Score: inf
ROOT
ATOM      1  C   UNL A   1      33.429  28.574  25.551  1.00  0.00     0.023 C 
ENDROOT
BRANCH   1   2
ATOM      2  C   UNL A   1      33.208  27.278  26.321  1.00  0.00     0.116 C 
BRANCH   2   3
ATOM      3  N   UNL A   1      31.807  26.956  26.512  1.00  0.00    -0.354 N 
ATOM      4  C   UNL A   1      31.156  25.770  26.317  1.00  0.00     0.242 C 
ATOM      5  O   UNL A   1      29.939  25.752  26.514  1.00  0.00    -0.273 OA
ATOM      6  H   UNL A   1      31.245  27.699  26.828  1.00  0.00     0.163 HD
BRANCH   4   7
ATOM      7  C   UNL A   1      31.929  24.557  25.761  1.00  0.00     0.177 C 
ATOM      8  N   UNL A   1      31.154  23.746  24.817  1.00  0.00    -0.324 N 
ATOM      9  C   UNL A   1      31.681  22.403  24.861  1.00  0.00     0.152 C 
ATOM     10  C   UNL A   1      31.921  22.170  26.340  1.00  0.00     0.136 C 
ATOM     11  C   UNL A   1      32.361  23.546  26.843  1.00  0.00     0.069 C 
BRANCH   8  12
ATOM     12  C   UNL A   1      30.802  24.258  23.585  1.00  0.00     0.259 C 
ATOM     13  O   UNL A   1      29.707  23.967  23.114  1.00  0.00    -0.269 OA
BRANCH  12  14
ATOM     14  C   UNL A   1      31.716  25.272  22.944  1.00  0.00     0.093 A 
ATOM     15  C   UNL A   1      32.994  24.998  22.423  1.00  0.00     0.116 A 
ATOM     16  N   UNL A   1      33.848  25.964  21.997  1.00  0.00    -0.188 NA
ATOM     17  C   UNL A   1      33.393  27.201  22.032  1.00  0.00     0.315 A 
ATOM     18  C   UNL A   1      31.356  26.629  22.896  1.00  0.00     0.058 A 
ATOM     19  N   UNL A   1      32.203  27.601  22.454  1.00  0.00    -0.200 NA
ATOM     20  C   UNL A   1      30.032  27.218  23.295  1.00  0.00     0.068 C 
BRANCH  15  21
ATOM     21  S   UNL A   1      33.739  23.389  22.158  1.00  0.00    -0.109 SA
ATOM     22  C   UNL A   1      34.939  23.399  23.503  1.00  0.00     0.092 C 
ENDBRANCH  15  21
BRANCH  17  23
ATOM     23  O   UNL A   1      34.217  28.198  21.620  1.00  0.00    -0.479 OA
ATOM     24  H   UNL A   1      34.671  28.722  22.252  1.00  0.00     0.297 HD
ENDBRANCH  17  23
ENDBRANCH  12  14
ENDBRANCH   8  12
BRANCH  10  25
ATOM     25  O   UNL A   1      32.929  21.204  26.587  1.00  0.00    -0.391 OA
ATOM     26  H   UNL A   1      33.213  20.810  25.747  1.00  0.00     0.211 HD
ENDBRANCH  10  25
ENDBRANCH   4   7
ENDBRANCH   2   3
ENDBRANCH   1   2
BRANCH   1  27
ATOM     27  C   UNL A   1      32.444  29.699  25.859  1.00  0.00     0.023 C 
BRANCH  27  28
ATOM     28  C   UNL A   1      32.575  30.311  27.249  1.00  0.00     0.116 C 
BRANCH  28  29
ATOM     29  N   UNL A   1      32.631  31.765  27.220  1.00  0.00    -0.352 N 
ATOM     30  C   UNL A   1      33.649  32.596  27.630  1.00  0.00     0.251 C 
ATOM     31  H   UNL A   1      31.833  32.215  26.859  1.00  0.00     0.163 HD
ATOM     32  O   UNL A   1      33.492  33.808  27.668  1.00  0.00    -0.269 OA
BRANCH  30  33
ATOM     33  C   UNL A   1      34.925  31.989  28.054  1.00  0.00     0.039 A 
ATOM     34  C   UNL A   1      36.053  32.801  28.169  1.00  0.00     0.014 A 
ATOM     35  C   UNL A   1      34.973  30.637  28.409  1.00  0.00     0.014 A 
ATOM     36  C   UNL A   1      37.220  32.271  28.719  1.00  0.00     0.010 A 
ATOM     37  C   UNL A   1      36.116  30.131  29.018  1.00  0.00     0.010 A 
ATOM     38  C   UNL A   1      37.248  30.943  29.178  1.00  0.00    -0.014 A 
BRANCH  38  39
ATOM     39  C   UNL A   1      38.458  30.394  29.830  1.00  0.00     0.031 A 
ATOM     40  C   UNL A   1      38.846  30.857  31.203  1.00  0.00     0.074 A 
ATOM     41  C   UNL A   1      39.234  29.516  29.165  1.00  0.00     0.049 A 
ATOM     42  N   UNL A   1      39.852  30.472  31.943  1.00  0.00    -0.248 NA
ATOM     43  C   UNL A   1      38.008  31.899  31.820  1.00  0.00     0.031 C 
ATOM     44  C   UNL A   1      39.005  29.055  27.793  1.00  0.00     0.029 A 
ATOM     45  N   UNL A   1      40.379  28.866  29.547  1.00  0.00    -0.354 N 
ATOM     46  C   UNL A   1      39.775  31.229  33.103  1.00  0.00     0.074 A 
ATOM     47  C   UNL A   1      38.654  32.129  32.955  1.00  0.00     0.031 C 
ATOM     48  C   UNL A   1      39.970  28.185  27.457  1.00  0.00     0.029 A 
ATOM     49  C   UNL A   1      40.890  28.031  28.581  1.00  0.00     0.049 A 
ATOM     50  H   UNL A   1      40.797  28.985  30.431  1.00  0.00     0.167 HD
ATOM     51  C   UNL A   1      40.542  31.150  34.214  1.00  0.00     0.034 A 
ATOM     52  C   UNL A   1      41.966  27.221  28.604  1.00  0.00     0.034 A 
ATOM     53  C   UNL A   1      41.627  30.225  34.380  1.00  0.00     0.049 A 
ATOM     54  C   UNL A   1      42.786  27.124  29.860  1.00  0.00     0.074 A 
ATOM     55  C   UNL A   1      42.412  30.016  35.498  1.00  0.00     0.029 A 
ATOM     56  N   UNL A   1      42.077  29.355  33.399  1.00  0.00    -0.354 N 
ATOM     57  N   UNL A   1      42.610  27.741  31.004  1.00  0.00    -0.248 NA
ATOM     58  C   UNL A   1      43.930  26.199  29.847  1.00  0.00     0.031 C 
ATOM     59  C   UNL A   1      43.341  29.016  35.194  1.00  0.00     0.029 A 
ATOM     60  C   UNL A   1      43.131  28.606  33.886  1.00  0.00     0.049 A 
ATOM     61  H   UNL A   1      41.702  29.282  32.492  1.00  0.00     0.167 HD
ATOM     62  C   UNL A   1      43.603  27.267  31.851  1.00  0.00     0.074 A 
ATOM     63  C   UNL A   1      44.375  26.302  31.095  1.00  0.00     0.031 C 
ATOM     64  C   UNL A   1      43.858  27.613  33.136  1.00  0.00     0.034 A 
BRANCH  51  65
ATOM     65  C   UNL A   1      40.173  32.028  35.374  1.00  0.00     0.023 A 
ATOM     66  C   UNL A   1      40.881  33.232  35.565  1.00  0.00     0.012 A 
ATOM     67  C   UNL A   1      39.106  31.704  36.232  1.00  0.00     0.148 A 
ATOM     68  C   UNL A   1      40.547  34.093  36.607  1.00  0.00     0.002 A 
ATOM     69  C   UNL A   1      38.759  32.582  37.252  1.00  0.00     0.091 A 
ATOM     70  F   UNL A   1      38.464  30.543  36.043  1.00  0.00    -0.205 F 
ATOM     71  C   UNL A   1      39.482  33.773  37.444  1.00  0.00     0.022 A 
BRANCH  69  72
ATOM     72  S   UNL A   1      37.375  32.290  38.358  1.00  0.00     0.127 S 
ATOM     73  O   UNL A   1      37.850  32.910  39.594  1.00  0.00    -0.237 OA
ATOM     74  O   UNL A   1      36.291  33.009  37.691  1.00  0.00    -0.237 OA
ATOM     75  O   UNL A   1      37.203  30.844  38.414  1.00  0.00    -0.744 OA
ENDBRANCH  69  72
ENDBRANCH  51  65
BRANCH  52  76
ATOM     76  C   UNL A   1      42.252  26.367  27.420  1.00  0.00     0.023 A 
ATOM     77  C   UNL A   1      43.011  26.902  26.361  1.00  0.00     0.012 A 
ATOM     78  C   UNL A   1      41.867  25.014  27.380  1.00  0.00     0.148 A 
ATOM     79  C   UNL A   1      43.378  26.103  25.279  1.00  0.00     0.002 A 
ATOM     80  C   UNL A   1      42.266  24.214  26.315  1.00  0.00     0.091 A 
ATOM     81  F   UNL A   1      41.152  24.530  28.406  1.00  0.00    -0.205 F 
ATOM     82  C   UNL A   1      43.015  24.759  25.259  1.00  0.00     0.022 A 
BRANCH  80  83
ATOM     83  S   UNL A   1      41.937  22.449  26.245  1.00  0.00     0.127 S 
ATOM     84  O   UNL A   1      42.635  22.064  25.019  1.00  0.00    -0.237 OA
ATOM     85  O   UNL A   1      42.562  21.984  27.482  1.00  0.00    -0.237 OA
ATOM     86  O   UNL A   1      40.488  22.316  26.203  1.00  0.00    -0.744 OA
ENDBRANCH  80  83
ENDBRANCH  52  76
BRANCH  64  87
ATOM     87  C   UNL A   1      45.015  26.959  33.837  1.00  0.00     0.023 A 
ATOM     88  C   UNL A   1      46.165  27.721  34.113  1.00  0.00     0.012 A 
ATOM     89  C   UNL A   1      44.892  25.660  34.369  1.00  0.00     0.148 A 
ATOM     90  C   UNL A   1      47.179  27.201  34.916  1.00  0.00     0.002 A 
ATOM     91  C   UNL A   1      45.892  25.161  35.194  1.00  0.00     0.091 A 
ATOM     92  F   UNL A   1      43.783  24.959  34.087  1.00  0.00    -0.205 F 
ATOM     93  C   UNL A   1      47.036  25.928  35.467  1.00  0.00     0.022 A 
BRANCH  91  94
ATOM     94  S   UNL A   1      45.767  23.569  36.017  1.00  0.00     0.127 S 
ATOM     95  O   UNL A   1      46.625  23.769  37.185  1.00  0.00    -0.237 OA
ATOM     96  O   UNL A   1      44.338  23.489  36.316  1.00  0.00    -0.237 OA
ATOM     97  O   UNL A   1      46.250  22.579  35.063  1.00  0.00    -0.744 OA
ENDBRANCH  91  94
ENDBRANCH  64  87
ENDBRANCH  38  39
ENDBRANCH  30  33
ENDBRANCH  28  29
ENDBRANCH  27  28
ENDBRANCH   1  27
TORSDOF 19
ENDMDL
MODEL 3
REMARK VINA RESULT:     -11.6      1.851      2.459
REMARK SMILES CSc1nc(O)nc(C)c1C(=O)N1C[C@@H](O)C[C@@H]1C(=O)NCCCCNC(=O)c1ccc(-c2c3nc(c(-c4cccc(S(=O)(=O)[O-])c4F)c4ccc([nH]4)c(-c4cccc(S(=O)(=O)[O-])c4F)c4nc(c(-c5cccc(S(=O)(=O)[O-])c5F)c5ccc2[nH]5)C=C4)C=C3)cc1
REMARK SMILES IDX 23 1 22 2 21 3 19 4 20 5 18 7 13 8 14 9 15 10 17 11 11 12
REMARK SMILES IDX 12 13 10 14 3 15 4 16 5 17 8 18 7 19 9 20 2 21 1 22 6 23
REMARK SMILES IDX 16 25 24 27 25 28 26 29 27 30 28 32 29 33 30 34 91 35 31 36
REMARK SMILES IDX 90 37 32 38 33 39 34 40 84 41 35 42 89 43 83 44 85 45 36 46
REMARK SMILES IDX 88 47 82 48 81 49 37 51 69 52 49 53 68 54 50 55 53 56 67 57
REMARK SMILES IDX 86 58 51 59 52 60 66 62 87 63 54 64 38 65 39 66 47 67 40 68
REMARK SMILES IDX 42 69 48 70 41 71 43 72 44 73 45 74 46 75 70 76 71 77 79 78
REMARK SMILES IDX 72 79 74 80 80 81 73 82 75 83 76 84 77 85 78 86 55 87 56 88
REMARK SMILES IDX 64 89 57 90 59 91 65 92 58 93 60 94 61 95 62 96 63 97
REMARK H PARENT 21 6 6 24 16 26 26 31 85 50 53 61
REMARK Flexibility Score: inf
ROOT
ATOM      1  C   UNL A   1      31.994  28.847  27.264  1.00  0.00     0.023 C 
ENDROOT
BRANCH   1   2
ATOM      2  C   UNL A   1      31.680  27.826  26.178  1.00  0.00     0.116 C 
BRANCH   2   3
ATOM      3  N   UNL A   1      30.828  26.746  26.634  1.00  0.00    -0.354 N 
ATOM      4  C   UNL A   1      30.096  25.851  25.906  1.00  0.00     0.242 C 
ATOM      5  O   UNL A   1      29.411  25.037  26.528  1.00  0.00    -0.273 OA
ATOM      6  H   UNL A   1      30.767  26.643  27.611  1.00  0.00     0.163 HD
BRANCH   4   7
ATOM      7  C   UNL A   1      30.067  25.961  24.368  1.00  0.00     0.177 C 
ATOM      8  N   UNL A   1      31.296  25.496  23.719  1.00  0.00    -0.324 N 
ATOM      9  C   UNL A   1      31.412  26.188  22.457  1.00  0.00     0.152 C 
ATOM     10  C   UNL A   1      30.994  27.605  22.797  1.00  0.00     0.136 C 
ATOM     11  C   UNL A   1      29.903  27.405  23.850  1.00  0.00     0.069 C 
BRANCH   8  12
ATOM     12  C   UNL A   1      31.638  24.160  23.752  1.00  0.00     0.259 C 
ATOM     13  O   UNL A   1      30.760  23.320  23.575  1.00  0.00    -0.269 OA
BRANCH  12  14
ATOM     14  C   UNL A   1      33.099  23.797  23.853  1.00  0.00     0.093 A 
ATOM     15  C   UNL A   1      33.851  23.780  25.042  1.00  0.00     0.116 A 
ATOM     16  N   UNL A   1      35.196  23.601  25.071  1.00  0.00    -0.188 NA
ATOM     17  C   UNL A   1      35.778  23.371  23.910  1.00  0.00     0.315 A 
ATOM     18  C   UNL A   1      33.846  23.513  22.698  1.00  0.00     0.058 A 
ATOM     19  N   UNL A   1      35.195  23.315  22.723  1.00  0.00    -0.200 NA
ATOM     20  C   UNL A   1      33.313  23.372  21.300  1.00  0.00     0.068 C 
BRANCH  15  21
ATOM     21  S   UNL A   1      33.236  23.928  26.719  1.00  0.00    -0.109 SA
ATOM     22  C   UNL A   1      33.165  22.181  27.159  1.00  0.00     0.092 C 
ENDBRANCH  15  21
BRANCH  17  23
ATOM     23  O   UNL A   1      37.123  23.192  23.894  1.00  0.00    -0.479 OA
ATOM     24  H   UNL A   1      37.595  23.112  24.701  1.00  0.00     0.297 HD
ENDBRANCH  17  23
ENDBRANCH  12  14
ENDBRANCH   8  12
BRANCH  10  25
ATOM     25  O   UNL A   1      30.481  28.310  21.679  1.00  0.00    -0.391 OA
ATOM     26  H   UNL A   1      31.037  28.134  20.903  1.00  0.00     0.211 HD
ENDBRANCH  10  25
ENDBRANCH   4   7
ENDBRANCH   2   3
ENDBRANCH   1   2
BRANCH   1  27
ATOM     27  C   UNL A   1      31.834  30.310  26.857  1.00  0.00     0.023 C 
BRANCH  27  28
ATOM     28  C   UNL A   1      33.090  31.162  27.001  1.00  0.00     0.116 C 
BRANCH  28  29
ATOM     29  N   UNL A   1      32.792  32.570  27.219  1.00  0.00    -0.352 N 
ATOM     30  C   UNL A   1      33.416  33.461  28.062  1.00  0.00     0.251 C 
ATOM     31  H   UNL A   1      32.044  32.935  26.693  1.00  0.00     0.163 HD
ATOM     32  O   UNL A   1      32.963  34.584  28.235  1.00  0.00    -0.269 OA
BRANCH  30  33
ATOM     33  C   UNL A   1      34.629  33.021  28.778  1.00  0.00     0.039 A 
ATOM     34  C   UNL A   1      34.489  32.260  29.939  1.00  0.00     0.014 A 
ATOM     35  C   UNL A   1      35.893  33.300  28.250  1.00  0.00     0.014 A 
ATOM     36  C   UNL A   1      35.624  31.708  30.533  1.00  0.00     0.010 A 
ATOM     37  C   UNL A   1      37.015  32.694  28.805  1.00  0.00     0.010 A 
ATOM     38  C   UNL A   1      36.889  31.893  29.950  1.00  0.00    -0.014 A 
BRANCH  38  39
ATOM     39  C   UNL A   1      38.090  31.251  30.530  1.00  0.00     0.031 A 
ATOM     40  C   UNL A   1      38.561  31.640  31.900  1.00  0.00     0.074 A 
ATOM     41  C   UNL A   1      38.784  30.354  29.803  1.00  0.00     0.049 A 
ATOM     42  N   UNL A   1      39.571  31.170  32.583  1.00  0.00    -0.248 NA
ATOM     43  C   UNL A   1      37.812  32.706  32.588  1.00  0.00     0.031 C 
ATOM     44  C   UNL A   1      38.472  29.958  28.427  1.00  0.00     0.029 A 
ATOM     45  N   UNL A   1      39.903  29.625  30.113  1.00  0.00    -0.354 N 
ATOM     46  C   UNL A   1      39.587  31.888  33.771  1.00  0.00     0.074 A 
ATOM     47  C   UNL A   1      38.516  32.856  33.701  1.00  0.00     0.031 C 
ATOM     48  C   UNL A   1      39.370  29.046  28.020  1.00  0.00     0.029 A 
ATOM     49  C   UNL A   1      40.323  28.798  29.098  1.00  0.00     0.049 A 
ATOM     50  H   UNL A   1      40.363  29.687  30.981  1.00  0.00     0.167 HD
ATOM     51  C   UNL A   1      40.393  31.723  34.844  1.00  0.00     0.034 A 
ATOM     52  C   UNL A   1      41.350  27.926  29.048  1.00  0.00     0.034 A 
ATOM     53  C   UNL A   1      41.426  30.732  34.931  1.00  0.00     0.049 A 
ATOM     54  C   UNL A   1      42.213  27.736  30.263  1.00  0.00     0.074 A 
ATOM     55  C   UNL A   1      42.242  30.436  36.007  1.00  0.00     0.029 A 
ATOM     56  N   UNL A   1      41.783  29.873  33.903  1.00  0.00    -0.354 N 
ATOM     57  N   UNL A   1      42.121  28.320  31.433  1.00  0.00    -0.248 NA
ATOM     58  C   UNL A   1      43.298  26.747  30.169  1.00  0.00     0.031 C 
ATOM     59  C   UNL A   1      43.096  29.396  35.630  1.00  0.00     0.029 A 
ATOM     60  C   UNL A   1      42.810  29.047  34.319  1.00  0.00     0.049 A 
ATOM     61  H   UNL A   1      41.367  29.855  33.011  1.00  0.00     0.167 HD
ATOM     62  C   UNL A   1      43.118  27.758  32.220  1.00  0.00     0.074 A 
ATOM     63  C   UNL A   1      43.799  26.778  31.400  1.00  0.00     0.031 C 
ATOM     64  C   UNL A   1      43.444  28.042  33.504  1.00  0.00     0.034 A 
BRANCH  51  65
ATOM     65  C   UNL A   1      40.124  32.579  36.048  1.00  0.00     0.023 A 
ATOM     66  C   UNL A   1      40.858  33.771  36.209  1.00  0.00     0.012 A 
ATOM     67  C   UNL A   1      39.124  32.245  36.979  1.00  0.00     0.148 A 
ATOM     68  C   UNL A   1      40.615  34.612  37.293  1.00  0.00     0.002 A 
ATOM     69  C   UNL A   1      38.867  33.103  38.042  1.00  0.00     0.091 A 
ATOM     70  F   UNL A   1      38.456  31.094  36.815  1.00  0.00    -0.205 F 
ATOM     71  C   UNL A   1      39.614  34.282  38.203  1.00  0.00     0.022 A 
BRANCH  69  72
ATOM     72  S   UNL A   1      37.569  32.799  39.246  1.00  0.00     0.127 S 
ATOM     73  O   UNL A   1      37.716  33.951  40.135  1.00  0.00    -0.237 OA
ATOM     74  O   UNL A   1      36.367  32.819  38.414  1.00  0.00    -0.237 OA
ATOM     75  O   UNL A   1      37.873  31.507  39.846  1.00  0.00    -0.744 OA
ENDBRANCH  69  72
ENDBRANCH  51  65
BRANCH  52  76
ATOM     76  C   UNL A   1      41.536  27.101  27.824  1.00  0.00     0.023 A 
ATOM     77  C   UNL A   1      42.170  27.675  26.705  1.00  0.00     0.012 A 
ATOM     78  C   UNL A   1      41.182  25.739  27.796  1.00  0.00     0.148 A 
ATOM     79  C   UNL A   1      42.446  26.904  25.575  1.00  0.00     0.002 A 
ATOM     80  C   UNL A   1      41.492  24.969  26.680  1.00  0.00     0.091 A 
ATOM     81  F   UNL A   1      40.587  25.218  28.879  1.00  0.00    -0.205 F 
ATOM     82  C   UNL A   1      42.116  25.552  25.565  1.00  0.00     0.022 A 
BRANCH  80  83
ATOM     83  S   UNL A   1      41.201  23.197  26.608  1.00  0.00     0.127 S 
ATOM     84  O   UNL A   1      39.755  23.140  26.403  1.00  0.00    -0.237 OA
ATOM     85  O   UNL A   1      42.003  22.814  25.447  1.00  0.00    -0.237 OA
ATOM     86  O   UNL A   1      41.670  22.665  27.879  1.00  0.00    -0.744 OA
ENDBRANCH  80  83
ENDBRANCH  52  76
BRANCH  64  87
ATOM     87  C   UNL A   1      44.588  27.296  34.133  1.00  0.00     0.023 A 
ATOM     88  C   UNL A   1      45.872  27.872  34.112  1.00  0.00     0.012 A 
ATOM     89  C   UNL A   1      44.358  26.127  34.885  1.00  0.00     0.148 A 
ATOM     90  C   UNL A   1      46.914  27.297  34.838  1.00  0.00     0.002 A 
ATOM     91  C   UNL A   1      45.393  25.578  35.631  1.00  0.00     0.091 A 
ATOM     92  F   UNL A   1      43.123  25.603  34.884  1.00  0.00    -0.205 F 
ATOM     93  C   UNL A   1      46.671  26.160  35.607  1.00  0.00     0.022 A 
BRANCH  91  94
ATOM     94  S   UNL A   1      45.165  24.165  36.716  1.00  0.00     0.127 S 
ATOM     95  O   UNL A   1      46.536  23.895  37.147  1.00  0.00    -0.237 OA
ATOM     96  O   UNL A   1      44.295  24.713  37.755  1.00  0.00    -0.237 OA
ATOM     97  O   UNL A   1      44.561  23.119  35.901  1.00  0.00    -0.744 OA
ENDBRANCH  91  94
ENDBRANCH  64  87
ENDBRANCH  38  39
ENDBRANCH  30  33
ENDBRANCH  28  29
ENDBRANCH  27  28
ENDBRANCH   1  27
TORSDOF 19
ENDMDL
