MODEL 1
REMARK VINA RESULT:     -11.5      0.000      0.000
REMARK SMILES O=C(Cc1ccc(NC(=O)Nc2ccc(Br)cc2)cc1)NCCCCNC(=O)c1ccc(-c2c3nc(c(-c4cccc(S(=O)(=O)[O-])c4F)c4ccc([nH]4)c(-c4cccc(S(=O)(=O)[O-])c4F)c4nc(c(-c5cccc(S(=O)(=O)[O-])c5F)c5ccc2[nH]5)C=C4)C=C3)cc1
REMARK SMILES IDX 23 1 22 2 21 3 1 4 2 5 3 7 4 8 5 9 20 10 6 11 19 12 7 13
REMARK SMILES IDX 8 14 9 15 10 17 11 18 12 20 13 21 18 22 14 23 17 24 15 25
REMARK SMILES IDX 16 26 24 27 25 28 26 29 27 30 28 32 29 33 30 34 91 35 31 36
REMARK SMILES IDX 90 37 32 38 33 39 34 40 84 41 35 42 89 43 83 44 85 45 36 46
REMARK SMILES IDX 88 47 82 48 81 49 37 51 69 52 49 53 68 54 50 55 53 56 67 57
REMARK SMILES IDX 86 58 51 59 52 60 66 62 87 63 54 64 38 65 39 66 47 67 40 68
REMARK SMILES IDX 42 69 48 70 41 71 43 72 44 73 45 74 46 75 70 76 71 77 79 78
REMARK SMILES IDX 72 79 74 80 80 81 73 82 75 83 76 84 77 85 78 86 55 87 56 88
REMARK SMILES IDX 64 89 57 90 59 91 65 92 58 93 60 94 61 95 62 96 63 97
REMARK H PARENT 21 6 8 16 11 19 26 31 85 50 53 61
REMARK Flexibility Score: inf
ROOT
ATOM      1  C   UNL A   1      32.425  29.319  24.242  1.00  0.00     0.023 C 
ENDROOT
BRANCH   1   2
ATOM      2  C   UNL A   1      30.993  28.777  24.148  1.00  0.00     0.116 C 
BRANCH   2   3
ATOM      3  N   UNL A   1      30.854  27.330  24.232  1.00  0.00    -0.356 N 
ATOM      4  O   UNL A   1      31.082  26.981  21.968  1.00  0.00    -0.275 OA
ATOM      5  C   UNL A   1      30.993  26.526  23.108  1.00  0.00     0.224 C 
ATOM      6  H   UNL A   1      30.658  26.913  25.101  1.00  0.00     0.163 HD
BRANCH   5   7
ATOM      7  C   UNL A   1      31.089  25.026  23.371  1.00  0.00     0.135 C 
BRANCH   7   8
ATOM      8  C   UNL A   1      32.468  24.513  23.749  1.00  0.00    -0.039 A 
ATOM      9  C   UNL A   1      33.181  23.605  22.960  1.00  0.00     0.006 A 
ATOM     10  C   UNL A   1      33.082  24.984  24.922  1.00  0.00     0.006 A 
ATOM     11  C   UNL A   1      34.516  23.306  23.251  1.00  0.00     0.026 A 
ATOM     12  C   UNL A   1      34.419  24.674  25.218  1.00  0.00     0.026 A 
ATOM     13  C   UNL A   1      35.170  23.915  24.323  1.00  0.00     0.042 A 
BRANCH  13  14
ATOM     14  N   UNL A   1      36.568  23.824  24.508  1.00  0.00    -0.308 N 
ATOM     15  C   UNL A   1      37.265  23.387  25.609  1.00  0.00     0.323 C 
ATOM     16  H   UNL A   1      37.118  24.114  23.745  1.00  0.00     0.171 HD
ATOM     17  O   UNL A   1      38.387  23.835  25.843  1.00  0.00    -0.248 OA
ATOM     18  N   UNL A   1      36.704  22.452  26.438  1.00  0.00    -0.308 N 
ATOM     19  H   UNL A   1      36.972  22.479  27.385  1.00  0.00     0.171 HD
BRANCH  18  20
ATOM     20  C   UNL A   1      35.783  21.459  26.067  1.00  0.00     0.042 A 
ATOM     21  C   UNL A   1      34.481  21.547  26.554  1.00  0.00     0.027 A 
ATOM     22  C   UNL A   1      36.113  20.488  25.114  1.00  0.00     0.027 A 
ATOM     23  C   UNL A   1      33.482  20.798  25.932  1.00  0.00     0.018 A 
ATOM     24  C   UNL A   1      35.123  19.690  24.550  1.00  0.00     0.018 A 
ATOM     25  C   UNL A   1      33.802  19.886  24.926  1.00  0.00     0.018 A 
ATOM     26  Br  UNL A   1      32.453  18.957  23.994  1.00  0.00    -0.051 Br
ENDBRANCH  18  20
ENDBRANCH  13  14
ENDBRANCH   7   8
ENDBRANCH   5   7
ENDBRANCH   2   3
ENDBRANCH   1   2
BRANCH   1  27
ATOM     27  C   UNL A   1      33.493  28.438  24.900  1.00  0.00     0.023 C 
BRANCH  27  28
ATOM     28  C   UNL A   1      33.767  28.659  26.388  1.00  0.00     0.116 C 
BRANCH  28  29
ATOM     29  N   UNL A   1      33.588  30.027  26.831  1.00  0.00    -0.352 N 
ATOM     30  C   UNL A   1      34.415  30.826  27.587  1.00  0.00     0.251 C 
ATOM     31  H   UNL A   1      32.745  30.450  26.546  1.00  0.00     0.163 HD
ATOM     32  O   UNL A   1      34.039  31.962  27.872  1.00  0.00    -0.269 OA
BRANCH  30  33
ATOM     33  C   UNL A   1      35.726  30.346  28.103  1.00  0.00     0.039 A 
ATOM     34  C   UNL A   1      35.744  29.726  29.358  1.00  0.00     0.014 A 
ATOM     35  C   UNL A   1      36.932  30.540  27.422  1.00  0.00     0.014 A 
ATOM     36  C   UNL A   1      36.946  29.258  29.903  1.00  0.00     0.010 A 
ATOM     37  C   UNL A   1      38.128  30.024  27.947  1.00  0.00     0.010 A 
ATOM     38  C   UNL A   1      38.150  29.377  29.192  1.00  0.00    -0.014 A 
BRANCH  38  39
ATOM     39  C   UNL A   1      39.414  28.800  29.740  1.00  0.00     0.031 A 
ATOM     40  C   UNL A   1      40.070  29.378  30.968  1.00  0.00     0.074 A 
ATOM     41  C   UNL A   1      40.005  27.765  29.106  1.00  0.00     0.049 A 
ATOM     42  N   UNL A   1      41.166  28.996  31.575  1.00  0.00    -0.248 NA
ATOM     43  C   UNL A   1      39.422  30.546  31.584  1.00  0.00     0.031 C 
ATOM     44  C   UNL A   1      39.515  27.140  27.877  1.00  0.00     0.029 A 
ATOM     45  N   UNL A   1      41.156  27.070  29.394  1.00  0.00    -0.354 N 
ATOM     46  C   UNL A   1      41.357  29.890  32.624  1.00  0.00     0.074 A 
ATOM     47  C   UNL A   1      40.275  30.848  32.554  1.00  0.00     0.031 C 
ATOM     48  C   UNL A   1      40.353  26.154  27.520  1.00  0.00     0.029 A 
ATOM     49  C   UNL A   1      41.457  26.093  28.472  1.00  0.00     0.049 A 
ATOM     50  H   UNL A   1      41.712  27.253  30.185  1.00  0.00     0.167 HD
ATOM     51  C   UNL A   1      42.330  29.902  33.570  1.00  0.00     0.034 A 
ATOM     52  C   UNL A   1      42.506  25.249  28.391  1.00  0.00     0.034 A 
ATOM     53  C   UNL A   1      43.392  28.934  33.662  1.00  0.00     0.049 A 
ATOM     54  C   UNL A   1      43.563  25.274  29.464  1.00  0.00     0.074 A 
ATOM     55  C   UNL A   1      44.369  28.819  34.636  1.00  0.00     0.029 A 
ATOM     56  N   UNL A   1      43.630  27.925  32.742  1.00  0.00    -0.354 N 
ATOM     57  N   UNL A   1      43.635  26.026  30.533  1.00  0.00    -0.248 NA
ATOM     58  C   UNL A   1      44.664  24.306  29.336  1.00  0.00     0.031 C 
ATOM     59  C   UNL A   1      45.218  27.764  34.286  1.00  0.00     0.029 A 
ATOM     60  C   UNL A   1      44.748  27.196  33.114  1.00  0.00     0.049 A 
ATOM     61  H   UNL A   1      43.084  27.751  31.941  1.00  0.00     0.167 HD
ATOM     62  C   UNL A   1      44.764  25.601  31.225  1.00  0.00     0.074 A 
ATOM     63  C   UNL A   1      45.334  24.509  30.462  1.00  0.00     0.031 C 
ATOM     64  C   UNL A   1      45.287  26.080  32.381  1.00  0.00     0.034 A 
BRANCH  51  65
ATOM     65  C   UNL A   1      42.274  30.986  34.620  1.00  0.00     0.023 A 
ATOM     66  C   UNL A   1      41.616  30.741  35.842  1.00  0.00     0.012 A 
ATOM     67  C   UNL A   1      42.934  32.216  34.427  1.00  0.00     0.148 A 
ATOM     68  C   UNL A   1      41.579  31.716  36.839  1.00  0.00     0.002 A 
ATOM     69  C   UNL A   1      42.933  33.165  35.442  1.00  0.00     0.091 A 
ATOM     70  F   UNL A   1      43.544  32.437  33.254  1.00  0.00    -0.205 F 
ATOM     71  C   UNL A   1      42.246  32.923  36.643  1.00  0.00     0.022 A 
BRANCH  69  72
ATOM     72  S   UNL A   1      43.831  34.717  35.323  1.00  0.00     0.127 S 
ATOM     73  O   UNL A   1      43.582  35.302  36.638  1.00  0.00    -0.237 OA
ATOM     74  O   UNL A   1      45.205  34.263  35.106  1.00  0.00    -0.237 OA
ATOM     75  O   UNL A   1      43.244  35.433  34.198  1.00  0.00    -0.744 OA
ENDBRANCH  69  72
ENDBRANCH  51  65
BRANCH  52  76
ATOM     76  C   UNL A   1      42.583  24.264  27.274  1.00  0.00     0.023 A 
ATOM     77  C   UNL A   1      43.290  24.599  26.102  1.00  0.00     0.012 A 
ATOM     78  C   UNL A   1      41.977  22.997  27.372  1.00  0.00     0.148 A 
ATOM     79  C   UNL A   1      43.366  23.701  25.037  1.00  0.00     0.002 A 
ATOM     80  C   UNL A   1      42.105  22.086  26.331  1.00  0.00     0.091 A 
ATOM     81  F   UNL A   1      41.298  22.704  28.491  1.00  0.00    -0.205 F 
ATOM     82  C   UNL A   1      42.782  22.442  25.154  1.00  0.00     0.022 A 
BRANCH  80  83
ATOM     83  S   UNL A   1      41.501  20.398  26.447  1.00  0.00     0.127 S 
ATOM     84  O   UNL A   1      40.070  20.577  26.219  1.00  0.00    -0.237 OA
ATOM     85  O   UNL A   1      42.223  19.745  25.355  1.00  0.00    -0.237 OA
ATOM     86  O   UNL A   1      41.875  19.935  27.776  1.00  0.00    -0.744 OA
ENDBRANCH  80  83
ENDBRANCH  52  76
BRANCH  64  87
ATOM     87  C   UNL A   1      46.521  25.407  32.928  1.00  0.00     0.023 A 
ATOM     88  C   UNL A   1      47.799  25.913  32.615  1.00  0.00     0.012 A 
ATOM     89  C   UNL A   1      46.411  24.313  33.810  1.00  0.00     0.148 A 
ATOM     90  C   UNL A   1      48.947  25.322  33.143  1.00  0.00     0.002 A 
ATOM     91  C   UNL A   1      47.556  23.761  34.373  1.00  0.00     0.091 A 
ATOM     92  F   UNL A   1      45.189  23.832  34.083  1.00  0.00    -0.205 F 
ATOM     93  C   UNL A   1      48.825  24.255  34.031  1.00  0.00     0.022 A 
BRANCH  91  94
ATOM     94  S   UNL A   1      47.493  22.449  35.599  1.00  0.00     0.127 S 
ATOM     95  O   UNL A   1      47.074  21.305  34.790  1.00  0.00    -0.237 OA
ATOM     96  O   UNL A   1      48.880  22.392  36.063  1.00  0.00    -0.237 OA
ATOM     97  O   UNL A   1      46.537  22.885  36.607  1.00  0.00    -0.744 OA
ENDBRANCH  91  94
ENDBRANCH  64  87
ENDBRANCH  38  39
ENDBRANCH  30  33
ENDBRANCH  28  29
ENDBRANCH  27  28
ENDBRANCH   1  27
TORSDOF 17
ENDMDL
MODEL 2
REMARK VINA RESULT:     -11.2      5.608     10.189
REMARK SMILES O=C(Cc1ccc(NC(=O)Nc2ccc(Br)cc2)cc1)NCCCCNC(=O)c1ccc(-c2c3nc(c(-c4cccc(S(=O)(=O)[O-])c4F)c4ccc([nH]4)c(-c4cccc(S(=O)(=O)[O-])c4F)c4nc(c(-c5cccc(S(=O)(=O)[O-])c5F)c5ccc2[nH]5)C=C4)C=C3)cc1
REMARK SMILES IDX 23 1 22 2 21 3 1 4 2 5 3 7 4 8 5 9 20 10 6 11 19 12 7 13
REMARK SMILES IDX 8 14 9 15 10 17 11 18 12 20 13 21 18 22 14 23 17 24 15 25
REMARK SMILES IDX 16 26 24 27 25 28 26 29 27 30 28 32 29 33 30 34 91 35 31 36
REMARK SMILES IDX 90 37 32 38 33 39 34 40 84 41 35 42 89 43 83 44 85 45 36 46
REMARK SMILES IDX 88 47 82 48 81 49 37 51 69 52 49 53 68 54 50 55 53 56 67 57
REMARK SMILES IDX 86 58 51 59 52 60 66 62 87 63 54 64 38 65 39 66 47 67 40 68
REMARK SMILES IDX 42 69 48 70 41 71 43 72 44 73 45 74 46 75 70 76 71 77 79 78
REMARK SMILES IDX 72 79 74 80 80 81 73 82 75 83 76 84 77 85 78 86 55 87 56 88
REMARK SMILES IDX 64 89 57 90 59 91 65 92 58 93 60 94 61 95 62 96 63 97
REMARK H PARENT 21 6 8 16 11 19 26 31 85 50 53 61
REMARK Flexibility Score: inf
ROOT
ATOM      1  C   UNL A   1      40.576  21.379  27.072  1.00  0.00     0.023 C 
ENDROOT
BRANCH   1   2
ATOM      2  C   UNL A   1      39.705  22.475  26.446  1.00  0.00     0.116 C 
BRANCH   2   3
ATOM      3  N   UNL A   1      38.584  22.014  25.640  1.00  0.00    -0.356 N 
ATOM      4  O   UNL A   1      37.337  23.927  25.927  1.00  0.00    -0.275 OA
ATOM      5  C   UNL A   1      37.497  22.837  25.379  1.00  0.00     0.224 C 
ATOM      6  H   UNL A   1      38.597  21.101  25.273  1.00  0.00     0.163 HD
BRANCH   5   7
ATOM      7  C   UNL A   1      36.525  22.337  24.314  1.00  0.00     0.135 C 
BRANCH   7   8
ATOM      8  C   UNL A   1      35.108  22.071  24.791  1.00  0.00    -0.039 A 
ATOM      9  C   UNL A   1      34.802  21.756  26.118  1.00  0.00     0.006 A 
ATOM     10  C   UNL A   1      34.042  22.176  23.880  1.00  0.00     0.006 A 
ATOM     11  C   UNL A   1      33.472  21.703  26.549  1.00  0.00     0.026 A 
ATOM     12  C   UNL A   1      32.708  22.112  24.312  1.00  0.00     0.026 A 
ATOM     13  C   UNL A   1      32.423  21.978  25.670  1.00  0.00     0.042 A 
BRANCH  13  14
ATOM     14  N   UNL A   1      31.094  22.167  26.111  1.00  0.00    -0.308 N 
ATOM     15  C   UNL A   1      30.587  23.154  26.922  1.00  0.00     0.323 C 
ATOM     16  H   UNL A   1      30.442  21.501  25.795  1.00  0.00     0.171 HD
ATOM     17  O   UNL A   1      29.607  22.924  27.631  1.00  0.00    -0.248 OA
ATOM     18  N   UNL A   1      31.177  24.390  26.934  1.00  0.00    -0.308 N 
ATOM     19  H   UNL A   1      31.116  24.904  27.771  1.00  0.00     0.171 HD
BRANCH  18  20
ATOM     20  C   UNL A   1      31.861  24.994  25.866  1.00  0.00     0.042 A 
ATOM     21  C   UNL A   1      31.132  25.370  24.741  1.00  0.00     0.027 A 
ATOM     22  C   UNL A   1      33.210  25.352  25.982  1.00  0.00     0.027 A 
ATOM     23  C   UNL A   1      31.705  26.270  23.842  1.00  0.00     0.018 A 
ATOM     24  C   UNL A   1      33.799  26.190  25.041  1.00  0.00     0.018 A 
ATOM     25  C   UNL A   1      33.026  26.688  24.002  1.00  0.00     0.018 A 
ATOM     26  Br  UNL A   1      33.774  27.995  22.869  1.00  0.00    -0.051 Br
ENDBRANCH  18  20
ENDBRANCH  13  14
ENDBRANCH   7   8
ENDBRANCH   5   7
ENDBRANCH   2   3
ENDBRANCH   1   2
BRANCH   1  27
ATOM     27  C   UNL A   1      40.831  20.102  26.262  1.00  0.00     0.023 C 
BRANCH  27  28
ATOM     28  C   UNL A   1      42.069  19.279  26.622  1.00  0.00     0.116 C 
BRANCH  28  29
ATOM     29  N   UNL A   1      42.961  19.025  25.509  1.00  0.00    -0.352 N 
ATOM     30  C   UNL A   1      43.828  19.875  24.860  1.00  0.00     0.251 C 
ATOM     31  H   UNL A   1      42.944  18.103  25.163  1.00  0.00     0.163 HD
ATOM     32  O   UNL A   1      44.474  19.444  23.906  1.00  0.00    -0.269 OA
BRANCH  30  33
ATOM     33  C   UNL A   1      43.978  21.304  25.251  1.00  0.00     0.039 A 
ATOM     34  C   UNL A   1      44.353  21.581  26.571  1.00  0.00     0.014 A 
ATOM     35  C   UNL A   1      43.707  22.366  24.383  1.00  0.00     0.014 A 
ATOM     36  C   UNL A   1      44.505  22.904  27.004  1.00  0.00     0.010 A 
ATOM     37  C   UNL A   1      43.910  23.690  24.803  1.00  0.00     0.010 A 
ATOM     38  C   UNL A   1      44.311  23.976  26.118  1.00  0.00    -0.014 A 
BRANCH  38  39
ATOM     39  C   UNL A   1      44.559  25.380  26.562  1.00  0.00     0.031 A 
ATOM     40  C   UNL A   1      45.935  25.991  26.491  1.00  0.00     0.074 A 
ATOM     41  C   UNL A   1      43.543  26.107  27.075  1.00  0.00     0.049 A 
ATOM     42  N   UNL A   1      46.322  27.195  26.833  1.00  0.00    -0.248 NA
ATOM     43  C   UNL A   1      47.020  25.137  25.987  1.00  0.00     0.031 C 
ATOM     44  C   UNL A   1      42.173  25.628  27.256  1.00  0.00     0.029 A 
ATOM     45  N   UNL A   1      43.510  27.396  27.554  1.00  0.00    -0.354 N 
ATOM     46  C   UNL A   1      47.695  27.235  26.616  1.00  0.00     0.074 A 
ATOM     47  C   UNL A   1      48.077  25.925  26.134  1.00  0.00     0.031 C 
ATOM     48  C   UNL A   1      41.433  26.607  27.801  1.00  0.00     0.029 A 
ATOM     49  C   UNL A   1      42.278  27.773  28.039  1.00  0.00     0.049 A 
ATOM     50  H   UNL A   1      44.292  27.992  27.551  1.00  0.00     0.167 HD
ATOM     51  C   UNL A   1      48.557  28.270  26.780  1.00  0.00     0.034 A 
ATOM     52  C   UNL A   1      41.871  28.921  28.618  1.00  0.00     0.034 A 
ATOM     53  C   UNL A   1      48.177  29.585  27.230  1.00  0.00     0.049 A 
ATOM     54  C   UNL A   1      42.844  30.059  28.774  1.00  0.00     0.074 A 
ATOM     55  C   UNL A   1      48.967  30.716  27.344  1.00  0.00     0.029 A 
ATOM     56  N   UNL A   1      46.908  29.944  27.656  1.00  0.00    -0.354 N 
ATOM     57  N   UNL A   1      44.102  30.124  28.413  1.00  0.00    -0.248 NA
ATOM     58  C   UNL A   1      42.331  31.295  29.384  1.00  0.00     0.031 C 
ATOM     59  C   UNL A   1      48.186  31.749  27.872  1.00  0.00     0.029 A 
ATOM     60  C   UNL A   1      46.898  31.272  28.052  1.00  0.00     0.049 A 
ATOM     61  H   UNL A   1      46.128  29.344  27.675  1.00  0.00     0.167 HD
ATOM     62  C   UNL A   1      44.521  31.415  28.717  1.00  0.00     0.074 A 
ATOM     63  C   UNL A   1      43.375  32.105  29.273  1.00  0.00     0.031 C 
ATOM     64  C   UNL A   1      45.746  31.973  28.560  1.00  0.00     0.034 A 
BRANCH  51  65
ATOM     65  C   UNL A   1      50.008  28.038  26.434  1.00  0.00     0.023 A 
ATOM     66  C   UNL A   1      50.946  27.826  27.465  1.00  0.00     0.012 A 
ATOM     67  C   UNL A   1      50.428  27.956  25.092  1.00  0.00     0.148 A 
ATOM     68  C   UNL A   1      52.286  27.577  27.167  1.00  0.00     0.002 A 
ATOM     69  C   UNL A   1      51.756  27.662  24.802  1.00  0.00     0.091 A 
ATOM     70  F   UNL A   1      49.526  28.173  24.125  1.00  0.00    -0.205 F 
ATOM     71  C   UNL A   1      52.688  27.486  25.838  1.00  0.00     0.022 A 
BRANCH  69  72
ATOM     72  S   UNL A   1      52.358  27.440  23.124  1.00  0.00     0.127 S 
ATOM     73  O   UNL A   1      53.331  28.524  23.015  1.00  0.00    -0.237 OA
ATOM     74  O   UNL A   1      52.940  26.099  23.180  1.00  0.00    -0.237 OA
ATOM     75  O   UNL A   1      51.190  27.559  22.260  1.00  0.00    -0.744 OA
ENDBRANCH  69  72
ENDBRANCH  51  65
BRANCH  52  76
ATOM     76  C   UNL A   1      40.451  29.073  29.049  1.00  0.00     0.023 A 
ATOM     77  C   UNL A   1      39.454  29.312  28.083  1.00  0.00     0.012 A 
ATOM     78  C   UNL A   1      40.082  28.965  30.403  1.00  0.00     0.148 A 
ATOM     79  C   UNL A   1      38.121  29.471  28.461  1.00  0.00     0.002 A 
ATOM     80  C   UNL A   1      38.745  29.068  30.767  1.00  0.00     0.091 A 
ATOM     81  F   UNL A   1      41.049  28.752  31.308  1.00  0.00    -0.205 F 
ATOM     82  C   UNL A   1      37.765  29.340  29.801  1.00  0.00     0.022 A 
BRANCH  80  83
ATOM     83  S   UNL A   1      38.179  28.782  32.448  1.00  0.00     0.127 S 
ATOM     84  O   UNL A   1      36.765  29.133  32.351  1.00  0.00    -0.237 OA
ATOM     85  O   UNL A   1      38.451  27.355  32.618  1.00  0.00    -0.237 OA
ATOM     86  O   UNL A   1      38.988  29.652  33.290  1.00  0.00    -0.744 OA
ENDBRANCH  80  83
ENDBRANCH  52  76
BRANCH  64  87
ATOM     87  C   UNL A   1      45.918  33.418  28.954  1.00  0.00     0.023 A 
ATOM     88  C   UNL A   1      46.368  33.748  30.249  1.00  0.00     0.012 A 
ATOM     89  C   UNL A   1      45.701  34.449  28.017  1.00  0.00     0.148 A 
ATOM     90  C   UNL A   1      46.565  35.080  30.614  1.00  0.00     0.002 A 
ATOM     91  C   UNL A   1      45.949  35.770  28.372  1.00  0.00     0.091 A 
ATOM     92  F   UNL A   1      45.256  34.119  26.795  1.00  0.00    -0.205 F 
ATOM     93  C   UNL A   1      46.368  36.089  29.674  1.00  0.00     0.022 A 
BRANCH  91  94
ATOM     94  S   UNL A   1      45.815  37.126  27.201  1.00  0.00     0.127 S 
ATOM     95  O   UNL A   1      44.371  37.191  26.982  1.00  0.00    -0.237 OA
ATOM     96  O   UNL A   1      46.368  38.247  27.962  1.00  0.00    -0.237 OA
ATOM     97  O   UNL A   1      46.605  36.736  26.041  1.00  0.00    -0.744 OA
ENDBRANCH  91  94
ENDBRANCH  64  87
ENDBRANCH  38  39
ENDBRANCH  30  33
ENDBRANCH  28  29
ENDBRANCH  27  28
ENDBRANCH   1  27
TORSDOF 17
ENDMDL
MODEL 3
REMARK VINA RESULT:     -11.2      2.220      2.687
REMARK SMILES O=C(Cc1ccc(NC(=O)Nc2ccc(Br)cc2)cc1)NCCCCNC(=O)c1ccc(-c2c3nc(c(-c4cccc(S(=O)(=O)[O-])c4F)c4ccc([nH]4)c(-c4cccc(S(=O)(=O)[O-])c4F)c4nc(c(-c5cccc(S(=O)(=O)[O-])c5F)c5ccc2[nH]5)C=C4)C=C3)cc1
REMARK SMILES IDX 23 1 22 2 21 3 1 4 2 5 3 7 4 8 5 9 20 10 6 11 19 12 7 13
REMARK SMILES IDX 8 14 9 15 10 17 11 18 12 20 13 21 18 22 14 23 17 24 15 25
REMARK SMILES IDX 16 26 24 27 25 28 26 29 27 30 28 32 29 33 30 34 91 35 31 36
REMARK SMILES IDX 90 37 32 38 33 39 34 40 84 41 35 42 89 43 83 44 85 45 36 46
REMARK SMILES IDX 88 47 82 48 81 49 37 51 69 52 49 53 68 54 50 55 53 56 67 57
REMARK SMILES IDX 86 58 51 59 52 60 66 62 87 63 54 64 38 65 39 66 47 67 40 68
REMARK SMILES IDX 42 69 48 70 41 71 43 72 44 73 45 74 46 75 70 76 71 77 79 78
REMARK SMILES IDX 72 79 74 80 80 81 73 82 75 83 76 84 77 85 78 86 55 87 56 88
REMARK SMILES IDX 64 89 57 90 59 91 65 92 58 93 60 94 61 95 62 96 63 97
REMARK H PARENT 21 6 8 16 11 19 26 31 85 50 53 61
REMARK Flexibility Score: inf
ROOT
ATOM      1  C   UNL A   1      32.082  29.355  24.648  1.00  0.00     0.023 C 
ENDROOT
BRANCH   1   2
ATOM      2  C   UNL A   1      30.660  28.988  24.206  1.00  0.00     0.116 C 
BRANCH   2   3
ATOM      3  N   UNL A   1      30.371  27.564  24.111  1.00  0.00    -0.356 N 
ATOM      4  O   UNL A   1      30.662  27.459  21.830  1.00  0.00    -0.275 OA
ATOM      5  C   UNL A   1      30.477  26.887  22.903  1.00  0.00     0.224 C 
ATOM      6  H   UNL A   1      30.096  27.072  24.917  1.00  0.00     0.163 HD
BRANCH   5   7
ATOM      7  C   UNL A   1      30.409  25.365  22.986  1.00  0.00     0.135 C 
BRANCH   7   8
ATOM      8  C   UNL A   1      31.746  24.644  22.950  1.00  0.00    -0.039 A 
ATOM      9  C   UNL A   1      32.963  25.313  22.787  1.00  0.00     0.006 A 
ATOM     10  C   UNL A   1      31.782  23.249  23.120  1.00  0.00     0.006 A 
ATOM     11  C   UNL A   1      34.175  24.633  22.946  1.00  0.00     0.026 A 
ATOM     12  C   UNL A   1      33.000  22.567  23.269  1.00  0.00     0.026 A 
ATOM     13  C   UNL A   1      34.198  23.279  23.285  1.00  0.00     0.042 A 
BRANCH  13  14
ATOM     14  N   UNL A   1      35.381  22.617  23.684  1.00  0.00    -0.308 N 
ATOM     15  C   UNL A   1      36.259  22.950  24.687  1.00  0.00     0.323 C 
ATOM     16  H   UNL A   1      35.608  21.807  23.173  1.00  0.00     0.171 HD
ATOM     17  O   UNL A   1      37.446  22.642  24.592  1.00  0.00    -0.248 OA
ATOM     18  N   UNL A   1      35.803  23.623  25.790  1.00  0.00    -0.308 N 
ATOM     19  H   UNL A   1      36.443  24.215  26.246  1.00  0.00     0.171 HD
BRANCH  18  20
ATOM     20  C   UNL A   1      34.509  23.549  26.332  1.00  0.00     0.042 A 
ATOM     21  C   UNL A   1      33.705  24.686  26.285  1.00  0.00     0.027 A 
ATOM     22  C   UNL A   1      33.978  22.330  26.771  1.00  0.00     0.027 A 
ATOM     23  C   UNL A   1      32.332  24.542  26.484  1.00  0.00     0.018 A 
ATOM     24  C   UNL A   1      32.619  22.211  27.041  1.00  0.00     0.018 A 
ATOM     25  C   UNL A   1      31.793  23.308  26.845  1.00  0.00     0.018 A 
ATOM     26  Br  UNL A   1      29.930  23.070  26.999  1.00  0.00    -0.051 Br
ENDBRANCH  18  20
ENDBRANCH  13  14
ENDBRANCH   7   8
ENDBRANCH   5   7
ENDBRANCH   2   3
ENDBRANCH   1   2
BRANCH   1  27
ATOM     27  C   UNL A   1      32.840  28.372  25.548  1.00  0.00     0.023 C 
BRANCH  27  28
ATOM     28  C   UNL A   1      34.062  28.906  26.296  1.00  0.00     0.116 C 
BRANCH  28  29
ATOM     29  N   UNL A   1      33.838  30.156  26.992  1.00  0.00    -0.352 N 
ATOM     30  C   UNL A   1      34.617  30.799  27.927  1.00  0.00     0.251 C 
ATOM     31  H   UNL A   1      32.998  30.616  26.761  1.00  0.00     0.163 HD
ATOM     32  O   UNL A   1      34.207  31.851  28.414  1.00  0.00    -0.269 OA
BRANCH  30  33
ATOM     33  C   UNL A   1      35.916  30.242  28.394  1.00  0.00     0.039 A 
ATOM     34  C   UNL A   1      37.019  30.360  27.540  1.00  0.00     0.014 A 
ATOM     35  C   UNL A   1      36.065  29.564  29.608  1.00  0.00     0.014 A 
ATOM     36  C   UNL A   1      38.267  29.851  27.917  1.00  0.00     0.010 A 
ATOM     37  C   UNL A   1      37.328  29.101  30.007  1.00  0.00     0.010 A 
ATOM     38  C   UNL A   1      38.445  29.238  29.168  1.00  0.00    -0.014 A 
BRANCH  38  39
ATOM     39  C   UNL A   1      39.798  28.775  29.600  1.00  0.00     0.031 A 
ATOM     40  C   UNL A   1      40.551  29.479  30.699  1.00  0.00     0.074 A 
ATOM     41  C   UNL A   1      40.379  27.733  28.970  1.00  0.00     0.049 A 
ATOM     42  N   UNL A   1      41.731  29.206  31.197  1.00  0.00    -0.248 NA
ATOM     43  C   UNL A   1      39.903  30.651  31.309  1.00  0.00     0.031 C 
ATOM     44  C   UNL A   1      39.794  26.991  27.852  1.00  0.00     0.029 A 
ATOM     45  N   UNL A   1      41.599  27.127  29.166  1.00  0.00    -0.354 N 
ATOM     46  C   UNL A   1      41.982  30.184  32.154  1.00  0.00     0.074 A 
ATOM     47  C   UNL A   1      40.838  31.072  32.149  1.00  0.00     0.031 C 
ATOM     48  C   UNL A   1      40.649  26.031  27.465  1.00  0.00     0.029 A 
ATOM     49  C   UNL A   1      41.856  26.104  28.282  1.00  0.00     0.049 A 
ATOM     50  H   UNL A   1      42.227  27.399  29.872  1.00  0.00     0.167 HD
ATOM     51  C   UNL A   1      43.053  30.322  32.975  1.00  0.00     0.034 A 
ATOM     52  C   UNL A   1      42.941  25.317  28.134  1.00  0.00     0.034 A 
ATOM     53  C   UNL A   1      44.179  29.425  33.005  1.00  0.00     0.049 A 
ATOM     54  C   UNL A   1      44.109  25.481  29.070  1.00  0.00     0.074 A 
ATOM     55  C   UNL A   1      45.266  29.439  33.862  1.00  0.00     0.029 A 
ATOM     56  N   UNL A   1      44.376  28.366  32.133  1.00  0.00    -0.354 N 
ATOM     57  N   UNL A   1      44.254  26.313  30.071  1.00  0.00    -0.248 NA
ATOM     58  C   UNL A   1      45.249  24.571  28.878  1.00  0.00     0.031 C 
ATOM     59  C   UNL A   1      46.137  28.411  33.486  1.00  0.00     0.029 A 
ATOM     60  C   UNL A   1      45.575  27.732  32.419  1.00  0.00     0.049 A 
ATOM     61  H   UNL A   1      43.755  28.103  31.416  1.00  0.00     0.167 HD
ATOM     62  C   UNL A   1      45.480  26.005  30.651  1.00  0.00     0.074 A 
ATOM     63  C   UNL A   1      46.029  24.895  29.901  1.00  0.00     0.031 C 
ATOM     64  C   UNL A   1      46.099  26.597  31.702  1.00  0.00     0.034 A 
BRANCH  51  65
ATOM     65  C   UNL A   1      43.047  31.475  33.950  1.00  0.00     0.023 A 
ATOM     66  C   UNL A   1      43.638  32.702  33.585  1.00  0.00     0.012 A 
ATOM     67  C   UNL A   1      42.394  31.369  35.194  1.00  0.00     0.148 A 
ATOM     68  C   UNL A   1      43.616  33.790  34.457  1.00  0.00     0.002 A 
ATOM     69  C   UNL A   1      42.335  32.471  36.039  1.00  0.00     0.091 A 
ATOM     70  F   UNL A   1      41.849  30.191  35.531  1.00  0.00    -0.205 F 
ATOM     71  C   UNL A   1      42.957  33.678  35.678  1.00  0.00     0.022 A 
BRANCH  69  72
ATOM     72  S   UNL A   1      41.440  32.456  37.596  1.00  0.00     0.127 S 
ATOM     73  O   UNL A   1      42.223  31.501  38.376  1.00  0.00    -0.237 OA
ATOM     74  O   UNL A   1      41.558  33.847  38.034  1.00  0.00    -0.237 OA
ATOM     75  O   UNL A   1      40.082  32.036  37.273  1.00  0.00    -0.744 OA
ENDBRANCH  69  72
ENDBRANCH  51  65
BRANCH  52  76
ATOM     76  C   UNL A   1      42.954  24.258  27.084  1.00  0.00     0.023 A 
ATOM     77  C   UNL A   1      43.680  24.470  25.894  1.00  0.00     0.012 A 
ATOM     78  C   UNL A   1      42.270  23.041  27.263  1.00  0.00     0.148 A 
ATOM     79  C   UNL A   1      43.697  23.502  24.890  1.00  0.00     0.002 A 
ATOM     80  C   UNL A   1      42.339  22.057  26.284  1.00  0.00     0.091 A 
ATOM     81  F   UNL A   1      41.575  22.865  28.396  1.00  0.00    -0.205 F 
ATOM     82  C   UNL A   1      43.036  22.292  25.088  1.00  0.00     0.022 A 
BRANCH  80  83
ATOM     83  S   UNL A   1      41.629  20.422  26.508  1.00  0.00     0.127 S 
ATOM     84  O   UNL A   1      42.168  19.702  25.358  1.00  0.00    -0.237 OA
ATOM     85  O   UNL A   1      42.188  20.028  27.801  1.00  0.00    -0.237 OA
ATOM     86  O   UNL A   1      40.186  20.616  26.512  1.00  0.00    -0.744 OA
ENDBRANCH  80  83
ENDBRANCH  52  76
BRANCH  64  87
ATOM     87  C   UNL A   1      47.428  26.038  32.143  1.00  0.00     0.023 A 
ATOM     88  C   UNL A   1      47.486  25.109  33.202  1.00  0.00     0.012 A 
ATOM     89  C   UNL A   1      48.613  26.380  31.461  1.00  0.00     0.148 A 
ATOM     90  C   UNL A   1      48.706  24.557  33.596  1.00  0.00     0.002 A 
ATOM     91  C   UNL A   1      49.816  25.787  31.826  1.00  0.00     0.091 A 
ATOM     92  F   UNL A   1      48.543  27.279  30.469  1.00  0.00    -0.205 F 
ATOM     93  C   UNL A   1      49.867  24.886  32.902  1.00  0.00     0.022 A 
BRANCH  91  94
ATOM     94  S   UNL A   1      51.346  26.076  30.929  1.00  0.00     0.127 S 
ATOM     95  O   UNL A   1      51.007  25.587  29.594  1.00  0.00    -0.237 OA
ATOM     96  O   UNL A   1      51.493  27.529  31.028  1.00  0.00    -0.237 OA
ATOM     97  O   UNL A   1      52.372  25.317  31.630  1.00  0.00    -0.744 OA
ENDBRANCH  91  94
ENDBRANCH  64  87
ENDBRANCH  38  39
ENDBRANCH  30  33
ENDBRANCH  28  29
ENDBRANCH  27  28
ENDBRANCH   1  27
TORSDOF 17
ENDMDL
