MODEL 1
REMARK VINA RESULT:     -11.4      0.000      0.000
REMARK SMILES C[C@@H]1CCC[C@](CCSc2ccccc2)(C(=O)NCCCCNC(=O)c2ccc(-c3c4nc(c(-c5cccc(S(=O)(=O)[O-])c5F)c5ccc([nH]5)c(-c5cccc(S(=O)(=O)[O-])c5F)c5nc(c(-c6cccc(S(=O)(=O)[O-])c6F)c6ccc3[nH]6)C=C5)C=C4)cc2)C1
REMARK SMILES IDX 20 1 19 2 18 3 16 4 17 5 6 7 1 8 2 9 3 10 89 11 4 12 5 13
REMARK SMILES IDX 7 14 8 15 9 16 10 17 11 18 15 19 12 20 14 21 13 22 21 23
REMARK SMILES IDX 22 24 23 25 24 26 25 28 26 29 27 30 88 31 28 32 87 33 29 34
REMARK SMILES IDX 30 35 31 36 81 37 32 38 86 39 80 40 82 41 33 42 85 43 79 44
REMARK SMILES IDX 78 45 34 47 66 48 46 49 65 50 47 51 50 52 64 53 83 54 48 55
REMARK SMILES IDX 49 56 63 58 84 59 51 60 35 61 36 62 44 63 37 64 39 65 45 66
REMARK SMILES IDX 38 67 40 68 41 69 42 70 43 71 67 72 68 73 76 74 69 75 71 76
REMARK SMILES IDX 77 77 70 78 72 79 73 80 74 81 75 82 52 83 53 84 61 85 54 86
REMARK SMILES IDX 56 87 62 88 55 89 57 90 58 91 59 92 60 93
REMARK H PARENT 18 6 23 27 82 46 50 57
REMARK Flexibility Score: inf
ROOT
ATOM      1  C   UNL A   1      31.040  28.868  24.481  1.00  0.00     0.023 C 
ENDROOT
BRANCH   1   2
ATOM      2  C   UNL A   1      30.598  27.458  24.097  1.00  0.00     0.116 C 
BRANCH   2   3
ATOM      3  N   UNL A   1      30.087  26.760  25.247  1.00  0.00    -0.356 N 
ATOM      4  C   UNL A   1      30.436  25.607  25.857  1.00  0.00     0.226 C 
ATOM      5  O   UNL A   1      29.571  25.177  26.633  1.00  0.00    -0.274 OA
ATOM      6  H   UNL A   1      29.330  27.218  25.678  1.00  0.00     0.163 HD
BRANCH   4   7
ATOM      7  C   UNL A   1      31.736  24.787  25.586  1.00  0.00     0.050 C 
ATOM      8  C   UNL A   1      34.017  27.021  23.417  1.00  0.00     0.007 C 
ATOM      9  C   UNL A   1      33.581  25.594  23.803  1.00  0.00    -0.013 C 
ATOM     10  C   UNL A   1      32.789  24.898  22.689  1.00  0.00     0.003 C 
ATOM     11  C   UNL A   1      33.005  25.587  25.232  1.00  0.00     0.020 C 
ATOM     12  C   UNL A   1      31.492  24.198  23.075  1.00  0.00     0.001 C 
ATOM     13  C   UNL A   1      31.434  23.713  24.514  1.00  0.00     0.017 C 
BRANCH   7  14
ATOM     14  C   UNL A   1      32.011  24.006  26.945  1.00  0.00     0.028 C 
BRANCH  14  15
ATOM     15  C   UNL A   1      32.382  22.504  26.913  1.00  0.00     0.076 C 
BRANCH  15  16
ATOM     16  S   UNL A   1      34.073  21.992  27.379  1.00  0.00    -0.126 SA
BRANCH  16  17
ATOM     17  C   UNL A   1      35.056  22.512  25.983  1.00  0.00     0.007 A 
ATOM     18  C   UNL A   1      34.679  22.073  24.708  1.00  0.00     0.015 A 
ATOM     19  C   UNL A   1      36.160  23.362  26.103  1.00  0.00     0.015 A 
ATOM     20  C   UNL A   1      35.435  22.412  23.583  1.00  0.00     0.001 A 
ATOM     21  C   UNL A   1      36.923  23.698  24.978  1.00  0.00     0.001 A 
ATOM     22  C   UNL A   1      36.567  23.212  23.722  1.00  0.00     0.000 A 
ENDBRANCH  16  17
ENDBRANCH  15  16
ENDBRANCH  14  15
ENDBRANCH   7  14
ENDBRANCH   4   7
ENDBRANCH   2   3
ENDBRANCH   1   2
BRANCH   1  23
ATOM     23  C   UNL A   1      31.709  28.949  25.850  1.00  0.00     0.023 C 
BRANCH  23  24
ATOM     24  C   UNL A   1      32.910  29.886  25.910  1.00  0.00     0.116 C 
BRANCH  24  25
ATOM     25  N   UNL A   1      32.586  31.215  26.421  1.00  0.00    -0.352 N 
ATOM     26  C   UNL A   1      33.317  31.965  27.311  1.00  0.00     0.251 C 
ATOM     27  H   UNL A   1      31.751  31.618  26.092  1.00  0.00     0.163 HD
ATOM     28  O   UNL A   1      32.907  33.042  27.731  1.00  0.00    -0.269 OA
BRANCH  26  29
ATOM     29  C   UNL A   1      34.604  31.413  27.767  1.00  0.00     0.039 A 
ATOM     30  C   UNL A   1      35.666  32.283  28.021  1.00  0.00     0.014 A 
ATOM     31  C   UNL A   1      34.683  30.056  28.085  1.00  0.00     0.014 A 
ATOM     32  C   UNL A   1      36.802  31.795  28.667  1.00  0.00     0.010 A 
ATOM     33  C   UNL A   1      35.785  29.592  28.790  1.00  0.00     0.010 A 
ATOM     34  C   UNL A   1      36.853  30.456  29.088  1.00  0.00    -0.014 A 
BRANCH  34  35
ATOM     35  C   UNL A   1      38.012  29.911  29.832  1.00  0.00     0.031 A 
ATOM     36  C   UNL A   1      38.279  30.401  31.228  1.00  0.00     0.074 A 
ATOM     37  C   UNL A   1      38.886  29.090  29.218  1.00  0.00     0.049 A 
ATOM     38  N   UNL A   1      39.317  30.196  31.992  1.00  0.00    -0.248 NA
ATOM     39  C   UNL A   1      37.254  31.277  31.826  1.00  0.00     0.031 C 
ATOM     40  C   UNL A   1      38.773  28.605  27.840  1.00  0.00     0.029 A 
ATOM     41  N   UNL A   1      40.067  28.551  29.662  1.00  0.00    -0.354 N 
ATOM     42  C   UNL A   1      39.100  30.957  33.133  1.00  0.00     0.074 A 
ATOM     43  C   UNL A   1      37.845  31.654  32.949  1.00  0.00     0.031 C 
ATOM     44  C   UNL A   1      39.842  27.846  27.551  1.00  0.00     0.029 A 
ATOM     45  C   UNL A   1      40.732  27.813  28.708  1.00  0.00     0.049 A 
ATOM     46  H   UNL A   1      40.407  28.678  30.577  1.00  0.00     0.167 HD
ATOM     47  C   UNL A   1      39.861  31.047  34.247  1.00  0.00     0.034 A 
ATOM     48  C   UNL A   1      41.927  27.191  28.762  1.00  0.00     0.034 A 
ATOM     49  C   UNL A   1      41.068  30.296  34.452  1.00  0.00     0.049 A 
ATOM     50  C   UNL A   1      42.716  27.242  30.044  1.00  0.00     0.074 A 
ATOM     51  C   UNL A   1      41.870  30.246  35.576  1.00  0.00     0.029 A 
ATOM     52  N   UNL A   1      41.638  29.451  33.513  1.00  0.00    -0.354 N 
ATOM     53  N   UNL A   1      42.428  27.858  31.164  1.00  0.00    -0.248 NA
ATOM     54  C   UNL A   1      43.974  26.482  30.084  1.00  0.00     0.031 C 
ATOM     55  C   UNL A   1      42.928  29.367  35.317  1.00  0.00     0.029 A 
ATOM     56  C   UNL A   1      42.775  28.864  34.035  1.00  0.00     0.049 A 
ATOM     57  H   UNL A   1      41.285  29.292  32.608  1.00  0.00     0.167 HD
ATOM     58  C   UNL A   1      43.442  27.525  32.055  1.00  0.00     0.074 A 
ATOM     59  C   UNL A   1      44.348  26.645  31.347  1.00  0.00     0.031 C 
ATOM     60  C   UNL A   1      43.616  27.924  33.339  1.00  0.00     0.034 A 
BRANCH  47  61
ATOM     61  C   UNL A   1      39.369  31.938  35.355  1.00  0.00     0.023 A 
ATOM     62  C   UNL A   1      38.434  31.433  36.283  1.00  0.00     0.012 A 
ATOM     63  C   UNL A   1      39.851  33.251  35.504  1.00  0.00     0.148 A 
ATOM     64  C   UNL A   1      37.957  32.235  37.318  1.00  0.00     0.002 A 
ATOM     65  C   UNL A   1      39.403  34.031  36.564  1.00  0.00     0.091 A 
ATOM     66  F   UNL A   1      40.719  33.722  34.597  1.00  0.00    -0.205 F 
ATOM     67  C   UNL A   1      38.448  33.530  37.464  1.00  0.00     0.022 A 
BRANCH  65  68
ATOM     68  S   UNL A   1      40.034  35.683  36.880  1.00  0.00     0.127 S 
ATOM     69  O   UNL A   1      39.411  35.996  38.164  1.00  0.00    -0.237 OA
ATOM     70  O   UNL A   1      41.479  35.457  36.942  1.00  0.00    -0.237 OA
ATOM     71  O   UNL A   1      39.599  36.497  35.754  1.00  0.00    -0.744 OA
ENDBRANCH  65  68
ENDBRANCH  47  61
BRANCH  48  72
ATOM     72  C   UNL A   1      42.409  26.398  27.595  1.00  0.00     0.023 A 
ATOM     73  C   UNL A   1      43.241  27.018  26.643  1.00  0.00     0.012 A 
ATOM     74  C   UNL A   1      42.080  25.038  27.437  1.00  0.00     0.148 A 
ATOM     75  C   UNL A   1      43.711  26.308  25.537  1.00  0.00     0.002 A 
ATOM     76  C   UNL A   1      42.594  24.324  26.360  1.00  0.00     0.091 A 
ATOM     77  F   UNL A   1      41.276  24.468  28.346  1.00  0.00    -0.205 F 
ATOM     78  C   UNL A   1      43.396  24.960  25.401  1.00  0.00     0.022 A 
BRANCH  76  79
ATOM     79  S   UNL A   1      42.344  22.553  26.176  1.00  0.00     0.127 S 
ATOM     80  O   UNL A   1      42.978  22.035  27.386  1.00  0.00    -0.237 OA
ATOM     81  O   UNL A   1      40.884  22.451  26.152  1.00  0.00    -0.237 OA
ATOM     82  O   UNL A   1      42.989  22.200  24.918  1.00  0.00    -0.744 OA
ENDBRANCH  76  79
ENDBRANCH  48  72
BRANCH  60  83
ATOM     83  C   UNL A   1      44.793  27.372  34.096  1.00  0.00     0.023 A 
ATOM     84  C   UNL A   1      46.013  28.073  34.101  1.00  0.00     0.012 A 
ATOM     85  C   UNL A   1      44.647  26.221  34.896  1.00  0.00     0.148 A 
ATOM     86  C   UNL A   1      47.080  27.628  34.879  1.00  0.00     0.002 A 
ATOM     87  C   UNL A   1      45.701  25.807  35.703  1.00  0.00     0.091 A 
ATOM     88  F   UNL A   1      43.482  25.560  34.859  1.00  0.00    -0.205 F 
ATOM     89  C   UNL A   1      46.920  26.505  35.690  1.00  0.00     0.022 A 
BRANCH  87  90
ATOM     90  S   UNL A   1      45.549  24.433  36.850  1.00  0.00     0.127 S 
ATOM     91  O   UNL A   1      45.329  23.309  35.940  1.00  0.00    -0.237 OA
ATOM     92  O   UNL A   1      46.853  24.436  37.513  1.00  0.00    -0.237 OA
ATOM     93  O   UNL A   1      44.430  24.761  37.722  1.00  0.00    -0.744 OA
ENDBRANCH  87  90
ENDBRANCH  60  83
ENDBRANCH  34  35
ENDBRANCH  26  29
ENDBRANCH  24  25
ENDBRANCH  23  24
ENDBRANCH   1  23
TORSDOF 18
ENDMDL
MODEL 2
REMARK VINA RESULT:     -11.2      4.987      7.760
REMARK SMILES C[C@@H]1CCC[C@](CCSc2ccccc2)(C(=O)NCCCCNC(=O)c2ccc(-c3c4nc(c(-c5cccc(S(=O)(=O)[O-])c5F)c5ccc([nH]5)c(-c5cccc(S(=O)(=O)[O-])c5F)c5nc(c(-c6cccc(S(=O)(=O)[O-])c6F)c6ccc3[nH]6)C=C5)C=C4)cc2)C1
REMARK SMILES IDX 20 1 19 2 18 3 16 4 17 5 6 7 1 8 2 9 3 10 89 11 4 12 5 13
REMARK SMILES IDX 7 14 8 15 9 16 10 17 11 18 15 19 12 20 14 21 13 22 21 23
REMARK SMILES IDX 22 24 23 25 24 26 25 28 26 29 27 30 88 31 28 32 87 33 29 34
REMARK SMILES IDX 30 35 31 36 81 37 32 38 86 39 80 40 82 41 33 42 85 43 79 44
REMARK SMILES IDX 78 45 34 47 66 48 46 49 65 50 47 51 50 52 64 53 83 54 48 55
REMARK SMILES IDX 49 56 63 58 84 59 51 60 35 61 36 62 44 63 37 64 39 65 45 66
REMARK SMILES IDX 38 67 40 68 41 69 42 70 43 71 67 72 68 73 76 74 69 75 71 76
REMARK SMILES IDX 77 77 70 78 72 79 73 80 74 81 75 82 52 83 53 84 61 85 54 86
REMARK SMILES IDX 56 87 62 88 55 89 57 90 58 91 59 92 60 93
REMARK H PARENT 18 6 23 27 82 46 50 57
REMARK Flexibility Score: inf
ROOT
ATOM      1  C   UNL A   1      34.385  21.424  24.432  1.00  0.00     0.023 C 
ENDROOT
BRANCH   1   2
ATOM      2  C   UNL A   1      33.130  22.067  23.846  1.00  0.00     0.116 C 
BRANCH   2   3
ATOM      3  N   UNL A   1      33.400  22.596  22.536  1.00  0.00    -0.356 N 
ATOM      4  C   UNL A   1      33.211  23.809  21.973  1.00  0.00     0.226 C 
ATOM      5  O   UNL A   1      33.284  23.797  20.736  1.00  0.00    -0.274 OA
ATOM      6  H   UNL A   1      33.808  21.940  21.926  1.00  0.00     0.163 HD
BRANCH   4   7
ATOM      7  C   UNL A   1      32.834  25.120  22.732  1.00  0.00     0.050 C 
ATOM      8  C   UNL A   1      33.549  24.475  26.470  1.00  0.00     0.007 C 
ATOM      9  C   UNL A   1      32.708  25.223  25.417  1.00  0.00    -0.013 C 
ATOM     10  C   UNL A   1      31.260  24.722  25.355  1.00  0.00     0.003 C 
ATOM     11  C   UNL A   1      33.501  25.350  24.102  1.00  0.00     0.020 C 
ATOM     12  C   UNL A   1      30.675  24.420  23.980  1.00  0.00     0.001 C 
ATOM     13  C   UNL A   1      31.293  25.209  22.838  1.00  0.00     0.017 C 
BRANCH   7  14
ATOM     14  C   UNL A   1      33.289  26.295  21.760  1.00  0.00     0.028 C 
BRANCH  14  15
ATOM     15  C   UNL A   1      33.741  27.653  22.347  1.00  0.00     0.076 C 
BRANCH  15  16
ATOM     16  S   UNL A   1      32.477  28.844  22.914  1.00  0.00    -0.126 SA
BRANCH  16  17
ATOM     17  C   UNL A   1      32.562  28.714  24.692  1.00  0.00     0.007 A 
ATOM     18  C   UNL A   1      33.825  28.728  25.297  1.00  0.00     0.015 A 
ATOM     19  C   UNL A   1      31.427  28.632  25.505  1.00  0.00     0.015 A 
ATOM     20  C   UNL A   1      33.956  28.586  26.680  1.00  0.00     0.001 A 
ATOM     21  C   UNL A   1      31.557  28.483  26.891  1.00  0.00     0.001 A 
ATOM     22  C   UNL A   1      32.821  28.448  27.475  1.00  0.00     0.000 A 
ENDBRANCH  16  17
ENDBRANCH  15  16
ENDBRANCH  14  15
ENDBRANCH   7  14
ENDBRANCH   4   7
ENDBRANCH   2   3
ENDBRANCH   1   2
BRANCH   1  23
ATOM     23  C   UNL A   1      35.628  22.304  24.331  1.00  0.00     0.023 C 
BRANCH  23  24
ATOM     24  C   UNL A   1      36.568  22.206  25.527  1.00  0.00     0.116 C 
BRANCH  24  25
ATOM     25  N   UNL A   1      37.484  21.072  25.456  1.00  0.00    -0.352 N 
ATOM     26  C   UNL A   1      38.798  21.036  25.860  1.00  0.00     0.251 C 
ATOM     27  H   UNL A   1      37.122  20.240  25.075  1.00  0.00     0.163 HD
ATOM     28  O   UNL A   1      39.497  20.044  25.680  1.00  0.00    -0.269 OA
BRANCH  26  29
ATOM     29  C   UNL A   1      39.346  22.247  26.493  1.00  0.00     0.039 A 
ATOM     30  C   UNL A   1      40.398  22.123  27.402  1.00  0.00     0.014 A 
ATOM     31  C   UNL A   1      38.909  23.498  26.053  1.00  0.00     0.014 A 
ATOM     32  C   UNL A   1      41.068  23.271  27.826  1.00  0.00     0.010 A 
ATOM     33  C   UNL A   1      39.622  24.629  26.423  1.00  0.00     0.010 A 
ATOM     34  C   UNL A   1      40.707  24.526  27.310  1.00  0.00    -0.014 A 
BRANCH  34  35
ATOM     35  C   UNL A   1      41.430  25.765  27.683  1.00  0.00     0.031 A 
ATOM     36  C   UNL A   1      40.692  26.844  28.425  1.00  0.00     0.074 A 
ATOM     37  C   UNL A   1      42.688  25.973  27.248  1.00  0.00     0.049 A 
ATOM     38  N   UNL A   1      41.068  28.064  28.699  1.00  0.00    -0.248 NA
ATOM     39  C   UNL A   1      39.329  26.516  28.882  1.00  0.00     0.031 C 
ATOM     40  C   UNL A   1      43.480  25.029  26.455  1.00  0.00     0.029 A 
ATOM     41  N   UNL A   1      43.507  27.066  27.376  1.00  0.00    -0.354 N 
ATOM     42  C   UNL A   1      39.974  28.666  29.307  1.00  0.00     0.074 A 
ATOM     43  C   UNL A   1      38.909  27.687  29.336  1.00  0.00     0.031 C 
ATOM     44  C   UNL A   1      44.666  25.586  26.164  1.00  0.00     0.029 A 
ATOM     45  C   UNL A   1      44.711  26.934  26.721  1.00  0.00     0.049 A 
ATOM     46  H   UNL A   1      43.259  27.868  27.889  1.00  0.00     0.167 HD
ATOM     47  C   UNL A   1      39.873  29.912  29.824  1.00  0.00     0.034 A 
ATOM     48  C   UNL A   1      45.728  27.809  26.580  1.00  0.00     0.034 A 
ATOM     49  C   UNL A   1      40.958  30.851  29.858  1.00  0.00     0.049 A 
ATOM     50  C   UNL A   1      45.620  29.161  27.234  1.00  0.00     0.074 A 
ATOM     51  C   UNL A   1      40.990  32.109  30.432  1.00  0.00     0.029 A 
ATOM     52  N   UNL A   1      42.209  30.630  29.304  1.00  0.00    -0.354 N 
ATOM     53  N   UNL A   1      44.626  29.665  27.925  1.00  0.00    -0.248 NA
ATOM     54  C   UNL A   1      46.785  30.051  27.124  1.00  0.00     0.031 C 
ATOM     55  C   UNL A   1      42.265  32.648  30.227  1.00  0.00     0.029 A 
ATOM     56  C   UNL A   1      43.026  31.720  29.534  1.00  0.00     0.049 A 
ATOM     57  H   UNL A   1      42.476  29.816  28.820  1.00  0.00     0.167 HD
ATOM     58  C   UNL A   1      45.062  30.909  28.369  1.00  0.00     0.074 A 
ATOM     59  C   UNL A   1      46.413  31.078  27.877  1.00  0.00     0.031 C 
ATOM     60  C   UNL A   1      44.397  31.832  29.106  1.00  0.00     0.034 A 
BRANCH  47  61
ATOM     61  C   UNL A   1      38.564  30.298  30.456  1.00  0.00     0.023 A 
ATOM     62  C   UNL A   1      38.292  29.899  31.781  1.00  0.00     0.012 A 
ATOM     63  C   UNL A   1      37.622  31.081  29.762  1.00  0.00     0.148 A 
ATOM     64  C   UNL A   1      37.086  30.238  32.392  1.00  0.00     0.002 A 
ATOM     65  C   UNL A   1      36.440  31.452  30.393  1.00  0.00     0.091 A 
ATOM     66  F   UNL A   1      37.887  31.428  28.494  1.00  0.00    -0.205 F 
ATOM     67  C   UNL A   1      36.165  31.023  31.702  1.00  0.00     0.022 A 
BRANCH  65  68
ATOM     68  S   UNL A   1      35.227  32.524  29.614  1.00  0.00     0.127 S 
ATOM     69  O   UNL A   1      36.050  33.668  29.227  1.00  0.00    -0.237 OA
ATOM     70  O   UNL A   1      34.759  31.703  28.496  1.00  0.00    -0.237 OA
ATOM     71  O   UNL A   1      34.219  32.788  30.631  1.00  0.00    -0.744 OA
ENDBRANCH  65  68
ENDBRANCH  47  61
BRANCH  48  72
ATOM     72  C   UNL A   1      46.968  27.402  25.860  1.00  0.00     0.023 A 
ATOM     73  C   UNL A   1      47.106  27.726  24.497  1.00  0.00     0.012 A 
ATOM     74  C   UNL A   1      48.018  26.730  26.515  1.00  0.00     0.148 A 
ATOM     75  C   UNL A   1      48.251  27.361  23.788  1.00  0.00     0.002 A 
ATOM     76  C   UNL A   1      49.178  26.414  25.816  1.00  0.00     0.091 A 
ATOM     77  F   UNL A   1      47.864  26.418  27.809  1.00  0.00    -0.205 F 
ATOM     78  C   UNL A   1      49.291  26.715  24.450  1.00  0.00     0.022 A 
BRANCH  76  79
ATOM     79  S   UNL A   1      50.618  25.697  26.619  1.00  0.00     0.127 S 
ATOM     80  O   UNL A   1      50.064  24.468  27.182  1.00  0.00    -0.237 OA
ATOM     81  O   UNL A   1      51.531  25.503  25.491  1.00  0.00    -0.237 OA
ATOM     82  O   UNL A   1      51.062  26.696  27.581  1.00  0.00    -0.744 OA
ENDBRANCH  76  79
ENDBRANCH  48  72
BRANCH  60  83
ATOM     83  C   UNL A   1      45.129  33.091  29.485  1.00  0.00     0.023 A 
ATOM     84  C   UNL A   1      45.987  33.092  30.601  1.00  0.00     0.012 A 
ATOM     85  C   UNL A   1      45.055  34.232  28.662  1.00  0.00     0.148 A 
ATOM     86  C   UNL A   1      46.750  34.219  30.903  1.00  0.00     0.002 A 
ATOM     87  C   UNL A   1      45.850  35.337  28.945  1.00  0.00     0.091 A 
ATOM     88  F   UNL A   1      44.216  34.214  27.617  1.00  0.00    -0.205 F 
ATOM     89  C   UNL A   1      46.692  35.334  30.069  1.00  0.00     0.022 A 
BRANCH  87  90
ATOM     90  S   UNL A   1      45.913  36.775  27.871  1.00  0.00     0.127 S 
ATOM     91  O   UNL A   1      44.644  37.432  28.179  1.00  0.00    -0.237 OA
ATOM     92  O   UNL A   1      47.099  37.478  28.360  1.00  0.00    -0.237 OA
ATOM     93  O   UNL A   1      46.037  36.257  26.515  1.00  0.00    -0.744 OA
ENDBRANCH  87  90
ENDBRANCH  60  83
ENDBRANCH  34  35
ENDBRANCH  26  29
ENDBRANCH  24  25
ENDBRANCH  23  24
ENDBRANCH   1  23
TORSDOF 18
ENDMDL
MODEL 3
REMARK VINA RESULT:     -10.8      5.159      7.627
REMARK SMILES C[C@@H]1CCC[C@](CCSc2ccccc2)(C(=O)NCCCCNC(=O)c2ccc(-c3c4nc(c(-c5cccc(S(=O)(=O)[O-])c5F)c5ccc([nH]5)c(-c5cccc(S(=O)(=O)[O-])c5F)c5nc(c(-c6cccc(S(=O)(=O)[O-])c6F)c6ccc3[nH]6)C=C5)C=C4)cc2)C1
REMARK SMILES IDX 20 1 19 2 18 3 16 4 17 5 6 7 1 8 2 9 3 10 89 11 4 12 5 13
REMARK SMILES IDX 7 14 8 15 9 16 10 17 11 18 15 19 12 20 14 21 13 22 21 23
REMARK SMILES IDX 22 24 23 25 24 26 25 28 26 29 27 30 88 31 28 32 87 33 29 34
REMARK SMILES IDX 30 35 31 36 81 37 32 38 86 39 80 40 82 41 33 42 85 43 79 44
REMARK SMILES IDX 78 45 34 47 66 48 46 49 65 50 47 51 50 52 64 53 83 54 48 55
REMARK SMILES IDX 49 56 63 58 84 59 51 60 35 61 36 62 44 63 37 64 39 65 45 66
REMARK SMILES IDX 38 67 40 68 41 69 42 70 43 71 67 72 68 73 76 74 69 75 71 76
REMARK SMILES IDX 77 77 70 78 72 79 73 80 74 81 75 82 52 83 53 84 61 85 54 86
REMARK SMILES IDX 56 87 62 88 55 89 57 90 58 91 59 92 60 93
REMARK H PARENT 18 6 23 27 82 46 50 57
REMARK Flexibility Score: inf
ROOT
ATOM      1  C   UNL A   1      34.681  21.646  26.725  1.00  0.00     0.023 C 
ENDROOT
BRANCH   1   2
ATOM      2  C   UNL A   1      34.148  22.941  27.333  1.00  0.00     0.116 C 
BRANCH   2   3
ATOM      3  N   UNL A   1      32.710  22.928  27.364  1.00  0.00    -0.356 N 
ATOM      4  C   UNL A   1      31.765  23.589  26.660  1.00  0.00     0.226 C 
ATOM      5  O   UNL A   1      30.641  23.544  27.178  1.00  0.00    -0.274 OA
ATOM      6  H   UNL A   1      32.338  22.310  28.034  1.00  0.00     0.163 HD
BRANCH   4   7
ATOM      7  C   UNL A   1      32.010  24.432  25.369  1.00  0.00     0.050 C 
ATOM      8  C   UNL A   1      33.597  27.760  26.512  1.00  0.00     0.007 C 
ATOM      9  C   UNL A   1      32.723  27.024  25.478  1.00  0.00    -0.013 C 
ATOM     10  C   UNL A   1      31.243  27.413  25.573  1.00  0.00     0.003 C 
ATOM     11  C   UNL A   1      33.092  25.528  25.446  1.00  0.00     0.020 C 
ATOM     12  C   UNL A   1      30.216  26.287  25.586  1.00  0.00     0.001 C 
ATOM     13  C   UNL A   1      30.659  25.012  24.889  1.00  0.00     0.017 C 
BRANCH   7  14
ATOM     14  C   UNL A   1      32.463  23.371  24.274  1.00  0.00     0.028 C 
BRANCH  14  15
ATOM     15  C   UNL A   1      31.878  21.939  24.295  1.00  0.00     0.076 C 
BRANCH  15  16
ATOM     16  S   UNL A   1      32.156  20.841  22.860  1.00  0.00    -0.126 SA
BRANCH  16  17
ATOM     17  C   UNL A   1      32.567  19.278  23.617  1.00  0.00     0.007 A 
ATOM     18  C   UNL A   1      32.528  19.189  25.015  1.00  0.00     0.015 A 
ATOM     19  C   UNL A   1      32.892  18.136  22.879  1.00  0.00     0.015 A 
ATOM     20  C   UNL A   1      32.882  18.004  25.664  1.00  0.00     0.001 A 
ATOM     21  C   UNL A   1      33.252  16.950  23.528  1.00  0.00     0.001 A 
ATOM     22  C   UNL A   1      33.259  16.889  24.920  1.00  0.00     0.000 A 
ENDBRANCH  16  17
ENDBRANCH  15  16
ENDBRANCH  14  15
ENDBRANCH   7  14
ENDBRANCH   4   7
ENDBRANCH   2   3
ENDBRANCH   1   2
BRANCH   1  23
ATOM     23  C   UNL A   1      35.455  21.851  25.426  1.00  0.00     0.023 C 
BRANCH  23  24
ATOM     24  C   UNL A   1      36.908  22.270  25.618  1.00  0.00     0.116 C 
BRANCH  24  25
ATOM     25  N   UNL A   1      37.838  21.146  25.647  1.00  0.00    -0.352 N 
ATOM     26  C   UNL A   1      39.131  21.146  26.114  1.00  0.00     0.251 C 
ATOM     27  H   UNL A   1      37.503  20.291  25.292  1.00  0.00     0.163 HD
ATOM     28  O   UNL A   1      39.849  20.157  26.016  1.00  0.00    -0.269 OA
BRANCH  26  29
ATOM     29  C   UNL A   1      39.635  22.394  26.711  1.00  0.00     0.039 A 
ATOM     30  C   UNL A   1      40.574  22.325  27.742  1.00  0.00     0.014 A 
ATOM     31  C   UNL A   1      39.285  23.614  26.128  1.00  0.00     0.014 A 
ATOM     32  C   UNL A   1      41.221  23.492  28.150  1.00  0.00     0.010 A 
ATOM     33  C   UNL A   1      39.981  24.758  26.489  1.00  0.00     0.010 A 
ATOM     34  C   UNL A   1      40.955  24.708  27.500  1.00  0.00    -0.014 A 
BRANCH  34  35
ATOM     35  C   UNL A   1      41.663  25.960  27.858  1.00  0.00     0.031 A 
ATOM     36  C   UNL A   1      40.916  27.034  28.597  1.00  0.00     0.074 A 
ATOM     37  C   UNL A   1      42.915  26.181  27.411  1.00  0.00     0.049 A 
ATOM     38  N   UNL A   1      41.276  28.262  28.858  1.00  0.00    -0.248 NA
ATOM     39  C   UNL A   1      39.561  26.692  29.067  1.00  0.00     0.031 C 
ATOM     40  C   UNL A   1      43.714  25.242  26.621  1.00  0.00     0.029 A 
ATOM     41  N   UNL A   1      43.720  27.287  27.524  1.00  0.00    -0.354 N 
ATOM     42  C   UNL A   1      40.179  28.854  29.469  1.00  0.00     0.074 A 
ATOM     43  C   UNL A   1      39.128  27.860  29.514  1.00  0.00     0.031 C 
ATOM     44  C   UNL A   1      44.890  25.813  26.316  1.00  0.00     0.029 A 
ATOM     45  C   UNL A   1      44.920  27.167  26.861  1.00  0.00     0.049 A 
ATOM     46  H   UNL A   1      43.464  28.090  28.033  1.00  0.00     0.167 HD
ATOM     47  C   UNL A   1      40.065  30.102  29.976  1.00  0.00     0.034 A 
ATOM     48  C   UNL A   1      45.923  28.054  26.705  1.00  0.00     0.034 A 
ATOM     49  C   UNL A   1      41.137  31.057  29.994  1.00  0.00     0.049 A 
ATOM     50  C   UNL A   1      45.802  29.410  27.348  1.00  0.00     0.074 A 
ATOM     51  C   UNL A   1      41.155  32.320  30.558  1.00  0.00     0.029 A 
ATOM     52  N   UNL A   1      42.386  30.848  29.432  1.00  0.00    -0.354 N 
ATOM     53  N   UNL A   1      44.806  29.906  28.043  1.00  0.00    -0.248 NA
ATOM     54  C   UNL A   1      46.953  30.315  27.222  1.00  0.00     0.031 C 
ATOM     55  C   UNL A   1      42.421  32.875  30.338  1.00  0.00     0.029 A 
ATOM     56  C   UNL A   1      43.190  31.952  29.647  1.00  0.00     0.049 A 
ATOM     57  H   UNL A   1      42.661  30.034  28.953  1.00  0.00     0.167 HD
ATOM     58  C   UNL A   1      45.227  31.159  28.473  1.00  0.00     0.074 A 
ATOM     59  C   UNL A   1      46.572  31.344  27.969  1.00  0.00     0.031 C 
ATOM     60  C   UNL A   1      44.556  32.080  29.208  1.00  0.00     0.034 A 
BRANCH  47  61
ATOM     61  C   UNL A   1      38.755  30.476  30.614  1.00  0.00     0.023 A 
ATOM     62  C   UNL A   1      38.526  30.146  31.967  1.00  0.00     0.012 A 
ATOM     63  C   UNL A   1      37.768  31.180  29.899  1.00  0.00     0.148 A 
ATOM     64  C   UNL A   1      37.321  30.475  32.584  1.00  0.00     0.002 A 
ATOM     65  C   UNL A   1      36.587  31.543  30.534  1.00  0.00     0.091 A 
ATOM     66  F   UNL A   1      37.993  31.461  28.607  1.00  0.00    -0.205 F 
ATOM     67  C   UNL A   1      36.356  31.182  31.872  1.00  0.00     0.022 A 
BRANCH  65  68
ATOM     68  S   UNL A   1      35.316  32.520  29.722  1.00  0.00     0.127 S 
ATOM     69  O   UNL A   1      34.791  31.568  28.745  1.00  0.00    -0.237 OA
ATOM     70  O   UNL A   1      34.406  32.826  30.827  1.00  0.00    -0.237 OA
ATOM     71  O   UNL A   1      36.002  33.678  29.166  1.00  0.00    -0.744 OA
ENDBRANCH  65  68
ENDBRANCH  47  61
BRANCH  48  72
ATOM     72  C   UNL A   1      47.163  27.658  25.979  1.00  0.00     0.023 A 
ATOM     73  C   UNL A   1      48.195  27.011  26.688  1.00  0.00     0.012 A 
ATOM     74  C   UNL A   1      47.318  27.885  24.598  1.00  0.00     0.148 A 
ATOM     75  C   UNL A   1      49.371  26.627  26.043  1.00  0.00     0.002 A 
ATOM     76  C   UNL A   1      48.472  27.454  23.952  1.00  0.00     0.091 A 
ATOM     77  F   UNL A   1      46.332  28.514  23.943  1.00  0.00    -0.205 F 
ATOM     78  C   UNL A   1      49.505  26.839  24.674  1.00  0.00     0.022 A 
BRANCH  76  79
ATOM     79  S   UNL A   1      48.674  27.570  22.169  1.00  0.00     0.127 S 
ATOM     80  O   UNL A   1      49.976  28.222  22.059  1.00  0.00    -0.237 OA
ATOM     81  O   UNL A   1      48.652  26.162  21.767  1.00  0.00    -0.237 OA
ATOM     82  O   UNL A   1      47.532  28.343  21.700  1.00  0.00    -0.744 OA
ENDBRANCH  76  79
ENDBRANCH  48  72
BRANCH  60  83
ATOM     83  C   UNL A   1      45.273  33.351  29.571  1.00  0.00     0.023 A 
ATOM     84  C   UNL A   1      46.040  33.410  30.749  1.00  0.00     0.012 A 
ATOM     85  C   UNL A   1      45.280  34.443  28.680  1.00  0.00     0.148 A 
ATOM     86  C   UNL A   1      46.791  34.546  31.046  1.00  0.00     0.002 A 
ATOM     87  C   UNL A   1      46.065  35.555  28.961  1.00  0.00     0.091 A 
ATOM     88  F   UNL A   1      44.526  34.371  27.574  1.00  0.00    -0.205 F 
ATOM     89  C   UNL A   1      46.815  35.610  30.147  1.00  0.00     0.022 A 
BRANCH  87  90
ATOM     90  S   UNL A   1      46.233  36.927  27.814  1.00  0.00     0.127 S 
ATOM     91  O   UNL A   1      44.950  37.608  27.975  1.00  0.00    -0.237 OA
ATOM     92  O   UNL A   1      47.382  37.650  28.360  1.00  0.00    -0.237 OA
ATOM     93  O   UNL A   1      46.465  36.329  26.506  1.00  0.00    -0.744 OA
ENDBRANCH  87  90
ENDBRANCH  60  83
ENDBRANCH  34  35
ENDBRANCH  26  29
ENDBRANCH  24  25
ENDBRANCH  23  24
ENDBRANCH   1  23
TORSDOF 18
ENDMDL
