MODEL 1
REMARK VINA RESULT:     -12.3      0.000      0.000
REMARK SMILES COCc1c(C(=O)NCCCCNC(=O)c2ccc(-c3c4nc(c(-c5cccc(S(=O)(=O)[O-])c5F)c5ccc([nH]5)c(-c5cccc(S(=O)(=O)[O-])c5F)c5nc(c(-c6cccc(S(=O)(=O)[O-])c6F)c6ccc3[nH]6)C=C5)C=C4)cc2)nnn1-c1ccc(S(C)(=O)=O)cc1
REMARK SMILES IDX 11 1 10 2 9 3 8 4 6 5 7 6 5 8 4 9 81 10 79 11 80 12 3 13
REMARK SMILES IDX 2 14 1 15 82 16 83 17 91 18 84 19 90 20 85 21 86 22 87 23
REMARK SMILES IDX 88 24 89 25 12 26 13 27 14 28 15 30 16 31 17 32 78 33 18 34
REMARK SMILES IDX 77 35 19 36 20 37 21 38 71 39 22 40 76 41 70 42 72 43 23 44
REMARK SMILES IDX 75 45 69 46 68 47 24 49 56 50 36 51 55 52 37 53 40 54 54 55
REMARK SMILES IDX 73 56 38 57 39 58 53 60 74 61 41 62 25 63 26 64 34 65 27 66
REMARK SMILES IDX 29 67 35 68 28 69 30 70 31 71 32 72 33 73 57 74 58 75 66 76
REMARK SMILES IDX 59 77 61 78 67 79 60 80 62 81 63 82 64 83 65 84 42 85 43 86
REMARK SMILES IDX 51 87 44 88 46 89 52 90 45 91 47 92 48 93 49 94 50 95
REMARK H PARENT 8 7 13 29 72 48 40 59
REMARK Flexibility Score: inf
ROOT
ATOM      1  C   UNL A   1      31.752  31.678  26.591  1.00  0.00     0.023 C 
ENDROOT
BRANCH   1   2
ATOM      2  C   UNL A   1      31.968  30.180  26.356  1.00  0.00     0.023 C 
BRANCH   2   3
ATOM      3  C   UNL A   1      31.528  29.567  25.015  1.00  0.00     0.116 C 
BRANCH   3   4
ATOM      4  N   UNL A   1      32.645  29.377  24.113  1.00  0.00    -0.351 N 
ATOM      5  C   UNL A   1      33.515  28.350  23.833  1.00  0.00     0.273 C 
ATOM      6  O   UNL A   1      34.399  28.640  23.022  1.00  0.00    -0.267 OA
ATOM      7  H   UNL A   1      32.825  30.177  23.568  1.00  0.00     0.163 HD
BRANCH   5   8
ATOM      8  C   UNL A   1      33.481  26.995  24.408  1.00  0.00     0.176 A 
ATOM      9  C   UNL A   1      33.169  25.720  23.943  1.00  0.00     0.103 A 
ATOM     10  N   UNL A   1      33.374  24.906  25.049  1.00  0.00    -0.214 N 
ATOM     11  N   UNL A   1      33.610  26.890  25.794  1.00  0.00    -0.124 NA
ATOM     12  N   UNL A   1      33.431  25.633  26.168  1.00  0.00    -0.061 NA
BRANCH   9  13
ATOM     13  C   UNL A   1      32.596  25.125  22.718  1.00  0.00     0.218 C 
BRANCH  13  14
ATOM     14  O   UNL A   1      33.322  25.472  21.546  1.00  0.00    -0.378 OA
ATOM     15  C   UNL A   1      32.608  25.541  20.321  1.00  0.00     0.195 C 
ENDBRANCH  13  14
ENDBRANCH   9  13
BRANCH  10  16
ATOM     16  C   UNL A   1      33.312  23.499  25.079  1.00  0.00     0.067 A 
ATOM     17  C   UNL A   1      32.146  22.868  25.530  1.00  0.00     0.030 A 
ATOM     18  C   UNL A   1      34.344  22.775  24.469  1.00  0.00     0.030 A 
ATOM     19  C   UNL A   1      31.988  21.499  25.302  1.00  0.00     0.022 A 
ATOM     20  C   UNL A   1      34.203  21.401  24.285  1.00  0.00     0.022 A 
ATOM     21  C   UNL A   1      33.017  20.775  24.680  1.00  0.00     0.067 A 
BRANCH  21  22
ATOM     22  S   UNL A   1      32.774  19.053  24.315  1.00  0.00     0.175 S 
ATOM     23  C   UNL A   1      34.403  18.359  24.374  1.00  0.00     0.163 C 
ATOM     24  O   UNL A   1      32.002  18.493  25.410  1.00  0.00    -0.224 OA
ATOM     25  O   UNL A   1      32.308  18.947  22.947  1.00  0.00    -0.224 OA
ENDBRANCH  21  22
ENDBRANCH  10  16
ENDBRANCH   5   8
ENDBRANCH   3   4
ENDBRANCH   2   3
ENDBRANCH   1   2
BRANCH   1  26
ATOM     26  C   UNL A   1      32.885  32.398  27.301  1.00  0.00     0.116 C 
BRANCH  26  27
ATOM     27  N   UNL A   1      32.592  33.805  27.638  1.00  0.00    -0.352 N 
ATOM     28  C   UNL A   1      33.072  34.535  28.720  1.00  0.00     0.251 C 
ATOM     29  H   UNL A   1      31.986  34.282  27.025  1.00  0.00     0.163 HD
ATOM     30  O   UNL A   1      32.511  35.550  29.126  1.00  0.00    -0.269 OA
BRANCH  28  31
ATOM     31  C   UNL A   1      34.325  34.073  29.327  1.00  0.00     0.039 A 
ATOM     32  C   UNL A   1      34.402  33.102  30.332  1.00  0.00     0.014 A 
ATOM     33  C   UNL A   1      35.456  34.529  28.671  1.00  0.00     0.014 A 
ATOM     34  C   UNL A   1      35.644  32.521  30.585  1.00  0.00     0.010 A 
ATOM     35  C   UNL A   1      36.554  33.730  28.695  1.00  0.00     0.010 A 
ATOM     36  C   UNL A   1      36.714  32.825  29.730  1.00  0.00    -0.014 A 
BRANCH  36  37
ATOM     37  C   UNL A   1      38.009  32.166  29.782  1.00  0.00     0.031 A 
ATOM     38  C   UNL A   1      38.020  30.815  29.174  1.00  0.00     0.074 A 
ATOM     39  C   UNL A   1      39.136  32.844  30.111  1.00  0.00     0.049 A 
ATOM     40  N   UNL A   1      37.935  29.683  29.790  1.00  0.00    -0.248 NA
ATOM     41  C   UNL A   1      37.893  30.702  27.712  1.00  0.00     0.031 C 
ATOM     42  C   UNL A   1      39.292  34.291  30.366  1.00  0.00     0.029 A 
ATOM     43  N   UNL A   1      40.421  32.410  30.154  1.00  0.00    -0.354 N 
ATOM     44  C   UNL A   1      38.078  28.721  28.793  1.00  0.00     0.074 A 
ATOM     45  C   UNL A   1      37.751  29.381  27.560  1.00  0.00     0.031 C 
ATOM     46  C   UNL A   1      40.591  34.639  30.271  1.00  0.00     0.029 A 
ATOM     47  C   UNL A   1      41.372  33.426  30.184  1.00  0.00     0.049 A 
ATOM     48  H   UNL A   1      40.661  31.455  30.163  1.00  0.00     0.167 HD
ATOM     49  C   UNL A   1      38.802  27.589  29.026  1.00  0.00     0.034 A 
ATOM     50  C   UNL A   1      42.715  33.276  30.142  1.00  0.00     0.034 A 
ATOM     51  C   UNL A   1      39.157  27.504  30.422  1.00  0.00     0.049 A 
ATOM     52  C   UNL A   1      42.995  31.899  30.596  1.00  0.00     0.074 A 
ATOM     53  C   UNL A   1      38.500  27.307  31.615  1.00  0.00     0.029 A 
ATOM     54  N   UNL A   1      40.365  28.094  30.708  1.00  0.00    -0.354 N 
ATOM     55  N   UNL A   1      42.717  31.480  31.800  1.00  0.00    -0.248 NA
ATOM     56  C   UNL A   1      43.216  30.859  29.604  1.00  0.00     0.031 C 
ATOM     57  C   UNL A   1      39.244  28.041  32.589  1.00  0.00     0.029 A 
ATOM     58  C   UNL A   1      40.362  28.607  31.975  1.00  0.00     0.049 A 
ATOM     59  H   UNL A   1      41.126  28.140  30.086  1.00  0.00     0.167 HD
ATOM     60  C   UNL A   1      42.268  30.184  31.605  1.00  0.00     0.074 A 
ATOM     61  C   UNL A   1      42.774  29.801  30.291  1.00  0.00     0.031 C 
ATOM     62  C   UNL A   1      41.266  29.668  32.377  1.00  0.00     0.034 A 
BRANCH  49  63
ATOM     63  C   UNL A   1      39.623  26.822  28.002  1.00  0.00     0.023 A 
ATOM     64  C   UNL A   1      39.450  25.418  27.973  1.00  0.00     0.012 A 
ATOM     65  C   UNL A   1      40.732  27.338  27.295  1.00  0.00     0.148 A 
ATOM     66  C   UNL A   1      40.355  24.573  27.319  1.00  0.00     0.002 A 
ATOM     67  C   UNL A   1      41.588  26.501  26.584  1.00  0.00     0.091 A 
ATOM     68  F   UNL A   1      41.063  28.624  27.409  1.00  0.00    -0.205 F 
ATOM     69  C   UNL A   1      41.422  25.116  26.617  1.00  0.00     0.022 A 
BRANCH  67  70
ATOM     70  S   UNL A   1      42.967  27.154  25.632  1.00  0.00     0.127 S 
ATOM     71  O   UNL A   1      42.280  28.024  24.684  1.00  0.00    -0.237 OA
ATOM     72  O   UNL A   1      43.738  27.846  26.666  1.00  0.00    -0.237 OA
ATOM     73  O   UNL A   1      43.637  25.990  25.067  1.00  0.00    -0.744 OA
ENDBRANCH  67  70
ENDBRANCH  49  63
BRANCH  50  74
ATOM     74  C   UNL A   1      43.741  34.133  29.513  1.00  0.00     0.023 A 
ATOM     75  C   UNL A   1      44.523  34.998  30.302  1.00  0.00     0.012 A 
ATOM     76  C   UNL A   1      44.154  33.873  28.188  1.00  0.00     0.148 A 
ATOM     77  C   UNL A   1      45.708  35.552  29.801  1.00  0.00     0.002 A 
ATOM     78  C   UNL A   1      45.334  34.422  27.698  1.00  0.00     0.091 A 
ATOM     79  F   UNL A   1      43.432  33.020  27.449  1.00  0.00    -0.205 F 
ATOM     80  C   UNL A   1      46.122  35.251  28.506  1.00  0.00     0.022 A 
BRANCH  78  81
ATOM     81  S   UNL A   1      45.956  34.050  26.052  1.00  0.00     0.127 S 
ATOM     82  O   UNL A   1      44.904  34.613  25.206  1.00  0.00    -0.237 OA
ATOM     83  O   UNL A   1      47.218  34.784  26.037  1.00  0.00    -0.237 OA
ATOM     84  O   UNL A   1      46.069  32.598  25.995  1.00  0.00    -0.744 OA
ENDBRANCH  78  81
ENDBRANCH  50  74
BRANCH  62  85
ATOM     85  C   UNL A   1      40.969  30.360  33.681  1.00  0.00     0.023 A 
ATOM     86  C   UNL A   1      41.835  30.327  34.792  1.00  0.00     0.012 A 
ATOM     87  C   UNL A   1      39.824  31.168  33.736  1.00  0.00     0.148 A 
ATOM     88  C   UNL A   1      41.554  31.075  35.940  1.00  0.00     0.002 A 
ATOM     89  C   UNL A   1      39.568  31.942  34.858  1.00  0.00     0.091 A 
ATOM     90  F   UNL A   1      39.010  31.184  32.668  1.00  0.00    -0.205 F 
ATOM     91  C   UNL A   1      40.426  31.892  35.968  1.00  0.00     0.022 A 
BRANCH  89  92
ATOM     92  S   UNL A   1      38.197  33.095  34.906  1.00  0.00     0.127 S 
ATOM     93  O   UNL A   1      38.505  33.887  36.095  1.00  0.00    -0.237 OA
ATOM     94  O   UNL A   1      38.346  33.811  33.638  1.00  0.00    -0.237 OA
ATOM     95  O   UNL A   1      36.989  32.282  34.991  1.00  0.00    -0.744 OA
ENDBRANCH  89  92
ENDBRANCH  62  85
ENDBRANCH  36  37
ENDBRANCH  28  31
ENDBRANCH  26  27
ENDBRANCH   1  26
TORSDOF 18
ENDMDL
MODEL 2
REMARK VINA RESULT:     -11.7      1.649      2.111
REMARK SMILES COCc1c(C(=O)NCCCCNC(=O)c2ccc(-c3c4nc(c(-c5cccc(S(=O)(=O)[O-])c5F)c5ccc([nH]5)c(-c5cccc(S(=O)(=O)[O-])c5F)c5nc(c(-c6cccc(S(=O)(=O)[O-])c6F)c6ccc3[nH]6)C=C5)C=C4)cc2)nnn1-c1ccc(S(C)(=O)=O)cc1
REMARK SMILES IDX 11 1 10 2 9 3 8 4 6 5 7 6 5 8 4 9 81 10 79 11 80 12 3 13
REMARK SMILES IDX 2 14 1 15 82 16 83 17 91 18 84 19 90 20 85 21 86 22 87 23
REMARK SMILES IDX 88 24 89 25 12 26 13 27 14 28 15 30 16 31 17 32 78 33 18 34
REMARK SMILES IDX 77 35 19 36 20 37 21 38 71 39 22 40 76 41 70 42 72 43 23 44
REMARK SMILES IDX 75 45 69 46 68 47 24 49 56 50 36 51 55 52 37 53 40 54 54 55
REMARK SMILES IDX 73 56 38 57 39 58 53 60 74 61 41 62 25 63 26 64 34 65 27 66
REMARK SMILES IDX 29 67 35 68 28 69 30 70 31 71 32 72 33 73 57 74 58 75 66 76
REMARK SMILES IDX 59 77 61 78 67 79 60 80 62 81 63 82 64 83 65 84 42 85 43 86
REMARK SMILES IDX 51 87 44 88 46 89 52 90 45 91 47 92 48 93 49 94 50 95
REMARK H PARENT 8 7 13 29 72 48 40 59
REMARK Flexibility Score: inf
ROOT
ATOM      1  C   UNL A   1      31.801  31.040  26.732  1.00  0.00     0.023 C 
ENDROOT
BRANCH   1   2
ATOM      2  C   UNL A   1      31.925  29.540  27.015  1.00  0.00     0.023 C 
BRANCH   2   3
ATOM      3  C   UNL A   1      31.562  28.541  25.903  1.00  0.00     0.116 C 
BRANCH   3   4
ATOM      4  N   UNL A   1      32.577  28.485  24.872  1.00  0.00    -0.351 N 
ATOM      5  C   UNL A   1      33.045  27.524  24.007  1.00  0.00     0.273 C 
ATOM      6  O   UNL A   1      34.005  27.883  23.320  1.00  0.00    -0.267 OA
ATOM      7  H   UNL A   1      33.046  29.345  24.762  1.00  0.00     0.163 HD
BRANCH   5   8
ATOM      8  C   UNL A   1      32.518  26.158  23.853  1.00  0.00     0.176 A 
ATOM      9  C   UNL A   1      33.051  24.873  23.880  1.00  0.00     0.103 A 
ATOM     10  N   UNL A   1      31.951  24.053  23.670  1.00  0.00    -0.214 N 
ATOM     11  N   UNL A   1      31.206  26.032  23.393  1.00  0.00    -0.124 NA
ATOM     12  N   UNL A   1      30.924  24.756  23.184  1.00  0.00    -0.061 NA
BRANCH   9  13
ATOM     13  C   UNL A   1      34.395  24.259  23.933  1.00  0.00     0.218 C 
BRANCH  13  14
ATOM     14  O   UNL A   1      35.057  24.489  25.169  1.00  0.00    -0.378 OA
ATOM     15  C   UNL A   1      35.558  23.361  25.872  1.00  0.00     0.195 C 
ENDBRANCH  13  14
ENDBRANCH   9  13
BRANCH  10  16
ATOM     16  C   UNL A   1      31.929  22.645  23.725  1.00  0.00     0.067 A 
ATOM     17  C   UNL A   1      31.956  21.907  22.536  1.00  0.00     0.030 A 
ATOM     18  C   UNL A   1      32.081  22.026  24.972  1.00  0.00     0.030 A 
ATOM     19  C   UNL A   1      32.209  20.535  22.599  1.00  0.00     0.022 A 
ATOM     20  C   UNL A   1      32.287  20.650  25.034  1.00  0.00     0.022 A 
ATOM     21  C   UNL A   1      32.374  19.916  23.847  1.00  0.00     0.067 A 
BRANCH  21  22
ATOM     22  S   UNL A   1      32.782  18.187  23.917  1.00  0.00     0.175 S 
ATOM     23  C   UNL A   1      34.479  18.158  24.424  1.00  0.00     0.163 C 
ATOM     24  O   UNL A   1      31.981  17.607  24.980  1.00  0.00    -0.224 OA
ATOM     25  O   UNL A   1      32.725  17.660  22.569  1.00  0.00    -0.224 OA
ENDBRANCH  21  22
ENDBRANCH  10  16
ENDBRANCH   5   8
ENDBRANCH   3   4
ENDBRANCH   2   3
ENDBRANCH   1   2
BRANCH   1  26
ATOM     26  C   UNL A   1      32.913  31.906  27.298  1.00  0.00     0.116 C 
BRANCH  26  27
ATOM     27  N   UNL A   1      32.542  33.323  27.484  1.00  0.00    -0.352 N 
ATOM     28  C   UNL A   1      33.003  34.198  28.462  1.00  0.00     0.251 C 
ATOM     29  H   UNL A   1      31.893  33.690  26.842  1.00  0.00     0.163 HD
ATOM     30  O   UNL A   1      32.392  35.218  28.769  1.00  0.00    -0.269 OA
BRANCH  28  31
ATOM     31  C   UNL A   1      34.298  33.882  29.076  1.00  0.00     0.039 A 
ATOM     32  C   UNL A   1      34.451  33.138  30.251  1.00  0.00     0.014 A 
ATOM     33  C   UNL A   1      35.381  34.205  28.275  1.00  0.00     0.014 A 
ATOM     34  C   UNL A   1      35.717  32.633  30.544  1.00  0.00     0.010 A 
ATOM     35  C   UNL A   1      36.495  33.438  28.398  1.00  0.00     0.010 A 
ATOM     36  C   UNL A   1      36.732  32.766  29.584  1.00  0.00    -0.014 A 
BRANCH  36  37
ATOM     37  C   UNL A   1      38.042  32.144  29.694  1.00  0.00     0.031 A 
ATOM     38  C   UNL A   1      38.102  30.771  29.139  1.00  0.00     0.074 A 
ATOM     39  C   UNL A   1      39.142  32.864  30.023  1.00  0.00     0.049 A 
ATOM     40  N   UNL A   1      38.031  29.663  29.798  1.00  0.00    -0.248 NA
ATOM     41  C   UNL A   1      38.015  30.599  27.680  1.00  0.00     0.031 C 
ATOM     42  C   UNL A   1      39.255  34.324  30.224  1.00  0.00     0.029 A 
ATOM     43  N   UNL A   1      40.436  32.467  30.114  1.00  0.00    -0.354 N 
ATOM     44  C   UNL A   1      38.223  28.667  28.843  1.00  0.00     0.074 A 
ATOM     45  C   UNL A   1      37.911  29.270  27.577  1.00  0.00     0.031 C 
ATOM     46  C   UNL A   1      40.546  34.703  30.146  1.00  0.00     0.029 A 
ATOM     47  C   UNL A   1      41.359  33.508  30.126  1.00  0.00     0.049 A 
ATOM     48  H   UNL A   1      40.700  31.520  30.165  1.00  0.00     0.167 HD
ATOM     49  C   UNL A   1      38.970  27.565  29.137  1.00  0.00     0.034 A 
ATOM     50  C   UNL A   1      42.707  33.392  30.123  1.00  0.00     0.034 A 
ATOM     51  C   UNL A   1      39.293  27.543  30.544  1.00  0.00     0.049 A 
ATOM     52  C   UNL A   1      43.011  32.043  30.637  1.00  0.00     0.074 A 
ATOM     53  C   UNL A   1      38.611  27.375  31.728  1.00  0.00     0.029 A 
ATOM     54  N   UNL A   1      40.477  28.175  30.835  1.00  0.00    -0.354 N 
ATOM     55  N   UNL A   1      42.713  31.662  31.850  1.00  0.00    -0.248 NA
ATOM     56  C   UNL A   1      43.283  30.971  29.693  1.00  0.00     0.031 C 
ATOM     57  C   UNL A   1      39.310  28.165  32.689  1.00  0.00     0.029 A 
ATOM     58  C   UNL A   1      40.429  28.737  32.081  1.00  0.00     0.049 A 
ATOM     59  H   UNL A   1      41.252  28.218  30.231  1.00  0.00     0.167 HD
ATOM     60  C   UNL A   1      42.302  30.348  31.695  1.00  0.00     0.074 A 
ATOM     61  C   UNL A   1      42.851  29.929  30.410  1.00  0.00     0.031 C 
ATOM     62  C   UNL A   1      41.295  29.836  32.462  1.00  0.00     0.034 A 
BRANCH  49  63
ATOM     63  C   UNL A   1      39.836  26.781  28.165  1.00  0.00     0.023 A 
ATOM     64  C   UNL A   1      39.782  25.369  28.261  1.00  0.00     0.012 A 
ATOM     65  C   UNL A   1      40.886  27.321  27.390  1.00  0.00     0.148 A 
ATOM     66  C   UNL A   1      40.744  24.548  27.661  1.00  0.00     0.002 A 
ATOM     67  C   UNL A   1      41.798  26.499  26.734  1.00  0.00     0.091 A 
ATOM     68  F   UNL A   1      41.110  28.635  27.385  1.00  0.00    -0.205 F 
ATOM     69  C   UNL A   1      41.750  25.113  26.891  1.00  0.00     0.022 A 
BRANCH  67  70
ATOM     70  S   UNL A   1      43.103  27.176  25.698  1.00  0.00     0.127 S 
ATOM     71  O   UNL A   1      43.733  25.961  25.193  1.00  0.00    -0.237 OA
ATOM     72  O   UNL A   1      42.332  27.933  24.710  1.00  0.00    -0.237 OA
ATOM     73  O   UNL A   1      43.914  28.002  26.582  1.00  0.00    -0.744 OA
ENDBRANCH  67  70
ENDBRANCH  49  63
BRANCH  50  74
ATOM     74  C   UNL A   1      43.726  34.252  29.485  1.00  0.00     0.023 A 
ATOM     75  C   UNL A   1      44.078  34.053  28.137  1.00  0.00     0.012 A 
ATOM     76  C   UNL A   1      44.120  35.453  30.114  1.00  0.00     0.148 A 
ATOM     77  C   UNL A   1      44.764  35.042  27.422  1.00  0.00     0.002 A 
ATOM     78  C   UNL A   1      44.797  36.434  29.397  1.00  0.00     0.091 A 
ATOM     79  F   UNL A   1      43.751  35.660  31.386  1.00  0.00    -0.205 F 
ATOM     80  C   UNL A   1      45.109  36.239  28.046  1.00  0.00     0.022 A 
BRANCH  78  81
ATOM     81  S   UNL A   1      45.239  38.020  30.120  1.00  0.00     0.127 S 
ATOM     82  O   UNL A   1      46.136  37.609  31.200  1.00  0.00    -0.237 OA
ATOM     83  O   UNL A   1      45.893  38.688  28.998  1.00  0.00    -0.237 OA
ATOM     84  O   UNL A   1      43.984  38.612  30.565  1.00  0.00    -0.744 OA
ENDBRANCH  78  81
ENDBRANCH  50  74
BRANCH  62  85
ATOM     85  C   UNL A   1      40.947  30.570  33.730  1.00  0.00     0.023 A 
ATOM     86  C   UNL A   1      41.775  30.583  34.871  1.00  0.00     0.012 A 
ATOM     87  C   UNL A   1      39.795  31.369  33.718  1.00  0.00     0.148 A 
ATOM     88  C   UNL A   1      41.448  31.368  35.982  1.00  0.00     0.002 A 
ATOM     89  C   UNL A   1      39.494  32.179  34.804  1.00  0.00     0.091 A 
ATOM     90  F   UNL A   1      39.019  31.341  32.623  1.00  0.00    -0.205 F 
ATOM     91  C   UNL A   1      40.313  32.175  35.943  1.00  0.00     0.022 A 
BRANCH  89  92
ATOM     92  S   UNL A   1      38.113  33.321  34.764  1.00  0.00     0.127 S 
ATOM     93  O   UNL A   1      36.970  32.422  34.906  1.00  0.00    -0.237 OA
ATOM     94  O   UNL A   1      38.375  34.169  35.928  1.00  0.00    -0.237 OA
ATOM     95  O   UNL A   1      38.205  34.020  33.487  1.00  0.00    -0.744 OA
ENDBRANCH  89  92
ENDBRANCH  62  85
ENDBRANCH  36  37
ENDBRANCH  28  31
ENDBRANCH  26  27
ENDBRANCH   1  26
TORSDOF 18
ENDMDL
MODEL 3
REMARK VINA RESULT:     -11.7      4.361      9.575
REMARK SMILES COCc1c(C(=O)NCCCCNC(=O)c2ccc(-c3c4nc(c(-c5cccc(S(=O)(=O)[O-])c5F)c5ccc([nH]5)c(-c5cccc(S(=O)(=O)[O-])c5F)c5nc(c(-c6cccc(S(=O)(=O)[O-])c6F)c6ccc3[nH]6)C=C5)C=C4)cc2)nnn1-c1ccc(S(C)(=O)=O)cc1
REMARK SMILES IDX 11 1 10 2 9 3 8 4 6 5 7 6 5 8 4 9 81 10 79 11 80 12 3 13
REMARK SMILES IDX 2 14 1 15 82 16 83 17 91 18 84 19 90 20 85 21 86 22 87 23
REMARK SMILES IDX 88 24 89 25 12 26 13 27 14 28 15 30 16 31 17 32 78 33 18 34
REMARK SMILES IDX 77 35 19 36 20 37 21 38 71 39 22 40 76 41 70 42 72 43 23 44
REMARK SMILES IDX 75 45 69 46 68 47 24 49 56 50 36 51 55 52 37 53 40 54 54 55
REMARK SMILES IDX 73 56 38 57 39 58 53 60 74 61 41 62 25 63 26 64 34 65 27 66
REMARK SMILES IDX 29 67 35 68 28 69 30 70 31 71 32 72 33 73 57 74 58 75 66 76
REMARK SMILES IDX 59 77 61 78 67 79 60 80 62 81 63 82 64 83 65 84 42 85 43 86
REMARK SMILES IDX 51 87 44 88 46 89 52 90 45 91 47 92 48 93 49 94 50 95
REMARK H PARENT 8 7 13 29 72 48 40 59
REMARK Flexibility Score: inf
ROOT
ATOM      1  C   UNL A   1      37.621  21.193  24.656  1.00  0.00     0.023 C 
ENDROOT
BRANCH   1   2
ATOM      2  C   UNL A   1      36.358  20.414  25.036  1.00  0.00     0.023 C 
BRANCH   2   3
ATOM      3  C   UNL A   1      35.236  21.142  25.797  1.00  0.00     0.116 C 
BRANCH   3   4
ATOM      4  N   UNL A   1      33.953  20.492  25.623  1.00  0.00    -0.351 N 
ATOM      5  C   UNL A   1      32.659  20.914  25.431  1.00  0.00     0.273 C 
ATOM      6  O   UNL A   1      31.826  20.003  25.407  1.00  0.00    -0.267 OA
ATOM      7  H   UNL A   1      34.025  19.510  25.649  1.00  0.00     0.163 HD
BRANCH   5   8
ATOM      8  C   UNL A   1      32.210  22.307  25.268  1.00  0.00     0.176 A 
ATOM      9  C   UNL A   1      31.965  23.159  24.195  1.00  0.00     0.103 A 
ATOM     10  N   UNL A   1      31.547  24.337  24.796  1.00  0.00    -0.214 N 
ATOM     11  N   UNL A   1      32.157  23.096  26.419  1.00  0.00    -0.124 NA
ATOM     12  N   UNL A   1      31.863  24.344  26.094  1.00  0.00    -0.061 NA
BRANCH   9  13
ATOM     13  C   UNL A   1      32.166  23.140  22.730  1.00  0.00     0.218 C 
BRANCH  13  14
ATOM     14  O   UNL A   1      33.515  23.385  22.357  1.00  0.00    -0.378 OA
ATOM     15  C   UNL A   1      34.426  23.766  23.377  1.00  0.00     0.195 C 
ENDBRANCH  13  14
ENDBRANCH   9  13
BRANCH  10  16
ATOM     16  C   UNL A   1      31.060  25.488  24.143  1.00  0.00     0.067 A 
ATOM     17  C   UNL A   1      29.689  25.612  23.892  1.00  0.00     0.030 A 
ATOM     18  C   UNL A   1      31.939  26.560  23.944  1.00  0.00     0.030 A 
ATOM     19  C   UNL A   1      29.185  26.855  23.501  1.00  0.00     0.022 A 
ATOM     20  C   UNL A   1      31.439  27.785  23.508  1.00  0.00     0.022 A 
ATOM     21  C   UNL A   1      30.063  27.932  23.313  1.00  0.00     0.067 A 
BRANCH  21  22
ATOM     22  S   UNL A   1      29.405  29.531  22.899  1.00  0.00     0.175 S 
ATOM     23  C   UNL A   1      27.650  29.322  22.999  1.00  0.00     0.163 C 
ATOM     24  O   UNL A   1      29.815  30.442  23.954  1.00  0.00    -0.224 OA
ATOM     25  O   UNL A   1      29.731  29.804  21.514  1.00  0.00    -0.224 OA
ENDBRANCH  21  22
ENDBRANCH  10  16
ENDBRANCH   5   8
ENDBRANCH   3   4
ENDBRANCH   2   3
ENDBRANCH   1   2
BRANCH   1  26
ATOM     26  C   UNL A   1      38.716  21.215  25.709  1.00  0.00     0.116 C 
BRANCH  26  27
ATOM     27  N   UNL A   1      39.488  19.961  25.805  1.00  0.00    -0.352 N 
ATOM     28  C   UNL A   1      40.864  19.823  25.950  1.00  0.00     0.251 C 
ATOM     29  H   UNL A   1      38.969  19.126  25.759  1.00  0.00     0.163 HD
ATOM     30  O   UNL A   1      41.454  18.785  25.660  1.00  0.00    -0.269 OA
BRANCH  28  31
ATOM     31  C   UNL A   1      41.586  20.961  26.532  1.00  0.00     0.039 A 
ATOM     32  C   UNL A   1      42.280  21.918  25.784  1.00  0.00     0.014 A 
ATOM     33  C   UNL A   1      41.346  21.132  27.885  1.00  0.00     0.014 A 
ATOM     34  C   UNL A   1      42.635  23.109  26.416  1.00  0.00     0.010 A 
ATOM     35  C   UNL A   1      41.396  22.399  28.371  1.00  0.00     0.010 A 
ATOM     36  C   UNL A   1      42.155  23.350  27.712  1.00  0.00    -0.014 A 
BRANCH  36  37
ATOM     37  C   UNL A   1      42.313  24.613  28.416  1.00  0.00     0.031 A 
ATOM     38  C   UNL A   1      41.186  25.555  28.218  1.00  0.00     0.074 A 
ATOM     39  C   UNL A   1      43.267  24.781  29.364  1.00  0.00     0.049 A 
ATOM     40  N   UNL A   1      41.137  26.549  27.396  1.00  0.00    -0.248 NA
ATOM     41  C   UNL A   1      39.890  25.238  28.840  1.00  0.00     0.031 C 
ATOM     42  C   UNL A   1      44.203  23.775  29.909  1.00  0.00     0.029 A 
ATOM     43  N   UNL A   1      43.519  25.857  30.152  1.00  0.00    -0.354 N 
ATOM     44  C   UNL A   1      39.915  27.166  27.652  1.00  0.00     0.074 A 
ATOM     45  C   UNL A   1      39.103  26.175  28.301  1.00  0.00     0.031 C 
ATOM     46  C   UNL A   1      44.710  24.205  31.082  1.00  0.00     0.029 A 
ATOM     47  C   UNL A   1      44.327  25.588  31.252  1.00  0.00     0.049 A 
ATOM     48  H   UNL A   1      43.159  26.753  29.961  1.00  0.00     0.167 HD
ATOM     49  C   UNL A   1      39.815  28.525  27.645  1.00  0.00     0.034 A 
ATOM     50  C   UNL A   1      44.661  26.451  32.238  1.00  0.00     0.034 A 
ATOM     51  C   UNL A   1      41.039  29.113  27.154  1.00  0.00     0.049 A 
ATOM     52  C   UNL A   1      44.483  27.808  31.683  1.00  0.00     0.074 A 
ATOM     53  C   UNL A   1      41.714  29.174  25.957  1.00  0.00     0.029 A 
ATOM     54  N   UNL A   1      41.942  29.386  28.152  1.00  0.00    -0.354 N 
ATOM     55  N   UNL A   1      45.187  28.261  30.682  1.00  0.00    -0.248 NA
ATOM     56  C   UNL A   1      43.254  28.532  31.966  1.00  0.00     0.031 C 
ATOM     57  C   UNL A   1      43.099  29.230  26.299  1.00  0.00     0.029 A 
ATOM     58  C   UNL A   1      43.223  29.266  27.689  1.00  0.00     0.049 A 
ATOM     59  H   UNL A   1      41.701  29.633  29.074  1.00  0.00     0.167 HD
ATOM     60  C   UNL A   1      44.275  28.996  29.941  1.00  0.00     0.074 A 
ATOM     61  C   UNL A   1      43.182  29.283  30.863  1.00  0.00     0.031 C 
ATOM     62  C   UNL A   1      44.343  29.021  28.577  1.00  0.00     0.034 A 
BRANCH  49  63
ATOM     63  C   UNL A   1      38.883  29.362  28.506  1.00  0.00     0.023 A 
ATOM     64  C   UNL A   1      38.996  29.199  29.907  1.00  0.00     0.012 A 
ATOM     65  C   UNL A   1      37.742  30.052  28.039  1.00  0.00     0.148 A 
ATOM     66  C   UNL A   1      38.007  29.654  30.788  1.00  0.00     0.002 A 
ATOM     67  C   UNL A   1      36.798  30.567  28.923  1.00  0.00     0.091 A 
ATOM     68  F   UNL A   1      37.473  30.101  26.735  1.00  0.00    -0.205 F 
ATOM     69  C   UNL A   1      36.909  30.346  30.295  1.00  0.00     0.022 A 
BRANCH  67  70
ATOM     70  S   UNL A   1      35.372  31.498  28.341  1.00  0.00     0.127 S 
ATOM     71  O   UNL A   1      34.644  30.477  27.596  1.00  0.00    -0.237 OA
ATOM     72  O   UNL A   1      34.753  31.909  29.602  1.00  0.00    -0.237 OA
ATOM     73  O   UNL A   1      35.918  32.599  27.558  1.00  0.00    -0.744 OA
ENDBRANCH  67  70
ENDBRANCH  49  63
BRANCH  50  74
ATOM     74  C   UNL A   1      44.878  26.200  33.678  1.00  0.00     0.023 A 
ATOM     75  C   UNL A   1      46.172  26.289  34.226  1.00  0.00     0.012 A 
ATOM     76  C   UNL A   1      43.775  26.179  34.559  1.00  0.00     0.148 A 
ATOM     77  C   UNL A   1      46.360  26.398  35.609  1.00  0.00     0.002 A 
ATOM     78  C   UNL A   1      43.967  26.292  35.932  1.00  0.00     0.091 A 
ATOM     79  F   UNL A   1      42.541  26.134  34.038  1.00  0.00    -0.205 F 
ATOM     80  C   UNL A   1      45.258  26.416  36.461  1.00  0.00     0.022 A 
BRANCH  78  81
ATOM     81  S   UNL A   1      42.595  26.365  37.092  1.00  0.00     0.127 S 
ATOM     82  O   UNL A   1      41.930  25.087  36.840  1.00  0.00    -0.237 OA
ATOM     83  O   UNL A   1      43.291  26.454  38.373  1.00  0.00    -0.237 OA
ATOM     84  O   UNL A   1      41.821  27.539  36.710  1.00  0.00    -0.744 OA
ENDBRANCH  78  81
ENDBRANCH  50  74
BRANCH  62  85
ATOM     85  C   UNL A   1      45.641  28.602  27.939  1.00  0.00     0.023 A 
ATOM     86  C   UNL A   1      46.811  29.388  27.972  1.00  0.00     0.012 A 
ATOM     87  C   UNL A   1      45.703  27.314  27.389  1.00  0.00     0.148 A 
ATOM     88  C   UNL A   1      48.014  28.900  27.451  1.00  0.00     0.002 A 
ATOM     89  C   UNL A   1      46.907  26.815  26.912  1.00  0.00     0.091 A 
ATOM     90  F   UNL A   1      44.578  26.582  27.366  1.00  0.00    -0.205 F 
ATOM     91  C   UNL A   1      48.065  27.608  26.932  1.00  0.00     0.022 A 
BRANCH  89  92
ATOM     92  S   UNL A   1      47.056  25.123  26.339  1.00  0.00     0.127 S 
ATOM     93  O   UNL A   1      48.254  25.188  25.505  1.00  0.00    -0.237 OA
ATOM     94  O   UNL A   1      47.220  24.382  27.591  1.00  0.00    -0.237 OA
ATOM     95  O   UNL A   1      45.816  24.826  25.632  1.00  0.00    -0.744 OA
ENDBRANCH  89  92
ENDBRANCH  62  85
ENDBRANCH  36  37
ENDBRANCH  28  31
ENDBRANCH  26  27
ENDBRANCH   1  26
TORSDOF 18
ENDMDL
