MODEL 1
REMARK VINA RESULT:     -12.3      0.000      0.000
REMARK SMILES C[C@H](C(=O)NCCCCNC(=O)c1ccc(-c2c3nc(c(-c4cccc(S(=O)(=O)[O-])c4F)c4ccc([nH]4)c(-c4cccc(S(=O)(=O)[O-])c4F)c4nc(c(-c5cccc(S(=O)(=O)[O-])c5F)c5ccc2[nH]5)C=C4)C=C3)cc1)c1ccc(C[C@@H]2CCC[C@H]2O)cc1
REMARK SMILES IDX 7 1 6 2 5 3 3 4 4 5 2 7 1 8 76 9 77 10 88 11 78 12 87 13
REMARK SMILES IDX 79 14 80 15 81 16 82 17 85 18 83 19 84 20 86 21 8 23 9 24
REMARK SMILES IDX 10 25 11 26 12 28 13 29 14 30 75 31 15 32 74 33 16 34 17 35
REMARK SMILES IDX 18 36 68 37 19 38 73 39 67 40 69 41 20 42 72 43 66 44 65 45
REMARK SMILES IDX 21 47 53 48 33 49 52 50 34 51 37 52 51 53 70 54 35 55 36 56
REMARK SMILES IDX 50 58 71 59 38 60 22 61 23 62 31 63 24 64 26 65 32 66 25 67
REMARK SMILES IDX 27 68 28 69 29 70 30 71 54 72 55 73 63 74 56 75 58 76 64 77
REMARK SMILES IDX 57 78 59 79 60 80 61 81 62 82 39 83 40 84 48 85 41 86 43 87
REMARK SMILES IDX 49 88 42 89 44 90 45 91 46 92 47 93
REMARK H PARENT 5 6 86 22 10 27 69 46 37 57
REMARK Flexibility Score: inf
ROOT
ATOM      1  C   UNL A   1      31.668  28.457  23.988  1.00  0.00     0.023 C 
ENDROOT
BRANCH   1   2
ATOM      2  C   UNL A   1      30.726  27.279  23.768  1.00  0.00     0.116 C 
BRANCH   2   3
ATOM      3  N   UNL A   1      30.458  26.542  24.988  1.00  0.00    -0.356 N 
ATOM      4  C   UNL A   1      31.269  25.690  25.686  1.00  0.00     0.227 C 
ATOM      5  O   UNL A   1      30.864  25.288  26.778  1.00  0.00    -0.274 OA
ATOM      6  H   UNL A   1      29.560  26.675  25.370  1.00  0.00     0.163 HD
BRANCH   4   7
ATOM      7  C   UNL A   1      32.638  25.304  25.099  1.00  0.00     0.105 C 
ATOM      8  C   UNL A   1      33.694  26.109  25.873  1.00  0.00     0.023 C 
BRANCH   7   9
ATOM      9  C   UNL A   1      32.899  23.795  25.078  1.00  0.00    -0.036 A 
ATOM     10  C   UNL A   1      34.039  23.268  25.708  1.00  0.00     0.005 A 
ATOM     11  C   UNL A   1      32.013  22.886  24.480  1.00  0.00     0.005 A 
ATOM     12  C   UNL A   1      34.339  21.905  25.638  1.00  0.00     0.004 A 
ATOM     13  C   UNL A   1      32.316  21.524  24.402  1.00  0.00     0.004 A 
ATOM     14  C   UNL A   1      33.509  21.028  24.937  1.00  0.00    -0.048 A 
BRANCH  14  15
ATOM     15  C   UNL A   1      33.907  19.594  24.705  1.00  0.00     0.041 C 
BRANCH  15  16
ATOM     16  C   UNL A   1      32.802  18.621  24.231  1.00  0.00     0.022 C 
ATOM     17  C   UNL A   1      32.512  17.466  25.199  1.00  0.00     0.007 C 
ATOM     18  C   UNL A   1      33.075  17.913  22.899  1.00  0.00     0.117 C 
ATOM     19  C   UNL A   1      33.204  16.222  24.638  1.00  0.00     0.003 C 
ATOM     20  C   UNL A   1      33.749  16.594  23.260  1.00  0.00     0.032 C 
BRANCH  18  21
ATOM     21  O   UNL A   1      31.829  17.643  22.248  1.00  0.00    -0.393 OA
ATOM     22  H   UNL A   1      31.955  17.664  21.287  1.00  0.00     0.210 HD
ENDBRANCH  18  21
ENDBRANCH  15  16
ENDBRANCH  14  15
ENDBRANCH   7   9
ENDBRANCH   4   7
ENDBRANCH   2   3
ENDBRANCH   1   2
BRANCH   1  23
ATOM     23  C   UNL A   1      31.275  29.408  25.120  1.00  0.00     0.023 C 
BRANCH  23  24
ATOM     24  C   UNL A   1      32.420  29.909  25.997  1.00  0.00     0.116 C 
BRANCH  24  25
ATOM     25  N   UNL A   1      32.280  31.306  26.373  1.00  0.00    -0.352 N 
ATOM     26  C   UNL A   1      33.055  32.076  27.206  1.00  0.00     0.251 C 
ATOM     27  H   UNL A   1      31.512  31.772  25.970  1.00  0.00     0.163 HD
ATOM     28  O   UNL A   1      32.676  33.213  27.493  1.00  0.00    -0.269 OA
BRANCH  26  29
ATOM     29  C   UNL A   1      34.313  31.549  27.781  1.00  0.00     0.039 A 
ATOM     30  C   UNL A   1      35.370  32.438  27.994  1.00  0.00     0.014 A 
ATOM     31  C   UNL A   1      34.467  30.197  28.101  1.00  0.00     0.014 A 
ATOM     32  C   UNL A   1      36.553  31.983  28.584  1.00  0.00     0.010 A 
ATOM     33  C   UNL A   1      35.617  29.762  28.762  1.00  0.00     0.010 A 
ATOM     34  C   UNL A   1      36.674  30.650  29.011  1.00  0.00    -0.014 A 
BRANCH  34  35
ATOM     35  C   UNL A   1      37.884  30.201  29.753  1.00  0.00     0.031 A 
ATOM     36  C   UNL A   1      38.170  30.689  31.149  1.00  0.00     0.074 A 
ATOM     37  C   UNL A   1      38.761  29.378  29.141  1.00  0.00     0.049 A 
ATOM     38  N   UNL A   1      39.167  30.382  31.939  1.00  0.00    -0.248 NA
ATOM     39  C   UNL A   1      37.229  31.663  31.726  1.00  0.00     0.031 C 
ATOM     40  C   UNL A   1      38.653  28.907  27.757  1.00  0.00     0.029 A 
ATOM     41  N   UNL A   1      39.924  28.806  29.592  1.00  0.00    -0.354 N 
ATOM     42  C   UNL A   1      38.984  31.132  33.096  1.00  0.00     0.074 A 
ATOM     43  C   UNL A   1      37.804  31.942  32.887  1.00  0.00     0.031 C 
ATOM     44  C   UNL A   1      39.696  28.110  27.479  1.00  0.00     0.029 A 
ATOM     45  C   UNL A   1      40.564  28.035  28.650  1.00  0.00     0.049 A 
ATOM     46  H   UNL A   1      40.267  28.935  30.506  1.00  0.00     0.167 HD
ATOM     47  C   UNL A   1      39.711  31.123  34.239  1.00  0.00     0.034 A 
ATOM     48  C   UNL A   1      41.720  27.347  28.716  1.00  0.00     0.034 A 
ATOM     49  C   UNL A   1      40.871  30.298  34.455  1.00  0.00     0.049 A 
ATOM     50  C   UNL A   1      42.484  27.325  30.011  1.00  0.00     0.074 A 
ATOM     51  C   UNL A   1      41.633  30.169  35.605  1.00  0.00     0.029 A 
ATOM     52  N   UNL A   1      41.443  29.467  33.505  1.00  0.00    -0.354 N 
ATOM     53  N   UNL A   1      42.202  27.915  31.147  1.00  0.00    -0.248 NA
ATOM     54  C   UNL A   1      43.705  26.507  30.047  1.00  0.00     0.031 C 
ATOM     55  C   UNL A   1      42.679  29.280  35.341  1.00  0.00     0.029 A 
ATOM     56  C   UNL A   1      42.551  28.828  34.038  1.00  0.00     0.049 A 
ATOM     57  H   UNL A   1      41.111  29.350  32.586  1.00  0.00     0.167 HD
ATOM     58  C   UNL A   1      43.191  27.517  32.039  1.00  0.00     0.074 A 
ATOM     59  C   UNL A   1      44.057  26.604  31.322  1.00  0.00     0.031 C 
ATOM     60  C   UNL A   1      43.380  27.889  33.329  1.00  0.00     0.034 A 
BRANCH  47  61
ATOM     61  C   UNL A   1      39.238  31.987  35.381  1.00  0.00     0.023 A 
ATOM     62  C   UNL A   1      38.331  31.455  36.320  1.00  0.00     0.012 A 
ATOM     63  C   UNL A   1      39.749  33.286  35.576  1.00  0.00     0.148 A 
ATOM     64  C   UNL A   1      37.919  32.207  37.419  1.00  0.00     0.002 A 
ATOM     65  C   UNL A   1      39.368  34.013  36.698  1.00  0.00     0.091 A 
ATOM     66  F   UNL A   1      40.598  33.782  34.665  1.00  0.00    -0.205 F 
ATOM     67  C   UNL A   1      38.446  33.480  37.614  1.00  0.00     0.022 A 
BRANCH  65  68
ATOM     68  S   UNL A   1      40.047  35.630  37.089  1.00  0.00     0.127 S 
ATOM     69  O   UNL A   1      41.481  35.344  37.137  1.00  0.00    -0.237 OA
ATOM     70  O   UNL A   1      39.624  36.426  35.936  1.00  0.00    -0.237 OA
ATOM     71  O   UNL A   1      39.451  36.024  38.356  1.00  0.00    -0.744 OA
ENDBRANCH  65  68
ENDBRANCH  47  61
BRANCH  48  72
ATOM     72  C   UNL A   1      42.208  26.582  27.532  1.00  0.00     0.023 A 
ATOM     73  C   UNL A   1      42.962  27.236  26.537  1.00  0.00     0.012 A 
ATOM     74  C   UNL A   1      41.929  25.209  27.389  1.00  0.00     0.148 A 
ATOM     75  C   UNL A   1      43.388  26.548  25.400  1.00  0.00     0.002 A 
ATOM     76  C   UNL A   1      42.410  24.516  26.285  1.00  0.00     0.091 A 
ATOM     77  F   UNL A   1      41.200  24.606  28.338  1.00  0.00    -0.205 F 
ATOM     78  C   UNL A   1      43.121  25.188  25.278  1.00  0.00     0.022 A 
BRANCH  76  79
ATOM     79  S   UNL A   1      42.232  22.737  26.121  1.00  0.00     0.127 S 
ATOM     80  O   UNL A   1      42.848  22.492  24.820  1.00  0.00    -0.237 OA
ATOM     81  O   UNL A   1      42.998  22.247  27.269  1.00  0.00    -0.237 OA
ATOM     82  O   UNL A   1      40.800  22.479  26.206  1.00  0.00    -0.744 OA
ENDBRANCH  76  79
ENDBRANCH  48  72
BRANCH  60  83
ATOM     83  C   UNL A   1      44.555  27.287  34.058  1.00  0.00     0.023 A 
ATOM     84  C   UNL A   1      45.796  27.956  34.063  1.00  0.00     0.012 A 
ATOM     85  C   UNL A   1      44.423  26.075  34.762  1.00  0.00     0.148 A 
ATOM     86  C   UNL A   1      46.899  27.404  34.713  1.00  0.00     0.002 A 
ATOM     87  C   UNL A   1      45.512  25.558  35.454  1.00  0.00     0.091 A 
ATOM     88  F   UNL A   1      43.241  25.443  34.734  1.00  0.00    -0.205 F 
ATOM     89  C   UNL A   1      46.754  26.211  35.416  1.00  0.00     0.022 A 
BRANCH  87  90
ATOM     90  S   UNL A   1      45.394  24.077  36.464  1.00  0.00     0.127 S 
ATOM     91  O   UNL A   1      44.637  24.562  37.617  1.00  0.00    -0.237 OA
ATOM     92  O   UNL A   1      44.654  23.164  35.591  1.00  0.00    -0.237 OA
ATOM     93  O   UNL A   1      46.764  23.669  36.739  1.00  0.00    -0.744 OA
ENDBRANCH  87  90
ENDBRANCH  60  83
ENDBRANCH  34  35
ENDBRANCH  26  29
ENDBRANCH  24  25
ENDBRANCH  23  24
ENDBRANCH   1  23
TORSDOF 18
ENDMDL
MODEL 2
REMARK VINA RESULT:     -12.2      4.761      9.704
REMARK SMILES C[C@H](C(=O)NCCCCNC(=O)c1ccc(-c2c3nc(c(-c4cccc(S(=O)(=O)[O-])c4F)c4ccc([nH]4)c(-c4cccc(S(=O)(=O)[O-])c4F)c4nc(c(-c5cccc(S(=O)(=O)[O-])c5F)c5ccc2[nH]5)C=C4)C=C3)cc1)c1ccc(C[C@@H]2CCC[C@H]2O)cc1
REMARK SMILES IDX 7 1 6 2 5 3 3 4 4 5 2 7 1 8 76 9 77 10 88 11 78 12 87 13
REMARK SMILES IDX 79 14 80 15 81 16 82 17 85 18 83 19 84 20 86 21 8 23 9 24
REMARK SMILES IDX 10 25 11 26 12 28 13 29 14 30 75 31 15 32 74 33 16 34 17 35
REMARK SMILES IDX 18 36 68 37 19 38 73 39 67 40 69 41 20 42 72 43 66 44 65 45
REMARK SMILES IDX 21 47 53 48 33 49 52 50 34 51 37 52 51 53 70 54 35 55 36 56
REMARK SMILES IDX 50 58 71 59 38 60 22 61 23 62 31 63 24 64 26 65 32 66 25 67
REMARK SMILES IDX 27 68 28 69 29 70 30 71 54 72 55 73 63 74 56 75 58 76 64 77
REMARK SMILES IDX 57 78 59 79 60 80 61 81 62 82 39 83 40 84 48 85 41 86 43 87
REMARK SMILES IDX 49 88 42 89 44 90 45 91 46 92 47 93
REMARK H PARENT 5 6 86 22 10 27 69 46 37 57
REMARK Flexibility Score: inf
ROOT
ATOM      1  C   UNL A   1      35.568  23.877  24.312  1.00  0.00     0.023 C 
ENDROOT
BRANCH   1   2
ATOM      2  C   UNL A   1      34.711  24.854  25.109  1.00  0.00     0.116 C 
BRANCH   2   3
ATOM      3  N   UNL A   1      33.987  25.782  24.262  1.00  0.00    -0.356 N 
ATOM      4  C   UNL A   1      32.638  25.981  24.143  1.00  0.00     0.227 C 
ATOM      5  O   UNL A   1      32.264  26.930  23.453  1.00  0.00    -0.274 OA
ATOM      6  H   UNL A   1      34.548  26.352  23.688  1.00  0.00     0.163 HD
BRANCH   4   7
ATOM      7  C   UNL A   1      31.671  25.045  24.889  1.00  0.00     0.105 C 
ATOM      8  C   UNL A   1      30.258  25.614  24.681  1.00  0.00     0.023 C 
BRANCH   7   9
ATOM      9  C   UNL A   1      31.811  23.571  24.498  1.00  0.00    -0.036 A 
ATOM     10  C   UNL A   1      31.773  22.573  25.486  1.00  0.00     0.005 A 
ATOM     11  C   UNL A   1      31.941  23.156  23.164  1.00  0.00     0.005 A 
ATOM     12  C   UNL A   1      31.975  21.229  25.164  1.00  0.00     0.004 A 
ATOM     13  C   UNL A   1      32.151  21.813  22.842  1.00  0.00     0.004 A 
ATOM     14  C   UNL A   1      32.221  20.841  23.844  1.00  0.00    -0.048 A 
BRANCH  14  15
ATOM     15  C   UNL A   1      32.612  19.426  23.506  1.00  0.00     0.041 C 
BRANCH  15  16
ATOM     16  C   UNL A   1      33.309  18.602  24.613  1.00  0.00     0.022 C 
ATOM     17  C   UNL A   1      34.695  18.065  24.231  1.00  0.00     0.007 C 
ATOM     18  C   UNL A   1      32.554  17.350  25.077  1.00  0.00     0.117 C 
ATOM     19  C   UNL A   1      34.525  16.586  23.879  1.00  0.00     0.003 C 
ATOM     20  C   UNL A   1      33.086  16.206  24.221  1.00  0.00     0.032 C 
BRANCH  18  21
ATOM     21  O   UNL A   1      32.866  17.096  26.450  1.00  0.00    -0.393 OA
ATOM     22  H   UNL A   1      32.841  16.141  26.616  1.00  0.00     0.210 HD
ENDBRANCH  18  21
ENDBRANCH  15  16
ENDBRANCH  14  15
ENDBRANCH   7   9
ENDBRANCH   4   7
ENDBRANCH   2   3
ENDBRANCH   1   2
BRANCH   1  23
ATOM     23  C   UNL A   1      35.455  22.411  24.735  1.00  0.00     0.023 C 
BRANCH  23  24
ATOM     24  C   UNL A   1      36.162  22.036  26.036  1.00  0.00     0.116 C 
BRANCH  24  25
ATOM     25  N   UNL A   1      37.252  21.094  25.840  1.00  0.00    -0.352 N 
ATOM     26  C   UNL A   1      38.607  21.280  25.953  1.00  0.00     0.251 C 
ATOM     27  H   UNL A   1      36.976  20.183  25.587  1.00  0.00     0.163 HD
ATOM     28  O   UNL A   1      39.366  20.372  25.610  1.00  0.00    -0.269 OA
BRANCH  26  29
ATOM     29  C   UNL A   1      39.164  22.558  26.451  1.00  0.00     0.039 A 
ATOM     30  C   UNL A   1      40.247  22.514  27.332  1.00  0.00     0.014 A 
ATOM     31  C   UNL A   1      38.627  23.792  26.071  1.00  0.00     0.014 A 
ATOM     32  C   UNL A   1      40.829  23.704  27.778  1.00  0.00     0.010 A 
ATOM     33  C   UNL A   1      39.258  24.976  26.454  1.00  0.00     0.010 A 
ATOM     34  C   UNL A   1      40.368  24.946  27.313  1.00  0.00    -0.014 A 
BRANCH  34  35
ATOM     35  C   UNL A   1      41.069  26.204  27.691  1.00  0.00     0.031 A 
ATOM     36  C   UNL A   1      42.504  26.443  27.302  1.00  0.00     0.074 A 
ATOM     37  C   UNL A   1      40.417  27.122  28.435  1.00  0.00     0.049 A 
ATOM     38  N   UNL A   1      43.255  27.489  27.535  1.00  0.00    -0.248 NA
ATOM     39  C   UNL A   1      43.194  25.363  26.578  1.00  0.00     0.031 C 
ATOM     40  C   UNL A   1      39.056  26.972  28.959  1.00  0.00     0.029 A 
ATOM     41  N   UNL A   1      40.812  28.352  28.896  1.00  0.00    -0.354 N 
ATOM     42  C   UNL A   1      44.505  27.190  27.003  1.00  0.00     0.074 A 
ATOM     43  C   UNL A   1      44.424  25.847  26.473  1.00  0.00     0.031 C 
ATOM     44  C   UNL A   1      38.728  28.070  29.656  1.00  0.00     0.029 A 
ATOM     45  C   UNL A   1      39.860  28.991  29.656  1.00  0.00     0.049 A 
ATOM     46  H   UNL A   1      41.695  28.742  28.700  1.00  0.00     0.167 HD
ATOM     47  C   UNL A   1      45.609  27.973  26.931  1.00  0.00     0.034 A 
ATOM     48  C   UNL A   1      39.892  30.181  30.286  1.00  0.00     0.034 A 
ATOM     49  C   UNL A   1      45.681  29.319  27.437  1.00  0.00     0.049 A 
ATOM     50  C   UNL A   1      41.117  31.044  30.155  1.00  0.00     0.074 A 
ATOM     51  C   UNL A   1      46.734  30.215  27.349  1.00  0.00     0.029 A 
ATOM     52  N   UNL A   1      44.668  29.963  28.129  1.00  0.00    -0.354 N 
ATOM     53  N   UNL A   1      42.230  30.806  29.505  1.00  0.00    -0.248 NA
ATOM     54  C   UNL A   1      41.075  32.360  30.808  1.00  0.00     0.031 C 
ATOM     55  C   UNL A   1      46.366  31.391  28.011  1.00  0.00     0.029 A 
ATOM     56  C   UNL A   1      45.072  31.241  28.481  1.00  0.00     0.049 A 
ATOM     57  H   UNL A   1      43.792  29.570  28.341  1.00  0.00     0.167 HD
ATOM     58  C   UNL A   1      43.007  31.950  29.646  1.00  0.00     0.074 A 
ATOM     59  C   UNL A   1      42.220  32.896  30.410  1.00  0.00     0.031 C 
ATOM     60  C   UNL A   1      44.266  32.190  29.205  1.00  0.00     0.034 A 
BRANCH  47  61
ATOM     61  C   UNL A   1      46.818  27.421  26.221  1.00  0.00     0.023 A 
ATOM     62  C   UNL A   1      46.992  27.684  24.846  1.00  0.00     0.012 A 
ATOM     63  C   UNL A   1      47.821  26.720  26.920  1.00  0.00     0.148 A 
ATOM     64  C   UNL A   1      48.127  27.237  24.173  1.00  0.00     0.002 A 
ATOM     65  C   UNL A   1      48.972  26.317  26.252  1.00  0.00     0.091 A 
ATOM     66  F   UNL A   1      47.632  26.465  28.222  1.00  0.00    -0.205 F 
ATOM     67  C   UNL A   1      49.122  26.565  24.877  1.00  0.00     0.022 A 
BRANCH  65  68
ATOM     68  S   UNL A   1      50.350  25.515  27.080  1.00  0.00     0.127 S 
ATOM     69  O   UNL A   1      51.266  25.276  25.965  1.00  0.00    -0.237 OA
ATOM     70  O   UNL A   1      50.788  26.551  28.016  1.00  0.00    -0.237 OA
ATOM     71  O   UNL A   1      49.806  24.318  27.703  1.00  0.00    -0.744 OA
ENDBRANCH  65  68
ENDBRANCH  47  61
BRANCH  48  72
ATOM     72  C   UNL A   1      38.709  30.652  31.063  1.00  0.00     0.023 A 
ATOM     73  C   UNL A   1      38.654  30.436  32.454  1.00  0.00     0.012 A 
ATOM     74  C   UNL A   1      37.641  31.315  30.429  1.00  0.00     0.148 A 
ATOM     75  C   UNL A   1      37.536  30.828  33.191  1.00  0.00     0.002 A 
ATOM     76  C   UNL A   1      36.559  31.759  31.180  1.00  0.00     0.091 A 
ATOM     77  F   UNL A   1      37.705  31.502  29.104  1.00  0.00    -0.205 F 
ATOM     78  C   UNL A   1      36.494  31.497  32.557  1.00  0.00     0.022 A 
BRANCH  76  79
ATOM     79  S   UNL A   1      35.244  32.752  30.466  1.00  0.00     0.127 S 
ATOM     80  O   UNL A   1      34.742  31.873  29.414  1.00  0.00    -0.237 OA
ATOM     81  O   UNL A   1      34.343  32.928  31.606  1.00  0.00    -0.237 OA
ATOM     82  O   UNL A   1      35.884  33.982  30.017  1.00  0.00    -0.744 OA
ENDBRANCH  76  79
ENDBRANCH  48  72
BRANCH  60  83
ATOM     83  C   UNL A   1      44.861  33.541  29.512  1.00  0.00     0.023 A 
ATOM     84  C   UNL A   1      45.579  33.735  30.710  1.00  0.00     0.012 A 
ATOM     85  C   UNL A   1      44.737  34.608  28.603  1.00  0.00     0.148 A 
ATOM     86  C   UNL A   1      46.119  34.982  31.022  1.00  0.00     0.002 A 
ATOM     87  C   UNL A   1      45.324  35.834  28.895  1.00  0.00     0.091 A 
ATOM     88  F   UNL A   1      44.038  34.413  27.476  1.00  0.00    -0.205 F 
ATOM     89  C   UNL A   1      45.999  36.028  30.110  1.00  0.00     0.022 A 
BRANCH  87  90
ATOM     90  S   UNL A   1      45.303  37.209  27.739  1.00  0.00     0.127 S 
ATOM     91  O   UNL A   1      46.244  38.138  28.363  1.00  0.00    -0.237 OA
ATOM     92  O   UNL A   1      45.789  36.587  26.507  1.00  0.00    -0.237 OA
ATOM     93  O   UNL A   1      43.920  37.662  27.680  1.00  0.00    -0.744 OA
ENDBRANCH  87  90
ENDBRANCH  60  83
ENDBRANCH  34  35
ENDBRANCH  26  29
ENDBRANCH  24  25
ENDBRANCH  23  24
ENDBRANCH   1  23
TORSDOF 18
ENDMDL
MODEL 3
REMARK VINA RESULT:     -12.1      3.526      9.220
REMARK SMILES C[C@H](C(=O)NCCCCNC(=O)c1ccc(-c2c3nc(c(-c4cccc(S(=O)(=O)[O-])c4F)c4ccc([nH]4)c(-c4cccc(S(=O)(=O)[O-])c4F)c4nc(c(-c5cccc(S(=O)(=O)[O-])c5F)c5ccc2[nH]5)C=C4)C=C3)cc1)c1ccc(C[C@@H]2CCC[C@H]2O)cc1
REMARK SMILES IDX 7 1 6 2 5 3 3 4 4 5 2 7 1 8 76 9 77 10 88 11 78 12 87 13
REMARK SMILES IDX 79 14 80 15 81 16 82 17 85 18 83 19 84 20 86 21 8 23 9 24
REMARK SMILES IDX 10 25 11 26 12 28 13 29 14 30 75 31 15 32 74 33 16 34 17 35
REMARK SMILES IDX 18 36 68 37 19 38 73 39 67 40 69 41 20 42 72 43 66 44 65 45
REMARK SMILES IDX 21 47 53 48 33 49 52 50 34 51 37 52 51 53 70 54 35 55 36 56
REMARK SMILES IDX 50 58 71 59 38 60 22 61 23 62 31 63 24 64 26 65 32 66 25 67
REMARK SMILES IDX 27 68 28 69 29 70 30 71 54 72 55 73 63 74 56 75 58 76 64 77
REMARK SMILES IDX 57 78 59 79 60 80 61 81 62 82 39 83 40 84 48 85 41 86 43 87
REMARK SMILES IDX 49 88 42 89 44 90 45 91 46 92 47 93
REMARK H PARENT 5 6 86 22 10 27 69 46 37 57
REMARK Flexibility Score: inf
ROOT
ATOM      1  C   UNL A   1      31.599  30.714  26.214  1.00  0.00     0.023 C 
ENDROOT
BRANCH   1   2
ATOM      2  C   UNL A   1      32.489  29.848  27.099  1.00  0.00     0.116 C 
BRANCH   2   3
ATOM      3  N   UNL A   1      31.900  28.555  27.388  1.00  0.00    -0.356 N 
ATOM      4  C   UNL A   1      31.875  27.419  26.625  1.00  0.00     0.227 C 
ATOM      5  O   UNL A   1      31.432  26.396  27.147  1.00  0.00    -0.274 OA
ATOM      6  H   UNL A   1      31.453  28.483  28.263  1.00  0.00     0.163 HD
BRANCH   4   7
ATOM      7  C   UNL A   1      32.419  27.467  25.187  1.00  0.00     0.105 C 
ATOM      8  C   UNL A   1      32.989  26.072  24.884  1.00  0.00     0.023 C 
BRANCH   7   9
ATOM      9  C   UNL A   1      31.400  27.959  24.156  1.00  0.00    -0.036 A 
ATOM     10  C   UNL A   1      31.761  28.945  23.223  1.00  0.00     0.005 A 
ATOM     11  C   UNL A   1      30.102  27.433  24.071  1.00  0.00     0.005 A 
ATOM     12  C   UNL A   1      30.828  29.466  22.323  1.00  0.00     0.004 A 
ATOM     13  C   UNL A   1      29.166  27.958  23.176  1.00  0.00     0.004 A 
ATOM     14  C   UNL A   1      29.506  29.015  22.327  1.00  0.00    -0.048 A 
BRANCH  14  15
ATOM     15  C   UNL A   1      28.450  29.685  21.487  1.00  0.00     0.041 C 
BRANCH  15  16
ATOM     16  C   UNL A   1      27.733  30.912  22.098  1.00  0.00     0.022 C 
ATOM     17  C   UNL A   1      28.216  32.265  21.559  1.00  0.00     0.007 C 
ATOM     18  C   UNL A   1      27.866  31.062  23.618  1.00  0.00     0.117 C 
ATOM     19  C   UNL A   1      29.148  32.864  22.614  1.00  0.00     0.003 C 
ATOM     20  C   UNL A   1      29.079  31.958  23.842  1.00  0.00     0.032 C 
BRANCH  18  21
ATOM     21  O   UNL A   1      26.698  31.713  24.128  1.00  0.00    -0.393 OA
ATOM     22  H   UNL A   1      25.936  31.496  23.569  1.00  0.00     0.210 HD
ENDBRANCH  18  21
ENDBRANCH  15  16
ENDBRANCH  14  15
ENDBRANCH   7   9
ENDBRANCH   4   7
ENDBRANCH   2   3
ENDBRANCH   1   2
BRANCH   1  23
ATOM     23  C   UNL A   1      31.423  32.161  26.678  1.00  0.00     0.023 C 
BRANCH  23  24
ATOM     24  C   UNL A   1      32.648  32.808  27.320  1.00  0.00     0.116 C 
BRANCH  24  25
ATOM     25  N   UNL A   1      32.434  34.200  27.680  1.00  0.00    -0.352 N 
ATOM     26  C   UNL A   1      33.061  34.971  28.628  1.00  0.00     0.251 C 
ATOM     27  H   UNL A   1      31.731  34.661  27.166  1.00  0.00     0.163 HD
ATOM     28  O   UNL A   1      32.628  36.101  28.861  1.00  0.00    -0.269 OA
BRANCH  26  29
ATOM     29  C   UNL A   1      34.221  34.454  29.387  1.00  0.00     0.039 A 
ATOM     30  C   UNL A   1      33.991  33.854  30.628  1.00  0.00     0.014 A 
ATOM     31  C   UNL A   1      35.527  34.562  28.900  1.00  0.00     0.014 A 
ATOM     32  C   UNL A   1      35.059  33.308  31.345  1.00  0.00     0.010 A 
ATOM     33  C   UNL A   1      36.580  33.948  29.580  1.00  0.00     0.010 A 
ATOM     34  C   UNL A   1      36.359  33.313  30.811  1.00  0.00    -0.014 A 
BRANCH  34  35
ATOM     35  C   UNL A   1      37.470  32.621  31.518  1.00  0.00     0.031 A 
ATOM     36  C   UNL A   1      38.183  31.450  30.893  1.00  0.00     0.074 A 
ATOM     37  C   UNL A   1      37.809  33.023  32.761  1.00  0.00     0.049 A 
ATOM     38  N   UNL A   1      39.181  30.748  31.366  1.00  0.00    -0.248 NA
ATOM     39  C   UNL A   1      37.702  30.993  29.579  1.00  0.00     0.031 C 
ATOM     40  C   UNL A   1      37.136  34.081  33.520  1.00  0.00     0.029 A 
ATOM     41  N   UNL A   1      38.790  32.581  33.613  1.00  0.00    -0.354 N 
ATOM     42  C   UNL A   1      39.438  29.761  30.420  1.00  0.00     0.074 A 
ATOM     43  C   UNL A   1      38.462  29.928  29.366  1.00  0.00     0.031 C 
ATOM     44  C   UNL A   1      37.731  34.214  34.715  1.00  0.00     0.029 A 
ATOM     45  C   UNL A   1      38.807  33.235  34.824  1.00  0.00     0.049 A 
ATOM     46  H   UNL A   1      39.423  31.864  33.380  1.00  0.00     0.167 HD
ATOM     47  C   UNL A   1      40.417  28.824  30.412  1.00  0.00     0.034 A 
ATOM     48  C   UNL A   1      39.595  33.064  35.903  1.00  0.00     0.034 A 
ATOM     49  C   UNL A   1      41.403  28.674  31.449  1.00  0.00     0.049 A 
ATOM     50  C   UNL A   1      40.697  32.043  35.849  1.00  0.00     0.074 A 
ATOM     51  C   UNL A   1      42.475  27.798  31.497  1.00  0.00     0.029 A 
ATOM     52  N   UNL A   1      41.438  29.409  32.624  1.00  0.00    -0.354 N 
ATOM     53  N   UNL A   1      41.024  31.230  34.873  1.00  0.00    -0.248 NA
ATOM     54  C   UNL A   1      41.569  31.943  37.029  1.00  0.00     0.031 C 
ATOM     55  C   UNL A   1      43.143  27.988  32.711  1.00  0.00     0.029 A 
ATOM     56  C   UNL A   1      42.508  29.004  33.406  1.00  0.00     0.049 A 
ATOM     57  H   UNL A   1      40.797  30.114  32.867  1.00  0.00     0.167 HD
ATOM     58  C   UNL A   1      42.153  30.546  35.309  1.00  0.00     0.074 A 
ATOM     59  C   UNL A   1      42.477  31.068  36.620  1.00  0.00     0.031 C 
ATOM     60  C   UNL A   1      42.846  29.559  34.691  1.00  0.00     0.034 A 
BRANCH  47  61
ATOM     61  C   UNL A   1      40.516  27.921  29.209  1.00  0.00     0.023 A 
ATOM     62  C   UNL A   1      39.635  26.825  29.093  1.00  0.00     0.012 A 
ATOM     63  C   UNL A   1      41.411  28.199  28.157  1.00  0.00     0.148 A 
ATOM     64  C   UNL A   1      39.661  26.006  27.966  1.00  0.00     0.002 A 
ATOM     65  C   UNL A   1      41.401  27.404  27.016  1.00  0.00     0.091 A 
ATOM     66  F   UNL A   1      42.252  29.235  28.291  1.00  0.00    -0.205 F 
ATOM     67  C   UNL A   1      40.534  26.302  26.923  1.00  0.00     0.022 A 
BRANCH  65  68
ATOM     68  S   UNL A   1      42.427  27.745  25.582  1.00  0.00     0.127 S 
ATOM     69  O   UNL A   1      43.756  27.844  26.186  1.00  0.00    -0.237 OA
ATOM     70  O   UNL A   1      42.218  26.549  24.765  1.00  0.00    -0.237 OA
ATOM     71  O   UNL A   1      41.917  28.978  25.002  1.00  0.00    -0.744 OA
ENDBRANCH  65  68
ENDBRANCH  47  61
BRANCH  48  72
ATOM     72  C   UNL A   1      39.403  33.912  37.115  1.00  0.00     0.023 A 
ATOM     73  C   UNL A   1      39.854  35.248  37.114  1.00  0.00     0.012 A 
ATOM     74  C   UNL A   1      38.775  33.402  38.267  1.00  0.00     0.148 A 
ATOM     75  C   UNL A   1      39.724  36.043  38.253  1.00  0.00     0.002 A 
ATOM     76  C   UNL A   1      38.593  34.219  39.376  1.00  0.00     0.091 A 
ATOM     77  F   UNL A   1      38.364  32.126  38.255  1.00  0.00    -0.205 F 
ATOM     78  C   UNL A   1      39.087  35.533  39.380  1.00  0.00     0.022 A 
BRANCH  76  79
ATOM     79  S   UNL A   1      37.659  33.686  40.814  1.00  0.00     0.127 S 
ATOM     80  O   UNL A   1      38.571  32.723  41.425  1.00  0.00    -0.237 OA
ATOM     81  O   UNL A   1      37.496  34.938  41.553  1.00  0.00    -0.237 OA
ATOM     82  O   UNL A   1      36.414  33.139  40.288  1.00  0.00    -0.744 OA
ENDBRANCH  76  79
ENDBRANCH  48  72
BRANCH  60  83
ATOM     83  C   UNL A   1      44.044  28.997  35.415  1.00  0.00     0.023 A 
ATOM     84  C   UNL A   1      45.325  29.537  35.177  1.00  0.00     0.012 A 
ATOM     85  C   UNL A   1      43.898  27.956  36.352  1.00  0.00     0.148 A 
ATOM     86  C   UNL A   1      46.447  29.016  35.821  1.00  0.00     0.002 A 
ATOM     87  C   UNL A   1      45.014  27.478  37.030  1.00  0.00     0.091 A 
ATOM     88  F   UNL A   1      42.677  27.442  36.554  1.00  0.00    -0.205 F 
ATOM     89  C   UNL A   1      46.289  27.994  36.754  1.00  0.00     0.022 A 
BRANCH  87  90
ATOM     90  S   UNL A   1      44.894  26.230  38.317  1.00  0.00     0.127 S 
ATOM     91  O   UNL A   1      45.980  26.620  39.214  1.00  0.00    -0.237 OA
ATOM     92  O   UNL A   1      43.551  26.462  38.851  1.00  0.00    -0.237 OA
ATOM     93  O   UNL A   1      45.063  24.948  37.647  1.00  0.00    -0.744 OA
ENDBRANCH  87  90
ENDBRANCH  60  83
ENDBRANCH  34  35
ENDBRANCH  26  29
ENDBRANCH  24  25
ENDBRANCH  23  24
ENDBRANCH   1  23
TORSDOF 18
ENDMDL
