MODEL 1
REMARK VINA RESULT:     -12.7      0.000      0.000
REMARK SMILES O=C(NCCCCNC(=O)c1ccc(-c2c3nc(c(-c4cccc(S(=O)(=O)[O-])c4F)c4ccc([nH]4)c(-c4cccc(S(=O)(=O)[O-])c4F)c4nc(c(-c5cccc(S(=O)(=O)[O-])c5F)c5ccc2[nH]5)C=C4)C=C3)cc1)C1=Cc2cc(Cl)cc(Cl)c2O[C@@H]1C(F)(F)F
REMARK SMILES IDX 6 1 5 2 4 3 3 4 1 5 2 6 74 8 75 9 85 10 76 11 84 12 77 13
REMARK SMILES IDX 83 14 78 15 81 16 79 17 80 18 82 19 86 20 87 21 88 22 89 23
REMARK SMILES IDX 7 24 8 25 9 26 10 28 11 29 12 30 73 31 13 32 72 33 14 34
REMARK SMILES IDX 15 35 16 36 66 37 17 38 71 39 65 40 67 41 18 42 70 43 64 44
REMARK SMILES IDX 63 45 19 47 51 48 31 49 50 50 32 51 35 52 49 53 68 54 33 55
REMARK SMILES IDX 34 56 48 58 69 59 36 60 20 61 21 62 29 63 22 64 24 65 30 66
REMARK SMILES IDX 23 67 25 68 26 69 27 70 28 71 52 72 53 73 61 74 54 75 56 76
REMARK SMILES IDX 62 77 55 78 57 79 58 80 59 81 60 82 37 83 38 84 46 85 39 86
REMARK SMILES IDX 41 87 47 88 40 89 42 90 43 91 44 92 45 93
REMARK H PARENT 3 7 8 27 67 46 35 57
REMARK Flexibility Score: inf
ROOT
ATOM      1  C   UNL A   1      31.630  28.614  25.508  1.00  0.00     0.023 C 
ENDROOT
BRANCH   1   2
ATOM      2  C   UNL A   1      31.382  27.424  26.439  1.00  0.00     0.023 C 
BRANCH   2   3
ATOM      3  C   UNL A   1      30.730  26.229  25.736  1.00  0.00     0.116 C 
BRANCH   3   4
ATOM      4  N   UNL A   1      30.627  25.036  26.582  1.00  0.00    -0.352 N 
ATOM      5  O   UNL A   1      31.377  23.111  27.543  1.00  0.00    -0.270 OA
ATOM      6  C   UNL A   1      31.421  23.916  26.623  1.00  0.00     0.251 C 
ATOM      7  H   UNL A   1      29.875  25.039  27.217  1.00  0.00     0.163 HD
BRANCH   6   8
ATOM      8  C   UNL A   1      32.364  23.736  25.506  1.00  0.00     0.067 C 
ATOM      9  C   UNL A   1      33.459  24.505  25.539  1.00  0.00     0.025 C 
ATOM     10  C   UNL A   1      32.242  22.497  24.678  1.00  0.00     0.314 C 
ATOM     11  C   UNL A   1      34.693  23.793  25.209  1.00  0.00     0.020 A 
ATOM     12  O   UNL A   1      33.483  21.751  24.621  1.00  0.00    -0.474 OA
ATOM     13  C   UNL A   1      35.896  24.391  25.595  1.00  0.00     0.032 A 
ATOM     14  C   UNL A   1      34.650  22.417  24.911  1.00  0.00     0.146 A 
ATOM     15  C   UNL A   1      37.026  23.601  25.787  1.00  0.00     0.043 A 
ATOM     16  C   UNL A   1      35.808  21.645  25.080  1.00  0.00     0.085 A 
ATOM     17  Cl  UNL A   1      38.446  24.315  26.444  1.00  0.00    -0.084 Cl
ATOM     18  C   UNL A   1      36.985  22.230  25.548  1.00  0.00     0.045 A 
ATOM     19  Cl  UNL A   1      35.776  19.931  24.866  1.00  0.00    -0.080 Cl
BRANCH  10  20
ATOM     20  C   UNL A   1      31.737  22.807  23.259  1.00  0.00     0.429 C 
ATOM     21  F   UNL A   1      30.506  23.375  23.288  1.00  0.00    -0.167 F 
ATOM     22  F   UNL A   1      32.547  23.670  22.603  1.00  0.00    -0.167 F 
ATOM     23  F   UNL A   1      31.639  21.691  22.496  1.00  0.00    -0.167 F 
ENDBRANCH  10  20
ENDBRANCH   6   8
ENDBRANCH   3   4
ENDBRANCH   2   3
ENDBRANCH   1   2
BRANCH   1  24
ATOM     24  C   UNL A   1      32.778  29.543  25.895  1.00  0.00     0.116 C 
BRANCH  24  25
ATOM     25  N   UNL A   1      32.357  30.817  26.464  1.00  0.00    -0.352 N 
ATOM     26  C   UNL A   1      33.101  31.678  27.250  1.00  0.00     0.251 C 
ATOM     27  H   UNL A   1      31.435  31.096  26.267  1.00  0.00     0.163 HD
ATOM     28  O   UNL A   1      32.618  32.710  27.688  1.00  0.00    -0.269 OA
BRANCH  26  29
ATOM     29  C   UNL A   1      34.489  31.290  27.589  1.00  0.00     0.039 A 
ATOM     30  C   UNL A   1      35.469  32.281  27.682  1.00  0.00     0.014 A 
ATOM     31  C   UNL A   1      34.769  29.973  27.958  1.00  0.00     0.014 A 
ATOM     32  C   UNL A   1      36.709  31.972  28.253  1.00  0.00     0.010 A 
ATOM     33  C   UNL A   1      35.976  29.688  28.590  1.00  0.00     0.010 A 
ATOM     34  C   UNL A   1      36.949  30.687  28.766  1.00  0.00    -0.014 A 
BRANCH  34  35
ATOM     35  C   UNL A   1      38.180  30.356  29.534  1.00  0.00     0.031 A 
ATOM     36  C   UNL A   1      39.176  29.385  28.958  1.00  0.00     0.074 A 
ATOM     37  C   UNL A   1      38.320  30.794  30.804  1.00  0.00     0.049 A 
ATOM     38  N   UNL A   1      40.198  28.812  29.536  1.00  0.00    -0.248 NA
ATOM     39  C   UNL A   1      38.966  28.972  27.560  1.00  0.00     0.031 C 
ATOM     40  C   UNL A   1      37.385  31.672  31.511  1.00  0.00     0.029 A 
ATOM     41  N   UNL A   1      39.285  30.520  31.745  1.00  0.00    -0.354 N 
ATOM     42  C   UNL A   1      40.709  27.919  28.600  1.00  0.00     0.074 A 
ATOM     43  C   UNL A   1      39.880  28.022  27.420  1.00  0.00     0.031 C 
ATOM     44  C   UNL A   1      37.812  31.853  32.771  1.00  0.00     0.029 A 
ATOM     45  C   UNL A   1      39.033  31.081  32.978  1.00  0.00     0.049 A 
ATOM     46  H   UNL A   1      40.082  29.974  31.555  1.00  0.00     0.167 HD
ATOM     47  C   UNL A   1      41.784  27.105  28.709  1.00  0.00     0.034 A 
ATOM     48  C   UNL A   1      39.699  30.972  34.146  1.00  0.00     0.034 A 
ATOM     49  C   UNL A   1      42.661  27.077  29.845  1.00  0.00     0.049 A 
ATOM     50  C   UNL A   1      40.950  30.134  34.199  1.00  0.00     0.074 A 
ATOM     51  C   UNL A   1      43.848  26.383  29.995  1.00  0.00     0.029 A 
ATOM     52  N   UNL A   1      42.454  27.779  31.020  1.00  0.00    -0.354 N 
ATOM     53  N   UNL A   1      41.511  29.431  33.246  1.00  0.00    -0.248 NA
ATOM     54  C   UNL A   1      41.678  30.098  35.477  1.00  0.00     0.031 C 
ATOM     55  C   UNL A   1      44.359  26.663  31.266  1.00  0.00     0.029 A 
ATOM     56  C   UNL A   1      43.492  27.538  31.901  1.00  0.00     0.049 A 
ATOM     57  H   UNL A   1      41.682  28.364  31.202  1.00  0.00     0.167 HD
ATOM     58  C   UNL A   1      42.679  28.910  33.793  1.00  0.00     0.074 A 
ATOM     59  C   UNL A   1      42.752  29.388  35.158  1.00  0.00     0.031 C 
ATOM     60  C   UNL A   1      43.598  28.094  33.224  1.00  0.00     0.034 A 
BRANCH  47  61
ATOM     61  C   UNL A   1      42.120  26.217  27.541  1.00  0.00     0.023 A 
ATOM     62  C   UNL A   1      42.817  26.753  26.440  1.00  0.00     0.012 A 
ATOM     63  C   UNL A   1      41.829  24.839  27.574  1.00  0.00     0.148 A 
ATOM     64  C   UNL A   1      43.198  25.937  25.377  1.00  0.00     0.002 A 
ATOM     65  C   UNL A   1      42.249  24.024  26.529  1.00  0.00     0.091 A 
ATOM     66  F   UNL A   1      41.150  24.354  28.623  1.00  0.00    -0.205 F 
ATOM     67  C   UNL A   1      42.925  24.572  25.427  1.00  0.00     0.022 A 
BRANCH  65  68
ATOM     68  S   UNL A   1      42.016  22.243  26.533  1.00  0.00     0.127 S 
ATOM     69  O   UNL A   1      40.561  22.136  26.429  1.00  0.00    -0.237 OA
ATOM     70  O   UNL A   1      42.744  21.836  25.332  1.00  0.00    -0.237 OA
ATOM     71  O   UNL A   1      42.587  21.763  27.784  1.00  0.00    -0.744 OA
ENDBRANCH  65  68
ENDBRANCH  47  61
BRANCH  48  72
ATOM     72  C   UNL A   1      39.244  31.727  35.349  1.00  0.00     0.023 A 
ATOM     73  C   UNL A   1      38.373  31.099  36.262  1.00  0.00     0.012 A 
ATOM     74  C   UNL A   1      39.658  33.048  35.599  1.00  0.00     0.148 A 
ATOM     75  C   UNL A   1      37.890  31.785  37.377  1.00  0.00     0.002 A 
ATOM     76  C   UNL A   1      39.216  33.708  36.743  1.00  0.00     0.091 A 
ATOM     77  F   UNL A   1      40.472  33.642  34.715  1.00  0.00    -0.205 F 
ATOM     78  C   UNL A   1      38.319  33.086  37.623  1.00  0.00     0.022 A 
BRANCH  76  79
ATOM     79  S   UNL A   1      39.834  35.336  37.189  1.00  0.00     0.127 S 
ATOM     80  O   UNL A   1      39.129  35.593  38.442  1.00  0.00    -0.237 OA
ATOM     81  O   UNL A   1      41.271  35.098  37.329  1.00  0.00    -0.237 OA
ATOM     82  O   UNL A   1      39.483  36.194  36.065  1.00  0.00    -0.744 OA
ENDBRANCH  76  79
ENDBRANCH  48  72
BRANCH  60  83
ATOM     83  C   UNL A   1      44.801  27.705  34.037  1.00  0.00     0.023 A 
ATOM     84  C   UNL A   1      45.932  28.543  34.055  1.00  0.00     0.012 A 
ATOM     85  C   UNL A   1      44.763  26.570  34.871  1.00  0.00     0.148 A 
ATOM     86  C   UNL A   1      47.016  28.247  34.881  1.00  0.00     0.002 A 
ATOM     87  C   UNL A   1      45.828  26.306  35.723  1.00  0.00     0.091 A 
ATOM     88  F   UNL A   1      43.684  25.776  34.821  1.00  0.00    -0.205 F 
ATOM     89  C   UNL A   1      46.959  27.140  35.723  1.00  0.00     0.022 A 
BRANCH  87  90
ATOM     90  S   UNL A   1      45.795  24.960  36.911  1.00  0.00     0.127 S 
ATOM     91  O   UNL A   1      47.145  25.022  37.471  1.00  0.00    -0.237 OA
ATOM     92  O   UNL A   1      44.733  25.377  37.828  1.00  0.00    -0.237 OA
ATOM     93  O   UNL A   1      45.491  23.758  36.146  1.00  0.00    -0.744 OA
ENDBRANCH  87  90
ENDBRANCH  60  83
ENDBRANCH  34  35
ENDBRANCH  26  29
ENDBRANCH  24  25
ENDBRANCH   1  24
TORSDOF 15
ENDMDL
MODEL 2
REMARK VINA RESULT:     -12.6      1.177      7.670
REMARK SMILES O=C(NCCCCNC(=O)c1ccc(-c2c3nc(c(-c4cccc(S(=O)(=O)[O-])c4F)c4ccc([nH]4)c(-c4cccc(S(=O)(=O)[O-])c4F)c4nc(c(-c5cccc(S(=O)(=O)[O-])c5F)c5ccc2[nH]5)C=C4)C=C3)cc1)C1=Cc2cc(Cl)cc(Cl)c2O[C@@H]1C(F)(F)F
REMARK SMILES IDX 6 1 5 2 4 3 3 4 1 5 2 6 74 8 75 9 85 10 76 11 84 12 77 13
REMARK SMILES IDX 83 14 78 15 81 16 79 17 80 18 82 19 86 20 87 21 88 22 89 23
REMARK SMILES IDX 7 24 8 25 9 26 10 28 11 29 12 30 73 31 13 32 72 33 14 34
REMARK SMILES IDX 15 35 16 36 66 37 17 38 71 39 65 40 67 41 18 42 70 43 64 44
REMARK SMILES IDX 63 45 19 47 51 48 31 49 50 50 32 51 35 52 49 53 68 54 33 55
REMARK SMILES IDX 34 56 48 58 69 59 36 60 20 61 21 62 29 63 22 64 24 65 30 66
REMARK SMILES IDX 23 67 25 68 26 69 27 70 28 71 52 72 53 73 61 74 54 75 56 76
REMARK SMILES IDX 62 77 55 78 57 79 58 80 59 81 60 82 37 83 38 84 46 85 39 86
REMARK SMILES IDX 41 87 47 88 40 89 42 90 43 91 44 92 45 93
REMARK H PARENT 3 7 8 27 67 46 35 57
REMARK Flexibility Score: inf
ROOT
ATOM      1  C   UNL A   1      31.635  28.850  25.940  1.00  0.00     0.023 C 
ENDROOT
BRANCH   1   2
ATOM      2  C   UNL A   1      31.866  27.470  26.563  1.00  0.00     0.023 C 
BRANCH   2   3
ATOM      3  C   UNL A   1      31.054  26.357  25.893  1.00  0.00     0.116 C 
BRANCH   3   4
ATOM      4  N   UNL A   1      30.913  25.155  26.721  1.00  0.00    -0.352 N 
ATOM      5  O   UNL A   1      31.594  23.185  27.641  1.00  0.00    -0.270 OA
ATOM      6  C   UNL A   1      31.661  24.003  26.733  1.00  0.00     0.251 C 
ATOM      7  H   UNL A   1      30.169  25.179  27.366  1.00  0.00     0.163 HD
BRANCH   6   8
ATOM      8  C   UNL A   1      32.580  23.803  25.601  1.00  0.00     0.067 C 
ATOM      9  C   UNL A   1      33.692  24.548  25.616  1.00  0.00     0.025 C 
ATOM     10  C   UNL A   1      32.417  22.569  24.774  1.00  0.00     0.314 C 
ATOM     11  C   UNL A   1      34.905  23.809  25.265  1.00  0.00     0.020 A 
ATOM     12  O   UNL A   1      33.640  21.795  24.697  1.00  0.00    -0.474 OA
ATOM     13  C   UNL A   1      36.127  24.379  25.633  1.00  0.00     0.032 A 
ATOM     14  C   UNL A   1      34.827  22.435  24.968  1.00  0.00     0.146 A 
ATOM     15  C   UNL A   1      37.243  23.565  25.806  1.00  0.00     0.043 A 
ATOM     16  C   UNL A   1      35.969  21.637  25.118  1.00  0.00     0.085 A 
ATOM     17  Cl  UNL A   1      38.688  24.246  26.440  1.00  0.00    -0.084 Cl
ATOM     18  C   UNL A   1      37.167  22.195  25.567  1.00  0.00     0.045 A 
ATOM     19  Cl  UNL A   1      35.897  19.924  24.904  1.00  0.00    -0.080 Cl
BRANCH  10  20
ATOM     20  C   UNL A   1      31.896  22.891  23.364  1.00  0.00     0.429 C 
ATOM     21  F   UNL A   1      30.717  23.557  23.416  1.00  0.00    -0.167 F 
ATOM     22  F   UNL A   1      32.753  23.672  22.666  1.00  0.00    -0.167 F 
ATOM     23  F   UNL A   1      31.686  21.771  22.629  1.00  0.00    -0.167 F 
ENDBRANCH  10  20
ENDBRANCH   6   8
ENDBRANCH   3   4
ENDBRANCH   2   3
ENDBRANCH   1   2
BRANCH   1  24
ATOM     24  C   UNL A   1      32.836  29.792  25.926  1.00  0.00     0.116 C 
BRANCH  24  25
ATOM     25  N   UNL A   1      32.587  31.094  26.531  1.00  0.00    -0.352 N 
ATOM     26  C   UNL A   1      33.432  31.818  27.353  1.00  0.00     0.251 C 
ATOM     27  H   UNL A   1      31.717  31.506  26.333  1.00  0.00     0.163 HD
ATOM     28  O   UNL A   1      33.091  32.894  27.819  1.00  0.00    -0.269 OA
BRANCH  26  29
ATOM     29  C   UNL A   1      34.746  31.229  27.695  1.00  0.00     0.039 A 
ATOM     30  C   UNL A   1      35.831  32.077  27.929  1.00  0.00     0.014 A 
ATOM     31  C   UNL A   1      34.851  29.856  27.927  1.00  0.00     0.014 A 
ATOM     32  C   UNL A   1      36.997  31.560  28.506  1.00  0.00     0.010 A 
ATOM     33  C   UNL A   1      35.984  29.360  28.565  1.00  0.00     0.010 A 
ATOM     34  C   UNL A   1      37.059  30.209  28.882  1.00  0.00    -0.014 A 
BRANCH  34  35
ATOM     35  C   UNL A   1      38.205  29.651  29.652  1.00  0.00     0.031 A 
ATOM     36  C   UNL A   1      38.495  30.172  31.033  1.00  0.00     0.074 A 
ATOM     37  C   UNL A   1      39.071  28.805  29.053  1.00  0.00     0.049 A 
ATOM     38  N   UNL A   1      39.545  29.972  31.787  1.00  0.00    -0.248 NA
ATOM     39  C   UNL A   1      37.492  31.072  31.627  1.00  0.00     0.031 C 
ATOM     40  C   UNL A   1      38.950  28.288  27.688  1.00  0.00     0.029 A 
ATOM     41  N   UNL A   1      40.254  28.267  29.502  1.00  0.00    -0.354 N 
ATOM     42  C   UNL A   1      39.364  30.776  32.907  1.00  0.00     0.074 A 
ATOM     43  C   UNL A   1      38.107  31.470  32.732  1.00  0.00     0.031 C 
ATOM     44  C   UNL A   1      40.017  27.522  27.407  1.00  0.00     0.029 A 
ATOM     45  C   UNL A   1      40.917  27.516  28.556  1.00  0.00     0.049 A 
ATOM     46  H   UNL A   1      40.595  28.405  30.415  1.00  0.00     0.167 HD
ATOM     47  C   UNL A   1      40.162  30.905  33.992  1.00  0.00     0.034 A 
ATOM     48  C   UNL A   1      42.119  26.907  28.602  1.00  0.00     0.034 A 
ATOM     49  C   UNL A   1      41.358  30.141  34.206  1.00  0.00     0.049 A 
ATOM     50  C   UNL A   1      42.934  26.992  29.867  1.00  0.00     0.074 A 
ATOM     51  C   UNL A   1      42.163  30.105  35.331  1.00  0.00     0.029 A 
ATOM     52  N   UNL A   1      41.917  29.272  33.284  1.00  0.00    -0.354 N 
ATOM     53  N   UNL A   1      42.659  27.621  30.983  1.00  0.00    -0.248 NA
ATOM     54  C   UNL A   1      44.208  26.257  29.892  1.00  0.00     0.031 C 
ATOM     55  C   UNL A   1      43.214  29.216  35.087  1.00  0.00     0.029 A 
ATOM     56  C   UNL A   1      43.055  28.693  33.813  1.00  0.00     0.049 A 
ATOM     57  H   UNL A   1      41.557  29.094  32.384  1.00  0.00     0.167 HD
ATOM     58  C   UNL A   1      43.699  27.321  31.856  1.00  0.00     0.074 A 
ATOM     59  C   UNL A   1      44.604  26.443  31.145  1.00  0.00     0.031 C 
ATOM     60  C   UNL A   1      43.897  27.749  33.125  1.00  0.00     0.034 A 
BRANCH  47  61
ATOM     61  C   UNL A   1      39.738  31.862  35.072  1.00  0.00     0.023 A 
ATOM     62  C   UNL A   1      40.042  33.231  34.946  1.00  0.00     0.012 A 
ATOM     63  C   UNL A   1      38.961  31.422  36.163  1.00  0.00     0.148 A 
ATOM     64  C   UNL A   1      39.602  34.147  35.900  1.00  0.00     0.002 A 
ATOM     65  C   UNL A   1      38.491  32.346  37.088  1.00  0.00     0.091 A 
ATOM     66  F   UNL A   1      38.698  30.112  36.273  1.00  0.00    -0.205 F 
ATOM     67  C   UNL A   1      38.818  33.706  36.963  1.00  0.00     0.022 A 
BRANCH  65  68
ATOM     68  S   UNL A   1      37.409  31.894  38.449  1.00  0.00     0.127 S 
ATOM     69  O   UNL A   1      38.263  32.164  39.606  1.00  0.00    -0.237 OA
ATOM     70  O   UNL A   1      36.298  32.830  38.281  1.00  0.00    -0.237 OA
ATOM     71  O   UNL A   1      37.064  30.495  38.244  1.00  0.00    -0.744 OA
ENDBRANCH  65  68
ENDBRANCH  47  61
BRANCH  48  72
ATOM     72  C   UNL A   1      42.604  26.102  27.444  1.00  0.00     0.023 A 
ATOM     73  C   UNL A   1      43.426  26.718  26.479  1.00  0.00     0.012 A 
ATOM     74  C   UNL A   1      42.264  24.746  27.286  1.00  0.00     0.148 A 
ATOM     75  C   UNL A   1      43.865  26.011  25.358  1.00  0.00     0.002 A 
ATOM     76  C   UNL A   1      42.751  24.032  26.194  1.00  0.00     0.091 A 
ATOM     77  F   UNL A   1      41.468  24.175  28.200  1.00  0.00    -0.205 F 
ATOM     78  C   UNL A   1      43.536  24.666  25.220  1.00  0.00     0.022 A 
BRANCH  76  79
ATOM     79  S   UNL A   1      42.476  22.263  26.026  1.00  0.00     0.127 S 
ATOM     80  O   UNL A   1      43.210  21.959  24.801  1.00  0.00    -0.237 OA
ATOM     81  O   UNL A   1      43.077  21.735  27.251  1.00  0.00    -0.237 OA
ATOM     82  O   UNL A   1      41.028  22.112  25.964  1.00  0.00    -0.744 OA
ENDBRANCH  76  79
ENDBRANCH  48  72
BRANCH  60  83
ATOM     83  C   UNL A   1      45.100  27.236  33.868  1.00  0.00     0.023 A 
ATOM     84  C   UNL A   1      46.292  27.984  33.866  1.00  0.00     0.012 A 
ATOM     85  C   UNL A   1      45.008  26.075  34.660  1.00  0.00     0.148 A 
ATOM     86  C   UNL A   1      47.384  27.574  34.630  1.00  0.00     0.002 A 
ATOM     87  C   UNL A   1      46.084  25.697  35.453  1.00  0.00     0.091 A 
ATOM     88  F   UNL A   1      43.869  25.368  34.630  1.00  0.00    -0.205 F 
ATOM     89  C   UNL A   1      47.276  26.441  35.433  1.00  0.00     0.022 A 
BRANCH  87  90
ATOM     90  S   UNL A   1      45.997  24.310  36.591  1.00  0.00     0.127 S 
ATOM     91  O   UNL A   1      44.747  24.581  37.298  1.00  0.00    -0.237 OA
ATOM     92  O   UNL A   1      45.948  23.163  35.682  1.00  0.00    -0.237 OA
ATOM     93  O   UNL A   1      47.204  24.382  37.403  1.00  0.00    -0.744 OA
ENDBRANCH  87  90
ENDBRANCH  60  83
ENDBRANCH  34  35
ENDBRANCH  26  29
ENDBRANCH  24  25
ENDBRANCH   1  24
TORSDOF 15
ENDMDL
MODEL 3
REMARK VINA RESULT:     -12.6      2.033      7.953
REMARK SMILES O=C(NCCCCNC(=O)c1ccc(-c2c3nc(c(-c4cccc(S(=O)(=O)[O-])c4F)c4ccc([nH]4)c(-c4cccc(S(=O)(=O)[O-])c4F)c4nc(c(-c5cccc(S(=O)(=O)[O-])c5F)c5ccc2[nH]5)C=C4)C=C3)cc1)C1=Cc2cc(Cl)cc(Cl)c2O[C@@H]1C(F)(F)F
REMARK SMILES IDX 6 1 5 2 4 3 3 4 1 5 2 6 74 8 75 9 85 10 76 11 84 12 77 13
REMARK SMILES IDX 83 14 78 15 81 16 79 17 80 18 82 19 86 20 87 21 88 22 89 23
REMARK SMILES IDX 7 24 8 25 9 26 10 28 11 29 12 30 73 31 13 32 72 33 14 34
REMARK SMILES IDX 15 35 16 36 66 37 17 38 71 39 65 40 67 41 18 42 70 43 64 44
REMARK SMILES IDX 63 45 19 47 51 48 31 49 50 50 32 51 35 52 49 53 68 54 33 55
REMARK SMILES IDX 34 56 48 58 69 59 36 60 20 61 21 62 29 63 22 64 24 65 30 66
REMARK SMILES IDX 23 67 25 68 26 69 27 70 28 71 52 72 53 73 61 74 54 75 56 76
REMARK SMILES IDX 62 77 55 78 57 79 58 80 59 81 60 82 37 83 38 84 46 85 39 86
REMARK SMILES IDX 41 87 47 88 40 89 42 90 43 91 44 92 45 93
REMARK H PARENT 3 7 8 27 67 46 35 57
REMARK Flexibility Score: inf
ROOT
ATOM      1  C   UNL A   1      32.806  28.565  26.964  1.00  0.00     0.023 C 
ENDROOT
BRANCH   1   2
ATOM      2  C   UNL A   1      31.475  28.361  26.235  1.00  0.00     0.023 C 
BRANCH   2   3
ATOM      3  C   UNL A   1      31.351  26.985  25.571  1.00  0.00     0.116 C 
BRANCH   3   4
ATOM      4  N   UNL A   1      31.126  25.893  26.524  1.00  0.00    -0.352 N 
ATOM      5  O   UNL A   1      31.639  23.958  27.612  1.00  0.00    -0.270 OA
ATOM      6  C   UNL A   1      31.745  24.671  26.623  1.00  0.00     0.251 C 
ATOM      7  H   UNL A   1      30.424  26.063  27.194  1.00  0.00     0.163 HD
BRANCH   6   8
ATOM      8  C   UNL A   1      32.577  24.260  25.480  1.00  0.00     0.067 C 
ATOM      9  C   UNL A   1      33.846  24.684  25.502  1.00  0.00     0.025 C 
ATOM     10  C   UNL A   1      32.091  23.130  24.630  1.00  0.00     0.314 C 
ATOM     11  C   UNL A   1      34.819  23.658  25.127  1.00  0.00     0.020 A 
ATOM     12  O   UNL A   1      33.067  22.062  24.527  1.00  0.00    -0.474 OA
ATOM     13  C   UNL A   1      36.149  23.878  25.497  1.00  0.00     0.032 A 
ATOM     14  C   UNL A   1      34.380  22.360  24.802  1.00  0.00     0.146 A 
ATOM     15  C   UNL A   1      37.011  22.794  25.645  1.00  0.00     0.043 A 
ATOM     16  C   UNL A   1      35.272  21.286  24.927  1.00  0.00     0.085 A 
ATOM     17  Cl  UNL A   1      38.586  23.055  26.281  1.00  0.00    -0.084 Cl
ATOM     18  C   UNL A   1      36.575  21.498  25.378  1.00  0.00     0.045 A 
ATOM     19  Cl  UNL A   1      34.749  19.658  24.679  1.00  0.00    -0.080 Cl
BRANCH  10  20
ATOM     20  C   UNL A   1      31.671  23.608  23.230  1.00  0.00     0.429 C 
ATOM     21  F   UNL A   1      31.850  24.945  23.093  1.00  0.00    -0.167 F 
ATOM     22  F   UNL A   1      32.392  23.018  22.248  1.00  0.00    -0.167 F 
ATOM     23  F   UNL A   1      30.364  23.356  22.975  1.00  0.00    -0.167 F 
ENDBRANCH  10  20
ENDBRANCH   6   8
ENDBRANCH   3   4
ENDBRANCH   2   3
ENDBRANCH   1   2
BRANCH   1  24
ATOM     24  C   UNL A   1      33.769  29.569  26.336  1.00  0.00     0.116 C 
BRANCH  24  25
ATOM     25  N   UNL A   1      33.849  30.846  27.034  1.00  0.00    -0.352 N 
ATOM     26  C   UNL A   1      34.836  31.272  27.905  1.00  0.00     0.251 C 
ATOM     27  H   UNL A   1      33.115  31.478  26.867  1.00  0.00     0.163 HD
ATOM     28  O   UNL A   1      34.771  32.363  28.448  1.00  0.00    -0.269 OA
BRANCH  26  29
ATOM     29  C   UNL A   1      35.952  30.345  28.202  1.00  0.00     0.039 A 
ATOM     30  C   UNL A   1      37.078  30.351  27.376  1.00  0.00     0.014 A 
ATOM     31  C   UNL A   1      35.933  29.592  29.377  1.00  0.00     0.014 A 
ATOM     32  C   UNL A   1      38.237  29.684  27.788  1.00  0.00     0.010 A 
ATOM     33  C   UNL A   1      37.108  28.990  29.817  1.00  0.00     0.010 A 
ATOM     34  C   UNL A   1      38.278  29.048  29.040  1.00  0.00    -0.014 A 
BRANCH  34  35
ATOM     35  C   UNL A   1      39.533  28.474  29.598  1.00  0.00     0.031 A 
ATOM     36  C   UNL A   1      40.249  29.195  30.709  1.00  0.00     0.074 A 
ATOM     37  C   UNL A   1      40.110  27.408  29.004  1.00  0.00     0.049 A 
ATOM     38  N   UNL A   1      41.443  28.981  31.196  1.00  0.00    -0.248 NA
ATOM     39  C   UNL A   1      39.546  30.336  31.321  1.00  0.00     0.031 C 
ATOM     40  C   UNL A   1      39.561  26.668  27.865  1.00  0.00     0.029 A 
ATOM     41  N   UNL A   1      41.313  26.787  29.247  1.00  0.00    -0.354 N 
ATOM     42  C   UNL A   1      41.663  29.999  32.117  1.00  0.00     0.074 A 
ATOM     43  C   UNL A   1      40.482  30.834  32.116  1.00  0.00     0.031 C 
ATOM     44  C   UNL A   1      40.427  25.707  27.501  1.00  0.00     0.029 A 
ATOM     45  C   UNL A   1      41.607  25.778  28.356  1.00  0.00     0.049 A 
ATOM     46  H   UNL A   1      41.908  27.040  29.989  1.00  0.00     0.167 HD
ATOM     47  C   UNL A   1      42.741  30.206  32.907  1.00  0.00     0.034 A 
ATOM     48  C   UNL A   1      42.708  25.010  28.231  1.00  0.00     0.034 A 
ATOM     49  C   UNL A   1      43.869  29.320  32.976  1.00  0.00     0.049 A 
ATOM     50  C   UNL A   1      43.849  25.204  29.196  1.00  0.00     0.074 A 
ATOM     51  C   UNL A   1      44.950  29.373  33.839  1.00  0.00     0.029 A 
ATOM     52  N   UNL A   1      44.059  28.217  32.161  1.00  0.00    -0.354 N 
ATOM     53  N   UNL A   1      43.962  26.068  30.175  1.00  0.00    -0.248 NA
ATOM     54  C   UNL A   1      45.001  24.299  29.061  1.00  0.00     0.031 C 
ATOM     55  C   UNL A   1      45.797  28.302  33.542  1.00  0.00     0.029 A 
ATOM     56  C   UNL A   1      45.238  27.579  32.500  1.00  0.00     0.049 A 
ATOM     57  H   UNL A   1      43.446  27.931  31.445  1.00  0.00     0.167 HD
ATOM     58  C   UNL A   1      45.169  25.780  30.801  1.00  0.00     0.074 A 
ATOM     59  C   UNL A   1      45.749  24.655  30.099  1.00  0.00     0.031 C 
ATOM     60  C   UNL A   1      45.756  26.404  31.850  1.00  0.00     0.034 A 
BRANCH  47  61
ATOM     61  C   UNL A   1      42.733  31.403  33.818  1.00  0.00     0.023 A 
ATOM     62  C   UNL A   1      43.177  32.648  33.332  1.00  0.00     0.012 A 
ATOM     63  C   UNL A   1      42.202  31.316  35.120  1.00  0.00     0.148 A 
ATOM     64  C   UNL A   1      43.117  33.786  34.136  1.00  0.00     0.002 A 
ATOM     65  C   UNL A   1      42.106  32.462  35.901  1.00  0.00     0.091 A 
ATOM     66  F   UNL A   1      41.800  30.118  35.568  1.00  0.00    -0.205 F 
ATOM     67  C   UNL A   1      42.571  33.695  35.414  1.00  0.00     0.022 A 
BRANCH  65  68
ATOM     68  S   UNL A   1      41.347  32.468  37.529  1.00  0.00     0.127 S 
ATOM     69  O   UNL A   1      39.981  32.049  37.219  1.00  0.00    -0.237 OA
ATOM     70  O   UNL A   1      42.145  31.470  38.242  1.00  0.00    -0.237 OA
ATOM     71  O   UNL A   1      41.481  33.827  38.032  1.00  0.00    -0.744 OA
ENDBRANCH  65  68
ENDBRANCH  47  61
BRANCH  48  72
ATOM     72  C   UNL A   1      42.768  23.936  27.198  1.00  0.00     0.023 A 
ATOM     73  C   UNL A   1      43.427  24.195  25.979  1.00  0.00     0.012 A 
ATOM     74  C   UNL A   1      42.184  22.672  27.403  1.00  0.00     0.148 A 
ATOM     75  C   UNL A   1      43.468  23.231  24.970  1.00  0.00     0.002 A 
ATOM     76  C   UNL A   1      42.276  21.697  26.414  1.00  0.00     0.091 A 
ATOM     77  F   UNL A   1      41.545  22.443  28.559  1.00  0.00    -0.205 F 
ATOM     78  C   UNL A   1      42.901  21.979  25.190  1.00  0.00     0.022 A 
BRANCH  76  79
ATOM     79  S   UNL A   1      41.685  20.021  26.684  1.00  0.00     0.127 S 
ATOM     80  O   UNL A   1      40.260  20.238  26.915  1.00  0.00    -0.237 OA
ATOM     81  O   UNL A   1      42.011  19.366  25.417  1.00  0.00    -0.237 OA
ATOM     82  O   UNL A   1      42.455  19.528  27.819  1.00  0.00    -0.744 OA
ENDBRANCH  76  79
ENDBRANCH  48  72
BRANCH  60  83
ATOM     83  C   UNL A   1      47.063  25.860  32.359  1.00  0.00     0.023 A 
ATOM     84  C   UNL A   1      48.274  26.378  31.863  1.00  0.00     0.012 A 
ATOM     85  C   UNL A   1      47.085  24.922  33.410  1.00  0.00     0.148 A 
ATOM     86  C   UNL A   1      49.492  25.956  32.395  1.00  0.00     0.002 A 
ATOM     87  C   UNL A   1      48.300  24.540  33.965  1.00  0.00     0.091 A 
ATOM     88  F   UNL A   1      45.920  24.428  33.851  1.00  0.00    -0.205 F 
ATOM     89  C   UNL A   1      49.505  25.050  33.453  1.00  0.00     0.022 A 
BRANCH  87  90
ATOM     90  S   UNL A   1      48.404  23.456  35.393  1.00  0.00     0.127 S 
ATOM     91  O   UNL A   1      49.850  23.337  35.574  1.00  0.00    -0.237 OA
ATOM     92  O   UNL A   1      47.721  24.234  36.427  1.00  0.00    -0.237 OA
ATOM     93  O   UNL A   1      47.718  22.228  35.013  1.00  0.00    -0.744 OA
ENDBRANCH  87  90
ENDBRANCH  60  83
ENDBRANCH  34  35
ENDBRANCH  26  29
ENDBRANCH  24  25
ENDBRANCH   1  24
TORSDOF 15
ENDMDL
