MODEL 1
REMARK VINA RESULT:     -11.5      0.000      0.000
REMARK SMILES C[C@](O)(C(=O)NCCCCNC(=O)c1ccc(-c2c3nc(c(-c4cccc(S(=O)(=O)[O-])c4F)c4ccc([nH]4)c(-c4cccc(S(=O)(=O)[O-])c4F)c4nc(c(-c5cccc(S(=O)(=O)[O-])c5F)c5ccc2[nH]5)C=C4)C=C3)cc1)c1ccc(O)cc1
REMARK SMILES IDX 9 1 8 2 7 3 6 4 4 5 5 6 2 8 1 9 77 10 78 11 83 12 79 13
REMARK SMILES IDX 82 14 80 15 81 16 3 18 10 20 11 21 12 22 13 24 14 25 15 26
REMARK SMILES IDX 76 27 16 28 75 29 17 30 18 31 19 32 69 33 20 34 74 35 68 36
REMARK SMILES IDX 70 37 21 38 73 39 67 40 66 41 22 43 54 44 34 45 53 46 35 47
REMARK SMILES IDX 38 48 52 49 71 50 36 51 37 52 51 54 72 55 39 56 23 57 24 58
REMARK SMILES IDX 32 59 25 60 27 61 33 62 26 63 28 64 29 65 30 66 31 67 55 68
REMARK SMILES IDX 56 69 64 70 57 71 59 72 65 73 58 74 60 75 61 76 62 77 63 78
REMARK SMILES IDX 40 79 41 80 49 81 42 82 44 83 50 84 43 85 45 86 46 87 47 88
REMARK SMILES IDX 48 89
REMARK H PARENT 6 7 81 17 3 19 11 23 70 42 38 53
REMARK Flexibility Score: inf
ROOT
ATOM      1  C   UNL A   1      31.823  31.829  26.873  1.00  0.00     0.023 C 
ENDROOT
BRANCH   1   2
ATOM      2  C   UNL A   1      32.099  30.327  26.951  1.00  0.00     0.023 C 
BRANCH   2   3
ATOM      3  C   UNL A   1      31.686  29.525  25.723  1.00  0.00     0.116 C 
BRANCH   3   4
ATOM      4  N   UNL A   1      32.442  28.294  25.572  1.00  0.00    -0.353 N 
ATOM      5  C   UNL A   1      32.772  27.590  24.442  1.00  0.00     0.256 C 
ATOM      6  O   UNL A   1      33.526  26.624  24.591  1.00  0.00    -0.271 OA
ATOM      7  H   UNL A   1      32.771  27.902  26.414  1.00  0.00     0.163 HD
BRANCH   5   8
ATOM      8  C   UNL A   1      32.197  28.008  23.041  1.00  0.00     0.165 C 
ATOM      9  C   UNL A   1      32.713  27.006  21.991  1.00  0.00     0.058 C 
BRANCH   8  10
ATOM     10  C   UNL A   1      30.661  28.144  23.062  1.00  0.00    -0.007 A 
ATOM     11  C   UNL A   1      29.810  27.110  23.495  1.00  0.00     0.011 A 
ATOM     12  C   UNL A   1      30.052  29.346  22.640  1.00  0.00     0.011 A 
ATOM     13  C   UNL A   1      28.421  27.269  23.515  1.00  0.00     0.046 A 
ATOM     14  C   UNL A   1      28.660  29.503  22.648  1.00  0.00     0.046 A 
ATOM     15  C   UNL A   1      27.857  28.462  23.090  1.00  0.00     0.115 A 
BRANCH  15  16
ATOM     16  O   UNL A   1      26.498  28.574  23.127  1.00  0.00    -0.508 OA
ATOM     17  H   UNL A   1      26.060  28.687  23.947  1.00  0.00     0.293 HD
ENDBRANCH  15  16
ENDBRANCH   8  10
BRANCH   8  18
ATOM     18  O   UNL A   1      32.702  29.296  22.651  1.00  0.00    -0.376 OA
ATOM     19  H   UNL A   1      32.854  29.308  21.693  1.00  0.00     0.212 HD
ENDBRANCH   8  18
ENDBRANCH   5   8
ENDBRANCH   3   4
ENDBRANCH   2   3
ENDBRANCH   1   2
BRANCH   1  20
ATOM     20  C   UNL A   1      33.000  32.738  27.213  1.00  0.00     0.116 C 
BRANCH  20  21
ATOM     21  N   UNL A   1      32.593  34.072  27.632  1.00  0.00    -0.352 N 
ATOM     22  C   UNL A   1      33.074  34.843  28.664  1.00  0.00     0.251 C 
ATOM     23  H   UNL A   1      31.871  34.478  27.101  1.00  0.00     0.163 HD
ATOM     24  O   UNL A   1      32.521  35.904  28.944  1.00  0.00    -0.269 OA
BRANCH  22  25
ATOM     25  C   UNL A   1      34.235  34.380  29.456  1.00  0.00     0.039 A 
ATOM     26  C   UNL A   1      34.007  33.708  30.660  1.00  0.00     0.014 A 
ATOM     27  C   UNL A   1      35.541  34.589  29.007  1.00  0.00     0.014 A 
ATOM     28  C   UNL A   1      35.085  33.180  31.374  1.00  0.00     0.010 A 
ATOM     29  C   UNL A   1      36.607  33.996  29.678  1.00  0.00     0.010 A 
ATOM     30  C   UNL A   1      36.393  33.285  30.870  1.00  0.00    -0.014 A 
BRANCH  30  31
ATOM     31  C   UNL A   1      37.542  32.639  31.557  1.00  0.00     0.031 A 
ATOM     32  C   UNL A   1      38.266  31.488  30.911  1.00  0.00     0.074 A 
ATOM     33  C   UNL A   1      37.876  33.027  32.805  1.00  0.00     0.049 A 
ATOM     34  N   UNL A   1      39.247  30.763  31.383  1.00  0.00    -0.248 NA
ATOM     35  C   UNL A   1      37.811  31.078  29.573  1.00  0.00     0.031 C 
ATOM     36  C   UNL A   1      37.201  34.075  33.573  1.00  0.00     0.029 A 
ATOM     37  N   UNL A   1      38.848  32.567  33.657  1.00  0.00    -0.354 N 
ATOM     38  C   UNL A   1      39.500  29.792  30.422  1.00  0.00     0.074 A 
ATOM     39  C   UNL A   1      38.549  30.000  29.353  1.00  0.00     0.031 C 
ATOM     40  C   UNL A   1      37.782  34.181  34.779  1.00  0.00     0.029 A 
ATOM     41  C   UNL A   1      38.847  33.188  34.885  1.00  0.00     0.049 A 
ATOM     42  H   UNL A   1      39.485  31.856  33.415  1.00  0.00     0.167 HD
ATOM     43  C   UNL A   1      40.456  28.832  30.414  1.00  0.00     0.034 A 
ATOM     44  C   UNL A   1      39.611  32.981  35.975  1.00  0.00     0.034 A 
ATOM     45  C   UNL A   1      41.430  28.655  31.458  1.00  0.00     0.049 A 
ATOM     46  C   UNL A   1      40.692  31.934  35.924  1.00  0.00     0.074 A 
ATOM     47  C   UNL A   1      42.497  27.775  31.496  1.00  0.00     0.029 A 
ATOM     48  N   UNL A   1      41.453  29.364  32.648  1.00  0.00    -0.354 N 
ATOM     49  N   UNL A   1      41.023  31.138  34.936  1.00  0.00    -0.248 NA
ATOM     50  C   UNL A   1      41.528  31.782  37.123  1.00  0.00     0.031 C 
ATOM     51  C   UNL A   1      43.150  27.933  32.723  1.00  0.00     0.029 A 
ATOM     52  C   UNL A   1      42.508  28.933  33.435  1.00  0.00     0.049 A 
ATOM     53  H   UNL A   1      40.814  30.069  32.898  1.00  0.00     0.167 HD
ATOM     54  C   UNL A   1      42.127  30.419  35.380  1.00  0.00     0.074 A 
ATOM     55  C   UNL A   1      42.421  30.888  36.718  1.00  0.00     0.031 C 
ATOM     56  C   UNL A   1      42.825  29.447  34.743  1.00  0.00     0.034 A 
BRANCH  43  57
ATOM     57  C   UNL A   1      40.529  27.924  29.213  1.00  0.00     0.023 A 
ATOM     58  C   UNL A   1      39.659  26.820  29.121  1.00  0.00     0.012 A 
ATOM     59  C   UNL A   1      41.412  28.197  28.150  1.00  0.00     0.148 A 
ATOM     60  C   UNL A   1      39.688  25.980  28.009  1.00  0.00     0.002 A 
ATOM     61  C   UNL A   1      41.405  27.383  27.024  1.00  0.00     0.091 A 
ATOM     62  F   UNL A   1      42.248  29.239  28.264  1.00  0.00    -0.205 F 
ATOM     63  C   UNL A   1      40.553  26.268  26.956  1.00  0.00     0.022 A 
BRANCH  61  64
ATOM     64  S   UNL A   1      42.421  27.716  25.580  1.00  0.00     0.127 S 
ATOM     65  O   UNL A   1      43.755  27.803  26.173  1.00  0.00    -0.237 OA
ATOM     66  O   UNL A   1      42.194  26.524  24.763  1.00  0.00    -0.237 OA
ATOM     67  O   UNL A   1      41.910  28.953  25.006  1.00  0.00    -0.744 OA
ENDBRANCH  61  64
ENDBRANCH  43  57
BRANCH  44  68
ATOM     68  C   UNL A   1      39.428  33.829  37.188  1.00  0.00     0.023 A 
ATOM     69  C   UNL A   1      39.892  35.159  37.177  1.00  0.00     0.012 A 
ATOM     70  C   UNL A   1      38.784  33.336  38.340  1.00  0.00     0.148 A 
ATOM     71  C   UNL A   1      39.748  35.973  38.301  1.00  0.00     0.002 A 
ATOM     72  C   UNL A   1      38.595  34.170  39.436  1.00  0.00     0.091 A 
ATOM     73  F   UNL A   1      38.360  32.064  38.335  1.00  0.00    -0.205 F 
ATOM     74  C   UNL A   1      39.092  35.481  39.426  1.00  0.00     0.022 A 
BRANCH  72  75
ATOM     75  S   UNL A   1      37.645  33.666  40.875  1.00  0.00     0.127 S 
ATOM     76  O   UNL A   1      37.424  34.942  41.550  1.00  0.00    -0.237 OA
ATOM     77  O   UNL A   1      36.454  33.078  40.261  1.00  0.00    -0.237 OA
ATOM     78  O   UNL A   1      38.485  32.712  41.586  1.00  0.00    -0.744 OA
ENDBRANCH  72  75
ENDBRANCH  44  68
BRANCH  56  79
ATOM     79  C   UNL A   1      44.007  28.847  35.461  1.00  0.00     0.023 A 
ATOM     80  C   UNL A   1      45.293  29.390  35.274  1.00  0.00     0.012 A 
ATOM     81  C   UNL A   1      43.827  27.793  36.380  1.00  0.00     0.148 A 
ATOM     82  C   UNL A   1      46.387  28.873  35.966  1.00  0.00     0.002 A 
ATOM     83  C   UNL A   1      44.914  27.317  37.102  1.00  0.00     0.091 A 
ATOM     84  F   UNL A   1      42.599  27.277  36.530  1.00  0.00    -0.205 F 
ATOM     85  C   UNL A   1      46.197  27.846  36.887  1.00  0.00     0.022 A 
BRANCH  83  86
ATOM     86  S   UNL A   1      44.746  26.065  38.381  1.00  0.00     0.127 S 
ATOM     87  O   UNL A   1      44.153  24.956  37.636  1.00  0.00    -0.237 OA
ATOM     88  O   UNL A   1      46.135  25.852  38.791  1.00  0.00    -0.237 OA
ATOM     89  O   UNL A   1      43.897  26.653  39.408  1.00  0.00    -0.744 OA
ENDBRANCH  83  86
ENDBRANCH  56  79
ENDBRANCH  30  31
ENDBRANCH  22  25
ENDBRANCH  20  21
ENDBRANCH   1  20
TORSDOF 17
ENDMDL
MODEL 2
REMARK VINA RESULT:     -11.4      1.680      2.083
REMARK SMILES C[C@](O)(C(=O)NCCCCNC(=O)c1ccc(-c2c3nc(c(-c4cccc(S(=O)(=O)[O-])c4F)c4ccc([nH]4)c(-c4cccc(S(=O)(=O)[O-])c4F)c4nc(c(-c5cccc(S(=O)(=O)[O-])c5F)c5ccc2[nH]5)C=C4)C=C3)cc1)c1ccc(O)cc1
REMARK SMILES IDX 9 1 8 2 7 3 6 4 4 5 5 6 2 8 1 9 77 10 78 11 83 12 79 13
REMARK SMILES IDX 82 14 80 15 81 16 3 18 10 20 11 21 12 22 13 24 14 25 15 26
REMARK SMILES IDX 76 27 16 28 75 29 17 30 18 31 19 32 69 33 20 34 74 35 68 36
REMARK SMILES IDX 70 37 21 38 73 39 67 40 66 41 22 43 54 44 34 45 53 46 35 47
REMARK SMILES IDX 38 48 52 49 71 50 36 51 37 52 51 54 72 55 39 56 23 57 24 58
REMARK SMILES IDX 32 59 25 60 27 61 33 62 26 63 28 64 29 65 30 66 31 67 55 68
REMARK SMILES IDX 56 69 64 70 57 71 59 72 65 73 58 74 60 75 61 76 62 77 63 78
REMARK SMILES IDX 40 79 41 80 49 81 42 82 44 83 50 84 43 85 45 86 46 87 47 88
REMARK SMILES IDX 48 89
REMARK H PARENT 6 7 81 17 3 19 11 23 70 42 38 53
REMARK Flexibility Score: inf
ROOT
ATOM      1  C   UNL A   1      31.024  31.900  26.226  1.00  0.00     0.023 C 
ENDROOT
BRANCH   1   2
ATOM      2  C   UNL A   1      31.086  30.653  25.344  1.00  0.00     0.023 C 
BRANCH   2   3
ATOM      3  C   UNL A   1      32.250  29.711  25.630  1.00  0.00     0.116 C 
BRANCH   3   4
ATOM      4  N   UNL A   1      33.225  29.677  24.553  1.00  0.00    -0.353 N 
ATOM      5  C   UNL A   1      33.276  28.890  23.431  1.00  0.00     0.256 C 
ATOM      6  O   UNL A   1      34.166  29.148  22.614  1.00  0.00    -0.271 OA
ATOM      7  H   UNL A   1      33.965  30.320  24.642  1.00  0.00     0.163 HD
BRANCH   5   8
ATOM      8  C   UNL A   1      32.249  27.720  23.224  1.00  0.00     0.165 C 
ATOM      9  C   UNL A   1      32.382  26.747  24.411  1.00  0.00     0.058 C 
BRANCH   8  10
ATOM     10  C   UNL A   1      30.813  28.241  23.011  1.00  0.00    -0.007 A 
ATOM     11  C   UNL A   1      29.686  27.634  23.596  1.00  0.00     0.011 A 
ATOM     12  C   UNL A   1      30.586  29.378  22.204  1.00  0.00     0.011 A 
ATOM     13  C   UNL A   1      28.398  28.139  23.394  1.00  0.00     0.046 A 
ATOM     14  C   UNL A   1      29.296  29.878  21.991  1.00  0.00     0.046 A 
ATOM     15  C   UNL A   1      28.212  29.255  22.593  1.00  0.00     0.115 A 
BRANCH  15  16
ATOM     16  O   UNL A   1      26.940  29.715  22.424  1.00  0.00    -0.508 OA
ATOM     17  H   UNL A   1      26.592  29.821  21.560  1.00  0.00     0.293 HD
ENDBRANCH  15  16
ENDBRANCH   8  10
BRANCH   8  18
ATOM     18  O   UNL A   1      32.573  26.964  22.045  1.00  0.00    -0.376 OA
ATOM     19  H   UNL A   1      32.060  27.299  21.293  1.00  0.00     0.212 HD
ENDBRANCH   8  18
ENDBRANCH   5   8
ENDBRANCH   3   4
ENDBRANCH   2   3
ENDBRANCH   1   2
BRANCH   1  20
ATOM     20  C   UNL A   1      32.343  32.327  26.864  1.00  0.00     0.116 C 
BRANCH  20  21
ATOM     21  N   UNL A   1      32.317  33.688  27.380  1.00  0.00    -0.352 N 
ATOM     22  C   UNL A   1      33.158  34.291  28.286  1.00  0.00     0.251 C 
ATOM     23  H   UNL A   1      31.594  34.258  27.030  1.00  0.00     0.163 HD
ATOM     24  O   UNL A   1      32.907  35.421  28.696  1.00  0.00    -0.269 OA
BRANCH  22  25
ATOM     25  C   UNL A   1      34.345  33.565  28.791  1.00  0.00     0.039 A 
ATOM     26  C   UNL A   1      35.611  34.126  28.601  1.00  0.00     0.014 A 
ATOM     27  C   UNL A   1      34.211  32.349  29.465  1.00  0.00     0.014 A 
ATOM     28  C   UNL A   1      36.734  33.504  29.153  1.00  0.00     0.010 A 
ATOM     29  C   UNL A   1      35.320  31.772  30.079  1.00  0.00     0.010 A 
ATOM     30  C   UNL A   1      36.594  32.343  29.931  1.00  0.00    -0.014 A 
BRANCH  30  31
ATOM     31  C   UNL A   1      37.760  31.724  30.616  1.00  0.00     0.031 A 
ATOM     32  C   UNL A   1      38.582  30.672  29.919  1.00  0.00     0.074 A 
ATOM     33  C   UNL A   1      38.024  32.041  31.899  1.00  0.00     0.049 A 
ATOM     34  N   UNL A   1      39.592  29.980  30.377  1.00  0.00    -0.248 NA
ATOM     35  C   UNL A   1      38.201  30.333  28.539  1.00  0.00     0.031 C 
ATOM     36  C   UNL A   1      37.255  32.985  32.713  1.00  0.00     0.029 A 
ATOM     37  N   UNL A   1      38.995  31.583  32.755  1.00  0.00    -0.354 N 
ATOM     38  C   UNL A   1      39.943  29.099  29.360  1.00  0.00     0.074 A 
ATOM     39  C   UNL A   1      39.016  29.323  28.272  1.00  0.00     0.031 C 
ATOM     40  C   UNL A   1      37.785  33.040  33.945  1.00  0.00     0.029 A 
ATOM     41  C   UNL A   1      38.911  32.113  34.022  1.00  0.00     0.049 A 
ATOM     42  H   UNL A   1      39.686  30.936  32.488  1.00  0.00     0.167 HD
ATOM     43  C   UNL A   1      40.960  28.206  29.322  1.00  0.00     0.034 A 
ATOM     44  C   UNL A   1      39.649  31.877  35.124  1.00  0.00     0.034 A 
ATOM     45  C   UNL A   1      41.908  28.017  30.388  1.00  0.00     0.049 A 
ATOM     46  C   UNL A   1      40.799  30.908  35.042  1.00  0.00     0.074 A 
ATOM     47  C   UNL A   1      43.029  27.207  30.406  1.00  0.00     0.029 A 
ATOM     48  N   UNL A   1      41.842  28.638  31.625  1.00  0.00    -0.354 N 
ATOM     49  N   UNL A   1      41.216  30.208  34.014  1.00  0.00    -0.248 NA
ATOM     50  C   UNL A   1      41.602  30.723  36.259  1.00  0.00     0.031 C 
ATOM     51  C   UNL A   1      43.628  27.317  31.665  1.00  0.00     0.029 A 
ATOM     52  C   UNL A   1      42.896  28.219  32.420  1.00  0.00     0.049 A 
ATOM     53  H   UNL A   1      41.149  29.280  31.899  1.00  0.00     0.167 HD
ATOM     54  C   UNL A   1      42.350  29.532  34.449  1.00  0.00     0.074 A 
ATOM     55  C   UNL A   1      42.566  29.921  35.827  1.00  0.00     0.031 C 
ATOM     56  C   UNL A   1      43.134  28.656  33.772  1.00  0.00     0.034 A 
BRANCH  43  57
ATOM     57  C   UNL A   1      41.135  27.395  28.064  1.00  0.00     0.023 A 
ATOM     58  C   UNL A   1      41.685  28.001  26.917  1.00  0.00     0.012 A 
ATOM     59  C   UNL A   1      40.817  26.023  28.035  1.00  0.00     0.148 A 
ATOM     60  C   UNL A   1      41.883  27.266  25.748  1.00  0.00     0.002 A 
ATOM     61  C   UNL A   1      41.059  25.286  26.881  1.00  0.00     0.091 A 
ATOM     62  F   UNL A   1      40.275  25.468  29.128  1.00  0.00    -0.205 F 
ATOM     63  C   UNL A   1      41.580  25.907  25.735  1.00  0.00     0.022 A 
BRANCH  61  64
ATOM     64  S   UNL A   1      40.780  23.514  26.788  1.00  0.00     0.127 S 
ATOM     65  O   UNL A   1      41.188  23.080  28.124  1.00  0.00    -0.237 OA
ATOM     66  O   UNL A   1      39.341  23.441  26.536  1.00  0.00    -0.237 OA
ATOM     67  O   UNL A   1      41.614  23.033  25.694  1.00  0.00    -0.744 OA
ENDBRANCH  61  64
ENDBRANCH  43  57
BRANCH  44  68
ATOM     68  C   UNL A   1      39.368  32.620  36.386  1.00  0.00     0.023 A 
ATOM     69  C   UNL A   1      39.986  33.867  36.604  1.00  0.00     0.012 A 
ATOM     70  C   UNL A   1      38.483  32.113  37.357  1.00  0.00     0.148 A 
ATOM     71  C   UNL A   1      39.754  34.581  37.780  1.00  0.00     0.002 A 
ATOM     72  C   UNL A   1      38.215  32.855  38.501  1.00  0.00     0.091 A 
ATOM     73  F   UNL A   1      37.915  30.919  37.137  1.00  0.00    -0.205 F 
ATOM     74  C   UNL A   1      38.863  34.079  38.724  1.00  0.00     0.022 A 
BRANCH  72  75
ATOM     75  S   UNL A   1      36.981  32.352  39.707  1.00  0.00     0.127 S 
ATOM     76  O   UNL A   1      37.091  33.410  40.707  1.00  0.00    -0.237 OA
ATOM     77  O   UNL A   1      35.753  32.378  38.912  1.00  0.00    -0.237 OA
ATOM     78  O   UNL A   1      37.381  31.022  40.146  1.00  0.00    -0.744 OA
ENDBRANCH  72  75
ENDBRANCH  44  68
BRANCH  56  79
ATOM     79  C   UNL A   1      44.327  28.083  34.492  1.00  0.00     0.023 A 
ATOM     80  C   UNL A   1      45.543  28.794  34.514  1.00  0.00     0.012 A 
ATOM     81  C   UNL A   1      44.218  26.875  35.211  1.00  0.00     0.148 A 
ATOM     82  C   UNL A   1      46.642  28.296  35.212  1.00  0.00     0.002 A 
ATOM     83  C   UNL A   1      45.303  26.411  35.946  1.00  0.00     0.091 A 
ATOM     84  F   UNL A   1      43.059  26.204  35.163  1.00  0.00    -0.205 F 
ATOM     85  C   UNL A   1      46.519  27.113  35.937  1.00  0.00     0.022 A 
BRANCH  83  86
ATOM     86  S   UNL A   1      45.205  24.951  36.988  1.00  0.00     0.127 S 
ATOM     87  O   UNL A   1      46.608  24.740  37.338  1.00  0.00    -0.237 OA
ATOM     88  O   UNL A   1      44.362  25.413  38.092  1.00  0.00    -0.237 OA
ATOM     89  O   UNL A   1      44.603  23.910  36.165  1.00  0.00    -0.744 OA
ENDBRANCH  83  86
ENDBRANCH  56  79
ENDBRANCH  30  31
ENDBRANCH  22  25
ENDBRANCH  20  21
ENDBRANCH   1  20
TORSDOF 17
ENDMDL
MODEL 3
REMARK VINA RESULT:     -11.4      7.050     12.169
REMARK SMILES C[C@](O)(C(=O)NCCCCNC(=O)c1ccc(-c2c3nc(c(-c4cccc(S(=O)(=O)[O-])c4F)c4ccc([nH]4)c(-c4cccc(S(=O)(=O)[O-])c4F)c4nc(c(-c5cccc(S(=O)(=O)[O-])c5F)c5ccc2[nH]5)C=C4)C=C3)cc1)c1ccc(O)cc1
REMARK SMILES IDX 9 1 8 2 7 3 6 4 4 5 5 6 2 8 1 9 77 10 78 11 83 12 79 13
REMARK SMILES IDX 82 14 80 15 81 16 3 18 10 20 11 21 12 22 13 24 14 25 15 26
REMARK SMILES IDX 76 27 16 28 75 29 17 30 18 31 19 32 69 33 20 34 74 35 68 36
REMARK SMILES IDX 70 37 21 38 73 39 67 40 66 41 22 43 54 44 34 45 53 46 35 47
REMARK SMILES IDX 38 48 52 49 71 50 36 51 37 52 51 54 72 55 39 56 23 57 24 58
REMARK SMILES IDX 32 59 25 60 27 61 33 62 26 63 28 64 29 65 30 66 31 67 55 68
REMARK SMILES IDX 56 69 64 70 57 71 59 72 65 73 58 74 60 75 61 76 62 77 63 78
REMARK SMILES IDX 40 79 41 80 49 81 42 82 44 83 50 84 43 85 45 86 46 87 47 88
REMARK SMILES IDX 48 89
REMARK H PARENT 6 7 81 17 3 19 11 23 70 42 38 53
REMARK Flexibility Score: inf
ROOT
ATOM      1  C   UNL A   1      38.113  19.489  24.874  1.00  0.00     0.023 C 
ENDROOT
BRANCH   1   2
ATOM      2  C   UNL A   1      36.675  20.006  24.899  1.00  0.00     0.023 C 
BRANCH   2   3
ATOM      3  C   UNL A   1      36.497  21.407  25.475  1.00  0.00     0.116 C 
BRANCH   3   4
ATOM      4  N   UNL A   1      35.539  21.451  26.566  1.00  0.00    -0.353 N 
ATOM      5  C   UNL A   1      34.193  21.715  26.551  1.00  0.00     0.256 C 
ATOM      6  O   UNL A   1      33.590  21.576  27.620  1.00  0.00    -0.271 OA
ATOM      7  H   UNL A   1      35.914  21.262  27.457  1.00  0.00     0.163 HD
BRANCH   5   8
ATOM      8  C   UNL A   1      33.481  22.178  25.230  1.00  0.00     0.165 C 
ATOM      9  C   UNL A   1      34.428  23.137  24.484  1.00  0.00     0.058 C 
BRANCH   8  10
ATOM     10  C   UNL A   1      33.013  20.983  24.375  1.00  0.00    -0.007 A 
ATOM     11  C   UNL A   1      32.545  21.126  23.055  1.00  0.00     0.011 A 
ATOM     12  C   UNL A   1      33.048  19.676  24.908  1.00  0.00     0.011 A 
ATOM     13  C   UNL A   1      32.140  20.020  22.302  1.00  0.00     0.046 A 
ATOM     14  C   UNL A   1      32.632  18.569  24.159  1.00  0.00     0.046 A 
ATOM     15  C   UNL A   1      32.184  18.752  22.859  1.00  0.00     0.115 A 
BRANCH  15  16
ATOM     16  O   UNL A   1      31.781  17.701  22.088  1.00  0.00    -0.508 OA
ATOM     17  H   UNL A   1      31.695  16.849  22.468  1.00  0.00     0.293 HD
ENDBRANCH  15  16
ENDBRANCH   8  10
BRANCH   8  18
ATOM     18  O   UNL A   1      32.297  22.936  25.532  1.00  0.00    -0.376 OA
ATOM     19  H   UNL A   1      31.792  22.484  26.226  1.00  0.00     0.212 HD
ENDBRANCH   8  18
ENDBRANCH   5   8
ENDBRANCH   3   4
ENDBRANCH   2   3
ENDBRANCH   1   2
BRANCH   1  20
ATOM     20  C   UNL A   1      39.014  19.981  26.002  1.00  0.00     0.116 C 
BRANCH  20  21
ATOM     21  N   UNL A   1      40.249  19.218  26.125  1.00  0.00    -0.352 N 
ATOM     22  C   UNL A   1      41.523  19.663  26.392  1.00  0.00     0.251 C 
ATOM     23  H   UNL A   1      40.158  18.246  25.999  1.00  0.00     0.163 HD
ATOM     24  O   UNL A   1      42.468  18.879  26.338  1.00  0.00    -0.269 OA
BRANCH  22  25
ATOM     25  C   UNL A   1      41.758  21.089  26.710  1.00  0.00     0.039 A 
ATOM     26  C   UNL A   1      42.163  21.435  28.002  1.00  0.00     0.014 A 
ATOM     27  C   UNL A   1      41.601  22.078  25.736  1.00  0.00     0.014 A 
ATOM     28  C   UNL A   1      42.481  22.763  28.296  1.00  0.00     0.010 A 
ATOM     29  C   UNL A   1      41.993  23.386  26.009  1.00  0.00     0.010 A 
ATOM     30  C   UNL A   1      42.438  23.744  27.292  1.00  0.00    -0.014 A 
BRANCH  30  31
ATOM     31  C   UNL A   1      42.874  25.141  27.555  1.00  0.00     0.031 A 
ATOM     32  C   UNL A   1      41.928  26.128  28.187  1.00  0.00     0.074 A 
ATOM     33  C   UNL A   1      44.090  25.549  27.139  1.00  0.00     0.049 A 
ATOM     34  N   UNL A   1      42.110  27.399  28.436  1.00  0.00    -0.248 NA
ATOM     35  C   UNL A   1      40.595  25.629  28.562  1.00  0.00     0.031 C 
ATOM     36  C   UNL A   1      45.070  24.713  26.441  1.00  0.00     0.029 A 
ATOM     37  N   UNL A   1      44.700  26.776  27.217  1.00  0.00    -0.354 N 
ATOM     38  C   UNL A   1      40.907  27.860  28.959  1.00  0.00     0.074 A 
ATOM     39  C   UNL A   1      39.993  26.740  28.962  1.00  0.00     0.031 C 
ATOM     40  C   UNL A   1      46.157  25.448  26.161  1.00  0.00     0.029 A 
ATOM     41  C   UNL A   1      45.943  26.815  26.627  1.00  0.00     0.049 A 
ATOM     42  H   UNL A   1      44.287  27.556  27.653  1.00  0.00     0.167 HD
ATOM     43  C   UNL A   1      40.599  29.095  29.422  1.00  0.00     0.034 A 
ATOM     44  C   UNL A   1      46.809  27.835  26.471  1.00  0.00     0.034 A 
ATOM     45  C   UNL A   1      41.524  30.196  29.459  1.00  0.00     0.049 A 
ATOM     46  C   UNL A   1      46.457  29.187  27.030  1.00  0.00     0.074 A 
ATOM     47  C   UNL A   1      41.337  31.457  29.997  1.00  0.00     0.029 A 
ATOM     48  N   UNL A   1      42.806  30.172  28.932  1.00  0.00    -0.354 N 
ATOM     49  N   UNL A   1      45.376  29.559  27.674  1.00  0.00    -0.248 NA
ATOM     50  C   UNL A   1      47.458  30.252  26.876  1.00  0.00     0.031 C 
ATOM     51  C   UNL A   1      42.498  32.205  29.772  1.00  0.00     0.029 A 
ATOM     52  C   UNL A   1      43.418  31.400  29.120  1.00  0.00     0.049 A 
ATOM     53  H   UNL A   1      43.220  29.397  28.488  1.00  0.00     0.167 HD
ATOM     54  C   UNL A   1      45.583  30.886  28.033  1.00  0.00     0.074 A 
ATOM     55  C   UNL A   1      46.901  31.248  27.553  1.00  0.00     0.031 C 
ATOM     56  C   UNL A   1      44.751  31.732  28.688  1.00  0.00     0.034 A 
BRANCH  43  57
ATOM     57  C   UNL A   1      39.215  29.313  29.975  1.00  0.00     0.023 A 
ATOM     58  C   UNL A   1      38.904  28.856  31.271  1.00  0.00     0.012 A 
ATOM     59  C   UNL A   1      38.243  30.021  29.241  1.00  0.00     0.148 A 
ATOM     60  C   UNL A   1      37.638  29.067  31.817  1.00  0.00     0.002 A 
ATOM     61  C   UNL A   1      36.998  30.269  29.809  1.00  0.00     0.091 A 
ATOM     62  F   UNL A   1      38.549  30.430  28.002  1.00  0.00    -0.205 F 
ATOM     63  C   UNL A   1      36.691  29.783  31.091  1.00  0.00     0.022 A 
BRANCH  61  64
ATOM     64  S   UNL A   1      35.737  31.251  28.989  1.00  0.00     0.127 S 
ATOM     65  O   UNL A   1      35.050  30.238  28.188  1.00  0.00    -0.237 OA
ATOM     66  O   UNL A   1      34.963  31.763  30.120  1.00  0.00    -0.237 OA
ATOM     67  O   UNL A   1      36.450  32.269  28.230  1.00  0.00    -0.744 OA
ENDBRANCH  61  64
ENDBRANCH  43  57
BRANCH  44  68
ATOM     68  C   UNL A   1      48.127  27.602  25.813  1.00  0.00     0.023 A 
ATOM     69  C   UNL A   1      49.248  27.288  26.606  1.00  0.00     0.012 A 
ATOM     70  C   UNL A   1      48.273  27.669  24.414  1.00  0.00     0.148 A 
ATOM     71  C   UNL A   1      50.497  27.078  26.021  1.00  0.00     0.002 A 
ATOM     72  C   UNL A   1      49.508  27.404  23.834  1.00  0.00     0.091 A 
ATOM     73  F   UNL A   1      47.197  27.981  23.677  1.00  0.00    -0.205 F 
ATOM     74  C   UNL A   1      50.625  27.127  24.636  1.00  0.00     0.022 A 
BRANCH  72  75
ATOM     75  S   UNL A   1      49.737  27.314  22.055  1.00  0.00     0.127 S 
ATOM     76  O   UNL A   1      51.141  26.926  21.952  1.00  0.00    -0.237 OA
ATOM     77  O   UNL A   1      48.779  26.273  21.679  1.00  0.00    -0.237 OA
ATOM     78  O   UNL A   1      49.408  28.640  21.549  1.00  0.00    -0.744 OA
ENDBRANCH  72  75
ENDBRANCH  44  68
BRANCH  56  79
ATOM     79  C   UNL A   1      45.249  33.127  28.968  1.00  0.00     0.023 A 
ATOM     80  C   UNL A   1      45.924  33.404  30.173  1.00  0.00     0.012 A 
ATOM     81  C   UNL A   1      45.114  34.143  28.000  1.00  0.00     0.148 A 
ATOM     82  C   UNL A   1      46.427  34.680  30.425  1.00  0.00     0.002 A 
ATOM     83  C   UNL A   1      45.663  35.398  28.239  1.00  0.00     0.091 A 
ATOM     84  F   UNL A   1      44.452  33.866  26.868  1.00  0.00    -0.205 F 
ATOM     85  C   UNL A   1      46.308  35.671  29.455  1.00  0.00     0.022 A 
BRANCH  83  86
ATOM     86  S   UNL A   1      45.643  36.706  27.007  1.00  0.00     0.127 S 
ATOM     87  O   UNL A   1      44.212  36.969  26.874  1.00  0.00    -0.237 OA
ATOM     88  O   UNL A   1      46.401  37.768  27.670  1.00  0.00    -0.237 OA
ATOM     89  O   UNL A   1      46.289  36.153  25.824  1.00  0.00    -0.744 OA
ENDBRANCH  83  86
ENDBRANCH  56  79
ENDBRANCH  30  31
ENDBRANCH  22  25
ENDBRANCH  20  21
ENDBRANCH   1  20
TORSDOF 17
ENDMDL
