MODEL 1
REMARK VINA RESULT:     -12.6      0.000      0.000
REMARK SMILES O=C(NCCCCNC(=O)[C@H]1O[C@@H](Oc2c(-c3cc(O)c(O)c(O)c3)oc3cc(O)cc(O)c3c2=O)[C@H](O)[C@@H](O)[C@@H]1O)c1ccc(-c2c3nc(c(-c4cccc(S(=O)(=O)[O-])c4F)c4ccc([nH]4)c(-c4cccc(S(=O)(=O)[O-])c4F)c4nc(c(-c5cccc(S(=O)(=O)[O-])c5F)c5ccc2[nH]5)C=C4)C=C3)cc1
REMARK SMILES IDX 6 1 5 2 4 3 3 4 1 5 2 6 43 8 44 9 105 10 45 11 104 12 46 13
REMARK SMILES IDX 47 14 48 15 98 16 49 17 103 18 97 19 99 20 50 21 102 22
REMARK SMILES IDX 96 23 95 24 51 26 83 27 63 28 82 29 64 30 67 31 81 32 100 33
REMARK SMILES IDX 65 34 66 35 80 37 101 38 68 39 52 40 53 41 61 42 54 43 56 44
REMARK SMILES IDX 62 45 55 46 57 47 58 48 59 49 60 50 84 51 85 52 93 53 86 54
REMARK SMILES IDX 88 55 94 56 87 57 89 58 90 59 91 60 92 61 69 62 70 63 78 64
REMARK SMILES IDX 71 65 73 66 79 67 72 68 74 69 75 70 76 71 77 72 7 73 8 74
REMARK SMILES IDX 9 75 10 77 11 78 12 79 41 80 13 81 39 82 37 83 42 84 14 86
REMARK SMILES IDX 15 87 16 88 35 89 26 90 34 91 36 92 27 93 32 94 28 95 31 96
REMARK SMILES IDX 29 97 17 98 18 99 25 100 19 101 23 102 21 103 20 104 24 106
REMARK SMILES IDX 22 108 33 110 30 112 40 114 38 116
REMARK H PARENT 3 7 99 25 67 36 8 76 42 85 20 105 24 107 22 109 33 111 30 113
REMARK H PARENT 40 115 38 117
REMARK Flexibility Score: inf
ROOT
ATOM      1  C   UNL A   1      32.359  29.678  26.713  1.00  0.00     0.023 C 
ENDROOT
BRANCH   1   2
ATOM      2  C   UNL A   1      32.085  31.183  26.719  1.00  0.00     0.023 C 
BRANCH   2   3
ATOM      3  C   UNL A   1      33.188  32.061  27.296  1.00  0.00     0.116 C 
BRANCH   3   4
ATOM      4  N   UNL A   1      32.739  33.388  27.676  1.00  0.00    -0.352 N 
ATOM      5  O   UNL A   1      32.673  35.277  28.902  1.00  0.00    -0.269 OA
ATOM      6  C   UNL A   1      33.236  34.224  28.655  1.00  0.00     0.251 C 
ATOM      7  H   UNL A   1      31.973  33.740  27.166  1.00  0.00     0.163 HD
BRANCH   6   8
ATOM      8  C   UNL A   1      34.429  33.808  29.433  1.00  0.00     0.039 A 
ATOM      9  C   UNL A   1      35.708  34.250  29.084  1.00  0.00     0.014 A 
ATOM     10  C   UNL A   1      34.260  32.939  30.513  1.00  0.00     0.014 A 
ATOM     11  C   UNL A   1      36.823  33.701  29.710  1.00  0.00     0.010 A 
ATOM     12  C   UNL A   1      35.379  32.450  31.194  1.00  0.00     0.010 A 
ATOM     13  C   UNL A   1      36.673  32.790  30.768  1.00  0.00    -0.014 A 
BRANCH  13  14
ATOM     14  C   UNL A   1      37.878  32.231  31.435  1.00  0.00     0.031 A 
ATOM     15  C   UNL A   1      38.327  32.730  32.782  1.00  0.00     0.074 A 
ATOM     16  C   UNL A   1      38.570  31.253  30.817  1.00  0.00     0.049 A 
ATOM     17  N   UNL A   1      39.326  32.319  33.521  1.00  0.00    -0.248 NA
ATOM     18  C   UNL A   1      37.566  33.842  33.376  1.00  0.00     0.031 C 
ATOM     19  C   UNL A   1      38.260  30.716  29.490  1.00  0.00     0.029 A 
ATOM     20  N   UNL A   1      39.668  30.537  31.219  1.00  0.00    -0.354 N 
ATOM     21  C   UNL A   1      39.344  33.143  34.639  1.00  0.00     0.074 A 
ATOM     22  C   UNL A   1      38.258  34.086  34.481  1.00  0.00     0.031 C 
ATOM     23  C   UNL A   1      39.125  29.734  29.202  1.00  0.00     0.029 A 
ATOM     24  C   UNL A   1      40.076  29.598  30.301  1.00  0.00     0.049 A 
ATOM     25  H   UNL A   1      40.122  30.683  32.080  1.00  0.00     0.167 HD
ATOM     26  C   UNL A   1      40.176  33.109  35.708  1.00  0.00     0.034 A 
ATOM     27  C   UNL A   1      41.098  28.722  30.337  1.00  0.00     0.034 A 
ATOM     28  C   UNL A   1      41.222  32.136  35.888  1.00  0.00     0.049 A 
ATOM     29  C   UNL A   1      41.975  28.674  31.556  1.00  0.00     0.074 A 
ATOM     30  C   UNL A   1      42.066  31.970  36.972  1.00  0.00     0.029 A 
ATOM     31  N   UNL A   1      41.571  31.166  34.960  1.00  0.00    -0.354 N 
ATOM     32  N   UNL A   1      41.887  29.370  32.662  1.00  0.00    -0.248 NA
ATOM     33  C   UNL A   1      43.074  27.699  31.543  1.00  0.00     0.031 C 
ATOM     34  C   UNL A   1      42.934  30.906  36.694  1.00  0.00     0.029 A 
ATOM     35  C   UNL A   1      42.621  30.402  35.442  1.00  0.00     0.049 A 
ATOM     36  H   UNL A   1      41.136  31.039  34.086  1.00  0.00     0.167 HD
ATOM     37  C   UNL A   1      42.898  28.899  33.490  1.00  0.00     0.074 A 
ATOM     38  C   UNL A   1      43.573  27.841  32.764  1.00  0.00     0.031 C 
ATOM     39  C   UNL A   1      43.247  29.316  34.732  1.00  0.00     0.034 A 
BRANCH  26  40
ATOM     40  C   UNL A   1      39.962  34.126  36.798  1.00  0.00     0.023 A 
ATOM     41  C   UNL A   1      40.259  35.482  36.551  1.00  0.00     0.012 A 
ATOM     42  C   UNL A   1      39.414  33.756  38.042  1.00  0.00     0.148 A 
ATOM     43  C   UNL A   1      40.043  36.448  37.533  1.00  0.00     0.002 A 
ATOM     44  C   UNL A   1      39.168  34.731  39.004  1.00  0.00     0.091 A 
ATOM     45  F   UNL A   1      39.161  32.460  38.273  1.00  0.00    -0.205 F 
ATOM     46  C   UNL A   1      39.489  36.075  38.756  1.00  0.00     0.022 A 
BRANCH  44  47
ATOM     47  S   UNL A   1      38.388  34.345  40.577  1.00  0.00     0.127 S 
ATOM     48  O   UNL A   1      39.447  33.604  41.259  1.00  0.00    -0.237 OA
ATOM     49  O   UNL A   1      38.121  35.674  41.131  1.00  0.00    -0.237 OA
ATOM     50  O   UNL A   1      37.192  33.584  40.245  1.00  0.00    -0.744 OA
ENDBRANCH  44  47
ENDBRANCH  26  40
BRANCH  27  51
ATOM     51  C   UNL A   1      41.282  27.764  29.212  1.00  0.00     0.023 A 
ATOM     52  C   UNL A   1      40.640  26.512  29.264  1.00  0.00     0.012 A 
ATOM     53  C   UNL A   1      42.027  28.109  28.068  1.00  0.00     0.148 A 
ATOM     54  C   UNL A   1      40.750  25.613  28.203  1.00  0.00     0.002 A 
ATOM     55  C   UNL A   1      42.086  27.232  26.991  1.00  0.00     0.091 A 
ATOM     56  F   UNL A   1      42.643  29.300  28.046  1.00  0.00    -0.205 F 
ATOM     57  C   UNL A   1      41.460  25.978  27.062  1.00  0.00     0.022 A 
BRANCH  55  58
ATOM     58  S   UNL A   1      42.856  27.679  25.432  1.00  0.00     0.127 S 
ATOM     59  O   UNL A   1      42.025  28.798  24.998  1.00  0.00    -0.237 OA
ATOM     60  O   UNL A   1      44.209  28.044  25.853  1.00  0.00    -0.237 OA
ATOM     61  O   UNL A   1      42.791  26.481  24.606  1.00  0.00    -0.744 OA
ENDBRANCH  55  58
ENDBRANCH  27  51
BRANCH  39  62
ATOM     62  C   UNL A   1      44.395  28.611  35.403  1.00  0.00     0.023 A 
ATOM     63  C   UNL A   1      45.716  29.015  35.125  1.00  0.00     0.012 A 
ATOM     64  C   UNL A   1      44.166  27.598  36.353  1.00  0.00     0.148 A 
ATOM     65  C   UNL A   1      46.794  28.399  35.762  1.00  0.00     0.002 A 
ATOM     66  C   UNL A   1      45.243  27.018  37.015  1.00  0.00     0.091 A 
ATOM     67  F   UNL A   1      42.904  27.209  36.586  1.00  0.00    -0.205 F 
ATOM     68  C   UNL A   1      46.557  27.410  36.714  1.00  0.00     0.022 A 
BRANCH  66  69
ATOM     69  S   UNL A   1      45.014  25.803  38.319  1.00  0.00     0.127 S 
ATOM     70  O   UNL A   1      46.391  25.559  38.745  1.00  0.00    -0.237 OA
ATOM     71  O   UNL A   1      44.195  26.531  39.290  1.00  0.00    -0.237 OA
ATOM     72  O   UNL A   1      44.337  24.676  37.691  1.00  0.00    -0.744 OA
ENDBRANCH  66  69
ENDBRANCH  39  62
ENDBRANCH  13  14
ENDBRANCH   6   8
ENDBRANCH   3   4
ENDBRANCH   2   3
ENDBRANCH   1   2
BRANCH   1  73
ATOM     73  C   UNL A   1      32.328  29.002  25.342  1.00  0.00     0.116 C 
BRANCH  73  74
ATOM     74  N   UNL A   1      30.996  28.574  24.946  1.00  0.00    -0.354 N 
ATOM     75  C   UNL A   1      30.614  27.397  24.353  1.00  0.00     0.252 C 
ATOM     76  H   UNL A   1      30.271  29.214  25.128  1.00  0.00     0.163 HD
ATOM     77  O   UNL A   1      29.414  27.163  24.222  1.00  0.00    -0.272 OA
BRANCH  75  78
ATOM     78  C   UNL A   1      31.716  26.467  23.839  1.00  0.00     0.242 C 
ATOM     79  O   UNL A   1      31.653  25.214  24.539  1.00  0.00    -0.324 OA
ATOM     80  C   UNL A   1      31.620  26.166  22.340  1.00  0.00     0.184 C 
ATOM     81  C   UNL A   1      32.852  24.457  24.372  1.00  0.00     0.340 C 
ATOM     82  C   UNL A   1      32.900  25.420  21.951  1.00  0.00     0.181 C 
ATOM     83  C   UNL A   1      33.221  24.259  22.884  1.00  0.00     0.214 C 
BRANCH  80  84
ATOM     84  O   UNL A   1      31.548  27.302  21.469  1.00  0.00    -0.387 OA
ATOM     85  H   UNL A   1      30.716  27.775  21.623  1.00  0.00     0.211 HD
ENDBRANCH  80  84
BRANCH  81  86
ATOM     86  O   UNL A   1      32.855  23.157  25.013  1.00  0.00    -0.454 OA
BRANCH  86  87
ATOM     87  C   UNL A   1      34.074  22.568  25.303  1.00  0.00     0.214 A 
ATOM     88  C   UNL A   1      34.435  21.333  24.889  1.00  0.00     0.181 A 
ATOM     89  C   UNL A   1      35.135  23.431  25.915  1.00  0.00     0.239 A 
ATOM     90  O   UNL A   1      35.671  20.759  25.097  1.00  0.00    -0.452 OA
ATOM     91  C   UNL A   1      36.520  22.886  25.911  1.00  0.00     0.111 A 
ATOM     92  O   UNL A   1      34.849  24.535  26.365  1.00  0.00    -0.285 OA
ATOM     93  C   UNL A   1      36.698  21.561  25.512  1.00  0.00     0.146 A 
ATOM     94  C   UNL A   1      37.655  23.631  26.271  1.00  0.00     0.134 A 
ATOM     95  C   UNL A   1      37.965  20.972  25.499  1.00  0.00     0.094 A 
ATOM     96  C   UNL A   1      38.931  23.048  26.255  1.00  0.00     0.093 A 
ATOM     97  C   UNL A   1      39.071  21.719  25.874  1.00  0.00     0.123 A 
BRANCH  88  98
ATOM     98  C   UNL A   1      33.504  20.409  24.223  1.00  0.00     0.029 A 
ATOM     99  C   UNL A   1      32.780  20.871  23.108  1.00  0.00     0.062 A 
ATOM    100  C   UNL A   1      33.435  19.053  24.590  1.00  0.00     0.062 A 
ATOM    101  C   UNL A   1      32.110  19.961  22.301  1.00  0.00     0.162 A 
ATOM    102  C   UNL A   1      32.757  18.160  23.767  1.00  0.00     0.162 A 
ATOM    103  C   UNL A   1      32.142  18.606  22.603  1.00  0.00     0.200 A 
BRANCH 101 104
ATOM    104  O   UNL A   1      31.483  20.413  21.177  1.00  0.00    -0.504 OA
ATOM    105  H   UNL A   1      30.677  20.884  21.247  1.00  0.00     0.293 HD
ENDBRANCH 101 104
BRANCH 102 106
ATOM    106  O   UNL A   1      32.795  16.826  24.056  1.00  0.00    -0.504 OA
ATOM    107  H   UNL A   1      32.918  16.541  24.940  1.00  0.00     0.293 HD
ENDBRANCH 102 106
BRANCH 103 108
ATOM    108  O   UNL A   1      31.692  17.683  21.696  1.00  0.00    -0.502 OA
ATOM    109  H   UNL A   1      31.329  16.873  21.994  1.00  0.00     0.293 HD
ENDBRANCH 103 108
ENDBRANCH  88  98
BRANCH  94 110
ATOM    110  O   UNL A   1      37.545  24.948  26.615  1.00  0.00    -0.507 OA
ATOM    111  H   UNL A   1      36.952  25.207  27.293  1.00  0.00     0.293 HD
ENDBRANCH  94 110
BRANCH  97 112
ATOM    112  O   UNL A   1      40.288  21.105  25.840  1.00  0.00    -0.508 OA
ATOM    113  H   UNL A   1      40.923  21.362  25.201  1.00  0.00     0.293 HD
ENDBRANCH  97 112
ENDBRANCH  86  87
ENDBRANCH  81  86
BRANCH  82 114
ATOM    114  O   UNL A   1      32.790  24.906  20.601  1.00  0.00    -0.387 OA
ATOM    115  H   UNL A   1      31.886  24.589  20.448  1.00  0.00     0.211 HD
ENDBRANCH  82 114
BRANCH  83 116
ATOM    116  O   UNL A   1      34.608  23.915  22.740  1.00  0.00    -0.384 OA
ATOM    117  H   UNL A   1      34.750  23.498  21.877  1.00  0.00     0.211 HD
ENDBRANCH  83 116
ENDBRANCH  75  78
ENDBRANCH  73  74
ENDBRANCH   1  73
TORSDOF 25
ENDMDL
MODEL 2
REMARK VINA RESULT:     -12.6      1.742      2.311
REMARK SMILES O=C(NCCCCNC(=O)[C@H]1O[C@@H](Oc2c(-c3cc(O)c(O)c(O)c3)oc3cc(O)cc(O)c3c2=O)[C@H](O)[C@@H](O)[C@@H]1O)c1ccc(-c2c3nc(c(-c4cccc(S(=O)(=O)[O-])c4F)c4ccc([nH]4)c(-c4cccc(S(=O)(=O)[O-])c4F)c4nc(c(-c5cccc(S(=O)(=O)[O-])c5F)c5ccc2[nH]5)C=C4)C=C3)cc1
REMARK SMILES IDX 6 1 5 2 4 3 3 4 1 5 2 6 43 8 44 9 105 10 45 11 104 12 46 13
REMARK SMILES IDX 47 14 48 15 98 16 49 17 103 18 97 19 99 20 50 21 102 22
REMARK SMILES IDX 96 23 95 24 51 26 83 27 63 28 82 29 64 30 67 31 81 32 100 33
REMARK SMILES IDX 65 34 66 35 80 37 101 38 68 39 52 40 53 41 61 42 54 43 56 44
REMARK SMILES IDX 62 45 55 46 57 47 58 48 59 49 60 50 84 51 85 52 93 53 86 54
REMARK SMILES IDX 88 55 94 56 87 57 89 58 90 59 91 60 92 61 69 62 70 63 78 64
REMARK SMILES IDX 71 65 73 66 79 67 72 68 74 69 75 70 76 71 77 72 7 73 8 74
REMARK SMILES IDX 9 75 10 77 11 78 12 79 41 80 13 81 39 82 37 83 42 84 14 86
REMARK SMILES IDX 15 87 16 88 35 89 26 90 34 91 36 92 27 93 32 94 28 95 31 96
REMARK SMILES IDX 29 97 17 98 18 99 25 100 19 101 23 102 21 103 20 104 24 106
REMARK SMILES IDX 22 108 33 110 30 112 40 114 38 116
REMARK H PARENT 3 7 99 25 67 36 8 76 42 85 20 105 24 107 22 109 33 111 30 113
REMARK H PARENT 40 115 38 117
REMARK Flexibility Score: inf
ROOT
ATOM      1  C   UNL A   1      32.329  28.022  26.993  1.00  0.00     0.023 C 
ENDROOT
BRANCH   1   2
ATOM      2  C   UNL A   1      33.679  27.953  26.275  1.00  0.00     0.023 C 
BRANCH   2   3
ATOM      3  C   UNL A   1      34.161  29.247  25.631  1.00  0.00     0.116 C 
BRANCH   3   4
ATOM      4  N   UNL A   1      33.559  30.440  26.198  1.00  0.00    -0.352 N 
ATOM      5  O   UNL A   1      33.286  32.116  27.680  1.00  0.00    -0.269 OA
ATOM      6  C   UNL A   1      33.970  31.187  27.284  1.00  0.00     0.251 C 
ATOM      7  H   UNL A   1      32.744  30.761  25.747  1.00  0.00     0.163 HD
BRANCH   6   8
ATOM      8  C   UNL A   1      35.223  30.820  27.989  1.00  0.00     0.039 A 
ATOM      9  C   UNL A   1      35.344  29.598  28.655  1.00  0.00     0.014 A 
ATOM     10  C   UNL A   1      36.281  31.732  28.002  1.00  0.00     0.014 A 
ATOM     11  C   UNL A   1      36.454  29.357  29.460  1.00  0.00     0.010 A 
ATOM     12  C   UNL A   1      37.430  31.452  28.748  1.00  0.00     0.010 A 
ATOM     13  C   UNL A   1      37.507  30.284  29.522  1.00  0.00    -0.014 A 
BRANCH  13  14
ATOM     14  C   UNL A   1      38.691  29.998  30.374  1.00  0.00     0.031 A 
ATOM     15  C   UNL A   1      38.829  30.599  31.747  1.00  0.00     0.074 A 
ATOM     16  C   UNL A   1      39.649  29.176  29.902  1.00  0.00     0.049 A 
ATOM     17  N   UNL A   1      39.772  30.415  32.635  1.00  0.00    -0.248 NA
ATOM     18  C   UNL A   1      37.779  31.537  32.180  1.00  0.00     0.031 C 
ATOM     19  C   UNL A   1      39.652  28.567  28.570  1.00  0.00     0.029 A 
ATOM     20  N   UNL A   1      40.800  28.710  30.484  1.00  0.00    -0.354 N 
ATOM     21  C   UNL A   1      39.459  31.241  33.707  1.00  0.00     0.074 A 
ATOM     22  C   UNL A   1      38.239  31.935  33.359  1.00  0.00     0.031 C 
ATOM     23  C   UNL A   1      40.730  27.782  28.448  1.00  0.00     0.029 A 
ATOM     24  C   UNL A   1      41.519  27.862  29.674  1.00  0.00     0.049 A 
ATOM     25  H   UNL A   1      41.085  28.958  31.392  1.00  0.00     0.167 HD
ATOM     26  C   UNL A   1      40.117  31.395  34.882  1.00  0.00     0.034 A 
ATOM     27  C   UNL A   1      42.681  27.218  29.891  1.00  0.00     0.034 A 
ATOM     28  C   UNL A   1      41.302  30.663  35.248  1.00  0.00     0.049 A 
ATOM     29  C   UNL A   1      43.364  27.371  31.220  1.00  0.00     0.074 A 
ATOM     30  C   UNL A   1      41.996  30.692  36.445  1.00  0.00     0.029 A 
ATOM     31  N   UNL A   1      41.972  29.774  34.421  1.00  0.00    -0.354 N 
ATOM     32  N   UNL A   1      42.976  28.050  32.271  1.00  0.00    -0.248 NA
ATOM     33  C   UNL A   1      44.628  26.645  31.404  1.00  0.00     0.031 C 
ATOM     34  C   UNL A   1      43.092  29.828  36.338  1.00  0.00     0.029 A 
ATOM     35  C   UNL A   1      43.073  29.252  35.078  1.00  0.00     0.049 A 
ATOM     36  H   UNL A   1      41.703  29.547  33.502  1.00  0.00     0.167 HD
ATOM     37  C   UNL A   1      43.931  27.811  33.252  1.00  0.00     0.074 A 
ATOM     38  C   UNL A   1      44.905  26.906  32.674  1.00  0.00     0.031 C 
ATOM     39  C   UNL A   1      44.004  28.309  34.511  1.00  0.00     0.034 A 
BRANCH  26  40
ATOM     40  C   UNL A   1      39.544  32.362  35.886  1.00  0.00     0.023 A 
ATOM     41  C   UNL A   1      38.569  31.917  36.801  1.00  0.00     0.012 A 
ATOM     42  C   UNL A   1      40.008  33.689  35.964  1.00  0.00     0.148 A 
ATOM     43  C   UNL A   1      38.043  32.784  37.758  1.00  0.00     0.002 A 
ATOM     44  C   UNL A   1      39.505  34.538  36.945  1.00  0.00     0.091 A 
ATOM     45  F   UNL A   1      40.917  34.107  35.070  1.00  0.00    -0.205 F 
ATOM     46  C   UNL A   1      38.517  34.092  37.836  1.00  0.00     0.022 A 
BRANCH  44  47
ATOM     47  S   UNL A   1      40.116  36.216  37.160  1.00  0.00     0.127 S 
ATOM     48  O   UNL A   1      41.532  35.982  37.438  1.00  0.00    -0.237 OA
ATOM     49  O   UNL A   1      39.844  36.820  35.854  1.00  0.00    -0.237 OA
ATOM     50  O   UNL A   1      39.338  36.779  38.254  1.00  0.00    -0.744 OA
ENDBRANCH  44  47
ENDBRANCH  26  40
BRANCH  27  51
ATOM     51  C   UNL A   1      43.218  26.303  28.845  1.00  0.00     0.023 A 
ATOM     52  C   UNL A   1      42.729  24.986  28.770  1.00  0.00     0.012 A 
ATOM     53  C   UNL A   1      44.153  26.747  27.889  1.00  0.00     0.148 A 
ATOM     54  C   UNL A   1      43.172  24.119  27.769  1.00  0.00     0.002 A 
ATOM     55  C   UNL A   1      44.548  25.898  26.863  1.00  0.00     0.091 A 
ATOM     56  F   UNL A   1      44.617  28.001  27.990  1.00  0.00    -0.205 F 
ATOM     57  C   UNL A   1      44.070  24.579  26.809  1.00  0.00     0.022 A 
BRANCH  55  58
ATOM     58  S   UNL A   1      45.586  26.451  25.507  1.00  0.00     0.127 S 
ATOM     59  O   UNL A   1      45.590  25.278  24.636  1.00  0.00    -0.237 OA
ATOM     60  O   UNL A   1      44.833  27.596  24.993  1.00  0.00    -0.237 OA
ATOM     61  O   UNL A   1      46.865  26.799  26.110  1.00  0.00    -0.744 OA
ENDBRANCH  55  58
ENDBRANCH  27  51
BRANCH  39  62
ATOM     62  C   UNL A   1      45.162  27.868  35.365  1.00  0.00     0.023 A 
ATOM     63  C   UNL A   1      46.349  28.625  35.370  1.00  0.00     0.012 A 
ATOM     64  C   UNL A   1      45.052  26.746  36.209  1.00  0.00     0.148 A 
ATOM     65  C   UNL A   1      47.422  28.254  36.182  1.00  0.00     0.002 A 
ATOM     66  C   UNL A   1      46.110  26.407  37.046  1.00  0.00     0.091 A 
ATOM     67  F   UNL A   1      43.923  26.022  36.172  1.00  0.00    -0.205 F 
ATOM     68  C   UNL A   1      47.298  27.154  37.026  1.00  0.00     0.022 A 
BRANCH  66  69
ATOM     69  S   UNL A   1      45.992  25.058  38.226  1.00  0.00     0.127 S 
ATOM     70  O   UNL A   1      44.809  25.437  38.997  1.00  0.00    -0.237 OA
ATOM     71  O   UNL A   1      45.806  23.893  37.359  1.00  0.00    -0.237 OA
ATOM     72  O   UNL A   1      47.251  25.064  38.958  1.00  0.00    -0.744 OA
ENDBRANCH  66  69
ENDBRANCH  39  62
ENDBRANCH  13  14
ENDBRANCH   6   8
ENDBRANCH   3   4
ENDBRANCH   2   3
ENDBRANCH   1   2
BRANCH   1  73
ATOM     73  C   UNL A   1      31.258  27.055  26.489  1.00  0.00     0.116 C 
BRANCH  73  74
ATOM     74  N   UNL A   1      30.517  27.567  25.347  1.00  0.00    -0.354 N 
ATOM     75  C   UNL A   1      30.600  27.188  24.031  1.00  0.00     0.252 C 
ATOM     76  H   UNL A   1      29.869  28.281  25.545  1.00  0.00     0.163 HD
ATOM     77  O   UNL A   1      29.786  27.646  23.231  1.00  0.00    -0.272 OA
BRANCH  75  78
ATOM     78  C   UNL A   1      31.743  26.252  23.628  1.00  0.00     0.242 C 
ATOM     79  O   UNL A   1      31.683  25.053  24.415  1.00  0.00    -0.324 OA
ATOM     80  C   UNL A   1      31.713  25.842  22.153  1.00  0.00     0.184 C 
ATOM     81  C   UNL A   1      32.906  24.318  24.349  1.00  0.00     0.340 C 
ATOM     82  C   UNL A   1      33.025  25.103  21.867  1.00  0.00     0.181 C 
ATOM     83  C   UNL A   1      33.336  24.022  22.894  1.00  0.00     0.214 C 
BRANCH  80  84
ATOM     84  O   UNL A   1      31.648  26.908  21.198  1.00  0.00    -0.387 OA
ATOM     85  H   UNL A   1      30.956  27.535  21.461  1.00  0.00     0.211 HD
ENDBRANCH  80  84
BRANCH  81  86
ATOM     86  O   UNL A   1      32.914  23.068  25.083  1.00  0.00    -0.454 OA
BRANCH  86  87
ATOM     87  C   UNL A   1      34.134  22.474  25.357  1.00  0.00     0.214 A 
ATOM     88  C   UNL A   1      34.490  21.244  24.925  1.00  0.00     0.181 A 
ATOM     89  C   UNL A   1      35.201  23.327  25.972  1.00  0.00     0.239 A 
ATOM     90  O   UNL A   1      35.727  20.665  25.116  1.00  0.00    -0.452 OA
ATOM     91  C   UNL A   1      36.586  22.780  25.951  1.00  0.00     0.111 A 
ATOM     92  O   UNL A   1      34.920  24.425  26.438  1.00  0.00    -0.285 OA
ATOM     93  C   UNL A   1      36.758  21.460  25.534  1.00  0.00     0.146 A 
ATOM     94  C   UNL A   1      37.724  23.518  26.312  1.00  0.00     0.134 A 
ATOM     95  C   UNL A   1      38.024  20.869  25.505  1.00  0.00     0.094 A 
ATOM     96  C   UNL A   1      38.999  22.934  26.280  1.00  0.00     0.093 A 
ATOM     97  C   UNL A   1      39.134  21.609  25.880  1.00  0.00     0.123 A 
BRANCH  88  98
ATOM     98  C   UNL A   1      33.553  20.329  24.255  1.00  0.00     0.029 A 
ATOM     99  C   UNL A   1      32.800  20.815  23.169  1.00  0.00     0.062 A 
ATOM    100  C   UNL A   1      33.505  18.963  24.584  1.00  0.00     0.062 A 
ATOM    101  C   UNL A   1      32.120  19.922  22.352  1.00  0.00     0.162 A 
ATOM    102  C   UNL A   1      32.817  18.087  23.752  1.00  0.00     0.162 A 
ATOM    103  C   UNL A   1      32.171  18.559  22.615  1.00  0.00     0.200 A 
BRANCH 101 104
ATOM    104  O   UNL A   1      31.463  20.399  21.255  1.00  0.00    -0.504 OA
ATOM    105  H   UNL A   1      30.610  20.076  21.042  1.00  0.00     0.293 HD
ENDBRANCH 101 104
BRANCH 102 106
ATOM    106  O   UNL A   1      32.874  16.746  24.002  1.00  0.00    -0.504 OA
ATOM    107  H   UNL A   1      32.211  16.177  23.661  1.00  0.00     0.293 HD
ENDBRANCH 102 106
BRANCH 103 108
ATOM    108  O   UNL A   1      31.709  17.657  21.693  1.00  0.00    -0.502 OA
ATOM    109  H   UNL A   1      31.741  17.864  20.780  1.00  0.00     0.293 HD
ENDBRANCH 103 108
ENDBRANCH  88  98
BRANCH  94 110
ATOM    110  O   UNL A   1      37.619  24.831  26.673  1.00  0.00    -0.507 OA
ATOM    111  H   UNL A   1      38.045  25.140  27.449  1.00  0.00     0.293 HD
ENDBRANCH  94 110
BRANCH  97 112
ATOM    112  O   UNL A   1      40.349  20.994  25.830  1.00  0.00    -0.508 OA
ATOM    113  H   UNL A   1      40.485  20.188  26.287  1.00  0.00     0.293 HD
ENDBRANCH  97 112
ENDBRANCH  86  87
ENDBRANCH  81  86
BRANCH  82 114
ATOM    114  O   UNL A   1      32.980  24.490  20.555  1.00  0.00    -0.387 OA
ATOM    115  H   UNL A   1      32.065  24.248  20.343  1.00  0.00     0.211 HD
ENDBRANCH  82 114
BRANCH  83 116
ATOM    116  O   UNL A   1      34.736  23.706  22.828  1.00  0.00    -0.384 OA
ATOM    117  H   UNL A   1      34.846  22.755  22.679  1.00  0.00     0.211 HD
ENDBRANCH  83 116
ENDBRANCH  75  78
ENDBRANCH  73  74
ENDBRANCH   1  73
TORSDOF 25
ENDMDL
MODEL 3
REMARK VINA RESULT:     -12.2      2.165      4.234
REMARK SMILES O=C(NCCCCNC(=O)[C@H]1O[C@@H](Oc2c(-c3cc(O)c(O)c(O)c3)oc3cc(O)cc(O)c3c2=O)[C@H](O)[C@@H](O)[C@@H]1O)c1ccc(-c2c3nc(c(-c4cccc(S(=O)(=O)[O-])c4F)c4ccc([nH]4)c(-c4cccc(S(=O)(=O)[O-])c4F)c4nc(c(-c5cccc(S(=O)(=O)[O-])c5F)c5ccc2[nH]5)C=C4)C=C3)cc1
REMARK SMILES IDX 6 1 5 2 4 3 3 4 1 5 2 6 43 8 44 9 105 10 45 11 104 12 46 13
REMARK SMILES IDX 47 14 48 15 98 16 49 17 103 18 97 19 99 20 50 21 102 22
REMARK SMILES IDX 96 23 95 24 51 26 83 27 63 28 82 29 64 30 67 31 81 32 100 33
REMARK SMILES IDX 65 34 66 35 80 37 101 38 68 39 52 40 53 41 61 42 54 43 56 44
REMARK SMILES IDX 62 45 55 46 57 47 58 48 59 49 60 50 84 51 85 52 93 53 86 54
REMARK SMILES IDX 88 55 94 56 87 57 89 58 90 59 91 60 92 61 69 62 70 63 78 64
REMARK SMILES IDX 71 65 73 66 79 67 72 68 74 69 75 70 76 71 77 72 7 73 8 74
REMARK SMILES IDX 9 75 10 77 11 78 12 79 41 80 13 81 39 82 37 83 42 84 14 86
REMARK SMILES IDX 15 87 16 88 35 89 26 90 34 91 36 92 27 93 32 94 28 95 31 96
REMARK SMILES IDX 29 97 17 98 18 99 25 100 19 101 23 102 21 103 20 104 24 106
REMARK SMILES IDX 22 108 33 110 30 112 40 114 38 116
REMARK H PARENT 3 7 99 25 67 36 8 76 42 85 20 105 24 107 22 109 33 111 30 113
REMARK H PARENT 40 115 38 117
REMARK Flexibility Score: inf
ROOT
ATOM      1  C   UNL A   1      33.865  28.551  23.548  1.00  0.00     0.023 C 
ENDROOT
BRANCH   1   2
ATOM      2  C   UNL A   1      32.725  29.237  24.305  1.00  0.00     0.023 C 
BRANCH   2   3
ATOM      3  C   UNL A   1      32.954  29.464  25.795  1.00  0.00     0.116 C 
BRANCH   3   4
ATOM      4  N   UNL A   1      32.545  30.779  26.253  1.00  0.00    -0.352 N 
ATOM      5  O   UNL A   1      32.645  32.665  27.483  1.00  0.00    -0.269 OA
ATOM      6  C   UNL A   1      33.182  31.625  27.139  1.00  0.00     0.251 C 
ATOM      7  H   UNL A   1      31.697  31.114  25.881  1.00  0.00     0.163 HD
BRANCH   6   8
ATOM      8  C   UNL A   1      34.498  31.235  27.702  1.00  0.00     0.039 A 
ATOM      9  C   UNL A   1      34.760  29.916  28.079  1.00  0.00     0.014 A 
ATOM     10  C   UNL A   1      35.474  32.220  27.877  1.00  0.00     0.014 A 
ATOM     11  C   UNL A   1      35.928  29.614  28.772  1.00  0.00     0.010 A 
ATOM     12  C   UNL A   1      36.682  31.896  28.503  1.00  0.00     0.010 A 
ATOM     13  C   UNL A   1      36.901  30.601  28.998  1.00  0.00    -0.014 A 
BRANCH  13  14
ATOM     14  C   UNL A   1      38.150  30.251  29.724  1.00  0.00     0.031 A 
ATOM     15  C   UNL A   1      38.389  30.718  31.135  1.00  0.00     0.074 A 
ATOM     16  C   UNL A   1      39.075  29.495  29.101  1.00  0.00     0.049 A 
ATOM     17  N   UNL A   1      39.401  30.463  31.925  1.00  0.00    -0.248 NA
ATOM     18  C   UNL A   1      37.369  31.592  31.738  1.00  0.00     0.031 C 
ATOM     19  C   UNL A   1      38.978  29.019  27.720  1.00  0.00     0.029 A 
ATOM     20  N   UNL A   1      40.271  28.992  29.544  1.00  0.00    -0.354 N 
ATOM     21  C   UNL A   1      39.166  31.175  33.095  1.00  0.00     0.074 A 
ATOM     22  C   UNL A   1      37.916  31.881  32.911  1.00  0.00     0.031 C 
ATOM     23  C   UNL A   1      40.051  28.266  27.439  1.00  0.00     0.029 A 
ATOM     24  C   UNL A   1      40.932  28.239  28.602  1.00  0.00     0.049 A 
ATOM     25  H   UNL A   1      40.624  29.156  30.448  1.00  0.00     0.167 HD
ATOM     26  C   UNL A   1      39.912  31.224  34.225  1.00  0.00     0.034 A 
ATOM     27  C   UNL A   1      42.113  27.595  28.664  1.00  0.00     0.034 A 
ATOM     28  C   UNL A   1      41.128  30.479  34.425  1.00  0.00     0.049 A 
ATOM     29  C   UNL A   1      42.896  27.628  29.946  1.00  0.00     0.074 A 
ATOM     30  C   UNL A   1      41.912  30.402  35.562  1.00  0.00     0.029 A 
ATOM     31  N   UNL A   1      41.738  29.685  33.466  1.00  0.00    -0.354 N 
ATOM     32  N   UNL A   1      42.586  28.195  31.086  1.00  0.00    -0.248 NA
ATOM     33  C   UNL A   1      44.176  26.908  29.959  1.00  0.00     0.031 C 
ATOM     34  C   UNL A   1      43.004  29.569  35.287  1.00  0.00     0.029 A 
ATOM     35  C   UNL A   1      42.892  29.119  33.981  1.00  0.00     0.049 A 
ATOM     36  H   UNL A   1      41.400  29.545  32.552  1.00  0.00     0.167 HD
ATOM     37  C   UNL A   1      43.616  27.877  31.962  1.00  0.00     0.074 A 
ATOM     38  C   UNL A   1      44.549  27.048  31.224  1.00  0.00     0.031 C 
ATOM     39  C   UNL A   1      43.782  28.250  33.254  1.00  0.00     0.034 A 
BRANCH  26  40
ATOM     40  C   UNL A   1      39.411  32.079  35.360  1.00  0.00     0.023 A 
ATOM     41  C   UNL A   1      38.506  31.535  36.293  1.00  0.00     0.012 A 
ATOM     42  C   UNL A   1      39.877  33.396  35.539  1.00  0.00     0.148 A 
ATOM     43  C   UNL A   1      38.049  32.297  37.368  1.00  0.00     0.002 A 
ATOM     44  C   UNL A   1      39.445  34.137  36.635  1.00  0.00     0.091 A 
ATOM     45  F   UNL A   1      40.718  33.910  34.630  1.00  0.00    -0.205 F 
ATOM     46  C   UNL A   1      38.525  33.594  37.545  1.00  0.00     0.022 A 
BRANCH  44  47
ATOM     47  S   UNL A   1      40.067  35.789  36.976  1.00  0.00     0.127 S 
ATOM     48  O   UNL A   1      41.505  35.550  37.079  1.00  0.00    -0.237 OA
ATOM     49  O   UNL A   1      39.658  36.532  35.781  1.00  0.00    -0.237 OA
ATOM     50  O   UNL A   1      39.403  36.213  38.200  1.00  0.00    -0.744 OA
ENDBRANCH  44  47
ENDBRANCH  26  40
BRANCH  27  51
ATOM     51  C   UNL A   1      42.574  26.796  27.495  1.00  0.00     0.023 A 
ATOM     52  C   UNL A   1      43.201  27.453  26.420  1.00  0.00     0.012 A 
ATOM     53  C   UNL A   1      42.458  25.392  27.473  1.00  0.00     0.148 A 
ATOM     54  C   UNL A   1      43.692  26.727  25.334  1.00  0.00     0.002 A 
ATOM     55  C   UNL A   1      42.999  24.672  26.415  1.00  0.00     0.091 A 
ATOM     56  F   UNL A   1      41.843  24.789  28.500  1.00  0.00    -0.205 F 
ATOM     57  C   UNL A   1      43.604  25.338  25.338  1.00  0.00     0.022 A 
BRANCH  55  58
ATOM     58  S   UNL A   1      43.057  22.877  26.408  1.00  0.00     0.127 S 
ATOM     59  O   UNL A   1      42.659  22.571  25.036  1.00  0.00    -0.237 OA
ATOM     60  O   UNL A   1      44.464  22.616  26.714  1.00  0.00    -0.237 OA
ATOM     61  O   UNL A   1      42.130  22.451  27.448  1.00  0.00    -0.744 OA
ENDBRANCH  55  58
ENDBRANCH  27  51
BRANCH  39  62
ATOM     62  C   UNL A   1      45.007  27.747  33.969  1.00  0.00     0.023 A 
ATOM     63  C   UNL A   1      46.190  28.510  33.944  1.00  0.00     0.012 A 
ATOM     64  C   UNL A   1      44.968  26.555  34.718  1.00  0.00     0.148 A 
ATOM     65  C   UNL A   1      47.327  28.079  34.629  1.00  0.00     0.002 A 
ATOM     66  C   UNL A   1      46.091  26.153  35.433  1.00  0.00     0.091 A 
ATOM     67  F   UNL A   1      43.841  25.827  34.710  1.00  0.00    -0.205 F 
ATOM     68  C   UNL A   1      47.274  26.908  35.382  1.00  0.00     0.022 A 
BRANCH  66  69
ATOM     69  S   UNL A   1      46.072  24.705  36.497  1.00  0.00     0.127 S 
ATOM     70  O   UNL A   1      44.976  25.021  37.412  1.00  0.00    -0.237 OA
ATOM     71  O   UNL A   1      45.785  23.623  35.553  1.00  0.00    -0.237 OA
ATOM     72  O   UNL A   1      47.398  24.640  37.096  1.00  0.00    -0.744 OA
ENDBRANCH  66  69
ENDBRANCH  39  62
ENDBRANCH  13  14
ENDBRANCH   6   8
ENDBRANCH   3   4
ENDBRANCH   2   3
ENDBRANCH   1   2
BRANCH   1  73
ATOM     73  C   UNL A   1      33.867  27.023  23.593  1.00  0.00     0.116 C 
BRANCH  73  74
ATOM     74  N   UNL A   1      33.846  26.413  22.272  1.00  0.00    -0.354 N 
ATOM     75  C   UNL A   1      33.082  25.366  21.824  1.00  0.00     0.252 C 
ATOM     76  H   UNL A   1      34.462  26.805  21.612  1.00  0.00     0.163 HD
ATOM     77  O   UNL A   1      33.108  25.084  20.628  1.00  0.00    -0.272 OA
BRANCH  75  78
ATOM     78  C   UNL A   1      32.279  24.573  22.859  1.00  0.00     0.242 C 
ATOM     79  O   UNL A   1      33.178  23.910  23.761  1.00  0.00    -0.324 OA
ATOM     80  C   UNL A   1      31.333  25.437  23.699  1.00  0.00     0.184 C 
ATOM     81  C   UNL A   1      32.519  22.884  24.503  1.00  0.00     0.340 C 
ATOM     82  C   UNL A   1      30.457  24.480  24.514  1.00  0.00     0.181 C 
ATOM     83  C   UNL A   1      31.261  23.406  25.236  1.00  0.00     0.214 C 
BRANCH  80  84
ATOM     84  O   UNL A   1      30.426  26.275  22.973  1.00  0.00    -0.387 OA
ATOM     85  H   UNL A   1      30.287  27.101  23.462  1.00  0.00     0.211 HD
ENDBRANCH  80  84
BRANCH  81  86
ATOM     86  O   UNL A   1      33.348  22.193  25.471  1.00  0.00    -0.454 OA
BRANCH  86  87
ATOM     87  C   UNL A   1      33.878  20.962  25.123  1.00  0.00     0.214 A 
ATOM     88  C   UNL A   1      35.202  20.692  25.084  1.00  0.00     0.181 A 
ATOM     89  C   UNL A   1      32.932  19.806  25.003  1.00  0.00     0.239 A 
ATOM     90  O   UNL A   1      35.750  19.455  24.819  1.00  0.00    -0.452 OA
ATOM     91  C   UNL A   1      33.542  18.448  24.962  1.00  0.00     0.111 A 
ATOM     92  O   UNL A   1      31.722  20.000  24.969  1.00  0.00    -0.285 OA
ATOM     93  C   UNL A   1      34.930  18.361  24.854  1.00  0.00     0.146 A 
ATOM     94  C   UNL A   1      32.804  17.256  25.039  1.00  0.00     0.134 A 
ATOM     95  C   UNL A   1      35.575  17.123  24.791  1.00  0.00     0.094 A 
ATOM     96  C   UNL A   1      33.444  16.010  24.982  1.00  0.00     0.093 A 
ATOM     97  C   UNL A   1      34.828  15.957  24.852  1.00  0.00     0.123 A 
BRANCH  88  98
ATOM     98  C   UNL A   1      36.234  21.728  25.244  1.00  0.00     0.029 A 
ATOM     99  C   UNL A   1      35.824  23.052  25.496  1.00  0.00     0.062 A 
ATOM    100  C   UNL A   1      37.599  21.397  25.293  1.00  0.00     0.062 A 
ATOM    101  C   UNL A   1      36.758  23.989  25.918  1.00  0.00     0.162 A 
ATOM    102  C   UNL A   1      38.516  22.352  25.717  1.00  0.00     0.162 A 
ATOM    103  C   UNL A   1      38.089  23.625  26.076  1.00  0.00     0.200 A 
BRANCH 101 104
ATOM    104  O   UNL A   1      36.333  25.245  26.238  1.00  0.00    -0.504 OA
ATOM    105  H   UNL A   1      35.693  25.673  25.705  1.00  0.00     0.293 HD
ENDBRANCH 101 104
BRANCH 102 106
ATOM    106  O   UNL A   1      39.823  21.995  25.884  1.00  0.00    -0.504 OA
ATOM    107  H   UNL A   1      40.046  21.103  26.066  1.00  0.00     0.293 HD
ENDBRANCH 102 106
BRANCH 103 108
ATOM    108  O   UNL A   1      38.965  24.464  26.713  1.00  0.00    -0.502 OA
ATOM    109  H   UNL A   1      39.828  24.588  26.369  1.00  0.00     0.293 HD
ENDBRANCH 103 108
ENDBRANCH  88  98
BRANCH  94 110
ATOM    110  O   UNL A   1      31.448  17.285  25.203  1.00  0.00    -0.507 OA
ATOM    111  H   UNL A   1      30.953  18.014  24.885  1.00  0.00     0.293 HD
ENDBRANCH  94 110
BRANCH  97 112
ATOM    112  O   UNL A   1      35.500  14.773  24.794  1.00  0.00    -0.508 OA
ATOM    113  H   UNL A   1      36.134  14.562  25.450  1.00  0.00     0.293 HD
ENDBRANCH  97 112
ENDBRANCH  86  87
ENDBRANCH  81  86
BRANCH  82 114
ATOM    114  O   UNL A   1      29.689  25.216  25.497  1.00  0.00    -0.387 OA
ATOM    115  H   UNL A   1      28.743  25.051  25.357  1.00  0.00     0.211 HD
ENDBRANCH  82 114
BRANCH  83 116
ATOM    116  O   UNL A   1      30.384  22.323  25.584  1.00  0.00    -0.384 OA
ATOM    117  H   UNL A   1      29.719  22.209  24.888  1.00  0.00     0.211 HD
ENDBRANCH  83 116
ENDBRANCH  75  78
ENDBRANCH  73  74
ENDBRANCH   1  73
TORSDOF 25
ENDMDL
