MODEL 1
REMARK VINA RESULT:     -10.8      0.000      0.000
REMARK SMILES CC[C@@H](Oc1ccc(Cl)c(Cl)c1)C(=O)NCCCCNC(=O)c1ccc(-c2c3nc(c(-c4cccc(S(=O)(=O)[O-])c4F)c4ccc([nH]4)c(-c4cccc(S(=O)(=O)[O-])c4F)c4nc(c(-c5cccc(S(=O)(=O)[O-])c5F)c5ccc2[nH]5)C=C4)C=C3)cc1
REMARK SMILES IDX 18 1 17 2 16 3 15 4 13 5 14 6 3 8 2 9 1 10 4 11 5 12 6 13
REMARK SMILES IDX 12 14 7 15 10 16 8 17 11 18 9 19 19 20 20 21 21 22 22 24
REMARK SMILES IDX 23 25 24 26 85 27 25 28 84 29 26 30 27 31 28 32 78 33 29 34
REMARK SMILES IDX 83 35 77 36 79 37 30 38 82 39 76 40 75 41 31 43 63 44 43 45
REMARK SMILES IDX 62 46 44 47 47 48 61 49 80 50 45 51 46 52 60 54 81 55 48 56
REMARK SMILES IDX 32 57 33 58 41 59 34 60 36 61 42 62 35 63 37 64 38 65 39 66
REMARK SMILES IDX 40 67 64 68 65 69 73 70 66 71 68 72 74 73 67 74 69 75 70 76
REMARK SMILES IDX 71 77 72 78 49 79 50 80 58 81 51 82 53 83 59 84 52 85 54 86
REMARK SMILES IDX 55 87 56 88 57 89
REMARK H PARENT 15 7 20 23 79 42 47 53
REMARK Flexibility Score: inf
ROOT
ATOM      1  C   UNL A   1      34.922  34.335  29.133  1.00  0.00     0.023 C 
ENDROOT
BRANCH   1   2
ATOM      2  C   UNL A   1      34.053  35.376  28.430  1.00  0.00     0.023 C 
BRANCH   2   3
ATOM      3  C   UNL A   1      33.764  36.625  29.256  1.00  0.00     0.116 C 
BRANCH   3   4
ATOM      4  N   UNL A   1      32.578  36.481  30.083  1.00  0.00    -0.353 N 
ATOM      5  C   UNL A   1      32.478  36.076  31.389  1.00  0.00     0.261 C 
ATOM      6  O   UNL A   1      31.365  36.076  31.921  1.00  0.00    -0.271 OA
ATOM      7  H   UNL A   1      31.727  36.706  29.644  1.00  0.00     0.163 HD
BRANCH   5   8
ATOM      8  C   UNL A   1      33.717  35.573  32.150  1.00  0.00     0.261 C 
BRANCH   8   9
ATOM      9  C   UNL A   1      34.010  36.548  33.307  1.00  0.00     0.052 C 
ATOM     10  C   UNL A   1      34.126  38.000  32.856  1.00  0.00     0.008 C 
ENDBRANCH   8   9
BRANCH   8  11
ATOM     11  O   UNL A   1      33.401  34.234  32.572  1.00  0.00    -0.481 OA
BRANCH  11  12
ATOM     12  C   UNL A   1      34.455  33.499  33.015  1.00  0.00     0.122 A 
ATOM     13  C   UNL A   1      34.972  32.482  32.215  1.00  0.00     0.048 A 
ATOM     14  C   UNL A   1      35.106  33.885  34.182  1.00  0.00     0.068 A 
ATOM     15  C   UNL A   1      36.097  31.776  32.633  1.00  0.00     0.026 A 
ATOM     16  C   UNL A   1      36.253  33.197  34.589  1.00  0.00     0.063 A 
ATOM     17  C   UNL A   1      36.739  32.128  33.823  1.00  0.00     0.059 A 
ATOM     18  Cl  UNL A   1      37.038  33.724  36.036  1.00  0.00    -0.083 Cl
ATOM     19  Cl  UNL A   1      38.132  31.215  34.279  1.00  0.00    -0.083 Cl
ENDBRANCH  11  12
ENDBRANCH   8  11
ENDBRANCH   5   8
ENDBRANCH   3   4
ENDBRANCH   2   3
ENDBRANCH   1   2
BRANCH   1  20
ATOM     20  C   UNL A   1      35.446  33.213  28.241  1.00  0.00     0.116 C 
BRANCH  20  21
ATOM     21  N   UNL A   1      34.422  32.244  27.872  1.00  0.00    -0.352 N 
ATOM     22  C   UNL A   1      34.520  30.876  27.780  1.00  0.00     0.251 C 
ATOM     23  H   UNL A   1      33.539  32.622  27.657  1.00  0.00     0.163 HD
ATOM     24  O   UNL A   1      33.578  30.223  27.336  1.00  0.00    -0.269 OA
BRANCH  22  25
ATOM     25  C   UNL A   1      35.771  30.199  28.184  1.00  0.00     0.039 A 
ATOM     26  C   UNL A   1      36.832  30.148  27.277  1.00  0.00     0.014 A 
ATOM     27  C   UNL A   1      35.909  29.647  29.460  1.00  0.00     0.014 A 
ATOM     28  C   UNL A   1      38.057  29.609  27.678  1.00  0.00     0.010 A 
ATOM     29  C   UNL A   1      37.152  29.181  29.881  1.00  0.00     0.010 A 
ATOM     30  C   UNL A   1      38.240  29.160  28.996  1.00  0.00    -0.014 A 
BRANCH  30  31
ATOM     31  C   UNL A   1      39.572  28.701  29.471  1.00  0.00     0.031 A 
ATOM     32  C   UNL A   1      40.293  29.445  30.563  1.00  0.00     0.074 A 
ATOM     33  C   UNL A   1      40.169  27.657  28.860  1.00  0.00     0.049 A 
ATOM     34  N   UNL A   1      41.471  29.207  31.080  1.00  0.00    -0.248 NA
ATOM     35  C   UNL A   1      39.617  30.622  31.133  1.00  0.00     0.031 C 
ATOM     36  C   UNL A   1      39.614  26.908  27.731  1.00  0.00     0.029 A 
ATOM     37  N   UNL A   1      41.385  27.060  29.086  1.00  0.00    -0.354 N 
ATOM     38  C   UNL A   1      41.690  30.216  32.011  1.00  0.00     0.074 A 
ATOM     39  C   UNL A   1      40.538  31.090  31.963  1.00  0.00     0.031 C 
ATOM     40  C   UNL A   1      40.481  25.950  27.368  1.00  0.00     0.029 A 
ATOM     41  C   UNL A   1      41.665  26.032  28.216  1.00  0.00     0.049 A 
ATOM     42  H   UNL A   1      41.998  27.343  29.802  1.00  0.00     0.167 HD
ATOM     43  C   UNL A   1      42.738  30.384  32.852  1.00  0.00     0.034 A 
ATOM     44  C   UNL A   1      42.756  25.248  28.108  1.00  0.00     0.034 A 
ATOM     45  C   UNL A   1      43.865  29.492  32.925  1.00  0.00     0.049 A 
ATOM     46  C   UNL A   1      43.889  25.434  29.081  1.00  0.00     0.074 A 
ATOM     47  C   UNL A   1      44.935  29.528  33.803  1.00  0.00     0.029 A 
ATOM     48  N   UNL A   1      44.075  28.410  32.085  1.00  0.00    -0.354 N 
ATOM     49  N   UNL A   1      43.999  26.291  30.067  1.00  0.00    -0.248 NA
ATOM     50  C   UNL A   1      45.032  24.518  28.952  1.00  0.00     0.031 C 
ATOM     51  C   UNL A   1      45.805  28.482  33.477  1.00  0.00     0.029 A 
ATOM     52  C   UNL A   1      45.261  27.776  32.416  1.00  0.00     0.049 A 
ATOM     53  H   UNL A   1      43.470  28.132  31.360  1.00  0.00     0.167 HD
ATOM     54  C   UNL A   1      45.202  25.996  30.696  1.00  0.00     0.074 A 
ATOM     55  C   UNL A   1      45.771  24.862  29.997  1.00  0.00     0.031 C 
ATOM     56  C   UNL A   1      45.793  26.618  31.746  1.00  0.00     0.034 A 
BRANCH  43  57
ATOM     57  C   UNL A   1      42.693  31.546  33.810  1.00  0.00     0.023 A 
ATOM     58  C   UNL A   1      43.176  32.804  33.397  1.00  0.00     0.012 A 
ATOM     59  C   UNL A   1      42.107  31.416  35.084  1.00  0.00     0.148 A 
ATOM     60  C   UNL A   1      43.106  33.908  34.246  1.00  0.00     0.002 A 
ATOM     61  C   UNL A   1      41.998  32.530  35.908  1.00  0.00     0.091 A 
ATOM     62  F   UNL A   1      41.670  30.208  35.467  1.00  0.00    -0.205 F 
ATOM     63  C   UNL A   1      42.507  33.773  35.495  1.00  0.00     0.022 A 
BRANCH  61  64
ATOM     64  S   UNL A   1      41.173  32.485  37.503  1.00  0.00     0.127 S 
ATOM     65  O   UNL A   1      39.857  31.962  37.138  1.00  0.00    -0.237 OA
ATOM     66  O   UNL A   1      42.012  31.554  38.256  1.00  0.00    -0.237 OA
ATOM     67  O   UNL A   1      41.182  33.853  38.001  1.00  0.00    -0.744 OA
ENDBRANCH  61  64
ENDBRANCH  43  57
BRANCH  44  68
ATOM     68  C   UNL A   1      42.808  24.174  27.076  1.00  0.00     0.023 A 
ATOM     69  C   UNL A   1      43.526  24.391  25.884  1.00  0.00     0.012 A 
ATOM     70  C   UNL A   1      42.161  22.937  27.270  1.00  0.00     0.148 A 
ATOM     71  C   UNL A   1      43.565  23.416  24.887  1.00  0.00     0.002 A 
ATOM     72  C   UNL A   1      42.252  21.948  26.299  1.00  0.00     0.091 A 
ATOM     73  F   UNL A   1      41.472  22.752  28.406  1.00  0.00    -0.205 F 
ATOM     74  C   UNL A   1      42.936  22.191  25.098  1.00  0.00     0.022 A 
BRANCH  72  75
ATOM     75  S   UNL A   1      41.590  20.297  26.546  1.00  0.00     0.127 S 
ATOM     76  O   UNL A   1      42.214  19.909  27.809  1.00  0.00    -0.237 OA
ATOM     77  O   UNL A   1      40.151  20.555  26.622  1.00  0.00    -0.237 OA
ATOM     78  O   UNL A   1      41.999  19.533  25.375  1.00  0.00    -0.744 OA
ENDBRANCH  72  75
ENDBRANCH  44  68
BRANCH  56  79
ATOM     79  C   UNL A   1      47.110  26.068  32.231  1.00  0.00     0.023 A 
ATOM     80  C   UNL A   1      47.142  25.195  33.337  1.00  0.00     0.012 A 
ATOM     81  C   UNL A   1      48.308  26.370  31.554  1.00  0.00     0.148 A 
ATOM     82  C   UNL A   1      48.351  24.664  33.785  1.00  0.00     0.002 A 
ATOM     83  C   UNL A   1      49.501  25.797  31.975  1.00  0.00     0.091 A 
ATOM     84  F   UNL A   1      48.260  27.218  30.515  1.00  0.00    -0.205 F 
ATOM     85  C   UNL A   1      49.528  24.956  33.099  1.00  0.00     0.022 A 
BRANCH  83  86
ATOM     86  S   UNL A   1      51.048  26.039  31.094  1.00  0.00     0.127 S 
ATOM     87  O   UNL A   1      51.322  27.450  31.355  1.00  0.00    -0.237 OA
ATOM     88  O   UNL A   1      51.945  25.106  31.781  1.00  0.00    -0.237 OA
ATOM     89  O   UNL A   1      50.775  25.699  29.704  1.00  0.00    -0.744 OA
ENDBRANCH  83  86
ENDBRANCH  56  79
ENDBRANCH  30  31
ENDBRANCH  22  25
ENDBRANCH  20  21
ENDBRANCH   1  20
TORSDOF 17
ENDMDL
MODEL 2
REMARK VINA RESULT:     -10.7      6.584     12.008
REMARK SMILES CC[C@@H](Oc1ccc(Cl)c(Cl)c1)C(=O)NCCCCNC(=O)c1ccc(-c2c3nc(c(-c4cccc(S(=O)(=O)[O-])c4F)c4ccc([nH]4)c(-c4cccc(S(=O)(=O)[O-])c4F)c4nc(c(-c5cccc(S(=O)(=O)[O-])c5F)c5ccc2[nH]5)C=C4)C=C3)cc1
REMARK SMILES IDX 18 1 17 2 16 3 15 4 13 5 14 6 3 8 2 9 1 10 4 11 5 12 6 13
REMARK SMILES IDX 12 14 7 15 10 16 8 17 11 18 9 19 19 20 20 21 21 22 22 24
REMARK SMILES IDX 23 25 24 26 85 27 25 28 84 29 26 30 27 31 28 32 78 33 29 34
REMARK SMILES IDX 83 35 77 36 79 37 30 38 82 39 76 40 75 41 31 43 63 44 43 45
REMARK SMILES IDX 62 46 44 47 47 48 61 49 80 50 45 51 46 52 60 54 81 55 48 56
REMARK SMILES IDX 32 57 33 58 41 59 34 60 36 61 42 62 35 63 37 64 38 65 39 66
REMARK SMILES IDX 40 67 64 68 65 69 73 70 66 71 68 72 74 73 67 74 69 75 70 76
REMARK SMILES IDX 71 77 72 78 49 79 50 80 58 81 51 82 53 83 59 84 52 85 54 86
REMARK SMILES IDX 55 87 56 88 57 89
REMARK H PARENT 15 7 20 23 79 42 47 53
REMARK Flexibility Score: inf
ROOT
ATOM      1  C   UNL A   1      36.802  21.758  24.158  1.00  0.00     0.023 C 
ENDROOT
BRANCH   1   2
ATOM      2  C   UNL A   1      36.203  22.984  23.472  1.00  0.00     0.023 C 
BRANCH   2   3
ATOM      3  C   UNL A   1      34.923  23.510  24.113  1.00  0.00     0.116 C 
BRANCH   3   4
ATOM      4  N   UNL A   1      33.735  23.137  23.366  1.00  0.00    -0.353 N 
ATOM      5  C   UNL A   1      32.732  22.269  23.712  1.00  0.00     0.261 C 
ATOM      6  O   UNL A   1      31.777  22.137  22.944  1.00  0.00    -0.271 OA
ATOM      7  H   UNL A   1      33.635  23.568  22.487  1.00  0.00     0.163 HD
BRANCH   5   8
ATOM      8  C   UNL A   1      32.830  21.433  25.001  1.00  0.00     0.261 C 
BRANCH   8   9
ATOM      9  C   UNL A   1      32.253  22.261  26.166  1.00  0.00     0.052 C 
ATOM     10  C   UNL A   1      30.812  22.703  25.935  1.00  0.00     0.008 C 
ENDBRANCH   8   9
BRANCH   8  11
ATOM     11  O   UNL A   1      32.114  20.214  24.732  1.00  0.00    -0.481 OA
BRANCH  11  12
ATOM     12  C   UNL A   1      32.866  19.082  24.747  1.00  0.00     0.122 A 
ATOM     13  C   UNL A   1      34.243  19.166  24.556  1.00  0.00     0.048 A 
ATOM     14  C   UNL A   1      32.273  17.881  25.122  1.00  0.00     0.068 A 
ATOM     15  C   UNL A   1      35.026  18.018  24.644  1.00  0.00     0.026 A 
ATOM     16  C   UNL A   1      33.061  16.733  25.240  1.00  0.00     0.063 A 
ATOM     17  C   UNL A   1      34.438  16.797  24.983  1.00  0.00     0.059 A 
ATOM     18  Cl  UNL A   1      32.284  15.267  25.726  1.00  0.00    -0.083 Cl
ATOM     19  Cl  UNL A   1      35.468  15.414  25.080  1.00  0.00    -0.083 Cl
ENDBRANCH  11  12
ENDBRANCH   8  11
ENDBRANCH   5   8
ENDBRANCH   3   4
ENDBRANCH   2   3
ENDBRANCH   1   2
BRANCH   1  20
ATOM     20  C   UNL A   1      37.455  22.019  25.511  1.00  0.00     0.116 C 
BRANCH  20  21
ATOM     21  N   UNL A   1      38.524  21.080  25.827  1.00  0.00    -0.352 N 
ATOM     22  C   UNL A   1      39.749  21.326  26.399  1.00  0.00     0.251 C 
ATOM     23  H   UNL A   1      38.344  20.140  25.597  1.00  0.00     0.163 HD
ATOM     24  O   UNL A   1      40.578  20.423  26.484  1.00  0.00    -0.269 OA
BRANCH  22  25
ATOM     25  C   UNL A   1      40.077  22.686  26.880  1.00  0.00     0.039 A 
ATOM     26  C   UNL A   1      40.931  22.824  27.977  1.00  0.00     0.014 A 
ATOM     27  C   UNL A   1      39.570  23.818  26.235  1.00  0.00     0.014 A 
ATOM     28  C   UNL A   1      41.338  24.099  28.378  1.00  0.00     0.010 A 
ATOM     29  C   UNL A   1      40.037  25.081  26.589  1.00  0.00     0.010 A 
ATOM     30  C   UNL A   1      40.928  25.235  27.662  1.00  0.00    -0.014 A 
BRANCH  30  31
ATOM     31  C   UNL A   1      41.452  26.585  28.000  1.00  0.00     0.031 A 
ATOM     32  C   UNL A   1      42.886  26.943  27.716  1.00  0.00     0.074 A 
ATOM     33  C   UNL A   1      40.653  27.464  28.639  1.00  0.00     0.049 A 
ATOM     34  N   UNL A   1      43.521  28.058  27.971  1.00  0.00    -0.248 NA
ATOM     35  C   UNL A   1      43.724  25.909  27.086  1.00  0.00     0.031 C 
ATOM     36  C   UNL A   1      39.270  27.206  29.050  1.00  0.00     0.029 A 
ATOM     37  N   UNL A   1      40.894  28.743  29.077  1.00  0.00    -0.354 N 
ATOM     38  C   UNL A   1      44.833  27.852  27.563  1.00  0.00     0.074 A 
ATOM     39  C   UNL A   1      44.914  26.492  27.076  1.00  0.00     0.031 C 
ATOM     40  C   UNL A   1      38.786  28.293  29.672  1.00  0.00     0.029 A 
ATOM     41  C   UNL A   1      39.827  29.313  29.732  1.00  0.00     0.049 A 
ATOM     42  H   UNL A   1      41.751  29.207  28.936  1.00  0.00     0.167 HD
ATOM     43  C   UNL A   1      45.871  28.722  27.563  1.00  0.00     0.034 A 
ATOM     44  C   UNL A   1      39.702  30.519  30.321  1.00  0.00     0.034 A 
ATOM     45  C   UNL A   1      45.779  30.086  28.012  1.00  0.00     0.049 A 
ATOM     46  C   UNL A   1      40.861  31.479  30.272  1.00  0.00     0.074 A 
ATOM     47  C   UNL A   1      46.750  31.072  27.972  1.00  0.00     0.029 A 
ATOM     48  N   UNL A   1      44.657  30.656  28.592  1.00  0.00    -0.354 N 
ATOM     49  N   UNL A   1      42.042  31.321  29.727  1.00  0.00    -0.248 NA
ATOM     50  C   UNL A   1      40.654  32.800  30.884  1.00  0.00     0.031 C 
ATOM     51  C   UNL A   1      46.223  32.231  28.551  1.00  0.00     0.029 A 
ATOM     52  C   UNL A   1      44.913  31.976  28.923  1.00  0.00     0.049 A 
ATOM     53  H   UNL A   1      43.803  30.191  28.745  1.00  0.00     0.167 HD
ATOM     54  C   UNL A   1      42.706  32.529  29.899  1.00  0.00     0.074 A 
ATOM     55  C   UNL A   1      41.784  33.419  30.574  1.00  0.00     0.031 C 
ATOM     56  C   UNL A   1      43.971  32.868  29.548  1.00  0.00     0.034 A 
BRANCH  43  57
ATOM     57  C   UNL A   1      47.188  28.249  27.004  1.00  0.00     0.023 A 
ATOM     58  C   UNL A   1      48.251  27.963  27.884  1.00  0.00     0.012 A 
ATOM     59  C   UNL A   1      47.350  28.014  25.625  1.00  0.00     0.148 A 
ATOM     60  C   UNL A   1      49.466  27.480  27.399  1.00  0.00     0.002 A 
ATOM     61  C   UNL A   1      48.549  27.490  25.153  1.00  0.00     0.091 A 
ATOM     62  F   UNL A   1      46.335  28.310  24.801  1.00  0.00    -0.205 F 
ATOM     63  C   UNL A   1      49.610  27.233  26.037  1.00  0.00     0.022 A 
BRANCH  61  64
ATOM     64  S   UNL A   1      48.810  27.059  23.429  1.00  0.00     0.127 S 
ATOM     65  O   UNL A   1      48.368  28.276  22.751  1.00  0.00    -0.237 OA
ATOM     66  O   UNL A   1      50.254  26.828  23.386  1.00  0.00    -0.237 OA
ATOM     67  O   UNL A   1      47.996  25.878  23.180  1.00  0.00    -0.744 OA
ENDBRANCH  61  64
ENDBRANCH  43  57
BRANCH  44  68
ATOM     68  C   UNL A   1      38.414  30.912  30.958  1.00  0.00     0.023 A 
ATOM     69  C   UNL A   1      38.195  30.622  32.319  1.00  0.00     0.012 A 
ATOM     70  C   UNL A   1      37.409  31.580  30.230  1.00  0.00     0.148 A 
ATOM     71  C   UNL A   1      36.986  30.950  32.932  1.00  0.00     0.002 A 
ATOM     72  C   UNL A   1      36.230  31.957  30.862  1.00  0.00     0.091 A 
ATOM     73  F   UNL A   1      37.630  31.838  28.933  1.00  0.00    -0.205 F 
ATOM     74  C   UNL A   1      36.007  31.625  32.207  1.00  0.00     0.022 A 
BRANCH  72  75
ATOM     75  S   UNL A   1      34.976  32.947  30.042  1.00  0.00     0.127 S 
ATOM     76  O   UNL A   1      34.051  33.225  31.138  1.00  0.00    -0.237 OA
ATOM     77  O   UNL A   1      35.753  34.100  29.582  1.00  0.00    -0.237 OA
ATOM     78  O   UNL A   1      34.458  32.110  28.969  1.00  0.00    -0.744 OA
ENDBRANCH  72  75
ENDBRANCH  44  68
BRANCH  56  79
ATOM     79  C   UNL A   1      44.427  34.272  29.853  1.00  0.00     0.023 A 
ATOM     80  C   UNL A   1      45.093  34.546  31.064  1.00  0.00     0.012 A 
ATOM     81  C   UNL A   1      44.249  35.306  28.912  1.00  0.00     0.148 A 
ATOM     82  C   UNL A   1      45.537  35.836  31.352  1.00  0.00     0.002 A 
ATOM     83  C   UNL A   1      44.740  36.577  29.184  1.00  0.00     0.091 A 
ATOM     84  F   UNL A   1      43.597  35.029  27.772  1.00  0.00    -0.205 F 
ATOM     85  C   UNL A   1      45.370  36.848  30.408  1.00  0.00     0.022 A 
BRANCH  83  86
ATOM     86  S   UNL A   1      44.657  37.916  27.989  1.00  0.00     0.127 S 
ATOM     87  O   UNL A   1      43.214  38.089  27.835  1.00  0.00    -0.237 OA
ATOM     88  O   UNL A   1      45.330  39.006  28.698  1.00  0.00    -0.237 OA
ATOM     89  O   UNL A   1      45.362  37.441  26.806  1.00  0.00    -0.744 OA
ENDBRANCH  83  86
ENDBRANCH  56  79
ENDBRANCH  30  31
ENDBRANCH  22  25
ENDBRANCH  20  21
ENDBRANCH   1  20
TORSDOF 17
ENDMDL
MODEL 3
REMARK VINA RESULT:     -10.6      5.570     10.925
REMARK SMILES CC[C@@H](Oc1ccc(Cl)c(Cl)c1)C(=O)NCCCCNC(=O)c1ccc(-c2c3nc(c(-c4cccc(S(=O)(=O)[O-])c4F)c4ccc([nH]4)c(-c4cccc(S(=O)(=O)[O-])c4F)c4nc(c(-c5cccc(S(=O)(=O)[O-])c5F)c5ccc2[nH]5)C=C4)C=C3)cc1
REMARK SMILES IDX 18 1 17 2 16 3 15 4 13 5 14 6 3 8 2 9 1 10 4 11 5 12 6 13
REMARK SMILES IDX 12 14 7 15 10 16 8 17 11 18 9 19 19 20 20 21 21 22 22 24
REMARK SMILES IDX 23 25 24 26 85 27 25 28 84 29 26 30 27 31 28 32 78 33 29 34
REMARK SMILES IDX 83 35 77 36 79 37 30 38 82 39 76 40 75 41 31 43 63 44 43 45
REMARK SMILES IDX 62 46 44 47 47 48 61 49 80 50 45 51 46 52 60 54 81 55 48 56
REMARK SMILES IDX 32 57 33 58 41 59 34 60 36 61 42 62 35 63 37 64 38 65 39 66
REMARK SMILES IDX 40 67 64 68 65 69 73 70 66 71 68 72 74 73 67 74 69 75 70 76
REMARK SMILES IDX 71 77 72 78 49 79 50 80 58 81 51 82 53 83 59 84 52 85 54 86
REMARK SMILES IDX 55 87 56 88 57 89
REMARK H PARENT 15 7 20 23 79 42 47 53
REMARK Flexibility Score: inf
ROOT
ATOM      1  C   UNL A   1      35.911  21.497  25.325  1.00  0.00     0.023 C 
ENDROOT
BRANCH   1   2
ATOM      2  C   UNL A   1      35.072  20.277  24.954  1.00  0.00     0.023 C 
BRANCH   2   3
ATOM      3  C   UNL A   1      33.620  20.337  25.415  1.00  0.00     0.116 C 
BRANCH   3   4
ATOM      4  N   UNL A   1      33.488  20.863  26.763  1.00  0.00    -0.353 N 
ATOM      5  C   UNL A   1      33.073  22.104  27.171  1.00  0.00     0.261 C 
ATOM      6  O   UNL A   1      32.983  22.326  28.381  1.00  0.00    -0.271 OA
ATOM      7  H   UNL A   1      33.730  20.240  27.485  1.00  0.00     0.163 HD
BRANCH   5   8
ATOM      8  C   UNL A   1      32.788  23.212  26.142  1.00  0.00     0.261 C 
BRANCH   8   9
ATOM      9  C   UNL A   1      31.290  23.568  26.207  1.00  0.00     0.052 C 
ATOM     10  C   UNL A   1      30.643  23.703  24.833  1.00  0.00     0.008 C 
ENDBRANCH   8   9
BRANCH   8  11
ATOM     11  O   UNL A   1      33.668  24.298  26.483  1.00  0.00    -0.481 OA
BRANCH  11  12
ATOM     12  C   UNL A   1      33.756  25.289  25.557  1.00  0.00     0.122 A 
ATOM     13  C   UNL A   1      33.994  24.968  24.222  1.00  0.00     0.048 A 
ATOM     14  C   UNL A   1      33.437  26.592  25.927  1.00  0.00     0.068 A 
ATOM     15  C   UNL A   1      34.010  25.974  23.260  1.00  0.00     0.026 A 
ATOM     16  C   UNL A   1      33.425  27.599  24.959  1.00  0.00     0.063 A 
ATOM     17  C   UNL A   1      33.730  27.293  23.625  1.00  0.00     0.059 A 
ATOM     18  Cl  UNL A   1      33.005  29.198  25.464  1.00  0.00    -0.083 Cl
ATOM     19  Cl  UNL A   1      33.762  28.490  22.380  1.00  0.00    -0.083 Cl
ENDBRANCH  11  12
ENDBRANCH   8  11
ENDBRANCH   5   8
ENDBRANCH   3   4
ENDBRANCH   2   3
ENDBRANCH   1   2
BRANCH   1  20
ATOM     20  C   UNL A   1      37.312  21.536  24.722  1.00  0.00     0.116 C 
BRANCH  20  21
ATOM     21  N   UNL A   1      38.182  20.477  25.219  1.00  0.00    -0.352 N 
ATOM     22  C   UNL A   1      39.329  20.582  25.969  1.00  0.00     0.251 C 
ATOM     23  H   UNL A   1      37.911  19.560  24.983  1.00  0.00     0.163 HD
ATOM     24  O   UNL A   1      40.003  19.582  26.200  1.00  0.00    -0.269 OA
BRANCH  22  25
ATOM     25  C   UNL A   1      39.763  21.906  26.467  1.00  0.00     0.039 A 
ATOM     26  C   UNL A   1      40.848  21.972  27.345  1.00  0.00     0.014 A 
ATOM     27  C   UNL A   1      39.126  23.076  26.047  1.00  0.00     0.014 A 
ATOM     28  C   UNL A   1      41.340  23.217  27.741  1.00  0.00     0.010 A 
ATOM     29  C   UNL A   1      39.666  24.315  26.381  1.00  0.00     0.010 A 
ATOM     30  C   UNL A   1      40.780  24.400  27.229  1.00  0.00    -0.014 A 
BRANCH  30  31
ATOM     31  C   UNL A   1      41.373  25.726  27.542  1.00  0.00     0.031 A 
ATOM     32  C   UNL A   1      42.794  26.041  27.156  1.00  0.00     0.074 A 
ATOM     33  C   UNL A   1      40.654  26.622  28.249  1.00  0.00     0.049 A 
ATOM     34  N   UNL A   1      43.483  27.131  27.376  1.00  0.00    -0.248 NA
ATOM     35  C   UNL A   1      43.547  24.989  26.454  1.00  0.00     0.031 C 
ATOM     36  C   UNL A   1      39.298  26.404  28.760  1.00  0.00     0.029 A 
ATOM     37  N   UNL A   1      40.970  27.886  28.683  1.00  0.00    -0.354 N 
ATOM     38  C   UNL A   1      44.753  26.888  26.869  1.00  0.00     0.074 A 
ATOM     39  C   UNL A   1      44.752  25.533  26.361  1.00  0.00     0.031 C 
ATOM     40  C   UNL A   1      38.898  27.497  29.429  1.00  0.00     0.029 A 
ATOM     41  C   UNL A   1      39.974  28.482  29.423  1.00  0.00     0.049 A 
ATOM     42  H   UNL A   1      41.829  28.324  28.484  1.00  0.00     0.167 HD
ATOM     43  C   UNL A   1      45.817  27.724  26.801  1.00  0.00     0.034 A 
ATOM     44  C   UNL A   1      39.934  29.683  30.033  1.00  0.00     0.034 A 
ATOM     45  C   UNL A   1      45.805  29.084  27.271  1.00  0.00     0.049 A 
ATOM     46  C   UNL A   1      41.117  30.605  29.908  1.00  0.00     0.074 A 
ATOM     47  C   UNL A   1      46.803  30.038  27.170  1.00  0.00     0.029 A 
ATOM     48  N   UNL A   1      44.748  29.682  27.940  1.00  0.00    -0.354 N 
ATOM     49  N   UNL A   1      42.249  30.416  29.275  1.00  0.00    -0.248 NA
ATOM     50  C   UNL A   1      41.001  31.924  30.549  1.00  0.00     0.031 C 
ATOM     51  C   UNL A   1      46.359  31.205  27.800  1.00  0.00     0.029 A 
ATOM     52  C   UNL A   1      45.072  30.989  28.266  1.00  0.00     0.049 A 
ATOM     53  H   UNL A   1      43.892  29.243  28.151  1.00  0.00     0.167 HD
ATOM     54  C   UNL A   1      42.964  31.600  29.410  1.00  0.00     0.074 A 
ATOM     55  C   UNL A   1      42.125  32.510  30.162  1.00  0.00     0.031 C 
ATOM     56  C   UNL A   1      44.209  31.902  28.969  1.00  0.00     0.034 A 
BRANCH  43  57
ATOM     57  C   UNL A   1      47.072  27.216  26.140  1.00  0.00     0.023 A 
ATOM     58  C   UNL A   1      47.278  27.456  24.766  1.00  0.00     0.012 A 
ATOM     59  C   UNL A   1      48.076  26.570  26.886  1.00  0.00     0.148 A 
ATOM     60  C   UNL A   1      48.450  27.037  24.138  1.00  0.00     0.002 A 
ATOM     61  C   UNL A   1      49.262  26.195  26.264  1.00  0.00     0.091 A 
ATOM     62  F   UNL A   1      47.854  26.332  28.187  1.00  0.00    -0.205 F 
ATOM     63  C   UNL A   1      49.445  26.418  24.889  1.00  0.00     0.022 A 
BRANCH  61  64
ATOM     64  S   UNL A   1      50.640  25.464  27.155  1.00  0.00     0.127 S 
ATOM     65  O   UNL A   1      50.018  24.272  27.731  1.00  0.00    -0.237 OA
ATOM     66  O   UNL A   1      51.592  25.195  26.079  1.00  0.00    -0.237 OA
ATOM     67  O   UNL A   1      51.074  26.466  28.118  1.00  0.00    -0.744 OA
ENDBRANCH  61  64
ENDBRANCH  43  57
BRANCH  44  68
ATOM     68  C   UNL A   1      38.710  30.110  30.768  1.00  0.00     0.023 A 
ATOM     69  C   UNL A   1      38.556  29.756  32.123  1.00  0.00     0.012 A 
ATOM     70  C   UNL A   1      37.704  30.869  30.140  1.00  0.00     0.148 A 
ATOM     71  C   UNL A   1      37.407  30.115  32.827  1.00  0.00     0.002 A 
ATOM     72  C   UNL A   1      36.588  31.274  30.863  1.00  0.00     0.091 A 
ATOM     73  F   UNL A   1      37.861  31.186  28.847  1.00  0.00    -0.205 F 
ATOM     74  C   UNL A   1      36.427  30.881  32.201  1.00  0.00     0.022 A 
BRANCH  72  75
ATOM     75  S   UNL A   1      35.346  32.374  30.176  1.00  0.00     0.127 S 
ATOM     76  O   UNL A   1      34.398  32.484  31.282  1.00  0.00    -0.237 OA
ATOM     77  O   UNL A   1      36.126  33.583  29.909  1.00  0.00    -0.237 OA
ATOM     78  O   UNL A   1      34.852  31.706  28.980  1.00  0.00    -0.744 OA
ENDBRANCH  72  75
ENDBRANCH  44  68
BRANCH  56  79
ATOM     79  C   UNL A   1      44.734  33.286  29.255  1.00  0.00     0.023 A 
ATOM     80  C   UNL A   1      45.408  33.546  30.465  1.00  0.00     0.012 A 
ATOM     81  C   UNL A   1      44.611  34.313  28.298  1.00  0.00     0.148 A 
ATOM     82  C   UNL A   1      45.914  34.816  30.735  1.00  0.00     0.002 A 
ATOM     83  C   UNL A   1      45.164  35.562  28.553  1.00  0.00     0.091 A 
ATOM     84  F   UNL A   1      43.951  34.052  27.159  1.00  0.00    -0.205 F 
ATOM     85  C   UNL A   1      45.803  35.820  29.776  1.00  0.00     0.022 A 
BRANCH  83  86
ATOM     86  S   UNL A   1      45.153  36.885  27.337  1.00  0.00     0.127 S 
ATOM     87  O   UNL A   1      45.780  37.976  28.079  1.00  0.00    -0.237 OA
ATOM     88  O   UNL A   1      45.976  36.325  26.263  1.00  0.00    -0.237 OA
ATOM     89  O   UNL A   1      43.755  37.091  26.982  1.00  0.00    -0.744 OA
ENDBRANCH  83  86
ENDBRANCH  56  79
ENDBRANCH  30  31
ENDBRANCH  22  25
ENDBRANCH  20  21
ENDBRANCH   1  20
TORSDOF 17
ENDMDL
