MODEL 1
REMARK VINA RESULT:     -11.4      0.000      0.000
REMARK SMILES CC(C)(C[N@H+]1C[C@@H]2C[NH2+]C[C@H]2C1(C)C)C(=O)NCCCCNC(=O)c1ccc(-c2c3nc(c(-c4cccc(S(=O)(=O)[O-])c4F)c4ccc([nH]4)c(-c4cccc(S(=O)(=O)[O-])c4F)c4nc(c(-c5cccc(S(=O)(=O)[O-])c5F)c5ccc2[nH]5)C=C4)C=C3)cc1
REMARK SMILES IDX 20 1 19 2 18 3 17 4 15 5 16 6 2 8 1 9 3 10 4 11 5 12 6 13
REMARK SMILES IDX 12 14 7 16 11 17 13 18 14 19 8 20 10 21 9 22 21 25 22 26
REMARK SMILES IDX 23 27 24 29 25 30 26 31 87 32 27 33 86 34 28 35 29 36 30 37
REMARK SMILES IDX 80 38 31 39 85 40 79 41 81 42 32 43 84 44 78 45 77 46 33 48
REMARK SMILES IDX 65 49 45 50 64 51 46 52 49 53 63 54 82 55 47 56 48 57 62 59
REMARK SMILES IDX 83 60 50 61 34 62 35 63 43 64 36 65 38 66 44 67 37 68 39 69
REMARK SMILES IDX 40 70 41 71 42 72 66 73 67 74 75 75 68 76 70 77 76 78 69 79
REMARK SMILES IDX 71 80 72 81 73 82 74 83 51 84 52 85 60 86 53 87 55 88 61 89
REMARK SMILES IDX 54 90 56 91 57 92 58 93 59 94
REMARK H PARENT 17 7 5 15 9 23 9 24 22 28 81 47 49 58
REMARK Flexibility Score: inf
ROOT
ATOM      1  C   UNL A   1      33.136  28.191  27.195  1.00  0.00     0.023 C 
ENDROOT
BRANCH   1   2
ATOM      2  C   UNL A   1      31.765  27.927  26.580  1.00  0.00     0.023 C 
BRANCH   2   3
ATOM      3  C   UNL A   1      31.586  26.591  25.853  1.00  0.00     0.116 C 
BRANCH   3   4
ATOM      4  N   UNL A   1      30.633  25.666  26.441  1.00  0.00    -0.355 N 
ATOM      5  C   UNL A   1      30.515  24.311  26.462  1.00  0.00     0.231 C 
ATOM      6  O   UNL A   1      29.666  23.878  27.250  1.00  0.00    -0.274 OA
ATOM      7  H   UNL A   1      29.913  26.120  26.933  1.00  0.00     0.163 HD
BRANCH   5   8
ATOM      8  C   UNL A   1      31.353  23.346  25.603  1.00  0.00     0.092 C 
ATOM      9  C   UNL A   1      31.094  23.668  24.108  1.00  0.00     0.027 C 
ATOM     10  C   UNL A   1      30.785  21.908  25.743  1.00  0.00     0.027 C 
BRANCH   8  11
ATOM     11  C   UNL A   1      32.890  23.358  25.961  1.00  0.00     0.279 C 
BRANCH  11  12
ATOM     12  N   UNL A   1      34.020  23.674  25.064  1.00  0.00    -0.329 N 
ATOM     13  C   UNL A   1      35.095  24.554  25.562  1.00  0.00     0.272 C 
ATOM     14  C   UNL A   1      34.660  22.628  24.194  1.00  0.00     0.101 C 
ATOM     15  H   UNL A   1      33.379  24.190  24.460  1.00  0.00     0.348 HD
ATOM     16  C   UNL A   1      36.192  23.547  25.742  1.00  0.00     0.114 C 
ATOM     17  C   UNL A   1      36.160  22.862  24.397  1.00  0.00     0.119 C 
ATOM     18  C   UNL A   1      34.300  21.178  24.431  1.00  0.00     0.079 C 
ATOM     19  C   UNL A   1      34.259  22.953  22.740  1.00  0.00     0.079 C 
ATOM     20  C   UNL A   1      37.659  23.835  25.873  1.00  0.00     0.270 C 
ATOM     21  C   UNL A   1      37.231  21.820  24.624  1.00  0.00     0.271 C 
ATOM     22  N   UNL A   1      38.267  22.568  25.389  1.00  0.00    -0.345 N 
ATOM     23  H   UNL A   1      38.580  22.010  26.183  1.00  0.00     0.346 HD
ATOM     24  H   UNL A   1      39.071  22.768  24.795  1.00  0.00     0.346 HD
ENDBRANCH  11  12
ENDBRANCH   8  11
ENDBRANCH   5   8
ENDBRANCH   3   4
ENDBRANCH   2   3
ENDBRANCH   1   2
BRANCH   1  25
ATOM     25  C   UNL A   1      34.030  29.052  26.317  1.00  0.00     0.116 C 
BRANCH  25  26
ATOM     26  N   UNL A   1      33.964  30.451  26.724  1.00  0.00    -0.352 N 
ATOM     27  C   UNL A   1      34.636  31.089  27.732  1.00  0.00     0.251 C 
ATOM     28  H   UNL A   1      33.350  31.015  26.201  1.00  0.00     0.163 HD
ATOM     29  O   UNL A   1      34.210  32.159  28.171  1.00  0.00    -0.269 OA
BRANCH  27  30
ATOM     30  C   UNL A   1      35.880  30.504  28.264  1.00  0.00     0.039 A 
ATOM     31  C   UNL A   1      35.848  29.748  29.438  1.00  0.00     0.014 A 
ATOM     32  C   UNL A   1      37.092  30.739  27.608  1.00  0.00     0.014 A 
ATOM     33  C   UNL A   1      37.031  29.198  29.933  1.00  0.00     0.010 A 
ATOM     34  C   UNL A   1      38.244  30.109  28.042  1.00  0.00     0.010 A 
ATOM     35  C   UNL A   1      38.234  29.361  29.226  1.00  0.00    -0.014 A 
BRANCH  35  36
ATOM     36  C   UNL A   1      39.512  28.793  29.712  1.00  0.00     0.031 A 
ATOM     37  C   UNL A   1      40.246  29.474  30.837  1.00  0.00     0.074 A 
ATOM     38  C   UNL A   1      40.061  27.747  29.066  1.00  0.00     0.049 A 
ATOM     39  N   UNL A   1      41.423  29.206  31.336  1.00  0.00    -0.248 NA
ATOM     40  C   UNL A   1      39.588  30.641  31.454  1.00  0.00     0.031 C 
ATOM     41  C   UNL A   1      39.483  27.073  27.901  1.00  0.00     0.029 A 
ATOM     42  N   UNL A   1      41.246  27.091  29.275  1.00  0.00    -0.354 N 
ATOM     43  C   UNL A   1      41.667  30.196  32.281  1.00  0.00     0.074 A 
ATOM     44  C   UNL A   1      40.536  31.094  32.259  1.00  0.00     0.031 C 
ATOM     45  C   UNL A   1      40.311  26.094  27.502  1.00  0.00     0.029 A 
ATOM     46  C   UNL A   1      41.489  26.091  28.363  1.00  0.00     0.049 A 
ATOM     47  H   UNL A   1      41.864  27.313  30.008  1.00  0.00     0.167 HD
ATOM     48  C   UNL A   1      42.723  30.323  33.118  1.00  0.00     0.034 A 
ATOM     49  C   UNL A   1      42.547  25.267  28.237  1.00  0.00     0.034 A 
ATOM     50  C   UNL A   1      43.806  29.383  33.176  1.00  0.00     0.049 A 
ATOM     51  C   UNL A   1      43.668  25.377  29.233  1.00  0.00     0.074 A 
ATOM     52  C   UNL A   1      44.872  29.348  34.056  1.00  0.00     0.029 A 
ATOM     53  N   UNL A   1      43.961  28.306  32.315  1.00  0.00    -0.354 N 
ATOM     54  N   UNL A   1      43.804  26.218  30.231  1.00  0.00    -0.248 NA
ATOM     55  C   UNL A   1      44.760  24.401  29.116  1.00  0.00     0.031 C 
ATOM     56  C   UNL A   1      45.680  28.257  33.717  1.00  0.00     0.029 A 
ATOM     57  C   UNL A   1      45.104  27.600  32.641  1.00  0.00     0.049 A 
ATOM     58  H   UNL A   1      43.346  28.078  31.581  1.00  0.00     0.167 HD
ATOM     59  C   UNL A   1      44.976  25.850  30.882  1.00  0.00     0.074 A 
ATOM     60  C   UNL A   1      45.500  24.698  30.176  1.00  0.00     0.031 C 
ATOM     61  C   UNL A   1      45.574  26.422  31.957  1.00  0.00     0.034 A 
BRANCH  48  62
ATOM     62  C   UNL A   1      42.718  31.483  34.081  1.00  0.00     0.023 A 
ATOM     63  C   UNL A   1      43.338  32.695  33.713  1.00  0.00     0.012 A 
ATOM     64  C   UNL A   1      42.067  31.393  35.327  1.00  0.00     0.148 A 
ATOM     65  C   UNL A   1      43.350  33.783  34.585  1.00  0.00     0.002 A 
ATOM     66  C   UNL A   1      42.042  32.498  36.171  1.00  0.00     0.091 A 
ATOM     67  F   UNL A   1      41.502  30.227  35.672  1.00  0.00    -0.205 F 
ATOM     68  C   UNL A   1      42.694  33.688  35.808  1.00  0.00     0.022 A 
BRANCH  66  69
ATOM     69  S   UNL A   1      41.154  32.504  37.733  1.00  0.00     0.127 S 
ATOM     70  O   UNL A   1      39.848  31.984  37.333  1.00  0.00    -0.237 OA
ATOM     71  O   UNL A   1      41.954  31.585  38.545  1.00  0.00    -0.237 OA
ATOM     72  O   UNL A   1      41.165  33.885  38.194  1.00  0.00    -0.744 OA
ENDBRANCH  66  69
ENDBRANCH  48  62
BRANCH  49  73
ATOM     73  C   UNL A   1      42.544  24.214  27.182  1.00  0.00     0.023 A 
ATOM     74  C   UNL A   1      43.178  24.475  25.951  1.00  0.00     0.012 A 
ATOM     75  C   UNL A   1      41.969  22.948  27.404  1.00  0.00     0.148 A 
ATOM     76  C   UNL A   1      43.213  23.504  24.949  1.00  0.00     0.002 A 
ATOM     77  C   UNL A   1      42.054  21.968  26.422  1.00  0.00     0.091 A 
ATOM     78  F   UNL A   1      41.365  22.722  28.579  1.00  0.00    -0.205 F 
ATOM     79  C   UNL A   1      42.661  22.248  25.188  1.00  0.00     0.022 A 
BRANCH  77  80
ATOM     80  S   UNL A   1      41.493  20.282  26.692  1.00  0.00     0.127 S 
ATOM     81  O   UNL A   1      40.041  20.449  26.698  1.00  0.00    -0.237 OA
ATOM     82  O   UNL A   1      42.028  19.593  25.516  1.00  0.00    -0.237 OA
ATOM     83  O   UNL A   1      42.090  19.867  27.952  1.00  0.00    -0.744 OA
ENDBRANCH  77  80
ENDBRANCH  49  73
BRANCH  61  84
ATOM     84  C   UNL A   1      46.843  25.792  32.463  1.00  0.00     0.023 A 
ATOM     85  C   UNL A   1      48.088  26.262  32.005  1.00  0.00     0.012 A 
ATOM     86  C   UNL A   1      46.799  24.797  33.458  1.00  0.00     0.148 A 
ATOM     87  C   UNL A   1      49.273  25.729  32.509  1.00  0.00     0.002 A 
ATOM     88  C   UNL A   1      47.983  24.305  33.991  1.00  0.00     0.091 A 
ATOM     89  F   UNL A   1      45.601  24.351  33.866  1.00  0.00    -0.205 F 
ATOM     90  C   UNL A   1      49.221  24.761  33.510  1.00  0.00     0.022 A 
BRANCH  88  91
ATOM     91  S   UNL A   1      48.010  23.132  35.351  1.00  0.00     0.127 S 
ATOM     92  O   UNL A   1      49.326  23.382  35.935  1.00  0.00    -0.237 OA
ATOM     93  O   UNL A   1      46.885  23.583  36.172  1.00  0.00    -0.237 OA
ATOM     94  O   UNL A   1      47.829  21.818  34.751  1.00  0.00    -0.744 OA
ENDBRANCH  88  91
ENDBRANCH  61  84
ENDBRANCH  35  36
ENDBRANCH  27  30
ENDBRANCH  25  26
ENDBRANCH   1  25
TORSDOF 16
ENDMDL
MODEL 2
REMARK VINA RESULT:     -11.3      1.287      1.626
REMARK SMILES CC(C)(C[N@H+]1C[C@@H]2C[NH2+]C[C@H]2C1(C)C)C(=O)NCCCCNC(=O)c1ccc(-c2c3nc(c(-c4cccc(S(=O)(=O)[O-])c4F)c4ccc([nH]4)c(-c4cccc(S(=O)(=O)[O-])c4F)c4nc(c(-c5cccc(S(=O)(=O)[O-])c5F)c5ccc2[nH]5)C=C4)C=C3)cc1
REMARK SMILES IDX 20 1 19 2 18 3 17 4 15 5 16 6 2 8 1 9 3 10 4 11 5 12 6 13
REMARK SMILES IDX 12 14 7 16 11 17 13 18 14 19 8 20 10 21 9 22 21 25 22 26
REMARK SMILES IDX 23 27 24 29 25 30 26 31 87 32 27 33 86 34 28 35 29 36 30 37
REMARK SMILES IDX 80 38 31 39 85 40 79 41 81 42 32 43 84 44 78 45 77 46 33 48
REMARK SMILES IDX 65 49 45 50 64 51 46 52 49 53 63 54 82 55 47 56 48 57 62 59
REMARK SMILES IDX 83 60 50 61 34 62 35 63 43 64 36 65 38 66 44 67 37 68 39 69
REMARK SMILES IDX 40 70 41 71 42 72 66 73 67 74 75 75 68 76 70 77 76 78 69 79
REMARK SMILES IDX 71 80 72 81 73 82 74 83 51 84 52 85 60 86 53 87 55 88 61 89
REMARK SMILES IDX 54 90 56 91 57 92 58 93 59 94
REMARK H PARENT 17 7 5 15 9 23 9 24 22 28 81 47 49 58
REMARK Flexibility Score: inf
ROOT
ATOM      1  C   UNL A   1      32.686  28.500  25.726  1.00  0.00     0.023 C 
ENDROOT
BRANCH   1   2
ATOM      2  C   UNL A   1      32.353  27.024  25.921  1.00  0.00     0.023 C 
BRANCH   2   3
ATOM      3  C   UNL A   1      30.969  26.566  25.453  1.00  0.00     0.116 C 
BRANCH   3   4
ATOM      4  N   UNL A   1      30.335  25.530  26.249  1.00  0.00    -0.355 N 
ATOM      5  C   UNL A   1      30.548  24.197  26.415  1.00  0.00     0.231 C 
ATOM      6  O   UNL A   1      29.918  23.684  27.348  1.00  0.00    -0.274 OA
ATOM      7  H   UNL A   1      29.584  25.867  26.787  1.00  0.00     0.163 HD
BRANCH   5   8
ATOM      8  C   UNL A   1      31.495  23.347  25.548  1.00  0.00     0.092 C 
ATOM      9  C   UNL A   1      31.246  23.701  24.059  1.00  0.00     0.027 C 
ATOM     10  C   UNL A   1      31.061  21.858  25.620  1.00  0.00     0.027 C 
BRANCH   8  11
ATOM     11  C   UNL A   1      33.014  23.487  25.952  1.00  0.00     0.279 C 
BRANCH  11  12
ATOM     12  N   UNL A   1      34.158  23.774  25.064  1.00  0.00    -0.329 N 
ATOM     13  C   UNL A   1      35.235  24.656  25.557  1.00  0.00     0.272 C 
ATOM     14  C   UNL A   1      34.801  22.703  24.226  1.00  0.00     0.101 C 
ATOM     15  H   UNL A   1      33.530  24.281  24.440  1.00  0.00     0.348 HD
ATOM     16  C   UNL A   1      36.320  23.643  25.774  1.00  0.00     0.114 C 
ATOM     17  C   UNL A   1      36.300  22.929  24.444  1.00  0.00     0.119 C 
ATOM     18  C   UNL A   1      34.425  21.262  24.491  1.00  0.00     0.079 C 
ATOM     19  C   UNL A   1      34.422  22.999  22.760  1.00  0.00     0.079 C 
ATOM     20  C   UNL A   1      37.788  23.922  25.918  1.00  0.00     0.270 C 
ATOM     21  C   UNL A   1      37.359  21.884  24.708  1.00  0.00     0.271 C 
ATOM     22  N   UNL A   1      38.391  22.639  25.471  1.00  0.00    -0.345 N 
ATOM     23  H   UNL A   1      38.689  22.097  26.281  1.00  0.00     0.346 HD
ATOM     24  H   UNL A   1      39.205  22.819  24.883  1.00  0.00     0.346 HD
ENDBRANCH  11  12
ENDBRANCH   8  11
ENDBRANCH   5   8
ENDBRANCH   3   4
ENDBRANCH   2   3
ENDBRANCH   1   2
BRANCH   1  25
ATOM     25  C   UNL A   1      33.967  28.923  26.426  1.00  0.00     0.116 C 
BRANCH  25  26
ATOM     26  N   UNL A   1      33.890  30.316  26.851  1.00  0.00    -0.352 N 
ATOM     27  C   UNL A   1      34.602  30.961  27.827  1.00  0.00     0.251 C 
ATOM     28  H   UNL A   1      33.234  30.870  26.369  1.00  0.00     0.163 HD
ATOM     29  O   UNL A   1      34.175  32.016  28.300  1.00  0.00    -0.269 OA
BRANCH  27  30
ATOM     30  C   UNL A   1      35.887  30.402  28.282  1.00  0.00     0.039 A 
ATOM     31  C   UNL A   1      37.034  30.569  27.503  1.00  0.00     0.014 A 
ATOM     32  C   UNL A   1      35.943  29.675  29.474  1.00  0.00     0.014 A 
ATOM     33  C   UNL A   1      38.247  30.036  27.943  1.00  0.00     0.010 A 
ATOM     34  C   UNL A   1      37.163  29.238  29.959  1.00  0.00     0.010 A 
ATOM     35  C   UNL A   1      38.321  29.383  29.184  1.00  0.00    -0.014 A 
BRANCH  35  36
ATOM     36  C   UNL A   1      39.585  28.805  29.692  1.00  0.00     0.031 A 
ATOM     37  C   UNL A   1      40.311  29.485  30.823  1.00  0.00     0.074 A 
ATOM     38  C   UNL A   1      40.132  27.749  29.060  1.00  0.00     0.049 A 
ATOM     39  N   UNL A   1      41.478  29.208  31.339  1.00  0.00    -0.248 NA
ATOM     40  C   UNL A   1      39.657  30.663  31.422  1.00  0.00     0.031 C 
ATOM     41  C   UNL A   1      39.562  27.073  27.892  1.00  0.00     0.029 A 
ATOM     42  N   UNL A   1      41.306  27.081  29.291  1.00  0.00    -0.354 N 
ATOM     43  C   UNL A   1      41.720  30.201  32.282  1.00  0.00     0.074 A 
ATOM     44  C   UNL A   1      40.599  31.111  32.237  1.00  0.00     0.031 C 
ATOM     45  C   UNL A   1      40.385  26.083  27.511  1.00  0.00     0.029 A 
ATOM     46  C   UNL A   1      41.551  26.072  28.388  1.00  0.00     0.049 A 
ATOM     47  H   UNL A   1      41.916  27.301  30.031  1.00  0.00     0.167 HD
ATOM     48  C   UNL A   1      42.765  30.323  33.133  1.00  0.00     0.034 A 
ATOM     49  C   UNL A   1      42.602  25.236  28.283  1.00  0.00     0.034 A 
ATOM     50  C   UNL A   1      43.837  29.371  33.212  1.00  0.00     0.049 A 
ATOM     51  C   UNL A   1      43.709  25.340  29.294  1.00  0.00     0.074 A 
ATOM     52  C   UNL A   1      44.890  29.330  34.107  1.00  0.00     0.029 A 
ATOM     53  N   UNL A   1      43.992  28.287  32.360  1.00  0.00    -0.354 N 
ATOM     54  N   UNL A   1      43.841  26.186  30.289  1.00  0.00    -0.248 NA
ATOM     55  C   UNL A   1      44.792  24.351  29.199  1.00  0.00     0.031 C 
ATOM     56  C   UNL A   1      45.690  28.228  33.787  1.00  0.00     0.029 A 
ATOM     57  C   UNL A   1      45.122  27.571  32.707  1.00  0.00     0.049 A 
ATOM     58  H   UNL A   1      43.385  28.060  31.619  1.00  0.00     0.167 HD
ATOM     59  C   UNL A   1      45.000  25.811  30.958  1.00  0.00     0.074 A 
ATOM     60  C   UNL A   1      45.520  24.648  30.267  1.00  0.00     0.031 C 
ATOM     61  C   UNL A   1      45.589  26.383  32.037  1.00  0.00     0.034 A 
BRANCH  48  62
ATOM     62  C   UNL A   1      42.760  31.489  34.087  1.00  0.00     0.023 A 
ATOM     63  C   UNL A   1      43.378  32.699  33.711  1.00  0.00     0.012 A 
ATOM     64  C   UNL A   1      42.109  31.407  35.334  1.00  0.00     0.148 A 
ATOM     65  C   UNL A   1      43.389  33.793  34.575  1.00  0.00     0.002 A 
ATOM     66  C   UNL A   1      42.083  32.518  36.171  1.00  0.00     0.091 A 
ATOM     67  F   UNL A   1      41.545  30.243  35.688  1.00  0.00    -0.205 F 
ATOM     68  C   UNL A   1      42.734  33.706  35.799  1.00  0.00     0.022 A 
BRANCH  66  69
ATOM     69  S   UNL A   1      41.196  32.533  37.733  1.00  0.00     0.127 S 
ATOM     70  O   UNL A   1      42.024  31.649  38.551  1.00  0.00    -0.237 OA
ATOM     71  O   UNL A   1      41.259  33.947  38.108  1.00  0.00    -0.237 OA
ATOM     72  O   UNL A   1      39.857  32.044  37.439  1.00  0.00    -0.744 OA
ENDBRANCH  66  69
ENDBRANCH  48  62
BRANCH  49  73
ATOM     73  C   UNL A   1      42.602  24.176  27.235  1.00  0.00     0.023 A 
ATOM     74  C   UNL A   1      43.294  24.404  26.029  1.00  0.00     0.012 A 
ATOM     75  C   UNL A   1      41.971  22.934  27.441  1.00  0.00     0.148 A 
ATOM     76  C   UNL A   1      43.333  23.425  25.035  1.00  0.00     0.002 A 
ATOM     77  C   UNL A   1      42.060  21.944  26.469  1.00  0.00     0.091 A 
ATOM     78  F   UNL A   1      41.313  22.739  28.593  1.00  0.00    -0.205 F 
ATOM     79  C   UNL A   1      42.726  22.193  25.259  1.00  0.00     0.022 A 
BRANCH  77  80
ATOM     80  S   UNL A   1      41.425  20.282  26.726  1.00  0.00     0.127 S 
ATOM     81  O   UNL A   1      39.999  20.534  26.919  1.00  0.00    -0.237 OA
ATOM     82  O   UNL A   1      41.769  19.628  25.462  1.00  0.00    -0.237 OA
ATOM     83  O   UNL A   1      42.141  19.764  27.883  1.00  0.00    -0.744 OA
ENDBRANCH  77  80
ENDBRANCH  49  73
BRANCH  61  84
ATOM     84  C   UNL A   1      46.843  25.743  32.566  1.00  0.00     0.023 A 
ATOM     85  C   UNL A   1      46.771  24.862  33.662  1.00  0.00     0.012 A 
ATOM     86  C   UNL A   1      48.077  25.948  31.919  1.00  0.00     0.148 A 
ATOM     87  C   UNL A   1      47.916  24.216  34.126  1.00  0.00     0.002 A 
ATOM     88  C   UNL A   1      49.204  25.263  32.356  1.00  0.00     0.091 A 
ATOM     89  F   UNL A   1      48.126  26.806  30.889  1.00  0.00    -0.205 F 
ATOM     90  C   UNL A   1      49.128  24.407  33.465  1.00  0.00     0.022 A 
BRANCH  88  91
ATOM     91  S   UNL A   1      50.782  25.370  31.504  1.00  0.00     0.127 S 
ATOM     92  O   UNL A   1      51.192  26.740  31.807  1.00  0.00    -0.237 OA
ATOM     93  O   UNL A   1      51.569  24.336  32.176  1.00  0.00    -0.237 OA
ATOM     94  O   UNL A   1      50.500  25.096  30.102  1.00  0.00    -0.744 OA
ENDBRANCH  88  91
ENDBRANCH  61  84
ENDBRANCH  35  36
ENDBRANCH  27  30
ENDBRANCH  25  26
ENDBRANCH   1  25
TORSDOF 16
ENDMDL
MODEL 3
REMARK VINA RESULT:     -11.0      1.895      2.496
REMARK SMILES CC(C)(C[N@H+]1C[C@@H]2C[NH2+]C[C@H]2C1(C)C)C(=O)NCCCCNC(=O)c1ccc(-c2c3nc(c(-c4cccc(S(=O)(=O)[O-])c4F)c4ccc([nH]4)c(-c4cccc(S(=O)(=O)[O-])c4F)c4nc(c(-c5cccc(S(=O)(=O)[O-])c5F)c5ccc2[nH]5)C=C4)C=C3)cc1
REMARK SMILES IDX 20 1 19 2 18 3 17 4 15 5 16 6 2 8 1 9 3 10 4 11 5 12 6 13
REMARK SMILES IDX 12 14 7 16 11 17 13 18 14 19 8 20 10 21 9 22 21 25 22 26
REMARK SMILES IDX 23 27 24 29 25 30 26 31 87 32 27 33 86 34 28 35 29 36 30 37
REMARK SMILES IDX 80 38 31 39 85 40 79 41 81 42 32 43 84 44 78 45 77 46 33 48
REMARK SMILES IDX 65 49 45 50 64 51 46 52 49 53 63 54 82 55 47 56 48 57 62 59
REMARK SMILES IDX 83 60 50 61 34 62 35 63 43 64 36 65 38 66 44 67 37 68 39 69
REMARK SMILES IDX 40 70 41 71 42 72 66 73 67 74 75 75 68 76 70 77 76 78 69 79
REMARK SMILES IDX 71 80 72 81 73 82 74 83 51 84 52 85 60 86 53 87 55 88 61 89
REMARK SMILES IDX 54 90 56 91 57 92 58 93 59 94
REMARK H PARENT 17 7 5 15 9 23 9 24 22 28 81 47 49 58
REMARK Flexibility Score: inf
ROOT
ATOM      1  C   UNL A   1      31.943  28.157  27.112  1.00  0.00     0.023 C 
ENDROOT
BRANCH   1   2
ATOM      2  C   UNL A   1      31.827  27.861  25.620  1.00  0.00     0.023 C 
BRANCH   2   3
ATOM      3  C   UNL A   1      32.788  26.812  25.052  1.00  0.00     0.116 C 
BRANCH   3   4
ATOM      4  N   UNL A   1      33.483  27.177  23.831  1.00  0.00    -0.355 N 
ATOM      5  C   UNL A   1      33.453  26.721  22.549  1.00  0.00     0.231 C 
ATOM      6  O   UNL A   1      34.054  27.431  21.734  1.00  0.00    -0.274 OA
ATOM      7  H   UNL A   1      34.117  27.918  23.958  1.00  0.00     0.163 HD
BRANCH   5   8
ATOM      8  C   UNL A   1      32.736  25.438  22.094  1.00  0.00     0.092 C 
ATOM      9  C   UNL A   1      32.498  25.526  20.563  1.00  0.00     0.027 C 
ATOM     10  C   UNL A   1      31.290  25.428  22.661  1.00  0.00     0.027 C 
BRANCH   8  11
ATOM     11  C   UNL A   1      33.489  24.115  22.507  1.00  0.00     0.279 C 
BRANCH  11  12
ATOM     12  N   UNL A   1      33.685  23.580  23.870  1.00  0.00    -0.329 N 
ATOM     13  C   UNL A   1      32.717  22.595  24.391  1.00  0.00     0.272 C 
ATOM     14  C   UNL A   1      35.045  23.190  24.382  1.00  0.00     0.101 C 
ATOM     15  H   UNL A   1      33.498  24.508  24.247  1.00  0.00     0.348 HD
ATOM     16  C   UNL A   1      33.557  21.353  24.339  1.00  0.00     0.114 C 
ATOM     17  C   UNL A   1      34.801  21.833  25.049  1.00  0.00     0.119 C 
ATOM     18  C   UNL A   1      36.188  23.112  23.395  1.00  0.00     0.079 C 
ATOM     19  C   UNL A   1      35.440  24.242  25.438  1.00  0.00     0.079 C 
ATOM     20  C   UNL A   1      33.299  20.067  25.069  1.00  0.00     0.270 C 
ATOM     21  C   UNL A   1      35.648  20.586  24.934  1.00  0.00     0.271 C 
ATOM     22  N   UNL A   1      34.666  19.493  25.175  1.00  0.00    -0.345 N 
ATOM     23  H   UNL A   1      34.787  18.759  24.477  1.00  0.00     0.346 HD
ATOM     24  H   UNL A   1      34.807  19.087  26.100  1.00  0.00     0.346 HD
ENDBRANCH  11  12
ENDBRANCH   8  11
ENDBRANCH   5   8
ENDBRANCH   3   4
ENDBRANCH   2   3
ENDBRANCH   1   2
BRANCH   1  25
ATOM     25  C   UNL A   1      33.329  28.625  27.524  1.00  0.00     0.116 C 
BRANCH  25  26
ATOM     26  N   UNL A   1      33.445  30.074  27.402  1.00  0.00    -0.352 N 
ATOM     27  C   UNL A   1      34.381  30.913  27.945  1.00  0.00     0.251 C 
ATOM     28  H   UNL A   1      32.753  30.510  26.855  1.00  0.00     0.163 HD
ATOM     29  O   UNL A   1      34.139  32.117  28.049  1.00  0.00    -0.269 OA
BRANCH  27  30
ATOM     30  C   UNL A   1      35.683  30.372  28.375  1.00  0.00     0.039 A 
ATOM     31  C   UNL A   1      36.791  30.471  27.530  1.00  0.00     0.014 A 
ATOM     32  C   UNL A   1      35.793  29.730  29.611  1.00  0.00     0.014 A 
ATOM     33  C   UNL A   1      38.020  29.956  27.947  1.00  0.00     0.010 A 
ATOM     34  C   UNL A   1      37.032  29.313  30.065  1.00  0.00     0.010 A 
ATOM     35  C   UNL A   1      38.151  29.391  29.226  1.00  0.00    -0.014 A 
BRANCH  35  36
ATOM     36  C   UNL A   1      39.434  28.835  29.710  1.00  0.00     0.031 A 
ATOM     37  C   UNL A   1      40.170  29.529  30.825  1.00  0.00     0.074 A 
ATOM     38  C   UNL A   1      39.987  27.787  29.070  1.00  0.00     0.049 A 
ATOM     39  N   UNL A   1      41.351  29.273  31.320  1.00  0.00    -0.248 NA
ATOM     40  C   UNL A   1      39.508  30.697  31.436  1.00  0.00     0.031 C 
ATOM     41  C   UNL A   1      39.406  27.100  27.913  1.00  0.00     0.029 A 
ATOM     42  N   UNL A   1      41.176  27.139  29.278  1.00  0.00    -0.354 N 
ATOM     43  C   UNL A   1      41.594  30.271  32.256  1.00  0.00     0.074 A 
ATOM     44  C   UNL A   1      40.457  31.162  32.232  1.00  0.00     0.031 C 
ATOM     45  C   UNL A   1      40.238  26.123  27.518  1.00  0.00     0.029 A 
ATOM     46  C   UNL A   1      41.421  26.133  28.373  1.00  0.00     0.049 A 
ATOM     47  H   UNL A   1      41.796  27.371  30.006  1.00  0.00     0.167 HD
ATOM     48  C   UNL A   1      42.653  30.412  33.087  1.00  0.00     0.034 A 
ATOM     49  C   UNL A   1      42.483  25.315  28.248  1.00  0.00     0.034 A 
ATOM     50  C   UNL A   1      43.743  29.479  33.147  1.00  0.00     0.049 A 
ATOM     51  C   UNL A   1      43.608  25.439  29.238  1.00  0.00     0.074 A 
ATOM     52  C   UNL A   1      44.813  29.457  34.022  1.00  0.00     0.029 A 
ATOM     53  N   UNL A   1      43.899  28.396  32.294  1.00  0.00    -0.354 N 
ATOM     54  N   UNL A   1      43.744  26.289  30.229  1.00  0.00    -0.248 NA
ATOM     55  C   UNL A   1      44.705  24.469  29.123  1.00  0.00     0.031 C 
ATOM     56  C   UNL A   1      45.625  28.368  33.688  1.00  0.00     0.029 A 
ATOM     57  C   UNL A   1      45.048  27.700  32.620  1.00  0.00     0.049 A 
ATOM     58  H   UNL A   1      43.282  28.158  31.565  1.00  0.00     0.167 HD
ATOM     59  C   UNL A   1      44.922  25.935  30.876  1.00  0.00     0.074 A 
ATOM     60  C   UNL A   1      45.449  24.780  30.177  1.00  0.00     0.031 C 
ATOM     61  C   UNL A   1      45.522  26.519  31.943  1.00  0.00     0.034 A 
BRANCH  48  62
ATOM     62  C   UNL A   1      42.646  31.580  34.040  1.00  0.00     0.023 A 
ATOM     63  C   UNL A   1      43.197  32.813  33.634  1.00  0.00     0.012 A 
ATOM     64  C   UNL A   1      42.060  31.475  35.317  1.00  0.00     0.148 A 
ATOM     65  C   UNL A   1      43.205  33.909  34.496  1.00  0.00     0.002 A 
ATOM     66  C   UNL A   1      42.030  32.586  36.152  1.00  0.00     0.091 A 
ATOM     67  F   UNL A   1      41.562  30.290  35.698  1.00  0.00    -0.205 F 
ATOM     68  C   UNL A   1      42.613  33.798  35.749  1.00  0.00     0.022 A 
BRANCH  66  69
ATOM     69  S   UNL A   1      41.219  32.570  37.756  1.00  0.00     0.127 S 
ATOM     70  O   UNL A   1      42.041  31.613  38.493  1.00  0.00    -0.237 OA
ATOM     71  O   UNL A   1      41.366  33.961  38.189  1.00  0.00    -0.237 OA
ATOM     72  O   UNL A   1      39.845  32.156  37.506  1.00  0.00    -0.744 OA
ENDBRANCH  66  69
ENDBRANCH  48  62
BRANCH  49  73
ATOM     73  C   UNL A   1      42.482  24.253  27.202  1.00  0.00     0.023 A 
ATOM     74  C   UNL A   1      43.338  24.383  26.091  1.00  0.00     0.012 A 
ATOM     75  C   UNL A   1      41.683  23.100  27.322  1.00  0.00     0.148 A 
ATOM     76  C   UNL A   1      43.378  23.398  25.104  1.00  0.00     0.002 A 
ATOM     77  C   UNL A   1      41.767  22.098  26.363  1.00  0.00     0.091 A 
ATOM     78  F   UNL A   1      40.869  22.998  28.383  1.00  0.00    -0.205 F 
ATOM     79  C   UNL A   1      42.601  22.252  25.244  1.00  0.00     0.022 A 
BRANCH  77  80
ATOM     80  S   UNL A   1      40.906  20.529  26.530  1.00  0.00     0.127 S 
ATOM     81  O   UNL A   1      39.564  20.874  26.067  1.00  0.00    -0.237 OA
ATOM     82  O   UNL A   1      41.668  19.668  25.623  1.00  0.00    -0.237 OA
ATOM     83  O   UNL A   1      41.020  20.167  27.935  1.00  0.00    -0.744 OA
ENDBRANCH  77  80
ENDBRANCH  49  73
BRANCH  61  84
ATOM     84  C   UNL A   1      46.797  25.901  32.449  1.00  0.00     0.023 A 
ATOM     85  C   UNL A   1      46.759  25.011  33.539  1.00  0.00     0.012 A 
ATOM     86  C   UNL A   1      48.017  26.136  31.786  1.00  0.00     0.148 A 
ATOM     87  C   UNL A   1      47.923  24.385  33.981  1.00  0.00     0.002 A 
ATOM     88  C   UNL A   1      49.164  25.472  32.201  1.00  0.00     0.091 A 
ATOM     89  F   UNL A   1      48.033  27.003  30.762  1.00  0.00    -0.205 F 
ATOM     90  C   UNL A   1      49.122  24.606  33.305  1.00  0.00     0.022 A 
BRANCH  88  91
ATOM     91  S   UNL A   1      50.726  25.618  31.327  1.00  0.00     0.127 S 
ATOM     92  O   UNL A   1      51.610  24.805  32.159  1.00  0.00    -0.237 OA
ATOM     93  O   UNL A   1      50.409  25.034  30.023  1.00  0.00    -0.237 OA
ATOM     94  O   UNL A   1      51.034  27.041  31.291  1.00  0.00    -0.744 OA
ENDBRANCH  88  91
ENDBRANCH  61  84
ENDBRANCH  35  36
ENDBRANCH  27  30
ENDBRANCH  25  26
ENDBRANCH   1  25
TORSDOF 16
ENDMDL
