MODEL 1
REMARK VINA RESULT:     -11.6      0.000      0.000
REMARK SMILES Cn1cncc1COc1c(F)cc(C(=O)NCCCCNC(=O)c2ccc(-c3c4nc(c(-c5cccc(S(=O)(=O)[O-])c5F)c5ccc([nH]5)c(-c5cccc(S(=O)(=O)[O-])c5F)c5nc(c(-c6cccc(S(=O)(=O)[O-])c6F)c6ccc3[nH]6)C=C5)C=C4)cc2)cc1F
REMARK SMILES IDX 18 1 17 2 16 3 14 4 15 5 13 7 9 8 10 9 88 10 11 11 12 12
REMARK SMILES IDX 87 13 89 14 8 15 7 16 6 17 1 18 2 19 3 20 4 21 5 22 19 23
REMARK SMILES IDX 20 24 21 25 22 26 23 28 24 29 25 30 86 31 26 32 85 33 27 34
REMARK SMILES IDX 28 35 29 36 79 37 30 38 84 39 78 40 80 41 31 42 83 43 77 44
REMARK SMILES IDX 76 45 32 47 64 48 44 49 63 50 45 51 48 52 62 53 81 54 46 55
REMARK SMILES IDX 47 56 61 58 82 59 49 60 33 61 34 62 42 63 35 64 37 65 43 66
REMARK SMILES IDX 36 67 38 68 39 69 40 70 41 71 65 72 66 73 74 74 67 75 69 76
REMARK SMILES IDX 75 77 68 78 70 79 71 80 72 81 73 82 50 83 51 84 59 85 52 86
REMARK SMILES IDX 54 87 60 88 53 89 55 90 56 91 57 92 58 93
REMARK H PARENT 16 6 21 27 80 46 48 57
REMARK Flexibility Score: inf
ROOT
ATOM      1  C   UNL A   1      31.043  29.646  24.573  1.00  0.00     0.023 C 
ENDROOT
BRANCH   1   2
ATOM      2  C   UNL A   1      31.065  28.920  23.225  1.00  0.00     0.116 C 
BRANCH   2   3
ATOM      3  N   UNL A   1      32.378  28.967  22.602  1.00  0.00    -0.352 N 
ATOM      4  C   UNL A   1      33.341  28.004  22.426  1.00  0.00     0.251 C 
ATOM      5  O   UNL A   1      34.312  28.268  21.718  1.00  0.00    -0.269 OA
ATOM      6  H   UNL A   1      32.621  29.851  22.241  1.00  0.00     0.163 HD
BRANCH   4   7
ATOM      7  C   UNL A   1      33.258  26.645  23.031  1.00  0.00     0.045 A 
ATOM      8  C   UNL A   1      33.127  24.125  24.297  1.00  0.00     0.191 A 
ATOM      9  C   UNL A   1      32.396  24.389  23.148  1.00  0.00     0.168 A 
ATOM     10  C   UNL A   1      33.871  25.160  24.856  1.00  0.00     0.168 A 
ATOM     11  F   UNL A   1      31.579  23.472  22.620  1.00  0.00    -0.203 F 
ATOM     12  C   UNL A   1      32.463  25.625  22.517  1.00  0.00     0.057 A 
ATOM     13  C   UNL A   1      33.941  26.410  24.236  1.00  0.00     0.057 A 
ATOM     14  F   UNL A   1      34.529  24.967  26.008  1.00  0.00    -0.203 F 
BRANCH   8  15
ATOM     15  O   UNL A   1      33.025  22.913  24.924  1.00  0.00    -0.481 OA
BRANCH  15  16
ATOM     16  C   UNL A   1      33.779  21.886  24.257  1.00  0.00     0.285 C 
BRANCH  16  17
ATOM     17  C   UNL A   1      35.187  21.916  24.739  1.00  0.00     0.075 A 
ATOM     18  C   UNL A   1      36.253  22.977  22.711  1.00  0.00     0.151 C 
ATOM     19  N   UNL A   1      36.267  22.368  24.017  1.00  0.00    -0.335 N 
ATOM     20  C   UNL A   1      37.392  22.145  24.761  1.00  0.00     0.199 A 
ATOM     21  N   UNL A   1      37.100  21.644  25.938  1.00  0.00    -0.245 NA
ATOM     22  C   UNL A   1      35.739  21.488  25.933  1.00  0.00     0.138 A 
ENDBRANCH  16  17
ENDBRANCH  15  16
ENDBRANCH   8  15
ENDBRANCH   4   7
ENDBRANCH   2   3
ENDBRANCH   1   2
BRANCH   1  23
ATOM     23  C   UNL A   1      31.843  28.982  25.691  1.00  0.00     0.023 C 
BRANCH  23  24
ATOM     24  C   UNL A   1      33.093  29.733  26.129  1.00  0.00     0.116 C 
BRANCH  24  25
ATOM     25  N   UNL A   1      32.838  31.100  26.554  1.00  0.00    -0.352 N 
ATOM     26  C   UNL A   1      33.593  31.886  27.397  1.00  0.00     0.251 C 
ATOM     27  H   UNL A   1      32.021  31.517  26.194  1.00  0.00     0.163 HD
ATOM     28  O   UNL A   1      33.196  32.995  27.723  1.00  0.00    -0.269 OA
BRANCH  26  29
ATOM     29  C   UNL A   1      34.864  31.352  27.934  1.00  0.00     0.039 A 
ATOM     30  C   UNL A   1      35.970  32.203  28.008  1.00  0.00     0.014 A 
ATOM     31  C   UNL A   1      34.955  30.035  28.392  1.00  0.00     0.014 A 
ATOM     32  C   UNL A   1      37.152  31.746  28.594  1.00  0.00     0.010 A 
ATOM     33  C   UNL A   1      36.105  29.610  29.049  1.00  0.00     0.010 A 
ATOM     34  C   UNL A   1      37.221  30.455  29.145  1.00  0.00    -0.014 A 
BRANCH  34  35
ATOM     35  C   UNL A   1      38.453  29.976  29.820  1.00  0.00     0.031 A 
ATOM     36  C   UNL A   1      38.813  30.482  31.192  1.00  0.00     0.074 A 
ATOM     37  C   UNL A   1      39.284  29.137  29.171  1.00  0.00     0.049 A 
ATOM     38  N   UNL A   1      39.842  30.173  31.938  1.00  0.00    -0.248 NA
ATOM     39  C   UNL A   1      37.920  31.486  31.791  1.00  0.00     0.031 C 
ATOM     40  C   UNL A   1      39.099  28.654  27.800  1.00  0.00     0.029 A 
ATOM     41  N   UNL A   1      40.461  28.556  29.570  1.00  0.00    -0.354 N 
ATOM     42  C   UNL A   1      39.737  30.964  33.075  1.00  0.00     0.074 A 
ATOM     43  C   UNL A   1      38.569  31.800  32.902  1.00  0.00     0.031 C 
ATOM     44  C   UNL A   1      40.118  27.841  27.479  1.00  0.00     0.029 A 
ATOM     45  C   UNL A   1      41.036  27.756  28.611  1.00  0.00     0.049 A 
ATOM     46  H   UNL A   1      40.857  28.699  30.460  1.00  0.00     0.167 HD
ATOM     47  C   UNL A   1      40.518  30.972  34.182  1.00  0.00     0.034 A 
ATOM     48  C   UNL A   1      42.169  27.027  28.644  1.00  0.00     0.034 A 
ATOM     49  C   UNL A   1      41.648  30.104  34.372  1.00  0.00     0.049 A 
ATOM     50  C   UNL A   1      42.977  26.995  29.914  1.00  0.00     0.074 A 
ATOM     51  C   UNL A   1      42.448  29.963  35.493  1.00  0.00     0.029 A 
ATOM     52  N   UNL A   1      42.142  29.229  33.417  1.00  0.00    -0.354 N 
ATOM     53  N   UNL A   1      42.759  27.615  31.048  1.00  0.00    -0.248 NA
ATOM     54  C   UNL A   1      44.161  26.124  29.923  1.00  0.00     0.031 C 
ATOM     55  C   UNL A   1      43.436  29.014  35.209  1.00  0.00     0.029 A 
ATOM     56  C   UNL A   1      43.238  28.548  33.920  1.00  0.00     0.049 A 
ATOM     57  H   UNL A   1      41.769  29.110  32.514  1.00  0.00     0.167 HD
ATOM     58  C   UNL A   1      43.758  27.186  31.915  1.00  0.00     0.074 A 
ATOM     59  C   UNL A   1      44.563  26.230  31.183  1.00  0.00     0.031 C 
ATOM     60  C   UNL A   1      43.999  27.561  33.196  1.00  0.00     0.034 A 
BRANCH  47  61
ATOM     61  C   UNL A   1      40.133  31.904  35.302  1.00  0.00     0.023 A 
ATOM     62  C   UNL A   1      40.777  33.153  35.416  1.00  0.00     0.012 A 
ATOM     63  C   UNL A   1      39.109  31.570  36.208  1.00  0.00     0.148 A 
ATOM     64  C   UNL A   1      40.435  34.040  36.436  1.00  0.00     0.002 A 
ATOM     65  C   UNL A   1      38.741  32.479  37.195  1.00  0.00     0.091 A 
ATOM     66  F   UNL A   1      38.522  30.369  36.098  1.00  0.00    -0.205 F 
ATOM     67  C   UNL A   1      39.411  33.707  37.318  1.00  0.00     0.022 A 
BRANCH  65  68
ATOM     68  S   UNL A   1      37.383  32.178  38.332  1.00  0.00     0.127 S 
ATOM     69  O   UNL A   1      37.257  30.723  38.261  1.00  0.00    -0.237 OA
ATOM     70  O   UNL A   1      37.923  32.682  39.596  1.00  0.00    -0.237 OA
ATOM     71  O   UNL A   1      36.251  32.931  37.812  1.00  0.00    -0.744 OA
ENDBRANCH  65  68
ENDBRANCH  47  61
BRANCH  48  72
ATOM     72  C   UNL A   1      42.556  26.197  27.469  1.00  0.00     0.023 A 
ATOM     73  C   UNL A   1      43.342  26.770  26.449  1.00  0.00     0.012 A 
ATOM     74  C   UNL A   1      42.173  24.848  27.363  1.00  0.00     0.148 A 
ATOM     75  C   UNL A   1      43.712  26.023  25.329  1.00  0.00     0.002 A 
ATOM     76  C   UNL A   1      42.590  24.093  26.272  1.00  0.00     0.091 A 
ATOM     77  F   UNL A   1      41.415  24.324  28.337  1.00  0.00    -0.205 F 
ATOM     78  C   UNL A   1      43.344  24.683  25.245  1.00  0.00     0.022 A 
BRANCH  76  79
ATOM     79  S   UNL A   1      42.275  22.329  26.147  1.00  0.00     0.127 S 
ATOM     80  O   UNL A   1      40.818  22.292  26.048  1.00  0.00    -0.237 OA
ATOM     81  O   UNL A   1      42.986  21.981  24.916  1.00  0.00    -0.237 OA
ATOM     82  O   UNL A   1      42.845  21.744  27.352  1.00  0.00    -0.744 OA
ENDBRANCH  76  79
ENDBRANCH  48  72
BRANCH  60  83
ATOM     83  C   UNL A   1      45.163  26.917  33.901  1.00  0.00     0.023 A 
ATOM     84  C   UNL A   1      46.446  27.494  33.805  1.00  0.00     0.012 A 
ATOM     85  C   UNL A   1      44.979  25.773  34.702  1.00  0.00     0.148 A 
ATOM     86  C   UNL A   1      47.533  26.919  34.460  1.00  0.00     0.002 A 
ATOM     87  C   UNL A   1      46.058  25.235  35.392  1.00  0.00     0.091 A 
ATOM     88  F   UNL A   1      43.757  25.224  34.765  1.00  0.00    -0.205 F 
ATOM     89  C   UNL A   1      47.337  25.797  35.263  1.00  0.00     0.022 A 
BRANCH  87  90
ATOM     90  S   UNL A   1      45.873  23.849  36.523  1.00  0.00     0.127 S 
ATOM     91  O   UNL A   1      44.696  24.246  37.291  1.00  0.00    -0.237 OA
ATOM     92  O   UNL A   1      45.656  22.727  35.610  1.00  0.00    -0.237 OA
ATOM     93  O   UNL A   1      47.122  23.781  37.270  1.00  0.00    -0.744 OA
ENDBRANCH  87  90
ENDBRANCH  60  83
ENDBRANCH  34  35
ENDBRANCH  26  29
ENDBRANCH  24  25
ENDBRANCH  23  24
ENDBRANCH   1  23
TORSDOF 17
ENDMDL
MODEL 2
REMARK VINA RESULT:     -11.5      1.960      4.239
REMARK SMILES Cn1cncc1COc1c(F)cc(C(=O)NCCCCNC(=O)c2ccc(-c3c4nc(c(-c5cccc(S(=O)(=O)[O-])c5F)c5ccc([nH]5)c(-c5cccc(S(=O)(=O)[O-])c5F)c5nc(c(-c6cccc(S(=O)(=O)[O-])c6F)c6ccc3[nH]6)C=C5)C=C4)cc2)cc1F
REMARK SMILES IDX 18 1 17 2 16 3 14 4 15 5 13 7 9 8 10 9 88 10 11 11 12 12
REMARK SMILES IDX 87 13 89 14 8 15 7 16 6 17 1 18 2 19 3 20 4 21 5 22 19 23
REMARK SMILES IDX 20 24 21 25 22 26 23 28 24 29 25 30 86 31 26 32 85 33 27 34
REMARK SMILES IDX 28 35 29 36 79 37 30 38 84 39 78 40 80 41 31 42 83 43 77 44
REMARK SMILES IDX 76 45 32 47 64 48 44 49 63 50 45 51 48 52 62 53 81 54 46 55
REMARK SMILES IDX 47 56 61 58 82 59 49 60 33 61 34 62 42 63 35 64 37 65 43 66
REMARK SMILES IDX 36 67 38 68 39 69 40 70 41 71 65 72 66 73 74 74 67 75 69 76
REMARK SMILES IDX 75 77 68 78 70 79 71 80 72 81 73 82 50 83 51 84 59 85 52 86
REMARK SMILES IDX 54 87 60 88 53 89 55 90 56 91 57 92 58 93
REMARK H PARENT 16 6 21 27 80 46 48 57
REMARK Flexibility Score: inf
ROOT
ATOM      1  C   UNL A   1      32.141  27.596  26.916  1.00  0.00     0.023 C 
ENDROOT
BRANCH   1   2
ATOM      2  C   UNL A   1      33.379  27.073  26.179  1.00  0.00     0.116 C 
BRANCH   2   3
ATOM      3  N   UNL A   1      33.144  25.771  25.578  1.00  0.00    -0.352 N 
ATOM      4  C   UNL A   1      32.281  25.364  24.590  1.00  0.00     0.251 C 
ATOM      5  O   UNL A   1      32.392  24.220  24.150  1.00  0.00    -0.269 OA
ATOM      6  H   UNL A   1      33.706  25.050  25.945  1.00  0.00     0.163 HD
BRANCH   4   7
ATOM      7  C   UNL A   1      31.229  26.244  24.008  1.00  0.00     0.045 A 
ATOM      8  C   UNL A   1      29.160  27.885  23.011  1.00  0.00     0.191 A 
ATOM      9  C   UNL A   1      30.490  28.154  22.722  1.00  0.00     0.168 A 
ATOM     10  C   UNL A   1      28.874  26.828  23.869  1.00  0.00     0.168 A 
ATOM     11  F   UNL A   1      30.840  29.217  21.990  1.00  0.00    -0.203 F 
ATOM     12  C   UNL A   1      31.511  27.345  23.204  1.00  0.00     0.057 A 
ATOM     13  C   UNL A   1      29.892  26.011  24.368  1.00  0.00     0.057 A 
ATOM     14  F   UNL A   1      27.607  26.584  24.234  1.00  0.00    -0.203 F 
BRANCH   8  15
ATOM     15  O   UNL A   1      28.168  28.710  22.555  1.00  0.00    -0.481 OA
BRANCH  15  16
ATOM     16  C   UNL A   1      28.305  30.054  23.045  1.00  0.00     0.285 C 
BRANCH  16  17
ATOM     17  C   UNL A   1      28.141  31.011  21.915  1.00  0.00     0.075 A 
ATOM     18  C   UNL A   1      28.789  33.131  23.125  1.00  0.00     0.151 C 
ATOM     19  N   UNL A   1      28.325  32.372  21.991  1.00  0.00    -0.335 N 
ATOM     20  C   UNL A   1      27.989  32.908  20.779  1.00  0.00     0.199 A 
ATOM     21  N   UNL A   1      27.669  31.976  19.912  1.00  0.00    -0.245 NA
ATOM     22  C   UNL A   1      27.750  30.798  20.606  1.00  0.00     0.138 A 
ENDBRANCH  16  17
ENDBRANCH  15  16
ENDBRANCH   8  15
ENDBRANCH   4   7
ENDBRANCH   2   3
ENDBRANCH   1   2
BRANCH   1  23
ATOM     23  C   UNL A   1      31.902  29.100  26.815  1.00  0.00     0.023 C 
BRANCH  23  24
ATOM     24  C   UNL A   1      33.142  29.938  26.538  1.00  0.00     0.116 C 
BRANCH  24  25
ATOM     25  N   UNL A   1      32.994  31.340  26.895  1.00  0.00    -0.352 N 
ATOM     26  C   UNL A   1      33.833  32.118  27.662  1.00  0.00     0.251 C 
ATOM     27  H   UNL A   1      32.192  31.791  26.543  1.00  0.00     0.163 HD
ATOM     28  O   UNL A   1      33.524  33.267  27.939  1.00  0.00    -0.269 OA
BRANCH  26  29
ATOM     29  C   UNL A   1      35.089  31.530  28.180  1.00  0.00     0.039 A 
ATOM     30  C   UNL A   1      36.239  32.323  28.207  1.00  0.00     0.014 A 
ATOM     31  C   UNL A   1      35.124  30.220  28.665  1.00  0.00     0.014 A 
ATOM     32  C   UNL A   1      37.410  31.817  28.774  1.00  0.00     0.010 A 
ATOM     33  C   UNL A   1      36.266  29.749  29.303  1.00  0.00     0.010 A 
ATOM     34  C   UNL A   1      37.426  30.536  29.352  1.00  0.00    -0.014 A 
BRANCH  34  35
ATOM     35  C   UNL A   1      38.649  30.008  30.007  1.00  0.00     0.031 A 
ATOM     36  C   UNL A   1      39.051  30.498  31.373  1.00  0.00     0.074 A 
ATOM     37  C   UNL A   1      39.435  29.136  29.345  1.00  0.00     0.049 A 
ATOM     38  N   UNL A   1      40.079  30.148  32.102  1.00  0.00    -0.248 NA
ATOM     39  C   UNL A   1      38.209  31.537  31.986  1.00  0.00     0.031 C 
ATOM     40  C   UNL A   1      39.209  28.662  27.977  1.00  0.00     0.029 A 
ATOM     41  N   UNL A   1      40.594  28.508  29.725  1.00  0.00    -0.354 N 
ATOM     42  C   UNL A   1      40.025  30.942  33.241  1.00  0.00     0.074 A 
ATOM     43  C   UNL A   1      38.888  31.824  33.087  1.00  0.00     0.031 C 
ATOM     44  C   UNL A   1      40.189  27.808  27.640  1.00  0.00     0.029 A 
ATOM     45  C   UNL A   1      41.120  27.686  28.757  1.00  0.00     0.049 A 
ATOM     46  H   UNL A   1      41.009  28.635  30.608  1.00  0.00     0.167 HD
ATOM     47  C   UNL A   1      40.823  30.918  34.335  1.00  0.00     0.034 A 
ATOM     48  C   UNL A   1      42.223  26.912  28.772  1.00  0.00     0.034 A 
ATOM     49  C   UNL A   1      41.920  30.005  34.507  1.00  0.00     0.049 A 
ATOM     50  C   UNL A   1      43.050  26.847  30.028  1.00  0.00     0.074 A 
ATOM     51  C   UNL A   1      42.731  29.832  35.615  1.00  0.00     0.029 A 
ATOM     52  N   UNL A   1      42.363  29.111  33.544  1.00  0.00    -0.354 N 
ATOM     53  N   UNL A   1      42.876  27.475  31.165  1.00  0.00    -0.248 NA
ATOM     54  C   UNL A   1      44.198  25.929  30.019  1.00  0.00     0.031 C 
ATOM     55  C   UNL A   1      43.675  28.844  35.315  1.00  0.00     0.029 A 
ATOM     56  C   UNL A   1      43.438  28.386  34.029  1.00  0.00     0.049 A 
ATOM     57  H   UNL A   1      41.971  29.007  32.648  1.00  0.00     0.167 HD
ATOM     58  C   UNL A   1      43.870  27.005  32.017  1.00  0.00     0.074 A 
ATOM     59  C   UNL A   1      44.624  26.018  31.272  1.00  0.00     0.031 C 
ATOM     60  C   UNL A   1      44.147  27.370  33.293  1.00  0.00     0.034 A 
BRANCH  47  61
ATOM     61  C   UNL A   1      40.494  31.864  35.461  1.00  0.00     0.023 A 
ATOM     62  C   UNL A   1      41.316  32.987  35.684  1.00  0.00     0.012 A 
ATOM     63  C   UNL A   1      39.353  31.673  36.263  1.00  0.00     0.148 A 
ATOM     64  C   UNL A   1      41.031  33.885  36.712  1.00  0.00     0.002 A 
ATOM     65  C   UNL A   1      39.049  32.597  37.257  1.00  0.00     0.091 A 
ATOM     66  F   UNL A   1      38.594  30.588  36.051  1.00  0.00    -0.205 F 
ATOM     67  C   UNL A   1      39.893  33.696  37.490  1.00  0.00     0.022 A 
BRANCH  65  68
ATOM     68  S   UNL A   1      37.565  32.486  38.264  1.00  0.00     0.127 S 
ATOM     69  O   UNL A   1      36.541  32.952  37.330  1.00  0.00    -0.237 OA
ATOM     70  O   UNL A   1      37.507  31.056  38.569  1.00  0.00    -0.237 OA
ATOM     71  O   UNL A   1      37.798  33.344  39.417  1.00  0.00    -0.744 OA
ENDBRANCH  65  68
ENDBRANCH  47  61
BRANCH  48  72
ATOM     72  C   UNL A   1      42.557  26.068  27.590  1.00  0.00     0.023 A 
ATOM     73  C   UNL A   1      43.351  26.609  26.559  1.00  0.00     0.012 A 
ATOM     74  C   UNL A   1      42.118  24.735  27.491  1.00  0.00     0.148 A 
ATOM     75  C   UNL A   1      43.672  25.848  25.434  1.00  0.00     0.002 A 
ATOM     76  C   UNL A   1      42.487  23.965  26.393  1.00  0.00     0.091 A 
ATOM     77  F   UNL A   1      41.355  24.243  28.477  1.00  0.00    -0.205 F 
ATOM     78  C   UNL A   1      43.248  24.524  25.355  1.00  0.00     0.022 A 
BRANCH  76  79
ATOM     79  S   UNL A   1      42.097  22.215  26.273  1.00  0.00     0.127 S 
ATOM     80  O   UNL A   1      42.620  21.705  27.537  1.00  0.00    -0.237 OA
ATOM     81  O   UNL A   1      40.638  22.236  26.172  1.00  0.00    -0.237 OA
ATOM     82  O   UNL A   1      42.774  21.747  25.071  1.00  0.00    -0.744 OA
ENDBRANCH  76  79
ENDBRANCH  48  72
BRANCH  60  83
ATOM     83  C   UNL A   1      45.296  26.680  33.979  1.00  0.00     0.023 A 
ATOM     84  C   UNL A   1      46.598  27.206  33.865  1.00  0.00     0.012 A 
ATOM     85  C   UNL A   1      45.079  25.541  34.781  1.00  0.00     0.148 A 
ATOM     86  C   UNL A   1      47.672  26.587  34.503  1.00  0.00     0.002 A 
ATOM     87  C   UNL A   1      46.147  24.960  35.455  1.00  0.00     0.091 A 
ATOM     88  F   UNL A   1      43.837  25.041  34.862  1.00  0.00    -0.205 F 
ATOM     89  C   UNL A   1      47.445  25.472  35.307  1.00  0.00     0.022 A 
BRANCH  87  90
ATOM     90  S   UNL A   1      45.924  23.581  36.586  1.00  0.00     0.127 S 
ATOM     91  O   UNL A   1      47.294  23.334  37.029  1.00  0.00    -0.237 OA
ATOM     92  O   UNL A   1      45.046  24.152  37.607  1.00  0.00    -0.237 OA
ATOM     93  O   UNL A   1      45.314  22.518  35.796  1.00  0.00    -0.744 OA
ENDBRANCH  87  90
ENDBRANCH  60  83
ENDBRANCH  34  35
ENDBRANCH  26  29
ENDBRANCH  24  25
ENDBRANCH  23  24
ENDBRANCH   1  23
TORSDOF 17
ENDMDL
MODEL 3
REMARK VINA RESULT:     -11.5      2.558      8.253
REMARK SMILES Cn1cncc1COc1c(F)cc(C(=O)NCCCCNC(=O)c2ccc(-c3c4nc(c(-c5cccc(S(=O)(=O)[O-])c5F)c5ccc([nH]5)c(-c5cccc(S(=O)(=O)[O-])c5F)c5nc(c(-c6cccc(S(=O)(=O)[O-])c6F)c6ccc3[nH]6)C=C5)C=C4)cc2)cc1F
REMARK SMILES IDX 18 1 17 2 16 3 14 4 15 5 13 7 9 8 10 9 88 10 11 11 12 12
REMARK SMILES IDX 87 13 89 14 8 15 7 16 6 17 1 18 2 19 3 20 4 21 5 22 19 23
REMARK SMILES IDX 20 24 21 25 22 26 23 28 24 29 25 30 86 31 26 32 85 33 27 34
REMARK SMILES IDX 28 35 29 36 79 37 30 38 84 39 78 40 80 41 31 42 83 43 77 44
REMARK SMILES IDX 76 45 32 47 64 48 44 49 63 50 45 51 48 52 62 53 81 54 46 55
REMARK SMILES IDX 47 56 61 58 82 59 49 60 33 61 34 62 42 63 35 64 37 65 43 66
REMARK SMILES IDX 36 67 38 68 39 69 40 70 41 71 65 72 66 73 74 74 67 75 69 76
REMARK SMILES IDX 75 77 68 78 70 79 71 80 72 81 73 82 50 83 51 84 59 85 52 86
REMARK SMILES IDX 54 87 60 88 53 89 55 90 56 91 57 92 58 93
REMARK H PARENT 16 6 21 27 80 46 48 57
REMARK Flexibility Score: inf
ROOT
ATOM      1  C   UNL A   1      31.753  30.543  26.692  1.00  0.00     0.023 C 
ENDROOT
BRANCH   1   2
ATOM      2  C   UNL A   1      31.968  29.852  25.342  1.00  0.00     0.116 C 
BRANCH   2   3
ATOM      3  N   UNL A   1      30.834  30.035  24.450  1.00  0.00    -0.352 N 
ATOM      4  C   UNL A   1      30.153  29.154  23.647  1.00  0.00     0.251 C 
ATOM      5  O   UNL A   1      29.117  29.536  23.103  1.00  0.00    -0.269 OA
ATOM      6  H   UNL A   1      30.494  30.959  24.415  1.00  0.00     0.163 HD
BRANCH   4   7
ATOM      7  C   UNL A   1      30.592  27.749  23.418  1.00  0.00     0.045 A 
ATOM      8  C   UNL A   1      31.326  25.046  23.062  1.00  0.00     0.191 A 
ATOM      9  C   UNL A   1      31.550  25.987  22.068  1.00  0.00     0.168 A 
ATOM     10  C   UNL A   1      30.659  25.453  24.214  1.00  0.00     0.168 A 
ATOM     11  F   UNL A   1      32.091  25.640  20.895  1.00  0.00    -0.203 F 
ATOM     12  C   UNL A   1      31.198  27.319  22.241  1.00  0.00     0.057 A 
ATOM     13  C   UNL A   1      30.292  26.789  24.398  1.00  0.00     0.057 A 
ATOM     14  F   UNL A   1      30.354  24.558  25.165  1.00  0.00    -0.203 F 
BRANCH   8  15
ATOM     15  O   UNL A   1      31.650  23.731  22.864  1.00  0.00    -0.481 OA
BRANCH  15  16
ATOM     16  C   UNL A   1      33.041  23.467  23.114  1.00  0.00     0.285 C 
BRANCH  16  17
ATOM     17  C   UNL A   1      33.182  22.758  24.416  1.00  0.00     0.075 A 
ATOM     18  C   UNL A   1      33.846  24.732  25.844  1.00  0.00     0.151 C 
ATOM     19  N   UNL A   1      33.578  23.336  25.599  1.00  0.00    -0.335 N 
ATOM     20  C   UNL A   1      33.678  22.347  26.537  1.00  0.00     0.199 A 
ATOM     21  N   UNL A   1      33.307  21.185  26.053  1.00  0.00    -0.245 NA
ATOM     22  C   UNL A   1      33.007  21.424  24.738  1.00  0.00     0.138 A 
ENDBRANCH  16  17
ENDBRANCH  15  16
ENDBRANCH   8  15
ENDBRANCH   4   7
ENDBRANCH   2   3
ENDBRANCH   1   2
BRANCH   1  23
ATOM     23  C   UNL A   1      31.663  32.067  26.644  1.00  0.00     0.023 C 
BRANCH  23  24
ATOM     24  C   UNL A   1      32.797  32.806  27.340  1.00  0.00     0.116 C 
BRANCH  24  25
ATOM     25  N   UNL A   1      32.480  34.185  27.674  1.00  0.00    -0.352 N 
ATOM     26  C   UNL A   1      33.072  34.991  28.622  1.00  0.00     0.251 C 
ATOM     27  H   UNL A   1      31.749  34.597  27.157  1.00  0.00     0.163 HD
ATOM     28  O   UNL A   1      32.633  36.110  28.840  1.00  0.00    -0.269 OA
BRANCH  26  29
ATOM     29  C   UNL A   1      34.216  34.465  29.402  1.00  0.00     0.039 A 
ATOM     30  C   UNL A   1      33.961  33.833  30.621  1.00  0.00     0.014 A 
ATOM     31  C   UNL A   1      35.522  34.565  28.918  1.00  0.00     0.014 A 
ATOM     32  C   UNL A   1      35.015  33.252  31.329  1.00  0.00     0.010 A 
ATOM     33  C   UNL A   1      36.557  33.914  29.583  1.00  0.00     0.010 A 
ATOM     34  C   UNL A   1      36.317  33.263  30.802  1.00  0.00    -0.014 A 
BRANCH  34  35
ATOM     35  C   UNL A   1      37.437  32.601  31.516  1.00  0.00     0.031 A 
ATOM     36  C   UNL A   1      38.161  31.441  30.886  1.00  0.00     0.074 A 
ATOM     37  C   UNL A   1      37.760  33.000  32.763  1.00  0.00     0.049 A 
ATOM     38  N   UNL A   1      39.164  30.744  31.355  1.00  0.00    -0.248 NA
ATOM     39  C   UNL A   1      37.678  30.984  29.573  1.00  0.00     0.031 C 
ATOM     40  C   UNL A   1      37.068  34.044  33.524  1.00  0.00     0.029 A 
ATOM     41  N   UNL A   1      38.738  32.561  33.619  1.00  0.00    -0.354 N 
ATOM     42  C   UNL A   1      39.410  29.752  30.414  1.00  0.00     0.074 A 
ATOM     43  C   UNL A   1      38.424  29.908  29.368  1.00  0.00     0.031 C 
ATOM     44  C   UNL A   1      37.653  34.174  34.725  1.00  0.00     0.029 A 
ATOM     45  C   UNL A   1      38.749  33.215  34.828  1.00  0.00     0.049 A 
ATOM     46  H   UNL A   1      39.374  31.846  33.387  1.00  0.00     0.167 HD
ATOM     47  C   UNL A   1      40.390  28.817  30.399  1.00  0.00     0.034 A 
ATOM     48  C   UNL A   1      39.558  33.066  35.896  1.00  0.00     0.034 A 
ATOM     49  C   UNL A   1      41.400  28.698  31.415  1.00  0.00     0.049 A 
ATOM     50  C   UNL A   1      40.685  32.071  35.822  1.00  0.00     0.074 A 
ATOM     51  C   UNL A   1      42.493  27.849  31.448  1.00  0.00     0.029 A 
ATOM     52  N   UNL A   1      41.441  29.447  32.581  1.00  0.00    -0.354 N 
ATOM     53  N   UNL A   1      41.011  31.263  34.843  1.00  0.00    -0.248 NA
ATOM     54  C   UNL A   1      41.584  32.002  36.983  1.00  0.00     0.031 C 
ATOM     55  C   UNL A   1      43.185  28.075  32.643  1.00  0.00     0.029 A 
ATOM     56  C   UNL A   1      42.537  29.079  33.342  1.00  0.00     0.049 A 
ATOM     57  H   UNL A   1      40.787  30.139  32.830  1.00  0.00     0.167 HD
ATOM     58  C   UNL A   1      42.171  30.615  35.253  1.00  0.00     0.074 A 
ATOM     59  C   UNL A   1      42.505  31.146  36.559  1.00  0.00     0.031 C 
ATOM     60  C   UNL A   1      42.885  29.653  34.618  1.00  0.00     0.034 A 
BRANCH  47  61
ATOM     61  C   UNL A   1      40.456  27.894  29.210  1.00  0.00     0.023 A 
ATOM     62  C   UNL A   1      39.561  26.807  29.126  1.00  0.00     0.012 A 
ATOM     63  C   UNL A   1      41.363  28.124  28.158  1.00  0.00     0.148 A 
ATOM     64  C   UNL A   1      39.592  25.942  28.034  1.00  0.00     0.002 A 
ATOM     65  C   UNL A   1      41.357  27.283  27.050  1.00  0.00     0.091 A 
ATOM     66  F   UNL A   1      42.221  29.148  28.265  1.00  0.00    -0.205 F 
ATOM     67  C   UNL A   1      40.482  26.186  26.992  1.00  0.00     0.022 A 
BRANCH  65  68
ATOM     68  S   UNL A   1      42.411  27.556  25.621  1.00  0.00     0.127 S 
ATOM     69  O   UNL A   1      43.743  27.508  26.224  1.00  0.00    -0.237 OA
ATOM     70  O   UNL A   1      42.084  26.409  24.774  1.00  0.00    -0.237 OA
ATOM     71  O   UNL A   1      42.019  28.846  25.074  1.00  0.00    -0.744 OA
ENDBRANCH  65  68
ENDBRANCH  47  61
BRANCH  48  72
ATOM     72  C   UNL A   1      39.385  33.941  37.089  1.00  0.00     0.023 A 
ATOM     73  C   UNL A   1      39.762  35.297  37.010  1.00  0.00     0.012 A 
ATOM     74  C   UNL A   1      38.833  33.452  38.287  1.00  0.00     0.148 A 
ATOM     75  C   UNL A   1      39.623  36.141  38.113  1.00  0.00     0.002 A 
ATOM     76  C   UNL A   1      38.647  34.310  39.365  1.00  0.00     0.091 A 
ATOM     77  F   UNL A   1      38.492  32.157  38.346  1.00  0.00    -0.205 F 
ATOM     78  C   UNL A   1      39.058  35.650  39.287  1.00  0.00     0.022 A 
BRANCH  76  79
ATOM     79  S   UNL A   1      37.806  33.797  40.868  1.00  0.00     0.127 S 
ATOM     80  O   UNL A   1      37.563  35.078  41.526  1.00  0.00    -0.237 OA
ATOM     81  O   UNL A   1      36.612  33.140  40.337  1.00  0.00    -0.237 OA
ATOM     82  O   UNL A   1      38.732  32.901  41.546  1.00  0.00    -0.744 OA
ENDBRANCH  76  79
ENDBRANCH  48  72
BRANCH  60  83
ATOM     83  C   UNL A   1      44.117  29.131  35.309  1.00  0.00     0.023 A 
ATOM     84  C   UNL A   1      45.373  29.706  35.030  1.00  0.00     0.012 A 
ATOM     85  C   UNL A   1      44.024  28.108  36.275  1.00  0.00     0.148 A 
ATOM     86  C   UNL A   1      46.522  29.244  35.670  1.00  0.00     0.002 A 
ATOM     87  C   UNL A   1      45.167  27.688  36.944  1.00  0.00     0.091 A 
ATOM     88  F   UNL A   1      42.824  27.558  36.512  1.00  0.00    -0.205 F 
ATOM     89  C   UNL A   1      46.418  28.244  36.634  1.00  0.00     0.022 A 
BRANCH  87  90
ATOM     90  S   UNL A   1      45.105  26.474  38.268  1.00  0.00     0.127 S 
ATOM     91  O   UNL A   1      44.395  25.369  37.628  1.00  0.00    -0.237 OA
ATOM     92  O   UNL A   1      46.522  26.220  38.527  1.00  0.00    -0.237 OA
ATOM     93  O   UNL A   1      44.402  27.125  39.367  1.00  0.00    -0.744 OA
ENDBRANCH  87  90
ENDBRANCH  60  83
ENDBRANCH  34  35
ENDBRANCH  26  29
ENDBRANCH  24  25
ENDBRANCH  23  24
ENDBRANCH   1  23
TORSDOF 17
ENDMDL
