MODEL 1
REMARK VINA RESULT:     -12.4      0.000      0.000
REMARK SMILES CCCc1cc(OC(F)(F)F)cc2c1O[C@@H](C(F)(F)F)C(C(=O)NCCCCNC(=O)c1ccc(-c3c4nc(c(-c5cccc(S(=O)(=O)[O-])c5F)c5ccc([nH]5)c(-c5cccc(S(=O)(=O)[O-])c5F)c5nc(c(-c6cccc(S(=O)(=O)[O-])c6F)c6ccc3[nH]6)C=C5)C=C4)cc1)=C2
REMARK SMILES IDX 27 1 26 2 25 3 24 4 22 5 23 6 21 8 4 9 5 10 14 11 6 12 13 13
REMARK SMILES IDX 15 14 12 15 95 16 16 17 3 18 2 19 1 20 7 21 8 22 9 23 10 24
REMARK SMILES IDX 11 25 17 26 18 27 19 28 20 29 28 30 29 31 30 32 31 34 32 35
REMARK SMILES IDX 33 36 94 37 34 38 93 39 35 40 36 41 37 42 87 43 38 44 92 45
REMARK SMILES IDX 86 46 88 47 39 48 91 49 85 50 84 51 40 53 72 54 52 55 71 56
REMARK SMILES IDX 53 57 56 58 70 59 89 60 54 61 55 62 69 64 90 65 57 66 41 67
REMARK SMILES IDX 42 68 50 69 43 70 45 71 51 72 44 73 46 74 47 75 48 76 49 77
REMARK SMILES IDX 73 78 74 79 82 80 75 81 77 82 83 83 76 84 78 85 79 86 80 87
REMARK SMILES IDX 81 88 58 89 59 90 67 91 60 92 62 93 68 94 61 95 63 96 64 97
REMARK SMILES IDX 65 98 66 99
REMARK H PARENT 24 7 29 33 88 52 56 63
REMARK Flexibility Score: inf
ROOT
ATOM      1  C   UNL A   1      31.600  28.713  26.387  1.00  0.00     0.023 C 
ENDROOT
BRANCH   1   2
ATOM      2  C   UNL A   1      31.901  27.233  26.130  1.00  0.00     0.023 C 
BRANCH   2   3
ATOM      3  C   UNL A   1      30.721  26.296  26.414  1.00  0.00     0.116 C 
BRANCH   3   4
ATOM      4  N   UNL A   1      30.147  25.836  25.162  1.00  0.00    -0.352 N 
ATOM      5  C   UNL A   1      30.600  24.985  24.206  1.00  0.00     0.251 C 
ATOM      6  O   UNL A   1      29.996  24.944  23.137  1.00  0.00    -0.270 OA
ATOM      7  H   UNL A   1      29.258  26.213  24.971  1.00  0.00     0.163 HD
BRANCH   5   8
ATOM      8  C   UNL A   1      31.732  24.043  24.424  1.00  0.00     0.067 C 
ATOM      9  C   UNL A   1      35.111  21.545  24.543  1.00  0.00    -0.002 A 
ATOM     10  C   UNL A   1      34.926  20.159  24.721  1.00  0.00     0.054 A 
ATOM     11  C   UNL A   1      33.998  22.399  24.595  1.00  0.00     0.131 A 
ATOM     12  C   UNL A   1      33.654  19.633  24.949  1.00  0.00     0.130 A 
ATOM     13  C   UNL A   1      32.727  21.877  24.798  1.00  0.00     0.021 A 
ATOM     14  O   UNL A   1      34.222  23.727  24.389  1.00  0.00    -0.475 OA
ATOM     15  C   UNL A   1      32.561  20.500  24.983  1.00  0.00     0.058 A 
ATOM     16  C   UNL A   1      31.566  22.746  24.716  1.00  0.00     0.025 C 
ATOM     17  C   UNL A   1      33.120  24.677  24.438  1.00  0.00     0.314 C 
BRANCH   9  18
ATOM     18  C   UNL A   1      36.497  22.079  24.250  1.00  0.00     0.039 C 
BRANCH  18  19
ATOM     19  C   UNL A   1      37.340  22.340  25.503  1.00  0.00     0.001 C 
ATOM     20  C   UNL A   1      37.402  23.804  25.919  1.00  0.00     0.004 C 
ENDBRANCH  18  19
ENDBRANCH   9  18
BRANCH  12  21
ATOM     21  O   UNL A   1      33.333  18.319  25.123  1.00  0.00    -0.406 OA
BRANCH  21  22
ATOM     22  C   UNL A   1      33.542  17.432  24.039  1.00  0.00     0.573 C 
ATOM     23  F   UNL A   1      33.061  17.947  22.887  1.00  0.00    -0.132 F 
ATOM     24  F   UNL A   1      34.853  17.144  23.891  1.00  0.00    -0.132 F 
ATOM     25  F   UNL A   1      32.885  16.278  24.288  1.00  0.00    -0.132 F 
ENDBRANCH  21  22
ENDBRANCH  12  21
BRANCH  17  26
ATOM     26  C   UNL A   1      33.406  25.747  23.358  1.00  0.00     0.429 C 
ATOM     27  F   UNL A   1      32.335  26.515  23.067  1.00  0.00    -0.167 F 
ATOM     28  F   UNL A   1      34.361  26.619  23.790  1.00  0.00    -0.167 F 
ATOM     29  F   UNL A   1      33.868  25.205  22.209  1.00  0.00    -0.167 F 
ENDBRANCH  17  26
ENDBRANCH   5   8
ENDBRANCH   3   4
ENDBRANCH   2   3
ENDBRANCH   1   2
BRANCH   1  30
ATOM     30  C   UNL A   1      32.692  29.678  25.938  1.00  0.00     0.116 C 
BRANCH  30  31
ATOM     31  N   UNL A   1      32.433  31.053  26.335  1.00  0.00    -0.352 N 
ATOM     32  C   UNL A   1      33.155  31.860  27.184  1.00  0.00     0.251 C 
ATOM     33  H   UNL A   1      31.629  31.463  25.943  1.00  0.00     0.163 HD
ATOM     34  O   UNL A   1      32.722  32.957  27.495  1.00  0.00    -0.269 OA
BRANCH  32  35
ATOM     35  C   UNL A   1      34.435  31.370  27.741  1.00  0.00     0.039 A 
ATOM     36  C   UNL A   1      35.461  32.293  27.952  1.00  0.00     0.014 A 
ATOM     37  C   UNL A   1      34.617  30.024  28.069  1.00  0.00     0.014 A 
ATOM     38  C   UNL A   1      36.650  31.873  28.549  1.00  0.00     0.010 A 
ATOM     39  C   UNL A   1      35.775  29.623  28.729  1.00  0.00     0.010 A 
ATOM     40  C   UNL A   1      36.804  30.542  28.974  1.00  0.00    -0.014 A 
BRANCH  40  41
ATOM     41  C   UNL A   1      38.023  30.126  29.713  1.00  0.00     0.031 A 
ATOM     42  C   UNL A   1      38.286  30.617  31.109  1.00  0.00     0.074 A 
ATOM     43  C   UNL A   1      38.927  29.342  29.092  1.00  0.00     0.049 A 
ATOM     44  N   UNL A   1      39.271  30.312  31.913  1.00  0.00    -0.248 NA
ATOM     45  C   UNL A   1      37.338  31.596  31.666  1.00  0.00     0.031 C 
ATOM     46  C   UNL A   1      38.838  28.889  27.701  1.00  0.00     0.029 A 
ATOM     47  N   UNL A   1      40.103  28.798  29.542  1.00  0.00    -0.354 N 
ATOM     48  C   UNL A   1      39.076  31.072  33.060  1.00  0.00     0.074 A 
ATOM     49  C   UNL A   1      37.902  31.886  32.831  1.00  0.00     0.031 C 
ATOM     50  C   UNL A   1      39.900  28.119  27.420  1.00  0.00     0.029 A 
ATOM     51  C   UNL A   1      40.755  28.039  28.600  1.00  0.00     0.049 A 
ATOM     52  H   UNL A   1      40.446  28.938  30.454  1.00  0.00     0.167 HD
ATOM     53  C   UNL A   1      39.790  31.070  34.211  1.00  0.00     0.034 A 
ATOM     54  C   UNL A   1      41.908  27.347  28.680  1.00  0.00     0.034 A 
ATOM     55  C   UNL A   1      40.937  30.232  34.446  1.00  0.00     0.049 A 
ATOM     56  C   UNL A   1      42.646  27.310  29.989  1.00  0.00     0.074 A 
ATOM     57  C   UNL A   1      41.671  30.084  35.609  1.00  0.00     0.029 A 
ATOM     58  N   UNL A   1      41.525  29.411  33.496  1.00  0.00    -0.354 N 
ATOM     59  N   UNL A   1      42.340  27.889  31.125  1.00  0.00    -0.248 NA
ATOM     60  C   UNL A   1      43.865  26.491  30.040  1.00  0.00     0.031 C 
ATOM     61  C   UNL A   1      42.718  29.190  35.355  1.00  0.00     0.029 A 
ATOM     62  C   UNL A   1      42.621  28.762  34.040  1.00  0.00     0.049 A 
ATOM     63  H   UNL A   1      41.211  29.305  32.569  1.00  0.00     0.167 HD
ATOM     64  C   UNL A   1      43.311  27.484  32.033  1.00  0.00     0.074 A 
ATOM     65  C   UNL A   1      44.195  26.582  31.322  1.00  0.00     0.031 C 
ATOM     66  C   UNL A   1      43.469  27.838  33.332  1.00  0.00     0.034 A 
BRANCH  53  67
ATOM     67  C   UNL A   1      39.315  31.959  35.332  1.00  0.00     0.023 A 
ATOM     68  C   UNL A   1      38.419  31.443  36.293  1.00  0.00     0.012 A 
ATOM     69  C   UNL A   1      39.793  33.275  35.471  1.00  0.00     0.148 A 
ATOM     70  C   UNL A   1      37.981  32.234  37.354  1.00  0.00     0.002 A 
ATOM     71  C   UNL A   1      39.387  34.043  36.558  1.00  0.00     0.091 A 
ATOM     72  F   UNL A   1      40.626  33.757  34.538  1.00  0.00    -0.205 F 
ATOM     73  C   UNL A   1      38.472  33.529  37.492  1.00  0.00     0.022 A 
BRANCH  71  74
ATOM     74  S   UNL A   1      40.022  35.694  36.870  1.00  0.00     0.127 S 
ATOM     75  O   UNL A   1      41.464  35.453  36.912  1.00  0.00    -0.237 OA
ATOM     76  O   UNL A   1      39.561  36.429  35.691  1.00  0.00    -0.237 OA
ATOM     77  O   UNL A   1      39.423  36.124  38.126  1.00  0.00    -0.744 OA
ENDBRANCH  71  74
ENDBRANCH  53  67
BRANCH  54  78
ATOM     78  C   UNL A   1      42.387  26.564  27.505  1.00  0.00     0.023 A 
ATOM     79  C   UNL A   1      43.227  27.180  26.558  1.00  0.00     0.012 A 
ATOM     80  C   UNL A   1      42.045  25.208  27.341  1.00  0.00     0.148 A 
ATOM     81  C   UNL A   1      43.690  26.471  25.449  1.00  0.00     0.002 A 
ATOM     82  C   UNL A   1      42.556  24.491  26.266  1.00  0.00     0.091 A 
ATOM     83  F   UNL A   1      41.235  24.643  28.248  1.00  0.00    -0.205 F 
ATOM     84  C   UNL A   1      43.365  25.125  25.309  1.00  0.00     0.022 A 
BRANCH  82  85
ATOM     85  S   UNL A   1      42.303  22.722  26.084  1.00  0.00     0.127 S 
ATOM     86  O   UNL A   1      42.930  22.462  24.791  1.00  0.00    -0.237 OA
ATOM     87  O   UNL A   1      43.027  22.192  27.240  1.00  0.00    -0.237 OA
ATOM     88  O   UNL A   1      40.861  22.526  26.142  1.00  0.00    -0.744 OA
ENDBRANCH  82  85
ENDBRANCH  54  78
BRANCH  66  89
ATOM     89  C   UNL A   1      44.635  27.239  34.076  1.00  0.00     0.023 A 
ATOM     90  C   UNL A   1      45.882  27.897  34.067  1.00  0.00     0.012 A 
ATOM     91  C   UNL A   1      44.487  26.053  34.819  1.00  0.00     0.148 A 
ATOM     92  C   UNL A   1      46.973  27.360  34.749  1.00  0.00     0.002 A 
ATOM     93  C   UNL A   1      45.565  25.549  35.538  1.00  0.00     0.091 A 
ATOM     94  F   UNL A   1      43.300  25.428  34.800  1.00  0.00    -0.205 F 
ATOM     95  C   UNL A   1      46.812  26.193  35.491  1.00  0.00     0.022 A 
BRANCH  93  96
ATOM     96  S   UNL A   1      45.422  24.105  36.597  1.00  0.00     0.127 S 
ATOM     97  O   UNL A   1      46.801  23.924  37.044  1.00  0.00    -0.237 OA
ATOM     98  O   UNL A   1      44.499  24.570  37.634  1.00  0.00    -0.237 OA
ATOM     99  O   UNL A   1      44.890  23.044  35.751  1.00  0.00    -0.744 OA
ENDBRANCH  93  96
ENDBRANCH  66  89
ENDBRANCH  40  41
ENDBRANCH  32  35
ENDBRANCH  30  31
ENDBRANCH   1  30
TORSDOF 19
ENDMDL
MODEL 2
REMARK VINA RESULT:     -12.3      4.988     10.457
REMARK SMILES CCCc1cc(OC(F)(F)F)cc2c1O[C@@H](C(F)(F)F)C(C(=O)NCCCCNC(=O)c1ccc(-c3c4nc(c(-c5cccc(S(=O)(=O)[O-])c5F)c5ccc([nH]5)c(-c5cccc(S(=O)(=O)[O-])c5F)c5nc(c(-c6cccc(S(=O)(=O)[O-])c6F)c6ccc3[nH]6)C=C5)C=C4)cc1)=C2
REMARK SMILES IDX 27 1 26 2 25 3 24 4 22 5 23 6 21 8 4 9 5 10 14 11 6 12 13 13
REMARK SMILES IDX 15 14 12 15 95 16 16 17 3 18 2 19 1 20 7 21 8 22 9 23 10 24
REMARK SMILES IDX 11 25 17 26 18 27 19 28 20 29 28 30 29 31 30 32 31 34 32 35
REMARK SMILES IDX 33 36 94 37 34 38 93 39 35 40 36 41 37 42 87 43 38 44 92 45
REMARK SMILES IDX 86 46 88 47 39 48 91 49 85 50 84 51 40 53 72 54 52 55 71 56
REMARK SMILES IDX 53 57 56 58 70 59 89 60 54 61 55 62 69 64 90 65 57 66 41 67
REMARK SMILES IDX 42 68 50 69 43 70 45 71 51 72 44 73 46 74 47 75 48 76 49 77
REMARK SMILES IDX 73 78 74 79 82 80 75 81 77 82 83 83 76 84 78 85 79 86 80 87
REMARK SMILES IDX 81 88 58 89 59 90 67 91 60 92 62 93 68 94 61 95 63 96 64 97
REMARK SMILES IDX 65 98 66 99
REMARK H PARENT 24 7 29 33 88 52 56 63
REMARK Flexibility Score: inf
ROOT
ATOM      1  C   UNL A   1      36.429  22.199  24.348  1.00  0.00     0.023 C 
ENDROOT
BRANCH   1   2
ATOM      2  C   UNL A   1      34.929  22.510  24.368  1.00  0.00     0.023 C 
BRANCH   2   3
ATOM      3  C   UNL A   1      34.531  23.607  25.362  1.00  0.00     0.116 C 
BRANCH   3   4
ATOM      4  N   UNL A   1      33.437  23.142  26.195  1.00  0.00    -0.352 N 
ATOM      5  C   UNL A   1      32.318  23.753  26.662  1.00  0.00     0.251 C 
ATOM      6  O   UNL A   1      31.667  23.180  27.533  1.00  0.00    -0.270 OA
ATOM      7  H   UNL A   1      33.522  22.202  26.475  1.00  0.00     0.163 HD
BRANCH   5   8
ATOM      8  C   UNL A   1      31.798  25.033  26.108  1.00  0.00     0.067 C 
ATOM      9  C   UNL A   1      30.515  28.470  24.055  1.00  0.00    -0.002 A 
ATOM     10  C   UNL A   1      30.985  29.730  24.477  1.00  0.00     0.054 A 
ATOM     11  C   UNL A   1      30.862  27.325  24.789  1.00  0.00     0.131 A 
ATOM     12  C   UNL A   1      31.784  29.847  25.614  1.00  0.00     0.130 A 
ATOM     13  C   UNL A   1      31.677  27.435  25.908  1.00  0.00     0.021 A 
ATOM     14  O   UNL A   1      30.408  26.127  24.326  1.00  0.00    -0.475 OA
ATOM     15  C   UNL A   1      32.128  28.694  26.321  1.00  0.00     0.058 A 
ATOM     16  C   UNL A   1      32.144  26.237  26.585  1.00  0.00     0.025 C 
ATOM     17  C   UNL A   1      30.717  24.896  25.040  1.00  0.00     0.314 C 
BRANCH   9  18
ATOM     18  C   UNL A   1      29.689  28.370  22.790  1.00  0.00     0.039 C 
BRANCH  18  19
ATOM     19  C   UNL A   1      28.242  28.848  22.954  1.00  0.00     0.001 C 
ATOM     20  C   UNL A   1      27.886  30.061  22.103  1.00  0.00     0.004 C 
ENDBRANCH  18  19
ENDBRANCH   9  18
BRANCH  12  21
ATOM     21  O   UNL A   1      32.316  30.996  26.124  1.00  0.00    -0.406 OA
BRANCH  21  22
ATOM     22  C   UNL A   1      31.425  32.021  26.527  1.00  0.00     0.573 C 
ATOM     23  F   UNL A   1      30.441  31.533  27.312  1.00  0.00    -0.132 F 
ATOM     24  F   UNL A   1      32.079  33.004  27.183  1.00  0.00    -0.132 F 
ATOM     25  F   UNL A   1      30.855  32.558  25.427  1.00  0.00    -0.132 F 
ENDBRANCH  21  22
ENDBRANCH  12  21
BRANCH  17  26
ATOM     26  C   UNL A   1      30.936  23.802  23.968  1.00  0.00     0.429 C 
ATOM     27  F   UNL A   1      29.995  23.801  23.002  1.00  0.00    -0.167 F 
ATOM     28  F   UNL A   1      32.116  24.002  23.315  1.00  0.00    -0.167 F 
ATOM     29  F   UNL A   1      30.997  22.563  24.506  1.00  0.00    -0.167 F 
ENDBRANCH  17  26
ENDBRANCH   5   8
ENDBRANCH   3   4
ENDBRANCH   2   3
ENDBRANCH   1   2
BRANCH   1  30
ATOM     30  C   UNL A   1      37.107  22.217  25.714  1.00  0.00     0.116 C 
BRANCH  30  31
ATOM     31  N   UNL A   1      38.205  21.269  25.815  1.00  0.00    -0.352 N 
ATOM     32  C   UNL A   1      39.501  21.485  26.222  1.00  0.00     0.251 C 
ATOM     33  H   UNL A   1      37.992  20.344  25.555  1.00  0.00     0.163 HD
ATOM     34  O   UNL A   1      40.324  20.590  26.133  1.00  0.00    -0.269 OA
BRANCH  32  35
ATOM     35  C   UNL A   1      39.891  22.818  26.732  1.00  0.00     0.039 A 
ATOM     36  C   UNL A   1      40.759  22.882  27.824  1.00  0.00     0.014 A 
ATOM     37  C   UNL A   1      39.425  23.991  26.132  1.00  0.00     0.014 A 
ATOM     38  C   UNL A   1      41.205  24.124  28.276  1.00  0.00     0.010 A 
ATOM     39  C   UNL A   1      39.928  25.224  26.538  1.00  0.00     0.010 A 
ATOM     40  C   UNL A   1      40.820  25.303  27.615  1.00  0.00    -0.014 A 
BRANCH  40  41
ATOM     41  C   UNL A   1      41.388  26.612  28.025  1.00  0.00     0.031 A 
ATOM     42  C   UNL A   1      42.830  26.946  27.761  1.00  0.00     0.074 A 
ATOM     43  C   UNL A   1      40.606  27.483  28.692  1.00  0.00     0.049 A 
ATOM     44  N   UNL A   1      43.472  28.059  28.005  1.00  0.00    -0.248 NA
ATOM     45  C   UNL A   1      43.667  25.889  27.171  1.00  0.00     0.031 C 
ATOM     46  C   UNL A   1      39.222  27.232  29.103  1.00  0.00     0.029 A 
ATOM     47  N   UNL A   1      40.862  28.749  29.154  1.00  0.00    -0.354 N 
ATOM     48  C   UNL A   1      44.788  27.833  27.621  1.00  0.00     0.074 A 
ATOM     49  C   UNL A   1      44.864  26.461  27.167  1.00  0.00     0.031 C 
ATOM     50  C   UNL A   1      38.746  28.315  29.735  1.00  0.00     0.029 A 
ATOM     51  C   UNL A   1      39.793  29.330  29.793  1.00  0.00     0.049 A 
ATOM     52  H   UNL A   1      41.731  29.199  29.038  1.00  0.00     0.167 HD
ATOM     53  C   UNL A   1      45.832  28.697  27.616  1.00  0.00     0.034 A 
ATOM     54  C   UNL A   1      39.665  30.549  30.353  1.00  0.00     0.034 A 
ATOM     55  C   UNL A   1      45.742  30.070  28.037  1.00  0.00     0.049 A 
ATOM     56  C   UNL A   1      40.819  31.510  30.276  1.00  0.00     0.074 A 
ATOM     57  C   UNL A   1      46.714  31.053  27.981  1.00  0.00     0.029 A 
ATOM     58  N   UNL A   1      44.619  30.652  28.604  1.00  0.00    -0.354 N 
ATOM     59  N   UNL A   1      42.002  31.338  29.736  1.00  0.00    -0.248 NA
ATOM     60  C   UNL A   1      40.607  32.847  30.848  1.00  0.00     0.031 C 
ATOM     61  C   UNL A   1      46.185  32.224  28.536  1.00  0.00     0.029 A 
ATOM     62  C   UNL A   1      44.875  31.977  28.914  1.00  0.00     0.049 A 
ATOM     63  H   UNL A   1      43.763  30.192  28.763  1.00  0.00     0.167 HD
ATOM     64  C   UNL A   1      42.665  32.551  29.878  1.00  0.00     0.074 A 
ATOM     65  C   UNL A   1      41.738  33.459  30.524  1.00  0.00     0.031 C 
ATOM     66  C   UNL A   1      43.932  32.880  29.522  1.00  0.00     0.034 A 
BRANCH  53  67
ATOM     67  C   UNL A   1      47.150  28.199  27.082  1.00  0.00     0.023 A 
ATOM     68  C   UNL A   1      48.186  27.875  27.984  1.00  0.00     0.012 A 
ATOM     69  C   UNL A   1      47.347  27.993  25.703  1.00  0.00     0.148 A 
ATOM     70  C   UNL A   1      49.408  27.389  27.521  1.00  0.00     0.002 A 
ATOM     71  C   UNL A   1      48.553  27.465  25.252  1.00  0.00     0.091 A 
ATOM     72  F   UNL A   1      46.362  28.326  24.858  1.00  0.00    -0.205 F 
ATOM     73  C   UNL A   1      49.587  27.174  26.157  1.00  0.00     0.022 A 
BRANCH  71  74
ATOM     74  S   UNL A   1      48.855  27.077  23.525  1.00  0.00     0.127 S 
ATOM     75  O   UNL A   1      48.077  25.849  23.357  1.00  0.00    -0.237 OA
ATOM     76  O   UNL A   1      48.299  28.248  22.844  1.00  0.00    -0.237 OA
ATOM     77  O   UNL A   1      50.297  26.926  23.394  1.00  0.00    -0.744 OA
ENDBRANCH  71  74
ENDBRANCH  53  67
BRANCH  54  78
ATOM     78  C   UNL A   1      38.366  30.955  30.960  1.00  0.00     0.023 A 
ATOM     79  C   UNL A   1      38.135  30.713  32.328  1.00  0.00     0.012 A 
ATOM     80  C   UNL A   1      37.376  31.607  30.201  1.00  0.00     0.148 A 
ATOM     81  C   UNL A   1      36.927  31.083  32.922  1.00  0.00     0.002 A 
ATOM     82  C   UNL A   1      36.200  32.025  30.811  1.00  0.00     0.091 A 
ATOM     83  F   UNL A   1      37.611  31.817  28.898  1.00  0.00    -0.205 F 
ATOM     84  C   UNL A   1      35.966  31.748  32.167  1.00  0.00     0.022 A 
BRANCH  82  85
ATOM     85  S   UNL A   1      34.968  33.009  29.951  1.00  0.00     0.127 S 
ATOM     86  O   UNL A   1      34.382  32.027  29.043  1.00  0.00    -0.237 OA
ATOM     87  O   UNL A   1      34.098  33.433  31.048  1.00  0.00    -0.237 OA
ATOM     88  O   UNL A   1      35.706  34.095  29.320  1.00  0.00    -0.744 OA
ENDBRANCH  82  85
ENDBRANCH  54  78
BRANCH  66  89
ATOM     89  C   UNL A   1      44.387  34.287  29.813  1.00  0.00     0.023 A 
ATOM     90  C   UNL A   1      44.993  34.584  31.051  1.00  0.00     0.012 A 
ATOM     91  C   UNL A   1      44.259  35.303  28.846  1.00  0.00     0.148 A 
ATOM     92  C   UNL A   1      45.422  35.879  31.338  1.00  0.00     0.002 A 
ATOM     93  C   UNL A   1      44.736  36.580  29.121  1.00  0.00     0.091 A 
ATOM     94  F   UNL A   1      43.663  35.009  27.681  1.00  0.00    -0.205 F 
ATOM     95  C   UNL A   1      45.303  36.874  30.371  1.00  0.00     0.022 A 
BRANCH  93  96
ATOM     96  S   UNL A   1      44.709  37.897  27.898  1.00  0.00     0.127 S 
ATOM     97  O   UNL A   1      45.629  38.868  28.486  1.00  0.00    -0.237 OA
ATOM     98  O   UNL A   1      45.216  37.222  26.703  1.00  0.00    -0.237 OA
ATOM     99  O   UNL A   1      43.319  38.323  27.804  1.00  0.00    -0.744 OA
ENDBRANCH  93  96
ENDBRANCH  66  89
ENDBRANCH  40  41
ENDBRANCH  32  35
ENDBRANCH  30  31
ENDBRANCH   1  30
TORSDOF 19
ENDMDL
MODEL 3
REMARK VINA RESULT:     -12.3      4.858     10.270
REMARK SMILES CCCc1cc(OC(F)(F)F)cc2c1O[C@@H](C(F)(F)F)C(C(=O)NCCCCNC(=O)c1ccc(-c3c4nc(c(-c5cccc(S(=O)(=O)[O-])c5F)c5ccc([nH]5)c(-c5cccc(S(=O)(=O)[O-])c5F)c5nc(c(-c6cccc(S(=O)(=O)[O-])c6F)c6ccc3[nH]6)C=C5)C=C4)cc1)=C2
REMARK SMILES IDX 27 1 26 2 25 3 24 4 22 5 23 6 21 8 4 9 5 10 14 11 6 12 13 13
REMARK SMILES IDX 15 14 12 15 95 16 16 17 3 18 2 19 1 20 7 21 8 22 9 23 10 24
REMARK SMILES IDX 11 25 17 26 18 27 19 28 20 29 28 30 29 31 30 32 31 34 32 35
REMARK SMILES IDX 33 36 94 37 34 38 93 39 35 40 36 41 37 42 87 43 38 44 92 45
REMARK SMILES IDX 86 46 88 47 39 48 91 49 85 50 84 51 40 53 72 54 52 55 71 56
REMARK SMILES IDX 53 57 56 58 70 59 89 60 54 61 55 62 69 64 90 65 57 66 41 67
REMARK SMILES IDX 42 68 50 69 43 70 45 71 51 72 44 73 46 74 47 75 48 76 49 77
REMARK SMILES IDX 73 78 74 79 82 80 75 81 77 82 83 83 76 84 78 85 79 86 80 87
REMARK SMILES IDX 81 88 58 89 59 90 67 91 60 92 62 93 68 94 61 95 63 96 64 97
REMARK SMILES IDX 65 98 66 99
REMARK H PARENT 24 7 29 33 88 52 56 63
REMARK Flexibility Score: inf
ROOT
ATOM      1  C   UNL A   1      36.294  22.004  24.189  1.00  0.00     0.023 C 
ENDROOT
BRANCH   1   2
ATOM      2  C   UNL A   1      35.298  23.157  24.028  1.00  0.00     0.023 C 
BRANCH   2   3
ATOM      3  C   UNL A   1      34.662  23.245  22.635  1.00  0.00     0.116 C 
BRANCH   3   4
ATOM      4  N   UNL A   1      33.302  22.738  22.684  1.00  0.00    -0.352 N 
ATOM      5  C   UNL A   1      32.147  23.261  23.170  1.00  0.00     0.251 C 
ATOM      6  O   UNL A   1      31.175  22.518  23.275  1.00  0.00    -0.270 OA
ATOM      7  H   UNL A   1      33.198  21.843  22.288  1.00  0.00     0.163 HD
BRANCH   5   8
ATOM      8  C   UNL A   1      31.981  24.704  23.495  1.00  0.00     0.067 C 
ATOM      9  C   UNL A   1      31.205  28.611  24.840  1.00  0.00    -0.002 A 
ATOM     10  C   UNL A   1      30.596  29.526  23.958  1.00  0.00     0.054 A 
ATOM     11  C   UNL A   1      31.553  27.333  24.373  1.00  0.00     0.131 A 
ATOM     12  C   UNL A   1      30.341  29.175  22.632  1.00  0.00     0.130 A 
ATOM     13  C   UNL A   1      31.280  26.972  23.061  1.00  0.00     0.021 A 
ATOM     14  O   UNL A   1      32.113  26.474  25.270  1.00  0.00    -0.475 OA
ATOM     15  C   UNL A   1      30.683  27.895  22.193  1.00  0.00     0.058 A 
ATOM     16  C   UNL A   1      31.517  25.608  22.620  1.00  0.00     0.025 C 
ATOM     17  C   UNL A   1      32.512  25.136  24.858  1.00  0.00     0.314 C 
BRANCH   9  18
ATOM     18  C   UNL A   1      31.425  29.005  26.285  1.00  0.00     0.039 C 
BRANCH  18  19
ATOM     19  C   UNL A   1      32.632  29.925  26.501  1.00  0.00     0.001 C 
ATOM     20  C   UNL A   1      33.968  29.195  26.566  1.00  0.00     0.004 C 
ENDBRANCH  18  19
ENDBRANCH   9  18
BRANCH  12  21
ATOM     21  O   UNL A   1      29.748  29.952  21.680  1.00  0.00    -0.406 OA
BRANCH  21  22
ATOM     22  C   UNL A   1      28.346  30.137  21.748  1.00  0.00     0.573 C 
ATOM     23  F   UNL A   1      27.826  30.391  20.528  1.00  0.00    -0.132 F 
ATOM     24  F   UNL A   1      27.738  29.054  22.281  1.00  0.00    -0.132 F 
ATOM     25  F   UNL A   1      28.085  31.197  22.543  1.00  0.00    -0.132 F 
ENDBRANCH  21  22
ENDBRANCH  12  21
BRANCH  17  26
ATOM     26  C   UNL A   1      32.211  24.196  26.049  1.00  0.00     0.429 C 
ATOM     27  F   UNL A   1      32.472  24.751  27.251  1.00  0.00    -0.167 F 
ATOM     28  F   UNL A   1      30.886  23.877  26.085  1.00  0.00    -0.167 F 
ATOM     29  F   UNL A   1      32.887  23.027  25.963  1.00  0.00    -0.167 F 
ENDBRANCH  17  26
ENDBRANCH   5   8
ENDBRANCH   3   4
ENDBRANCH   2   3
ENDBRANCH   1   2
BRANCH   1  30
ATOM     30  C   UNL A   1      36.820  21.803  25.605  1.00  0.00     0.116 C 
BRANCH  30  31
ATOM     31  N   UNL A   1      37.868  20.798  25.684  1.00  0.00    -0.352 N 
ATOM     32  C   UNL A   1      39.184  20.945  26.058  1.00  0.00     0.251 C 
ATOM     33  H   UNL A   1      37.599  19.884  25.435  1.00  0.00     0.163 HD
ATOM     34  O   UNL A   1      39.955  20.006  25.953  1.00  0.00    -0.269 OA
BRANCH  32  35
ATOM     35  C   UNL A   1      39.658  22.257  26.550  1.00  0.00     0.039 A 
ATOM     36  C   UNL A   1      40.667  22.278  27.515  1.00  0.00     0.014 A 
ATOM     37  C   UNL A   1      39.131  23.453  26.054  1.00  0.00     0.014 A 
ATOM     38  C   UNL A   1      41.187  23.501  27.939  1.00  0.00     0.010 A 
ATOM     39  C   UNL A   1      39.701  24.667  26.425  1.00  0.00     0.010 A 
ATOM     40  C   UNL A   1      40.733  24.705  27.372  1.00  0.00    -0.014 A 
BRANCH  40  41
ATOM     41  C   UNL A   1      41.369  25.994  27.740  1.00  0.00     0.031 A 
ATOM     42  C   UNL A   1      42.790  26.294  27.351  1.00  0.00     0.074 A 
ATOM     43  C   UNL A   1      40.673  26.878  28.482  1.00  0.00     0.049 A 
ATOM     44  N   UNL A   1      43.480  27.388  27.545  1.00  0.00    -0.248 NA
ATOM     45  C   UNL A   1      43.543  25.222  26.680  1.00  0.00     0.031 C 
ATOM     46  C   UNL A   1      39.324  26.657  29.013  1.00  0.00     0.029 A 
ATOM     47  N   UNL A   1      41.002  28.132  28.930  1.00  0.00    -0.354 N 
ATOM     48  C   UNL A   1      44.750  27.133  27.043  1.00  0.00     0.074 A 
ATOM     49  C   UNL A   1      44.749  25.764  26.573  1.00  0.00     0.031 C 
ATOM     50  C   UNL A   1      38.936  27.746  29.694  1.00  0.00     0.029 A 
ATOM     51  C   UNL A   1      40.010  28.733  29.666  1.00  0.00     0.049 A 
ATOM     52  H   UNL A   1      41.868  28.560  28.740  1.00  0.00     0.167 HD
ATOM     53  C   UNL A   1      45.811  27.969  26.952  1.00  0.00     0.034 A 
ATOM     54  C   UNL A   1      39.965  29.949  30.246  1.00  0.00     0.034 A 
ATOM     55  C   UNL A   1      45.795  29.340  27.391  1.00  0.00     0.049 A 
ATOM     56  C   UNL A   1      41.132  30.881  30.073  1.00  0.00     0.074 A 
ATOM     57  C   UNL A   1      46.784  30.299  27.256  1.00  0.00     0.029 A 
ATOM     58  N   UNL A   1      44.743  29.945  28.060  1.00  0.00    -0.354 N 
ATOM     59  N   UNL A   1      42.257  30.685  29.428  1.00  0.00    -0.248 NA
ATOM     60  C   UNL A   1      41.007  32.217  30.673  1.00  0.00     0.031 C 
ATOM     61  C   UNL A   1      46.338  31.477  27.865  1.00  0.00     0.029 A 
ATOM     62  C   UNL A   1      45.060  31.260  28.357  1.00  0.00     0.049 A 
ATOM     63  H   UNL A   1      43.894  29.504  28.291  1.00  0.00     0.167 HD
ATOM     64  C   UNL A   1      42.961  31.879  29.520  1.00  0.00     0.074 A 
ATOM     65  C   UNL A   1      42.120  32.803  30.253  1.00  0.00     0.031 C 
ATOM     66  C   UNL A   1      44.199  32.180  29.055  1.00  0.00     0.034 A 
BRANCH  53  67
ATOM     67  C   UNL A   1      47.063  27.444  26.298  1.00  0.00     0.023 A 
ATOM     68  C   UNL A   1      47.307  27.728  24.937  1.00  0.00     0.012 A 
ATOM     69  C   UNL A   1      48.024  26.725  27.034  1.00  0.00     0.148 A 
ATOM     70  C   UNL A   1      48.467  27.276  24.312  1.00  0.00     0.002 A 
ATOM     71  C   UNL A   1      49.201  26.317  26.415  1.00  0.00     0.091 A 
ATOM     72  F   UNL A   1      47.768  26.445  28.320  1.00  0.00    -0.205 F 
ATOM     73  C   UNL A   1      49.418  26.580  25.052  1.00  0.00     0.022 A 
BRANCH  71  74
ATOM     74  S   UNL A   1      50.523  25.483  27.300  1.00  0.00     0.127 S 
ATOM     75  O   UNL A   1      50.840  26.458  28.344  1.00  0.00    -0.237 OA
ATOM     76  O   UNL A   1      49.857  24.272  27.780  1.00  0.00    -0.237 OA
ATOM     77  O   UNL A   1      51.576  25.250  26.322  1.00  0.00    -0.744 OA
ENDBRANCH  71  74
ENDBRANCH  53  67
BRANCH  54  78
ATOM     78  C   UNL A   1      38.736  30.381  30.970  1.00  0.00     0.023 A 
ATOM     79  C   UNL A   1      38.633  30.156  32.356  1.00  0.00     0.012 A 
ATOM     80  C   UNL A   1      37.688  31.043  30.302  1.00  0.00     0.148 A 
ATOM     81  C   UNL A   1      37.494  30.551  33.059  1.00  0.00     0.002 A 
ATOM     82  C   UNL A   1      36.582  31.485  31.017  1.00  0.00     0.091 A 
ATOM     83  F   UNL A   1      37.799  31.237  28.980  1.00  0.00    -0.205 F 
ATOM     84  C   UNL A   1      36.475  31.224  32.393  1.00  0.00     0.022 A 
BRANCH  82  85
ATOM     85  S   UNL A   1      35.289  32.481  30.268  1.00  0.00     0.127 S 
ATOM     86  O   UNL A   1      34.345  32.625  31.373  1.00  0.00    -0.237 OA
ATOM     87  O   UNL A   1      36.015  33.701  29.912  1.00  0.00    -0.237 OA
ATOM     88  O   UNL A   1      34.816  31.712  29.125  1.00  0.00    -0.744 OA
ENDBRANCH  82  85
ENDBRANCH  54  78
BRANCH  66  89
ATOM     89  C   UNL A   1      44.716  33.571  29.315  1.00  0.00     0.023 A 
ATOM     90  C   UNL A   1      45.341  33.867  30.543  1.00  0.00     0.012 A 
ATOM     91  C   UNL A   1      44.624  34.573  28.329  1.00  0.00     0.148 A 
ATOM     92  C   UNL A   1      45.827  35.147  30.802  1.00  0.00     0.002 A 
ATOM     93  C   UNL A   1      45.156  35.834  28.575  1.00  0.00     0.091 A 
ATOM     94  F   UNL A   1      44.009  34.281  27.174  1.00  0.00    -0.205 F 
ATOM     95  C   UNL A   1      45.743  36.127  29.816  1.00  0.00     0.022 A 
BRANCH  93  96
ATOM     96  S   UNL A   1      45.177  37.126  27.327  1.00  0.00     0.127 S 
ATOM     97  O   UNL A   1      45.796  38.233  28.054  1.00  0.00    -0.237 OA
ATOM     98  O   UNL A   1      46.015  36.536  26.282  1.00  0.00    -0.237 OA
ATOM     99  O   UNL A   1      43.786  37.327  26.940  1.00  0.00    -0.744 OA
ENDBRANCH  93  96
ENDBRANCH  66  89
ENDBRANCH  40  41
ENDBRANCH  32  35
ENDBRANCH  30  31
ENDBRANCH   1  30
TORSDOF 19
ENDMDL
