MODEL 1
REMARK VINA RESULT:     -13.1      0.000      0.000
REMARK SMILES O=C(NCCCCNC(=O)[C@H](NC(=O)[C@H]1CC[C@@H](CNC(=O)[C@@H]2Cc3ccccc3C[NH2+]2)CC1)c1ccccc1)c1ccc(-c2c3nc(c(-c4cccc(S(=O)(=O)[O-])c4F)c4ccc([nH]4)c(-c4cccc(S(=O)(=O)[O-])c4F)c4nc(c(-c5cccc(S(=O)(=O)[O-])c5F)c5ccc2[nH]5)C=C4)C=C3)cc1
REMARK SMILES IDX 6 1 5 2 4 3 3 4 1 5 2 6 41 8 42 9 103 10 43 11 102 12 44 13
REMARK SMILES IDX 45 14 46 15 96 16 47 17 101 18 95 19 97 20 48 21 100 22
REMARK SMILES IDX 94 23 93 24 49 26 81 27 61 28 80 29 62 30 65 31 79 32 98 33
REMARK SMILES IDX 63 34 64 35 78 37 99 38 66 39 50 40 51 41 59 42 52 43 54 44
REMARK SMILES IDX 60 45 53 46 55 47 56 48 57 49 58 50 82 51 83 52 91 53 84 54
REMARK SMILES IDX 86 55 92 56 85 57 87 58 88 59 89 60 90 61 67 62 68 63 76 64
REMARK SMILES IDX 69 65 71 66 77 67 70 68 72 69 73 70 74 71 75 72 7 73 8 74
REMARK SMILES IDX 9 75 10 77 11 78 35 79 36 80 40 81 37 82 39 83 38 84 12 85
REMARK SMILES IDX 13 86 14 88 15 89 34 90 16 91 33 92 17 93 18 94 19 95 20 96
REMARK SMILES IDX 21 97 22 99 23 100 24 101 32 102 25 103 31 104 26 107 30 108
REMARK SMILES IDX 27 109 29 110 28 111
REMARK H PARENT 3 7 97 25 65 36 8 76 12 87 20 98 32 105 32 106
REMARK Flexibility Score: inf
ROOT
ATOM      1  C   UNL A   1      31.940  29.657  26.544  1.00  0.00     0.023 C 
ENDROOT
BRANCH   1   2
ATOM      2  C   UNL A   1      31.757  31.173  26.564  1.00  0.00     0.023 C 
BRANCH   2   3
ATOM      3  C   UNL A   1      32.984  31.969  26.988  1.00  0.00     0.116 C 
BRANCH   3   4
ATOM      4  N   UNL A   1      32.655  33.321  27.402  1.00  0.00    -0.352 N 
ATOM      5  O   UNL A   1      32.688  35.134  28.737  1.00  0.00    -0.269 OA
ATOM      6  C   UNL A   1      33.217  34.076  28.401  1.00  0.00     0.251 C 
ATOM      7  H   UNL A   1      31.929  33.754  26.897  1.00  0.00     0.163 HD
BRANCH   6   8
ATOM      8  C   UNL A   1      34.437  33.593  29.081  1.00  0.00     0.039 A 
ATOM      9  C   UNL A   1      35.664  34.230  28.874  1.00  0.00     0.014 A 
ATOM     10  C   UNL A   1      34.351  32.486  29.928  1.00  0.00     0.014 A 
ATOM     11  C   UNL A   1      36.828  33.676  29.396  1.00  0.00     0.010 A 
ATOM     12  C   UNL A   1      35.509  31.986  30.526  1.00  0.00     0.010 A 
ATOM     13  C   UNL A   1      36.761  32.559  30.243  1.00  0.00    -0.014 A 
BRANCH  13  14
ATOM     14  C   UNL A   1      37.992  32.049  30.896  1.00  0.00     0.031 A 
ATOM     15  C   UNL A   1      38.893  31.072  30.199  1.00  0.00     0.074 A 
ATOM     16  C   UNL A   1      38.259  32.434  32.159  1.00  0.00     0.049 A 
ATOM     17  N   UNL A   1      39.960  30.468  30.654  1.00  0.00    -0.248 NA
ATOM     18  C   UNL A   1      38.547  30.715  28.814  1.00  0.00     0.031 C 
ATOM     19  C   UNL A   1      37.431  33.347  32.951  1.00  0.00     0.029 A 
ATOM     20  N   UNL A   1      39.275  32.082  33.010  1.00  0.00    -0.354 N 
ATOM     21  C   UNL A   1      40.386  29.624  29.636  1.00  0.00     0.074 A 
ATOM     22  C   UNL A   1      39.458  29.792  28.537  1.00  0.00     0.031 C 
ATOM     23  C   UNL A   1      37.961  33.472  34.173  1.00  0.00     0.029 A 
ATOM     24  C   UNL A   1      39.127  32.603  34.274  1.00  0.00     0.049 A 
ATOM     25  H   UNL A   1      40.034  31.515  32.743  1.00  0.00     0.167 HD
ATOM     26  C   UNL A   1      41.453  28.788  29.620  1.00  0.00     0.034 A 
ATOM     27  C   UNL A   1      39.817  32.372  35.406  1.00  0.00     0.034 A 
ATOM     28  C   UNL A   1      42.373  28.639  30.716  1.00  0.00     0.049 A 
ATOM     29  C   UNL A   1      40.994  31.443  35.366  1.00  0.00     0.074 A 
ATOM     30  C   UNL A   1      43.531  27.883  30.768  1.00  0.00     0.029 A 
ATOM     31  N   UNL A   1      42.229  29.233  31.960  1.00  0.00    -0.354 N 
ATOM     32  N   UNL A   1      41.463  30.756  34.354  1.00  0.00    -0.248 NA
ATOM     33  C   UNL A   1      41.756  31.278  36.612  1.00  0.00     0.031 C 
ATOM     34  C   UNL A   1      44.060  27.983  32.060  1.00  0.00     0.029 A 
ATOM     35  C   UNL A   1      43.261  28.841  32.797  1.00  0.00     0.049 A 
ATOM     36  H   UNL A   1      41.499  29.845  32.213  1.00  0.00     0.167 HD
ATOM     37  C   UNL A   1      42.592  30.102  34.827  1.00  0.00     0.074 A 
ATOM     38  C   UNL A   1      42.742  30.484  36.217  1.00  0.00     0.031 C 
ATOM     39  C   UNL A   1      43.425  29.260  34.168  1.00  0.00     0.034 A 
BRANCH  26  40
ATOM     40  C   UNL A   1      41.682  27.968  28.374  1.00  0.00     0.023 A 
ATOM     41  C   UNL A   1      42.532  28.451  27.357  1.00  0.00     0.012 A 
ATOM     42  C   UNL A   1      41.085  26.700  28.228  1.00  0.00     0.148 A 
ATOM     43  C   UNL A   1      42.742  27.709  26.195  1.00  0.00     0.002 A 
ATOM     44  C   UNL A   1      41.337  25.946  27.088  1.00  0.00     0.091 A 
ATOM     45  F   UNL A   1      40.266  26.262  29.195  1.00  0.00    -0.205 F 
ATOM     46  C   UNL A   1      42.152  26.455  26.064  1.00  0.00     0.022 A 
BRANCH  44  47
ATOM     47  S   UNL A   1      40.688  24.285  26.868  1.00  0.00     0.127 S 
ATOM     48  O   UNL A   1      39.366  24.560  26.305  1.00  0.00    -0.237 OA
ATOM     49  O   UNL A   1      41.643  23.702  25.924  1.00  0.00    -0.237 OA
ATOM     50  O   UNL A   1      40.695  23.676  28.190  1.00  0.00    -0.744 OA
ENDBRANCH  44  47
ENDBRANCH  26  40
BRANCH  27  51
ATOM     51  C   UNL A   1      39.394  33.051  36.660  1.00  0.00     0.023 A 
ATOM     52  C   UNL A   1      39.818  34.366  36.922  1.00  0.00     0.012 A 
ATOM     53  C   UNL A   1      38.493  32.427  37.547  1.00  0.00     0.148 A 
ATOM     54  C   UNL A   1      39.365  35.044  38.053  1.00  0.00     0.002 A 
ATOM     55  C   UNL A   1      37.999  33.128  38.638  1.00  0.00     0.091 A 
ATOM     56  F   UNL A   1      38.105  31.172  37.276  1.00  0.00    -0.205 F 
ATOM     57  C   UNL A   1      38.446  34.432  38.903  1.00  0.00     0.022 A 
BRANCH  55  58
ATOM     58  S   UNL A   1      36.705  32.475  39.700  1.00  0.00     0.127 S 
ATOM     59  O   UNL A   1      37.233  31.156  40.037  1.00  0.00    -0.237 OA
ATOM     60  O   UNL A   1      36.710  33.441  40.800  1.00  0.00    -0.237 OA
ATOM     61  O   UNL A   1      35.491  32.481  38.897  1.00  0.00    -0.744 OA
ENDBRANCH  55  58
ENDBRANCH  27  51
BRANCH  39  62
ATOM     62  C   UNL A   1      44.614  28.717  34.916  1.00  0.00     0.023 A 
ATOM     63  C   UNL A   1      45.868  29.347  34.808  1.00  0.00     0.012 A 
ATOM     64  C   UNL A   1      44.453  27.642  35.812  1.00  0.00     0.148 A 
ATOM     65  C   UNL A   1      46.949  28.905  35.569  1.00  0.00     0.002 A 
ATOM     66  C   UNL A   1      45.520  27.241  36.605  1.00  0.00     0.091 A 
ATOM     67  F   UNL A   1      43.254  27.045  35.883  1.00  0.00    -0.205 F 
ATOM     68  C   UNL A   1      46.772  27.863  36.477  1.00  0.00     0.022 A 
BRANCH  66  69
ATOM     69  S   UNL A   1      45.358  25.979  37.874  1.00  0.00     0.127 S 
ATOM     70  O   UNL A   1      46.709  25.944  38.433  1.00  0.00    -0.237 OA
ATOM     71  O   UNL A   1      44.347  26.561  38.757  1.00  0.00    -0.237 OA
ATOM     72  O   UNL A   1      44.941  24.764  37.188  1.00  0.00    -0.744 OA
ENDBRANCH  66  69
ENDBRANCH  39  62
ENDBRANCH  13  14
ENDBRANCH   6   8
ENDBRANCH   3   4
ENDBRANCH   2   3
ENDBRANCH   1   2
BRANCH   1  73
ATOM     73  C   UNL A   1      31.609  28.976  25.223  1.00  0.00     0.116 C 
BRANCH  73  74
ATOM     74  N   UNL A   1      30.644  27.898  25.347  1.00  0.00    -0.354 N 
ATOM     75  C   UNL A   1      30.290  27.005  24.368  1.00  0.00     0.247 C 
ATOM     76  H   UNL A   1      30.200  27.798  26.220  1.00  0.00     0.163 HD
ATOM     77  O   UNL A   1      29.862  25.906  24.723  1.00  0.00    -0.272 OA
BRANCH  75  78
ATOM     78  C   UNL A   1      30.484  27.416  22.873  1.00  0.00     0.202 C 
BRANCH  78  79
ATOM     79  C   UNL A   1      29.542  28.579  22.589  1.00  0.00    -0.016 A 
ATOM     80  C   UNL A   1      30.035  29.747  21.982  1.00  0.00     0.006 A 
ATOM     81  C   UNL A   1      28.223  28.566  23.069  1.00  0.00     0.006 A 
ATOM     82  C   UNL A   1      29.272  30.910  21.969  1.00  0.00     0.000 A 
ATOM     83  C   UNL A   1      27.458  29.733  23.041  1.00  0.00     0.000 A 
ATOM     84  C   UNL A   1      27.992  30.908  22.516  1.00  0.00     0.000 A 
ENDBRANCH  78  79
BRANCH  78  85
ATOM     85  N   UNL A   1      31.847  27.730  22.452  1.00  0.00    -0.340 N 
ATOM     86  C   UNL A   1      32.951  26.922  22.476  1.00  0.00     0.224 C 
ATOM     87  H   UNL A   1      31.990  28.640  22.105  1.00  0.00     0.164 HD
ATOM     88  O   UNL A   1      33.841  27.129  21.648  1.00  0.00    -0.275 OA
BRANCH  86  89
ATOM     89  C   UNL A   1      33.078  25.832  23.538  1.00  0.00     0.078 C 
ATOM     90  C   UNL A   1      33.589  24.508  22.960  1.00  0.00     0.014 C 
ATOM     91  C   UNL A   1      33.937  26.288  24.732  1.00  0.00     0.014 C 
ATOM     92  C   UNL A   1      33.632  23.433  24.044  1.00  0.00     0.006 C 
ATOM     93  C   UNL A   1      34.069  25.180  25.788  1.00  0.00     0.006 C 
ATOM     94  C   UNL A   1      34.561  23.848  25.194  1.00  0.00     0.008 C 
BRANCH  94  95
ATOM     95  C   UNL A   1      36.006  23.951  24.681  1.00  0.00     0.119 C 
BRANCH  95  96
ATOM     96  N   UNL A   1      36.928  23.137  25.434  1.00  0.00    -0.351 N 
ATOM     97  C   UNL A   1      37.210  21.813  25.427  1.00  0.00     0.278 C 
ATOM     98  H   UNL A   1      37.458  23.648  26.088  1.00  0.00     0.163 HD
ATOM     99  O   UNL A   1      38.253  21.506  26.023  1.00  0.00    -0.268 OA
BRANCH  97 100
ATOM    100  C   UNL A   1      36.293  20.697  24.856  1.00  0.00     0.277 C 
ATOM    101  C   UNL A   1      34.852  20.556  25.364  1.00  0.00     0.111 C 
ATOM    102  N   UNL A   1      37.073  19.428  24.841  1.00  0.00    -0.332 N 
ATOM    103  C   UNL A   1      34.163  19.444  24.615  1.00  0.00    -0.033 A 
ATOM    104  C   UNL A   1      36.289  18.208  25.023  1.00  0.00     0.298 C 
ATOM    105  H   UNL A   1      37.762  19.472  25.591  1.00  0.00     0.347 HD
ATOM    106  H   UNL A   1      37.483  19.361  23.910  1.00  0.00     0.347 HD
ATOM    107  C   UNL A   1      32.847  19.533  24.158  1.00  0.00     0.004 A 
ATOM    108  C   UNL A   1      34.917  18.279  24.400  1.00  0.00     0.010 A 
ATOM    109  C   UNL A   1      32.293  18.466  23.451  1.00  0.00     0.000 A 
ATOM    110  C   UNL A   1      34.353  17.214  23.695  1.00  0.00     0.010 A 
ATOM    111  C   UNL A   1      33.047  17.315  23.213  1.00  0.00     0.001 A 
ENDBRANCH  97 100
ENDBRANCH  95  96
ENDBRANCH  94  95
ENDBRANCH  86  89
ENDBRANCH  78  85
ENDBRANCH  75  78
ENDBRANCH  73  74
ENDBRANCH   1  73
TORSDOF 20
ENDMDL
MODEL 2
REMARK VINA RESULT:     -12.7      6.127     11.787
REMARK SMILES O=C(NCCCCNC(=O)[C@H](NC(=O)[C@H]1CC[C@@H](CNC(=O)[C@@H]2Cc3ccccc3C[NH2+]2)CC1)c1ccccc1)c1ccc(-c2c3nc(c(-c4cccc(S(=O)(=O)[O-])c4F)c4ccc([nH]4)c(-c4cccc(S(=O)(=O)[O-])c4F)c4nc(c(-c5cccc(S(=O)(=O)[O-])c5F)c5ccc2[nH]5)C=C4)C=C3)cc1
REMARK SMILES IDX 6 1 5 2 4 3 3 4 1 5 2 6 41 8 42 9 103 10 43 11 102 12 44 13
REMARK SMILES IDX 45 14 46 15 96 16 47 17 101 18 95 19 97 20 48 21 100 22
REMARK SMILES IDX 94 23 93 24 49 26 81 27 61 28 80 29 62 30 65 31 79 32 98 33
REMARK SMILES IDX 63 34 64 35 78 37 99 38 66 39 50 40 51 41 59 42 52 43 54 44
REMARK SMILES IDX 60 45 53 46 55 47 56 48 57 49 58 50 82 51 83 52 91 53 84 54
REMARK SMILES IDX 86 55 92 56 85 57 87 58 88 59 89 60 90 61 67 62 68 63 76 64
REMARK SMILES IDX 69 65 71 66 77 67 70 68 72 69 73 70 74 71 75 72 7 73 8 74
REMARK SMILES IDX 9 75 10 77 11 78 35 79 36 80 40 81 37 82 39 83 38 84 12 85
REMARK SMILES IDX 13 86 14 88 15 89 34 90 16 91 33 92 17 93 18 94 19 95 20 96
REMARK SMILES IDX 21 97 22 99 23 100 24 101 32 102 25 103 31 104 26 107 30 108
REMARK SMILES IDX 27 109 29 110 28 111
REMARK H PARENT 3 7 97 25 65 36 8 76 12 87 20 98 32 105 32 106
REMARK Flexibility Score: inf
ROOT
ATOM      1  C   UNL A   1      37.885  23.321  25.389  1.00  0.00     0.023 C 
ENDROOT
BRANCH   1   2
ATOM      2  C   UNL A   1      38.341  21.908  25.746  1.00  0.00     0.023 C 
BRANCH   2   3
ATOM      3  C   UNL A   1      39.580  21.831  26.629  1.00  0.00     0.116 C 
BRANCH   3   4
ATOM      4  N   UNL A   1      40.507  20.800  26.198  1.00  0.00    -0.352 N 
ATOM      5  O   UNL A   1      42.457  19.967  25.441  1.00  0.00    -0.269 OA
ATOM      6  C   UNL A   1      41.860  20.893  25.984  1.00  0.00     0.251 C 
ATOM      7  H   UNL A   1      40.111  19.913  26.039  1.00  0.00     0.163 HD
BRANCH   6   8
ATOM      8  C   UNL A   1      42.577  22.123  26.383  1.00  0.00     0.039 A 
ATOM      9  C   UNL A   1      42.686  23.199  25.497  1.00  0.00     0.014 A 
ATOM     10  C   UNL A   1      43.153  22.194  27.652  1.00  0.00     0.014 A 
ATOM     11  C   UNL A   1      43.491  24.285  25.823  1.00  0.00     0.010 A 
ATOM     12  C   UNL A   1      43.886  23.326  28.013  1.00  0.00     0.010 A 
ATOM     13  C   UNL A   1      44.084  24.370  27.092  1.00  0.00    -0.014 A 
BRANCH  13  14
ATOM     14  C   UNL A   1      44.838  25.587  27.478  1.00  0.00     0.031 A 
ATOM     15  C   UNL A   1      44.211  26.654  28.328  1.00  0.00     0.074 A 
ATOM     16  C   UNL A   1      46.087  25.751  26.998  1.00  0.00     0.049 A 
ATOM     17  N   UNL A   1      44.700  27.811  28.689  1.00  0.00    -0.248 NA
ATOM     18  C   UNL A   1      42.853  26.394  28.830  1.00  0.00     0.031 C 
ATOM     19  C   UNL A   1      46.782  24.800  26.127  1.00  0.00     0.029 A 
ATOM     20  N   UNL A   1      46.976  26.784  27.142  1.00  0.00    -0.354 N 
ATOM     21  C   UNL A   1      43.699  28.441  29.416  1.00  0.00     0.074 A 
ATOM     22  C   UNL A   1      42.569  27.535  29.444  1.00  0.00     0.031 C 
ATOM     23  C   UNL A   1      47.982  25.298  25.803  1.00  0.00     0.029 A 
ATOM     24  C   UNL A   1      48.115  26.627  26.387  1.00  0.00     0.049 A 
ATOM     25  H   UNL A   1      46.817  27.560  27.726  1.00  0.00     0.167 HD
ATOM     26  C   UNL A   1      43.720  29.660  30.008  1.00  0.00     0.034 A 
ATOM     27  C   UNL A   1      49.134  27.473  26.146  1.00  0.00     0.034 A 
ATOM     28  C   UNL A   1      44.854  30.546  29.982  1.00  0.00     0.049 A 
ATOM     29  C   UNL A   1      49.138  28.817  26.810  1.00  0.00     0.074 A 
ATOM     30  C   UNL A   1      45.007  31.765  30.619  1.00  0.00     0.029 A 
ATOM     31  N   UNL A   1      46.017  30.325  29.260  1.00  0.00    -0.354 N 
ATOM     32  N   UNL A   1      48.238  29.342  27.607  1.00  0.00    -0.248 NA
ATOM     33  C   UNL A   1      50.305  29.677  26.570  1.00  0.00     0.031 C 
ATOM     34  C   UNL A   1      46.243  32.301  30.244  1.00  0.00     0.029 A 
ATOM     35  C   UNL A   1      46.883  31.395  29.415  1.00  0.00     0.049 A 
ATOM     36  H   UNL A   1      46.202  29.524  28.717  1.00  0.00     0.167 HD
ATOM     37  C   UNL A   1      48.743  30.577  27.990  1.00  0.00     0.074 A 
ATOM     38  C   UNL A   1      50.033  30.719  27.345  1.00  0.00     0.031 C 
ATOM     39  C   UNL A   1      48.184  31.508  28.801  1.00  0.00     0.034 A 
BRANCH  26  40
ATOM     40  C   UNL A   1      42.476  30.108  30.735  1.00  0.00     0.023 A 
ATOM     41  C   UNL A   1      41.524  30.913  30.076  1.00  0.00     0.012 A 
ATOM     42  C   UNL A   1      42.233  29.700  32.061  1.00  0.00     0.148 A 
ATOM     43  C   UNL A   1      40.376  31.345  30.741  1.00  0.00     0.002 A 
ATOM     44  C   UNL A   1      41.063  30.095  32.701  1.00  0.00     0.091 A 
ATOM     45  F   UNL A   1      43.155  28.949  32.681  1.00  0.00    -0.205 F 
ATOM     46  C   UNL A   1      40.142  30.930  32.048  1.00  0.00     0.022 A 
BRANCH  44  47
ATOM     47  S   UNL A   1      40.637  29.542  34.357  1.00  0.00     0.127 S 
ATOM     48  O   UNL A   1      39.270  30.043  34.490  1.00  0.00    -0.237 OA
ATOM     49  O   UNL A   1      40.742  28.087  34.233  1.00  0.00    -0.237 OA
ATOM     50  O   UNL A   1      41.619  30.146  35.245  1.00  0.00    -0.744 OA
ENDBRANCH  44  47
ENDBRANCH  26  40
BRANCH  27  51
ATOM     51  C   UNL A   1      50.227  27.044  25.233  1.00  0.00     0.023 A 
ATOM     52  C   UNL A   1      50.254  27.508  23.906  1.00  0.00     0.012 A 
ATOM     53  C   UNL A   1      51.292  26.252  25.710  1.00  0.00     0.148 A 
ATOM     54  C   UNL A   1      51.315  27.179  23.062  1.00  0.00     0.002 A 
ATOM     55  C   UNL A   1      52.373  25.978  24.884  1.00  0.00     0.091 A 
ATOM     56  F   UNL A   1      51.242  25.822  26.978  1.00  0.00    -0.205 F 
ATOM     57  C   UNL A   1      52.380  26.427  23.554  1.00  0.00     0.022 A 
BRANCH  55  58
ATOM     58  S   UNL A   1      53.852  25.146  25.473  1.00  0.00     0.127 S 
ATOM     59  O   UNL A   1      53.992  25.702  26.817  1.00  0.00    -0.237 OA
ATOM     60  O   UNL A   1      53.441  23.742  25.426  1.00  0.00    -0.237 OA
ATOM     61  O   UNL A   1      54.907  25.497  24.534  1.00  0.00    -0.744 OA
ENDBRANCH  55  58
ENDBRANCH  27  51
BRANCH  39  62
ATOM     62  C   UNL A   1      48.974  32.758  29.088  1.00  0.00     0.023 A 
ATOM     63  C   UNL A   1      49.888  32.788  30.158  1.00  0.00     0.012 A 
ATOM     64  C   UNL A   1      48.883  33.865  28.222  1.00  0.00     0.148 A 
ATOM     65  C   UNL A   1      50.689  33.909  30.372  1.00  0.00     0.002 A 
ATOM     66  C   UNL A   1      49.720  34.957  28.410  1.00  0.00     0.091 A 
ATOM     67  F   UNL A   1      47.990  33.821  27.222  1.00  0.00    -0.205 F 
ATOM     68  C   UNL A   1      50.616  34.986  29.491  1.00  0.00     0.022 A 
BRANCH  66  69
ATOM     69  S   UNL A   1      49.769  36.342  27.267  1.00  0.00     0.127 S 
ATOM     70  O   UNL A   1      50.794  37.191  27.873  1.00  0.00    -0.237 OA
ATOM     71  O   UNL A   1      50.172  35.696  26.019  1.00  0.00    -0.237 OA
ATOM     72  O   UNL A   1      48.427  36.907  27.255  1.00  0.00    -0.744 OA
ENDBRANCH  66  69
ENDBRANCH  39  62
ENDBRANCH  13  14
ENDBRANCH   6   8
ENDBRANCH   3   4
ENDBRANCH   2   3
ENDBRANCH   1   2
BRANCH   1  73
ATOM     73  C   UNL A   1      36.380  23.551  25.430  1.00  0.00     0.116 C 
BRANCH  73  74
ATOM     74  N   UNL A   1      35.768  23.195  26.699  1.00  0.00    -0.354 N 
ATOM     75  C   UNL A   1      34.437  22.957  26.922  1.00  0.00     0.247 C 
ATOM     76  H   UNL A   1      36.369  23.117  27.475  1.00  0.00     0.163 HD
ATOM     77  O   UNL A   1      34.136  22.226  27.867  1.00  0.00    -0.272 OA
BRANCH  75  78
ATOM     78  C   UNL A   1      33.389  23.590  25.952  1.00  0.00     0.202 C 
BRANCH  78  79
ATOM     79  C   UNL A   1      33.121  22.583  24.842  1.00  0.00    -0.016 A 
ATOM     80  C   UNL A   1      32.776  23.033  23.556  1.00  0.00     0.006 A 
ATOM     81  C   UNL A   1      33.054  21.209  25.122  1.00  0.00     0.006 A 
ATOM     82  C   UNL A   1      32.259  22.150  22.614  1.00  0.00     0.000 A 
ATOM     83  C   UNL A   1      32.546  20.325  24.168  1.00  0.00     0.000 A 
ATOM     84  C   UNL A   1      32.126  20.800  22.927  1.00  0.00     0.000 A 
ENDBRANCH  78  79
BRANCH  78  85
ATOM     85  N   UNL A   1      32.140  24.057  26.551  1.00  0.00    -0.340 N 
ATOM     86  C   UNL A   1      31.379  25.136  26.197  1.00  0.00     0.224 C 
ATOM     87  H   UNL A   1      31.803  23.524  27.307  1.00  0.00     0.164 HD
ATOM     88  O   UNL A   1      30.168  25.093  26.422  1.00  0.00    -0.275 OA
BRANCH  86  89
ATOM     89  C   UNL A   1      32.040  26.370  25.585  1.00  0.00     0.078 C 
ATOM     90  C   UNL A   1      31.091  27.571  25.518  1.00  0.00     0.014 C 
ATOM     91  C   UNL A   1      33.353  26.736  26.301  1.00  0.00     0.014 C 
ATOM     92  C   UNL A   1      31.773  28.755  24.837  1.00  0.00     0.006 C 
ATOM     93  C   UNL A   1      34.002  27.985  25.686  1.00  0.00     0.006 C 
ATOM     94  C   UNL A   1      33.034  29.179  25.603  1.00  0.00     0.008 C 
BRANCH  94  95
ATOM     95  C   UNL A   1      32.644  29.696  26.997  1.00  0.00     0.119 C 
BRANCH  95  96
ATOM     96  N   UNL A   1      33.250  30.965  27.314  1.00  0.00    -0.351 N 
ATOM     97  C   UNL A   1      34.501  31.323  27.687  1.00  0.00     0.278 C 
ATOM     98  H   UNL A   1      32.628  31.724  27.249  1.00  0.00     0.163 HD
ATOM     99  O   UNL A   1      34.731  32.540  27.616  1.00  0.00    -0.268 OA
BRANCH  97 100
ATOM    100  C   UNL A   1      35.573  30.372  28.286  1.00  0.00     0.277 C 
ATOM    101  C   UNL A   1      36.196  30.685  29.654  1.00  0.00     0.111 C 
ATOM    102  N   UNL A   1      36.557  30.058  27.213  1.00  0.00    -0.332 N 
ATOM    103  C   UNL A   1      37.155  29.586  30.031  1.00  0.00    -0.033 A 
ATOM    104  C   UNL A   1      37.923  29.805  27.669  1.00  0.00     0.298 C 
ATOM    105  H   UNL A   1      36.583  30.846  26.568  1.00  0.00     0.347 HD
ATOM    106  H   UNL A   1      36.239  29.188  26.785  1.00  0.00     0.347 HD
ATOM    107  C   UNL A   1      37.243  29.058  31.320  1.00  0.00     0.004 A 
ATOM    108  C   UNL A   1      37.989  29.109  29.006  1.00  0.00     0.010 A 
ATOM    109  C   UNL A   1      38.142  28.024  31.579  1.00  0.00     0.000 A 
ATOM    110  C   UNL A   1      38.889  28.077  29.274  1.00  0.00     0.010 A 
ATOM    111  C   UNL A   1      38.956  27.530  30.557  1.00  0.00     0.001 A 
ENDBRANCH  97 100
ENDBRANCH  95  96
ENDBRANCH  94  95
ENDBRANCH  86  89
ENDBRANCH  78  85
ENDBRANCH  75  78
ENDBRANCH  73  74
ENDBRANCH   1  73
TORSDOF 20
ENDMDL
MODEL 3
REMARK VINA RESULT:     -12.6      5.996      9.910
REMARK SMILES O=C(NCCCCNC(=O)[C@H](NC(=O)[C@H]1CC[C@@H](CNC(=O)[C@@H]2Cc3ccccc3C[NH2+]2)CC1)c1ccccc1)c1ccc(-c2c3nc(c(-c4cccc(S(=O)(=O)[O-])c4F)c4ccc([nH]4)c(-c4cccc(S(=O)(=O)[O-])c4F)c4nc(c(-c5cccc(S(=O)(=O)[O-])c5F)c5ccc2[nH]5)C=C4)C=C3)cc1
REMARK SMILES IDX 6 1 5 2 4 3 3 4 1 5 2 6 41 8 42 9 103 10 43 11 102 12 44 13
REMARK SMILES IDX 45 14 46 15 96 16 47 17 101 18 95 19 97 20 48 21 100 22
REMARK SMILES IDX 94 23 93 24 49 26 81 27 61 28 80 29 62 30 65 31 79 32 98 33
REMARK SMILES IDX 63 34 64 35 78 37 99 38 66 39 50 40 51 41 59 42 52 43 54 44
REMARK SMILES IDX 60 45 53 46 55 47 56 48 57 49 58 50 82 51 83 52 91 53 84 54
REMARK SMILES IDX 86 55 92 56 85 57 87 58 88 59 89 60 90 61 67 62 68 63 76 64
REMARK SMILES IDX 69 65 71 66 77 67 70 68 72 69 73 70 74 71 75 72 7 73 8 74
REMARK SMILES IDX 9 75 10 77 11 78 35 79 36 80 40 81 37 82 39 83 38 84 12 85
REMARK SMILES IDX 13 86 14 88 15 89 34 90 16 91 33 92 17 93 18 94 19 95 20 96
REMARK SMILES IDX 21 97 22 99 23 100 24 101 32 102 25 103 31 104 26 107 30 108
REMARK SMILES IDX 27 109 29 110 28 111
REMARK H PARENT 3 7 97 25 65 36 8 76 12 87 20 98 32 105 32 106
REMARK Flexibility Score: inf
ROOT
ATOM      1  C   UNL A   1      37.715  23.041  25.123  1.00  0.00     0.023 C 
ENDROOT
BRANCH   1   2
ATOM      2  C   UNL A   1      38.230  21.748  25.751  1.00  0.00     0.023 C 
BRANCH   2   3
ATOM      3  C   UNL A   1      39.569  21.863  26.467  1.00  0.00     0.116 C 
BRANCH   3   4
ATOM      4  N   UNL A   1      40.472  20.775  26.137  1.00  0.00    -0.352 N 
ATOM      5  O   UNL A   1      42.418  19.827  25.518  1.00  0.00    -0.269 OA
ATOM      6  C   UNL A   1      41.835  20.805  25.981  1.00  0.00     0.251 C 
ATOM      7  H   UNL A   1      40.048  19.896  26.010  1.00  0.00     0.163 HD
BRANCH   6   8
ATOM      8  C   UNL A   1      42.583  22.027  26.343  1.00  0.00     0.039 A 
ATOM      9  C   UNL A   1      43.122  22.175  27.624  1.00  0.00     0.014 A 
ATOM     10  C   UNL A   1      42.740  23.037  25.391  1.00  0.00     0.014 A 
ATOM     11  C   UNL A   1      43.689  23.388  28.001  1.00  0.00     0.010 A 
ATOM     12  C   UNL A   1      43.391  24.220  25.745  1.00  0.00     0.010 A 
ATOM     13  C   UNL A   1      43.847  24.417  27.060  1.00  0.00    -0.014 A 
BRANCH  13  14
ATOM     14  C   UNL A   1      44.564  25.661  27.434  1.00  0.00     0.031 A 
ATOM     15  C   UNL A   1      46.000  25.875  27.053  1.00  0.00     0.074 A 
ATOM     16  C   UNL A   1      43.918  26.577  28.182  1.00  0.00     0.049 A 
ATOM     17  N   UNL A   1      46.795  26.864  27.368  1.00  0.00    -0.248 NA
ATOM     18  C   UNL A   1      46.631  24.839  26.220  1.00  0.00     0.031 C 
ATOM     19  C   UNL A   1      42.534  26.455  28.647  1.00  0.00     0.029 A 
ATOM     20  N   UNL A   1      44.344  27.768  28.710  1.00  0.00    -0.354 N 
ATOM     21  C   UNL A   1      48.032  26.552  26.817  1.00  0.00     0.074 A 
ATOM     22  C   UNL A   1      47.882  25.276  26.149  1.00  0.00     0.031 C 
ATOM     23  C   UNL A   1      42.229  27.517  29.402  1.00  0.00     0.029 A 
ATOM     24  C   UNL A   1      43.411  28.362  29.527  1.00  0.00     0.049 A 
ATOM     25  H   UNL A   1      45.228  28.159  28.524  1.00  0.00     0.167 HD
ATOM     26  C   UNL A   1      49.184  27.264  26.864  1.00  0.00     0.034 A 
ATOM     27  C   UNL A   1      43.504  29.438  30.330  1.00  0.00     0.034 A 
ATOM     28  C   UNL A   1      49.315  28.537  27.523  1.00  0.00     0.049 A 
ATOM     29  C   UNL A   1      44.788  30.211  30.367  1.00  0.00     0.074 A 
ATOM     30  C   UNL A   1      50.414  29.377  27.556  1.00  0.00     0.029 A 
ATOM     31  N   UNL A   1      48.329  29.141  28.287  1.00  0.00    -0.354 N 
ATOM     32  N   UNL A   1      45.908  29.973  29.730  1.00  0.00    -0.248 NA
ATOM     33  C   UNL A   1      44.817  31.417  31.206  1.00  0.00     0.031 C 
ATOM     34  C   UNL A   1      50.107  30.466  28.380  1.00  0.00     0.029 A 
ATOM     35  C   UNL A   1      48.800  30.330  28.818  1.00  0.00     0.049 A 
ATOM     36  H   UNL A   1      47.424  28.778  28.431  1.00  0.00     0.167 HD
ATOM     37  C   UNL A   1      46.765  31.013  30.064  1.00  0.00     0.074 A 
ATOM     38  C   UNL A   1      46.030  31.890  30.953  1.00  0.00     0.031 C 
ATOM     39  C   UNL A   1      48.046  31.218  29.669  1.00  0.00     0.034 A 
BRANCH  26  40
ATOM     40  C   UNL A   1      50.396  26.681  26.181  1.00  0.00     0.023 A 
ATOM     41  C   UNL A   1      51.118  25.637  26.795  1.00  0.00     0.012 A 
ATOM     42  C   UNL A   1      50.799  27.143  24.912  1.00  0.00     0.148 A 
ATOM     43  C   UNL A   1      52.249  25.097  26.181  1.00  0.00     0.002 A 
ATOM     44  C   UNL A   1      51.898  26.568  24.285  1.00  0.00     0.091 A 
ATOM     45  F   UNL A   1      50.113  28.148  24.349  1.00  0.00    -0.205 F 
ATOM     46  C   UNL A   1      52.633  25.556  24.924  1.00  0.00     0.022 A 
BRANCH  44  47
ATOM     47  S   UNL A   1      52.418  27.037  22.631  1.00  0.00     0.127 S 
ATOM     48  O   UNL A   1      51.214  26.749  21.852  1.00  0.00    -0.237 OA
ATOM     49  O   UNL A   1      52.713  28.462  22.791  1.00  0.00    -0.237 OA
ATOM     50  O   UNL A   1      53.577  26.210  22.327  1.00  0.00    -0.744 OA
ENDBRANCH  44  47
ENDBRANCH  26  40
BRANCH  27  51
ATOM     51  C   UNL A   1      42.327  29.829  31.152  1.00  0.00     0.023 A 
ATOM     52  C   UNL A   1      42.126  29.239  32.412  1.00  0.00     0.012 A 
ATOM     53  C   UNL A   1      41.460  30.855  30.723  1.00  0.00     0.148 A 
ATOM     54  C   UNL A   1      41.072  29.653  33.227  1.00  0.00     0.002 A 
ATOM     55  C   UNL A   1      40.451  31.304  31.563  1.00  0.00     0.091 A 
ATOM     56  F   UNL A   1      41.673  31.400  29.516  1.00  0.00    -0.205 F 
ATOM     57  C   UNL A   1      40.244  30.693  32.809  1.00  0.00     0.022 A 
BRANCH  55  58
ATOM     58  S   UNL A   1      39.433  32.732  31.173  1.00  0.00     0.127 S 
ATOM     59  O   UNL A   1      38.347  32.597  32.140  1.00  0.00    -0.237 OA
ATOM     60  O   UNL A   1      40.358  33.836  31.433  1.00  0.00    -0.237 OA
ATOM     61  O   UNL A   1      39.054  32.580  29.775  1.00  0.00    -0.744 OA
ENDBRANCH  55  58
ENDBRANCH  27  51
BRANCH  39  62
ATOM     62  C   UNL A   1      48.740  32.464  30.151  1.00  0.00     0.023 A 
ATOM     63  C   UNL A   1      49.471  32.449  31.353  1.00  0.00     0.012 A 
ATOM     64  C   UNL A   1      48.751  33.622  29.347  1.00  0.00     0.148 A 
ATOM     65  C   UNL A   1      50.192  33.573  31.757  1.00  0.00     0.002 A 
ATOM     66  C   UNL A   1      49.512  34.718  29.729  1.00  0.00     0.091 A 
ATOM     67  F   UNL A   1      48.030  33.619  28.216  1.00  0.00    -0.205 F 
ATOM     68  C   UNL A   1      50.224  34.701  30.939  1.00  0.00     0.022 A 
BRANCH  66  69
ATOM     69  S   UNL A   1      49.697  36.173  28.691  1.00  0.00     0.127 S 
ATOM     70  O   UNL A   1      48.357  36.755  28.752  1.00  0.00    -0.237 OA
ATOM     71  O   UNL A   1      50.725  36.930  29.405  1.00  0.00    -0.237 OA
ATOM     72  O   UNL A   1      50.101  35.687  27.379  1.00  0.00    -0.744 OA
ENDBRANCH  66  69
ENDBRANCH  39  62
ENDBRANCH  13  14
ENDBRANCH   6   8
ENDBRANCH   3   4
ENDBRANCH   2   3
ENDBRANCH   1   2
BRANCH   1  73
ATOM     73  C   UNL A   1      36.722  23.828  25.968  1.00  0.00     0.116 C 
BRANCH  73  74
ATOM     74  N   UNL A   1      35.961  23.006  26.893  1.00  0.00    -0.354 N 
ATOM     75  C   UNL A   1      34.626  22.709  26.808  1.00  0.00     0.247 C 
ATOM     76  H   UNL A   1      36.453  22.626  27.656  1.00  0.00     0.163 HD
ATOM     77  O   UNL A   1      34.236  21.668  27.339  1.00  0.00    -0.272 OA
BRANCH  75  78
ATOM     78  C   UNL A   1      33.690  23.679  26.019  1.00  0.00     0.202 C 
BRANCH  78  79
ATOM     79  C   UNL A   1      33.417  23.052  24.658  1.00  0.00    -0.016 A 
ATOM     80  C   UNL A   1      33.754  23.749  23.486  1.00  0.00     0.006 A 
ATOM     81  C   UNL A   1      32.687  21.858  24.554  1.00  0.00     0.006 A 
ATOM     82  C   UNL A   1      33.267  23.331  22.251  1.00  0.00     0.000 A 
ATOM     83  C   UNL A   1      32.213  21.435  23.311  1.00  0.00     0.000 A 
ATOM     84  C   UNL A   1      32.480  22.186  22.167  1.00  0.00     0.000 A 
ENDBRANCH  78  79
BRANCH  78  85
ATOM     85  N   UNL A   1      32.445  24.067  26.678  1.00  0.00    -0.340 N 
ATOM     86  C   UNL A   1      31.586  25.078  26.344  1.00  0.00     0.224 C 
ATOM     87  H   UNL A   1      32.190  23.531  27.463  1.00  0.00     0.164 HD
ATOM     88  O   UNL A   1      30.396  24.951  26.638  1.00  0.00    -0.275 OA
BRANCH  86  89
ATOM     89  C   UNL A   1      32.118  26.341  25.668  1.00  0.00     0.078 C 
ATOM     90  C   UNL A   1      31.087  27.475  25.651  1.00  0.00     0.014 C 
ATOM     91  C   UNL A   1      33.449  26.808  26.285  1.00  0.00     0.014 C 
ATOM     92  C   UNL A   1      31.639  28.688  24.906  1.00  0.00     0.006 C 
ATOM     93  C   UNL A   1      33.968  28.085  25.607  1.00  0.00     0.006 C 
ATOM     94  C   UNL A   1      32.918  29.210  25.576  1.00  0.00     0.008 C 
BRANCH  94  95
ATOM     95  C   UNL A   1      32.591  29.726  26.985  1.00  0.00     0.119 C 
BRANCH  95  96
ATOM     96  N   UNL A   1      33.191  31.007  27.266  1.00  0.00    -0.351 N 
ATOM     97  C   UNL A   1      34.430  31.379  27.664  1.00  0.00     0.278 C 
ATOM     98  H   UNL A   1      32.573  31.764  27.147  1.00  0.00     0.163 HD
ATOM     99  O   UNL A   1      34.666  32.591  27.547  1.00  0.00    -0.268 OA
BRANCH  97 100
ATOM    100  C   UNL A   1      35.478  30.454  28.340  1.00  0.00     0.277 C 
ATOM    101  C   UNL A   1      36.070  30.835  29.704  1.00  0.00     0.111 C 
ATOM    102  N   UNL A   1      36.485  30.074  27.311  1.00  0.00    -0.332 N 
ATOM    103  C   UNL A   1      37.010  29.750  30.164  1.00  0.00    -0.033 A 
ATOM    104  C   UNL A   1      37.837  29.835  27.813  1.00  0.00     0.298 C 
ATOM    105  H   UNL A   1      36.534  30.826  26.624  1.00  0.00     0.347 HD
ATOM    106  H   UNL A   1      36.170  29.185  26.923  1.00  0.00     0.347 HD
ATOM    107  C   UNL A   1      37.061  29.293  31.481  1.00  0.00     0.004 A 
ATOM    108  C   UNL A   1      37.864  29.212  29.187  1.00  0.00     0.010 A 
ATOM    109  C   UNL A   1      37.944  28.267  31.817  1.00  0.00     0.000 A 
ATOM    110  C   UNL A   1      38.748  28.190  29.533  1.00  0.00     0.010 A 
ATOM    111  C   UNL A   1      38.778  27.712  30.844  1.00  0.00     0.001 A 
ENDBRANCH  97 100
ENDBRANCH  95  96
ENDBRANCH  94  95
ENDBRANCH  86  89
ENDBRANCH  78  85
ENDBRANCH  75  78
ENDBRANCH  73  74
ENDBRANCH   1  73
TORSDOF 20
ENDMDL
