MODEL 1
REMARK VINA RESULT:     -12.2      0.000      0.000
REMARK SMILES C[C@@H](C(=O)NCCCCNC(=O)c1ccc(-c2c3nc(c(-c4cccc(S(=O)(=O)[O-])c4F)c4ccc([nH]4)c(-c4cccc(S(=O)(=O)[O-])c4F)c4nc(c(-c5cccc(S(=O)(=O)[O-])c5F)c5ccc2[nH]5)C=C4)C=C3)cc1)c1ccc(O[C@H]2CCCC2=O)cc1F
REMARK SMILES IDX 7 1 6 2 5 3 3 4 4 5 2 7 1 8 76 9 77 10 88 11 78 12 87 13
REMARK SMILES IDX 89 14 79 15 80 16 81 17 82 18 85 19 83 20 84 21 86 22 8 23
REMARK SMILES IDX 9 24 10 25 11 26 12 28 13 29 14 30 75 31 15 32 74 33 16 34
REMARK SMILES IDX 17 35 18 36 68 37 19 38 73 39 67 40 69 41 20 42 72 43 66 44
REMARK SMILES IDX 65 45 21 47 53 48 33 49 52 50 34 51 37 52 51 53 70 54 35 55
REMARK SMILES IDX 36 56 50 58 71 59 38 60 22 61 23 62 31 63 24 64 26 65 32 66
REMARK SMILES IDX 25 67 27 68 28 69 29 70 30 71 54 72 55 73 63 74 56 75 58 76
REMARK SMILES IDX 64 77 57 78 59 79 60 80 61 81 62 82 39 83 40 84 48 85 41 86
REMARK SMILES IDX 43 87 49 88 42 89 44 90 45 91 46 92 47 93
REMARK H PARENT 5 6 10 27 69 46 37 57
REMARK Flexibility Score: inf
ROOT
ATOM      1  C   UNL A   1      31.760  27.778  26.884  1.00  0.00     0.023 C 
ENDROOT
BRANCH   1   2
ATOM      2  C   UNL A   1      32.245  26.411  26.396  1.00  0.00     0.116 C 
BRANCH   2   3
ATOM      3  N   UNL A   1      31.395  25.340  26.876  1.00  0.00    -0.356 N 
ATOM      4  C   UNL A   1      30.612  24.446  26.204  1.00  0.00     0.227 C 
ATOM      5  O   UNL A   1      29.948  23.689  26.912  1.00  0.00    -0.274 OA
ATOM      6  H   UNL A   1      31.378  25.240  27.855  1.00  0.00     0.163 HD
BRANCH   4   7
ATOM      7  C   UNL A   1      30.613  24.419  24.664  1.00  0.00     0.108 C 
ATOM      8  C   UNL A   1      31.894  23.777  24.123  1.00  0.00     0.023 C 
BRANCH   7   9
ATOM      9  C   UNL A   1      30.405  25.752  23.944  1.00  0.00     0.000 A 
ATOM     10  C   UNL A   1      31.293  26.299  23.013  1.00  0.00     0.011 A 
ATOM     11  C   UNL A   1      29.206  26.450  24.161  1.00  0.00     0.130 A 
ATOM     12  C   UNL A   1      31.000  27.504  22.365  1.00  0.00     0.047 A 
ATOM     13  C   UNL A   1      28.895  27.638  23.496  1.00  0.00     0.086 A 
ATOM     14  F   UNL A   1      28.301  25.954  25.019  1.00  0.00    -0.207 F 
ATOM     15  C   UNL A   1      29.795  28.171  22.586  1.00  0.00     0.123 A 
BRANCH  15  16
ATOM     16  O   UNL A   1      29.659  29.325  21.877  1.00  0.00    -0.483 OA
BRANCH  16  17
ATOM     17  C   UNL A   1      28.738  30.317  22.258  1.00  0.00     0.239 C 
ATOM     18  C   UNL A   1      29.156  31.131  23.492  1.00  0.00     0.054 C 
ATOM     19  C   UNL A   1      28.184  31.366  21.301  1.00  0.00     0.173 C 
ATOM     20  C   UNL A   1      29.039  32.605  23.112  1.00  0.00     0.012 C 
ATOM     21  C   UNL A   1      28.028  32.697  21.980  1.00  0.00     0.080 C 
ATOM     22  O   UNL A   1      27.848  31.158  20.142  1.00  0.00    -0.296 OA
ENDBRANCH  16  17
ENDBRANCH  15  16
ENDBRANCH   7   9
ENDBRANCH   4   7
ENDBRANCH   2   3
ENDBRANCH   1   2
BRANCH   1  23
ATOM     23  C   UNL A   1      31.600  28.840  25.794  1.00  0.00     0.023 C 
BRANCH  23  24
ATOM     24  C   UNL A   1      32.719  29.869  25.713  1.00  0.00     0.116 C 
BRANCH  24  25
ATOM     25  N   UNL A   1      32.310  31.183  26.183  1.00  0.00    -0.352 N 
ATOM     26  C   UNL A   1      32.892  31.979  27.140  1.00  0.00     0.251 C 
ATOM     27  H   UNL A   1      31.503  31.553  25.757  1.00  0.00     0.163 HD
ATOM     28  O   UNL A   1      32.325  33.006  27.508  1.00  0.00    -0.269 OA
BRANCH  26  29
ATOM     29  C   UNL A   1      34.183  31.584  27.743  1.00  0.00     0.039 A 
ATOM     30  C   UNL A   1      35.155  32.565  27.959  1.00  0.00     0.014 A 
ATOM     31  C   UNL A   1      34.429  30.258  28.108  1.00  0.00     0.014 A 
ATOM     32  C   UNL A   1      36.349  32.226  28.599  1.00  0.00     0.010 A 
ATOM     33  C   UNL A   1      35.587  29.938  28.811  1.00  0.00     0.010 A 
ATOM     34  C   UNL A   1      36.561  30.917  29.060  1.00  0.00    -0.014 A 
BRANCH  34  35
ATOM     35  C   UNL A   1      37.787  30.554  29.818  1.00  0.00     0.031 A 
ATOM     36  C   UNL A   1      38.813  29.637  29.209  1.00  0.00     0.074 A 
ATOM     37  C   UNL A   1      37.933  30.978  31.089  1.00  0.00     0.049 A 
ATOM     38  N   UNL A   1      39.913  29.167  29.735  1.00  0.00    -0.248 NA
ATOM     39  C   UNL A   1      38.554  29.163  27.839  1.00  0.00     0.031 C 
ATOM     40  C   UNL A   1      36.969  31.803  31.821  1.00  0.00     0.029 A 
ATOM     41  N   UNL A   1      38.933  30.749  32.000  1.00  0.00    -0.354 N 
ATOM     42  C   UNL A   1      40.459  28.316  28.781  1.00  0.00     0.074 A 
ATOM     43  C   UNL A   1      39.550  28.308  27.656  1.00  0.00     0.031 C 
ATOM     44  C   UNL A   1      37.426  32.014  33.065  1.00  0.00     0.029 A 
ATOM     45  C   UNL A   1      38.699  31.318  33.230  1.00  0.00     0.049 A 
ATOM     46  H   UNL A   1      39.742  30.227  31.794  1.00  0.00     0.167 HD
ATOM     47  C   UNL A   1      41.625  27.629  28.822  1.00  0.00     0.034 A 
ATOM     48  C   UNL A   1      39.424  31.279  34.367  1.00  0.00     0.034 A 
ATOM     49  C   UNL A   1      42.548  27.675  29.924  1.00  0.00     0.049 A 
ATOM     50  C   UNL A   1      40.735  30.542  34.373  1.00  0.00     0.074 A 
ATOM     51  C   UNL A   1      43.799  27.092  30.024  1.00  0.00     0.029 A 
ATOM     52  N   UNL A   1      42.318  28.333  31.122  1.00  0.00    -0.354 N 
ATOM     53  N   UNL A   1      41.316  29.882  33.399  1.00  0.00    -0.248 NA
ATOM     54  C   UNL A   1      41.510  30.574  35.621  1.00  0.00     0.031 C 
ATOM     55  C   UNL A   1      44.316  27.379  31.291  1.00  0.00     0.029 A 
ATOM     56  C   UNL A   1      43.398  28.163  31.972  1.00  0.00     0.049 A 
ATOM     57  H   UNL A   1      41.506  28.846  31.338  1.00  0.00     0.167 HD
ATOM     58  C   UNL A   1      42.536  29.450  33.907  1.00  0.00     0.074 A 
ATOM     59  C   UNL A   1      42.621  29.943  35.266  1.00  0.00     0.031 C 
ATOM     60  C   UNL A   1      43.493  28.701  33.305  1.00  0.00     0.034 A 
BRANCH  47  61
ATOM     61  C   UNL A   1      41.996  26.807  27.614  1.00  0.00     0.023 A 
ATOM     62  C   UNL A   1      42.582  27.440  26.499  1.00  0.00     0.012 A 
ATOM     63  C   UNL A   1      41.812  25.412  27.599  1.00  0.00     0.148 A 
ATOM     64  C   UNL A   1      42.945  26.702  25.372  1.00  0.00     0.002 A 
ATOM     65  C   UNL A   1      42.220  24.677  26.491  1.00  0.00     0.091 A 
ATOM     66  F   UNL A   1      41.235  24.829  28.659  1.00  0.00    -0.205 F 
ATOM     67  C   UNL A   1      42.773  25.322  25.372  1.00  0.00     0.022 A 
BRANCH  65  68
ATOM     68  S   UNL A   1      42.115  22.885  26.425  1.00  0.00     0.127 S 
ATOM     69  O   UNL A   1      42.649  22.606  25.093  1.00  0.00    -0.237 OA
ATOM     70  O   UNL A   1      42.989  22.485  27.529  1.00  0.00    -0.237 OA
ATOM     71  O   UNL A   1      40.709  22.559  26.618  1.00  0.00    -0.744 OA
ENDBRANCH  65  68
ENDBRANCH  47  61
BRANCH  48  72
ATOM     72  C   UNL A   1      38.956  32.022  35.572  1.00  0.00     0.023 A 
ATOM     73  C   UNL A   1      39.151  33.415  35.641  1.00  0.00     0.012 A 
ATOM     74  C   UNL A   1      38.294  31.368  36.628  1.00  0.00     0.148 A 
ATOM     75  C   UNL A   1      38.722  34.140  36.753  1.00  0.00     0.002 A 
ATOM     76  C   UNL A   1      37.821  32.103  37.709  1.00  0.00     0.091 A 
ATOM     77  F   UNL A   1      38.128  30.040  36.549  1.00  0.00    -0.205 F 
ATOM     78  C   UNL A   1      38.048  33.487  37.781  1.00  0.00     0.022 A 
BRANCH  76  79
ATOM     79  S   UNL A   1      36.828  31.370  39.015  1.00  0.00     0.127 S 
ATOM     80  O   UNL A   1      37.778  31.327  40.124  1.00  0.00    -0.237 OA
ATOM     81  O   UNL A   1      35.752  32.351  39.162  1.00  0.00    -0.237 OA
ATOM     82  O   UNL A   1      36.396  30.078  38.500  1.00  0.00    -0.744 OA
ENDBRANCH  76  79
ENDBRANCH  48  72
BRANCH  60  83
ATOM     83  C   UNL A   1      44.736  28.387  34.097  1.00  0.00     0.023 A 
ATOM     84  C   UNL A   1      45.827  29.277  34.069  1.00  0.00     0.012 A 
ATOM     85  C   UNL A   1      44.791  27.250  34.928  1.00  0.00     0.148 A 
ATOM     86  C   UNL A   1      46.967  29.025  34.832  1.00  0.00     0.002 A 
ATOM     87  C   UNL A   1      45.911  27.031  35.723  1.00  0.00     0.091 A 
ATOM     88  F   UNL A   1      43.750  26.406  34.927  1.00  0.00    -0.205 F 
ATOM     89  C   UNL A   1      47.004  27.911  35.667  1.00  0.00     0.022 A 
BRANCH  87  90
ATOM     90  S   UNL A   1      46.006  25.677  36.899  1.00  0.00     0.127 S 
ATOM     91  O   UNL A   1      44.839  25.932  37.742  1.00  0.00    -0.237 OA
ATOM     92  O   UNL A   1      45.888  24.504  36.033  1.00  0.00    -0.237 OA
ATOM     93  O   UNL A   1      47.296  25.811  37.561  1.00  0.00    -0.744 OA
ENDBRANCH  87  90
ENDBRANCH  60  83
ENDBRANCH  34  35
ENDBRANCH  26  29
ENDBRANCH  24  25
ENDBRANCH  23  24
ENDBRANCH   1  23
TORSDOF 17
ENDMDL
MODEL 2
REMARK VINA RESULT:     -12.0      5.555      8.438
REMARK SMILES C[C@@H](C(=O)NCCCCNC(=O)c1ccc(-c2c3nc(c(-c4cccc(S(=O)(=O)[O-])c4F)c4ccc([nH]4)c(-c4cccc(S(=O)(=O)[O-])c4F)c4nc(c(-c5cccc(S(=O)(=O)[O-])c5F)c5ccc2[nH]5)C=C4)C=C3)cc1)c1ccc(O[C@H]2CCCC2=O)cc1F
REMARK SMILES IDX 7 1 6 2 5 3 3 4 4 5 2 7 1 8 76 9 77 10 88 11 78 12 87 13
REMARK SMILES IDX 89 14 79 15 80 16 81 17 82 18 85 19 83 20 84 21 86 22 8 23
REMARK SMILES IDX 9 24 10 25 11 26 12 28 13 29 14 30 75 31 15 32 74 33 16 34
REMARK SMILES IDX 17 35 18 36 68 37 19 38 73 39 67 40 69 41 20 42 72 43 66 44
REMARK SMILES IDX 65 45 21 47 53 48 33 49 52 50 34 51 37 52 51 53 70 54 35 55
REMARK SMILES IDX 36 56 50 58 71 59 38 60 22 61 23 62 31 63 24 64 26 65 32 66
REMARK SMILES IDX 25 67 27 68 28 69 29 70 30 71 54 72 55 73 63 74 56 75 58 76
REMARK SMILES IDX 64 77 57 78 59 79 60 80 61 81 62 82 39 83 40 84 48 85 41 86
REMARK SMILES IDX 43 87 49 88 42 89 44 90 45 91 46 92 47 93
REMARK H PARENT 5 6 10 27 69 46 37 57
REMARK Flexibility Score: inf
ROOT
ATOM      1  C   UNL A   1      35.265  23.300  25.977  1.00  0.00     0.023 C 
ENDROOT
BRANCH   1   2
ATOM      2  C   UNL A   1      35.032  24.553  25.129  1.00  0.00     0.116 C 
BRANCH   2   3
ATOM      3  N   UNL A   1      34.134  25.482  25.784  1.00  0.00    -0.356 N 
ATOM      4  C   UNL A   1      32.847  25.839  25.499  1.00  0.00     0.227 C 
ATOM      5  O   UNL A   1      32.372  26.719  26.218  1.00  0.00    -0.274 OA
ATOM      6  H   UNL A   1      34.517  25.935  26.570  1.00  0.00     0.163 HD
BRANCH   4   7
ATOM      7  C   UNL A   1      32.084  25.144  24.357  1.00  0.00     0.108 C 
ATOM      8  C   UNL A   1      30.637  25.639  24.276  1.00  0.00     0.023 C 
BRANCH   7   9
ATOM      9  C   UNL A   1      32.067  23.615  24.362  1.00  0.00     0.000 A 
ATOM     10  C   UNL A   1      32.488  22.811  23.298  1.00  0.00     0.011 A 
ATOM     11  C   UNL A   1      31.678  22.953  25.538  1.00  0.00     0.130 A 
ATOM     12  C   UNL A   1      32.483  21.417  23.405  1.00  0.00     0.047 A 
ATOM     13  C   UNL A   1      31.698  21.562  25.662  1.00  0.00     0.086 A 
ATOM     14  F   UNL A   1      31.296  23.674  26.604  1.00  0.00    -0.207 F 
ATOM     15  C   UNL A   1      32.107  20.783  24.590  1.00  0.00     0.123 A 
BRANCH  15  16
ATOM     16  O   UNL A   1      32.160  19.424  24.537  1.00  0.00    -0.483 OA
BRANCH  16  17
ATOM     17  C   UNL A   1      33.226  18.755  23.910  1.00  0.00     0.239 C 
ATOM     18  C   UNL A   1      34.251  18.144  24.879  1.00  0.00     0.054 C 
ATOM     19  C   UNL A   1      33.039  17.675  22.851  1.00  0.00     0.173 C 
ATOM     20  C   UNL A   1      34.432  16.684  24.471  1.00  0.00     0.012 C 
ATOM     21  C   UNL A   1      34.055  16.579  23.002  1.00  0.00     0.080 C 
ATOM     22  O   UNL A   1      32.209  17.705  21.950  1.00  0.00    -0.296 OA
ENDBRANCH  16  17
ENDBRANCH  15  16
ENDBRANCH   7   9
ENDBRANCH   4   7
ENDBRANCH   2   3
ENDBRANCH   1   2
BRANCH   1  23
ATOM     23  C   UNL A   1      35.673  22.050  25.195  1.00  0.00     0.023 C 
BRANCH  23  24
ATOM     24  C   UNL A   1      37.100  22.046  24.665  1.00  0.00     0.116 C 
BRANCH  24  25
ATOM     25  N   UNL A   1      37.896  20.953  25.200  1.00  0.00    -0.352 N 
ATOM     26  C   UNL A   1      39.051  21.006  25.942  1.00  0.00     0.251 C 
ATOM     27  H   UNL A   1      37.561  20.048  25.001  1.00  0.00     0.163 HD
ATOM     28  O   UNL A   1      39.665  19.971  26.192  1.00  0.00    -0.269 OA
BRANCH  26  29
ATOM     29  C   UNL A   1      39.565  22.309  26.414  1.00  0.00     0.039 A 
ATOM     30  C   UNL A   1      40.734  22.336  27.179  1.00  0.00     0.014 A 
ATOM     31  C   UNL A   1      38.907  23.500  26.093  1.00  0.00     0.014 A 
ATOM     32  C   UNL A   1      41.279  23.563  27.567  1.00  0.00     0.010 A 
ATOM     33  C   UNL A   1      39.491  24.721  26.418  1.00  0.00     0.010 A 
ATOM     34  C   UNL A   1      40.679  24.766  27.162  1.00  0.00    -0.014 A 
BRANCH  34  35
ATOM     35  C   UNL A   1      41.288  26.081  27.493  1.00  0.00     0.031 A 
ATOM     36  C   UNL A   1      42.706  26.384  27.093  1.00  0.00     0.074 A 
ATOM     37  C   UNL A   1      40.593  26.968  28.233  1.00  0.00     0.049 A 
ATOM     38  N   UNL A   1      43.422  27.449  27.340  1.00  0.00    -0.248 NA
ATOM     39  C   UNL A   1      43.424  25.341  26.341  1.00  0.00     0.031 C 
ATOM     40  C   UNL A   1      39.240  26.758  28.754  1.00  0.00     0.029 A 
ATOM     41  N   UNL A   1      40.940  28.210  28.701  1.00  0.00    -0.354 N 
ATOM     42  C   UNL A   1      44.681  27.194  26.810  1.00  0.00     0.074 A 
ATOM     43  C   UNL A   1      44.642  25.858  26.256  1.00  0.00     0.031 C 
ATOM     44  C   UNL A   1      38.871  27.836  29.464  1.00  0.00     0.029 A 
ATOM     45  C   UNL A   1      39.967  28.799  29.476  1.00  0.00     0.049 A 
ATOM     46  H   UNL A   1      41.803  28.640  28.502  1.00  0.00     0.167 HD
ATOM     47  C   UNL A   1      45.763  28.007  26.758  1.00  0.00     0.034 A 
ATOM     48  C   UNL A   1      39.961  29.979  30.128  1.00  0.00     0.034 A 
ATOM     49  C   UNL A   1      45.785  29.351  27.268  1.00  0.00     0.049 A 
ATOM     50  C   UNL A   1      41.161  30.880  30.020  1.00  0.00     0.074 A 
ATOM     51  C   UNL A   1      46.799  30.289  27.180  1.00  0.00     0.029 A 
ATOM     52  N   UNL A   1      44.750  29.948  27.972  1.00  0.00    -0.354 N 
ATOM     53  N   UNL A   1      42.281  30.689  29.367  1.00  0.00    -0.248 NA
ATOM     54  C   UNL A   1      41.081  32.178  30.707  1.00  0.00     0.031 C 
ATOM     55  C   UNL A   1      46.385  31.445  27.850  1.00  0.00     0.029 A 
ATOM     56  C   UNL A   1      45.103  31.236  28.333  1.00  0.00     0.049 A 
ATOM     57  H   UNL A   1      43.890  29.518  28.183  1.00  0.00     0.167 HD
ATOM     58  C   UNL A   1      43.025  31.851  29.537  1.00  0.00     0.074 A 
ATOM     59  C   UNL A   1      42.217  32.750  30.335  1.00  0.00     0.031 C 
ATOM     60  C   UNL A   1      44.270  32.141  29.085  1.00  0.00     0.034 A 
BRANCH  47  61
ATOM     61  C   UNL A   1      47.000  27.482  26.076  1.00  0.00     0.023 A 
ATOM     62  C   UNL A   1      47.199  27.740  24.704  1.00  0.00     0.012 A 
ATOM     63  C   UNL A   1      47.986  26.780  26.796  1.00  0.00     0.148 A 
ATOM     64  C   UNL A   1      48.341  27.276  24.051  1.00  0.00     0.002 A 
ATOM     65  C   UNL A   1      49.143  26.361  26.148  1.00  0.00     0.091 A 
ATOM     66  F   UNL A   1      47.772  26.525  28.094  1.00  0.00    -0.205 F 
ATOM     67  C   UNL A   1      49.316  26.596  24.775  1.00  0.00     0.022 A 
BRANCH  65  68
ATOM     68  S   UNL A   1      50.494  25.547  27.009  1.00  0.00     0.127 S 
ATOM     69  O   UNL A   1      51.428  25.288  25.914  1.00  0.00    -0.237 OA
ATOM     70  O   UNL A   1      50.929  26.583  27.947  1.00  0.00    -0.237 OA
ATOM     71  O   UNL A   1      49.916  24.367  27.635  1.00  0.00    -0.744 OA
ENDBRANCH  65  68
ENDBRANCH  47  61
BRANCH  48  72
ATOM     72  C   UNL A   1      38.747  30.405  30.881  1.00  0.00     0.023 A 
ATOM     73  C   UNL A   1      38.663  30.135  32.261  1.00  0.00     0.012 A 
ATOM     74  C   UNL A   1      37.698  31.101  30.253  1.00  0.00     0.148 A 
ATOM     75  C   UNL A   1      37.542  30.523  32.995  1.00  0.00     0.002 A 
ATOM     76  C   UNL A   1      36.609  31.533  31.000  1.00  0.00     0.091 A 
ATOM     77  F   UNL A   1      37.792  31.340  28.936  1.00  0.00    -0.205 F 
ATOM     78  C   UNL A   1      36.521  31.231  32.368  1.00  0.00     0.022 A 
BRANCH  76  79
ATOM     79  S   UNL A   1      35.310  32.564  30.308  1.00  0.00     0.127 S 
ATOM     80  O   UNL A   1      36.053  33.762  29.922  1.00  0.00    -0.237 OA
ATOM     81  O   UNL A   1      34.838  31.745  29.190  1.00  0.00    -0.237 OA
ATOM     82  O   UNL A   1      34.336  32.739  31.376  1.00  0.00    -0.744 OA
ENDBRANCH  76  79
ENDBRANCH  48  72
BRANCH  60  83
ATOM     83  C   UNL A   1      44.834  33.499  29.412  1.00  0.00     0.023 A 
ATOM     84  C   UNL A   1      45.570  33.685  30.599  1.00  0.00     0.012 A 
ATOM     85  C   UNL A   1      44.701  34.571  28.506  1.00  0.00     0.148 A 
ATOM     86  C   UNL A   1      46.137  34.924  30.896  1.00  0.00     0.002 A 
ATOM     87  C   UNL A   1      45.311  35.789  28.785  1.00  0.00     0.091 A 
ATOM     88  F   UNL A   1      43.983  34.380  27.391  1.00  0.00    -0.205 F 
ATOM     89  C   UNL A   1      46.019  35.970  29.984  1.00  0.00     0.022 A 
BRANCH  87  90
ATOM     90  S   UNL A   1      45.294  37.161  27.626  1.00  0.00     0.127 S 
ATOM     91  O   UNL A   1      45.893  38.231  28.423  1.00  0.00    -0.237 OA
ATOM     92  O   UNL A   1      46.139  36.662  26.541  1.00  0.00    -0.237 OA
ATOM     93  O   UNL A   1      43.898  37.360  27.261  1.00  0.00    -0.744 OA
ENDBRANCH  87  90
ENDBRANCH  60  83
ENDBRANCH  34  35
ENDBRANCH  26  29
ENDBRANCH  24  25
ENDBRANCH  23  24
ENDBRANCH   1  23
TORSDOF 17
ENDMDL
MODEL 3
REMARK VINA RESULT:     -11.9      2.586      8.823
REMARK SMILES C[C@@H](C(=O)NCCCCNC(=O)c1ccc(-c2c3nc(c(-c4cccc(S(=O)(=O)[O-])c4F)c4ccc([nH]4)c(-c4cccc(S(=O)(=O)[O-])c4F)c4nc(c(-c5cccc(S(=O)(=O)[O-])c5F)c5ccc2[nH]5)C=C4)C=C3)cc1)c1ccc(O[C@H]2CCCC2=O)cc1F
REMARK SMILES IDX 7 1 6 2 5 3 3 4 4 5 2 7 1 8 76 9 77 10 88 11 78 12 87 13
REMARK SMILES IDX 89 14 79 15 80 16 81 17 82 18 85 19 83 20 84 21 86 22 8 23
REMARK SMILES IDX 9 24 10 25 11 26 12 28 13 29 14 30 75 31 15 32 74 33 16 34
REMARK SMILES IDX 17 35 18 36 68 37 19 38 73 39 67 40 69 41 20 42 72 43 66 44
REMARK SMILES IDX 65 45 21 47 53 48 33 49 52 50 34 51 37 52 51 53 70 54 35 55
REMARK SMILES IDX 36 56 50 58 71 59 38 60 22 61 23 62 31 63 24 64 26 65 32 66
REMARK SMILES IDX 25 67 27 68 28 69 29 70 30 71 54 72 55 73 63 74 56 75 58 76
REMARK SMILES IDX 64 77 57 78 59 79 60 80 61 81 62 82 39 83 40 84 48 85 41 86
REMARK SMILES IDX 43 87 49 88 42 89 44 90 45 91 46 92 47 93
REMARK H PARENT 5 6 10 27 69 46 37 57
REMARK Flexibility Score: inf
ROOT
ATOM      1  C   UNL A   1      31.265  29.183  24.058  1.00  0.00     0.023 C 
ENDROOT
BRANCH   1   2
ATOM      2  C   UNL A   1      30.600  27.805  24.103  1.00  0.00     0.116 C 
BRANCH   2   3
ATOM      3  N   UNL A   1      30.934  27.012  22.938  1.00  0.00    -0.356 N 
ATOM      4  C   UNL A   1      31.727  25.909  22.800  1.00  0.00     0.227 C 
ATOM      5  O   UNL A   1      31.865  25.498  21.647  1.00  0.00    -0.274 OA
ATOM      6  H   UNL A   1      30.519  27.322  22.101  1.00  0.00     0.163 HD
BRANCH   4   7
ATOM      7  C   UNL A   1      32.365  25.253  24.038  1.00  0.00     0.108 C 
ATOM      8  C   UNL A   1      33.836  25.657  24.182  1.00  0.00     0.023 C 
BRANCH   7   9
ATOM      9  C   UNL A   1      32.274  23.731  24.144  1.00  0.00     0.000 A 
ATOM     10  C   UNL A   1      32.749  22.837  23.178  1.00  0.00     0.011 A 
ATOM     11  C   UNL A   1      31.753  23.171  25.321  1.00  0.00     0.130 A 
ATOM     12  C   UNL A   1      32.668  21.455  23.379  1.00  0.00     0.047 A 
ATOM     13  C   UNL A   1      31.696  21.793  25.540  1.00  0.00     0.086 A 
ATOM     14  F   UNL A   1      31.314  23.981  26.297  1.00  0.00    -0.207 F 
ATOM     15  C   UNL A   1      32.160  20.923  24.564  1.00  0.00     0.123 A 
BRANCH  15  16
ATOM     16  O   UNL A   1      32.153  19.563  24.607  1.00  0.00    -0.483 OA
BRANCH  16  17
ATOM     17  C   UNL A   1      33.206  18.805  24.065  1.00  0.00     0.239 C 
ATOM     18  C   UNL A   1      34.041  18.041  25.105  1.00  0.00     0.054 C 
ATOM     19  C   UNL A   1      33.027  17.801  22.932  1.00  0.00     0.173 C 
ATOM     20  C   UNL A   1      34.109  16.589  24.638  1.00  0.00     0.012 C 
ATOM     21  C   UNL A   1      33.896  16.592  23.132  1.00  0.00     0.080 C 
ATOM     22  O   UNL A   1      32.316  17.964  21.949  1.00  0.00    -0.296 OA
ENDBRANCH  16  17
ENDBRANCH  15  16
ENDBRANCH   7   9
ENDBRANCH   4   7
ENDBRANCH   2   3
ENDBRANCH   1   2
BRANCH   1  23
ATOM     23  C   UNL A   1      32.519  29.330  24.922  1.00  0.00     0.023 C 
BRANCH  23  24
ATOM     24  C   UNL A   1      32.276  29.760  26.362  1.00  0.00     0.116 C 
BRANCH  24  25
ATOM     25  N   UNL A   1      32.218  31.206  26.515  1.00  0.00    -0.352 N 
ATOM     26  C   UNL A   1      33.071  32.038  27.199  1.00  0.00     0.251 C 
ATOM     27  H   UNL A   1      31.462  31.649  26.066  1.00  0.00     0.163 HD
ATOM     28  O   UNL A   1      32.786  33.225  27.336  1.00  0.00    -0.269 OA
BRANCH  26  29
ATOM     29  C   UNL A   1      34.312  31.497  27.792  1.00  0.00     0.039 A 
ATOM     30  C   UNL A   1      35.391  32.360  28.004  1.00  0.00     0.014 A 
ATOM     31  C   UNL A   1      34.409  30.149  28.150  1.00  0.00     0.014 A 
ATOM     32  C   UNL A   1      36.543  31.885  28.635  1.00  0.00     0.010 A 
ATOM     33  C   UNL A   1      35.529  29.697  28.843  1.00  0.00     0.010 A 
ATOM     34  C   UNL A   1      36.608  30.558  29.089  1.00  0.00    -0.014 A 
BRANCH  34  35
ATOM     35  C   UNL A   1      37.791  30.056  29.836  1.00  0.00     0.031 A 
ATOM     36  C   UNL A   1      38.069  30.540  31.233  1.00  0.00     0.074 A 
ATOM     37  C   UNL A   1      38.665  29.233  29.222  1.00  0.00     0.049 A 
ATOM     38  N   UNL A   1      39.076  30.258  32.018  1.00  0.00    -0.248 NA
ATOM     39  C   UNL A   1      37.104  31.489  31.814  1.00  0.00     0.031 C 
ATOM     40  C   UNL A   1      38.552  28.757  27.842  1.00  0.00     0.029 A 
ATOM     41  N   UNL A   1      39.835  28.674  29.671  1.00  0.00    -0.354 N 
ATOM     42  C   UNL A   1      38.888  31.018  33.166  1.00  0.00     0.074 A 
ATOM     43  C   UNL A   1      37.688  31.800  32.963  1.00  0.00     0.031 C 
ATOM     44  C   UNL A   1      39.606  27.977  27.558  1.00  0.00     0.029 A 
ATOM     45  C   UNL A   1      40.484  27.918  28.723  1.00  0.00     0.049 A 
ATOM     46  H   UNL A   1      40.179  28.802  30.585  1.00  0.00     0.167 HD
ATOM     47  C   UNL A   1      39.627  31.041  34.301  1.00  0.00     0.034 A 
ATOM     48  C   UNL A   1      41.658  27.257  28.782  1.00  0.00     0.034 A 
ATOM     49  C   UNL A   1      40.794  30.229  34.518  1.00  0.00     0.049 A 
ATOM     50  C   UNL A   1      42.439  27.266  30.067  1.00  0.00     0.074 A 
ATOM     51  C   UNL A   1      41.557  30.108  35.666  1.00  0.00     0.029 A 
ATOM     52  N   UNL A   1      41.375  29.407  33.565  1.00  0.00    -0.354 N 
ATOM     53  N   UNL A   1      42.153  27.857  31.202  1.00  0.00    -0.248 NA
ATOM     54  C   UNL A   1      43.685  26.486  30.093  1.00  0.00     0.031 C 
ATOM     55  C   UNL A   1      42.612  29.229  35.399  1.00  0.00     0.029 A 
ATOM     56  C   UNL A   1      42.492  28.783  34.093  1.00  0.00     0.049 A 
ATOM     57  H   UNL A   1      41.042  29.285  32.646  1.00  0.00     0.167 HD
ATOM     58  C   UNL A   1      43.164  27.494  32.085  1.00  0.00     0.074 A 
ATOM     59  C   UNL A   1      44.056  26.614  31.360  1.00  0.00     0.031 C 
ATOM     60  C   UNL A   1      43.345  27.869  33.376  1.00  0.00     0.034 A 
BRANCH  47  61
ATOM     61  C   UNL A   1      39.163  31.937  35.420  1.00  0.00     0.023 A 
ATOM     62  C   UNL A   1      38.223  31.452  36.353  1.00  0.00     0.012 A 
ATOM     63  C   UNL A   1      39.688  33.233  35.580  1.00  0.00     0.148 A 
ATOM     64  C   UNL A   1      37.785  32.256  37.405  1.00  0.00     0.002 A 
ATOM     65  C   UNL A   1      39.280  34.012  36.658  1.00  0.00     0.091 A 
ATOM     66  F   UNL A   1      40.564  33.687  34.673  1.00  0.00    -0.205 F 
ATOM     67  C   UNL A   1      38.320  33.530  37.563  1.00  0.00     0.022 A 
BRANCH  65  68
ATOM     68  S   UNL A   1      39.970  35.636  36.995  1.00  0.00     0.127 S 
ATOM     69  O   UNL A   1      39.278  36.001  38.230  1.00  0.00    -0.237 OA
ATOM     70  O   UNL A   1      41.393  35.339  37.159  1.00  0.00    -0.237 OA
ATOM     71  O   UNL A   1      39.653  36.455  35.833  1.00  0.00    -0.744 OA
ENDBRANCH  65  68
ENDBRANCH  47  61
BRANCH  48  72
ATOM     72  C   UNL A   1      42.127  26.471  27.605  1.00  0.00     0.023 A 
ATOM     73  C   UNL A   1      42.908  27.106  26.620  1.00  0.00     0.012 A 
ATOM     74  C   UNL A   1      41.837  25.100  27.472  1.00  0.00     0.148 A 
ATOM     75  C   UNL A   1      43.366  26.398  25.508  1.00  0.00     0.002 A 
ATOM     76  C   UNL A   1      42.341  24.387  26.390  1.00  0.00     0.091 A 
ATOM     77  F   UNL A   1      41.083  24.516  28.415  1.00  0.00    -0.205 F 
ATOM     78  C   UNL A   1      43.092  25.038  25.398  1.00  0.00     0.022 A 
BRANCH  76  79
ATOM     79  S   UNL A   1      42.151  22.608  26.234  1.00  0.00     0.127 S 
ATOM     80  O   UNL A   1      42.864  22.340  24.987  1.00  0.00    -0.237 OA
ATOM     81  O   UNL A   1      42.821  22.125  27.443  1.00  0.00    -0.237 OA
ATOM     82  O   UNL A   1      40.715  22.367  26.207  1.00  0.00    -0.744 OA
ENDBRANCH  76  79
ENDBRANCH  48  72
BRANCH  60  83
ATOM     83  C   UNL A   1      44.536  27.307  34.107  1.00  0.00     0.023 A 
ATOM     84  C   UNL A   1      45.720  28.065  34.203  1.00  0.00     0.012 A 
ATOM     85  C   UNL A   1      44.456  26.063  34.764  1.00  0.00     0.148 A 
ATOM     86  C   UNL A   1      46.817  27.580  34.915  1.00  0.00     0.002 A 
ATOM     87  C   UNL A   1      45.536  25.608  35.513  1.00  0.00     0.091 A 
ATOM     88  F   UNL A   1      43.328  25.349  34.647  1.00  0.00    -0.205 F 
ATOM     89  C   UNL A   1      46.720  26.360  35.579  1.00  0.00     0.022 A 
BRANCH  87  90
ATOM     90  S   UNL A   1      45.468  24.096  36.480  1.00  0.00     0.127 S 
ATOM     91  O   UNL A   1      44.635  24.503  37.611  1.00  0.00    -0.237 OA
ATOM     92  O   UNL A   1      44.824  23.163  35.553  1.00  0.00    -0.237 OA
ATOM     93  O   UNL A   1      46.848  23.766  36.806  1.00  0.00    -0.744 OA
ENDBRANCH  87  90
ENDBRANCH  60  83
ENDBRANCH  34  35
ENDBRANCH  26  29
ENDBRANCH  24  25
ENDBRANCH  23  24
ENDBRANCH   1  23
TORSDOF 17
ENDMDL
