MODEL 1
REMARK VINA RESULT:     -13.3      0.000      0.000
REMARK SMILES Cc1cccc(C[N@H+]2CC[C@@](C)(C(=O)NCCCCNC(=O)c3ccc(-c4c5nc(c(-c6cccc(S(=O)(=O)[O-])c6F)c6ccc([nH]6)c(-c6cccc(S(=O)(=O)[O-])c6F)c6nc(c(-c7cccc(S(=O)(=O)[O-])c7F)c7ccc4[nH]7)C=C6)C=C5)cc3)C2)n1
REMARK SMILES IDX 18 1 17 2 16 3 15 4 13 5 14 6 11 8 8 9 9 10 86 11 10 13
REMARK SMILES IDX 12 14 7 15 6 16 1 17 2 18 3 19 87 20 4 21 5 22 19 23 20 24
REMARK SMILES IDX 21 25 22 27 23 28 24 29 85 30 25 31 84 32 26 33 27 34 28 35
REMARK SMILES IDX 78 36 29 37 83 38 77 39 79 40 30 41 82 42 76 43 75 44 31 46
REMARK SMILES IDX 63 47 43 48 62 49 44 50 47 51 61 52 80 53 45 54 46 55 60 57
REMARK SMILES IDX 81 58 48 59 32 60 33 61 41 62 34 63 36 64 42 65 35 66 37 67
REMARK SMILES IDX 38 68 39 69 40 70 64 71 65 72 73 73 66 74 68 75 74 76 67 77
REMARK SMILES IDX 69 78 70 79 71 80 72 81 49 82 50 83 58 84 51 85 53 86 59 87
REMARK SMILES IDX 52 88 54 89 55 90 56 91 57 92
REMARK H PARENT 15 7 8 12 20 26 79 45 47 56
REMARK Flexibility Score: inf
ROOT
ATOM      1  C   UNL A   1      33.159  28.628  24.675  1.00  0.00     0.023 C 
ENDROOT
BRANCH   1   2
ATOM      2  C   UNL A   1      32.868  26.919  24.607  1.00  0.00     0.023 C 
BRANCH   2   3
ATOM      3  C   UNL A   1      34.107  25.122  24.690  1.00  0.00     0.116 C 
BRANCH   3   4
ATOM      4  N   UNL A   1      35.013  24.386  23.662  1.00  0.00    -0.355 N 
ATOM      5  C   UNL A   1      35.831  23.312  23.791  1.00  0.00     0.231 C 
ATOM      6  O   UNL A   1      36.405  22.992  22.739  1.00  0.00    -0.274 OA
ATOM      7  H   UNL A   1      34.987  24.767  22.755  1.00  0.00     0.163 HD
BRANCH   5   8
ATOM      8  C   UNL A   1      35.974  22.440  25.078  1.00  0.00     0.100 C 
ATOM      9  N   UNL A   1      34.878  20.254  25.366  1.00  0.00    -0.329 N 
ATOM     10  C   UNL A   1      36.209  20.000  24.811  1.00  0.00     0.263 C 
ATOM     11  C   UNL A   1      34.735  21.705  25.616  1.00  0.00     0.279 C 
ATOM     12  H   UNL A   1      34.825  19.751  26.252  1.00  0.00     0.348 HD
ATOM     13  C   UNL A   1      36.995  21.312  24.873  1.00  0.00     0.084 C 
ATOM     14  C   UNL A   1      36.482  23.417  26.173  1.00  0.00     0.028 C 
BRANCH   9  15
ATOM     15  C   UNL A   1      33.731  19.635  24.650  1.00  0.00     0.319 C 
BRANCH  15  16
ATOM     16  C   UNL A   1      32.553  20.570  24.351  1.00  0.00     0.095 A 
ATOM     17  C   UNL A   1      29.911  22.955  26.943  1.00  0.00     0.067 C 
ATOM     18  C   UNL A   1      30.695  22.588  25.723  1.00  0.00     0.038 A 
ATOM     19  C   UNL A   1      30.801  23.683  24.300  1.00  0.00     0.023 A 
ATOM     20  N   UNL A   1      31.613  21.090  25.756  1.00  0.00    -0.252 NA
ATOM     21  C   UNL A   1      31.724  23.146  22.846  1.00  0.00     0.004 A 
ATOM     22  C   UNL A   1      32.656  21.606  22.896  1.00  0.00     0.030 A 
ENDBRANCH  15  16
ENDBRANCH   9  15
ENDBRANCH   5   8
ENDBRANCH   3   4
ENDBRANCH   2   3
ENDBRANCH   1   2
BRANCH   1  23
ATOM     23  C   UNL A   1      33.867  29.253  25.872  1.00  0.00     0.116 C 
BRANCH  23  24
ATOM     24  N   UNL A   1      33.296  30.509  26.321  1.00  0.00    -0.352 N 
ATOM     25  C   UNL A   1      33.850  31.338  27.266  1.00  0.00     0.251 C 
ATOM     26  H   UNL A   1      32.444  30.789  25.917  1.00  0.00     0.163 HD
ATOM     27  O   UNL A   1      33.297  32.361  27.646  1.00  0.00    -0.269 OA
BRANCH  25  28
ATOM     28  C   UNL A   1      35.141  30.907  27.825  1.00  0.00     0.039 A 
ATOM     29  C   UNL A   1      36.171  31.840  27.923  1.00  0.00     0.014 A 
ATOM     30  C   UNL A   1      35.229  29.650  28.432  1.00  0.00     0.014 A 
ATOM     31  C   UNL A   1      37.317  31.500  28.632  1.00  0.00     0.010 A 
ATOM     32  C   UNL A   1      36.326  29.360  29.228  1.00  0.00     0.010 A 
ATOM     33  C   UNL A   1      37.400  30.261  29.290  1.00  0.00    -0.014 A 
BRANCH  33  34
ATOM     34  C   UNL A   1      38.664  29.853  29.941  1.00  0.00     0.031 A 
ATOM     35  C   UNL A   1      38.986  30.409  31.301  1.00  0.00     0.074 A 
ATOM     36  C   UNL A   1      39.491  28.985  29.328  1.00  0.00     0.049 A 
ATOM     37  N   UNL A   1      39.998  30.145  32.083  1.00  0.00    -0.248 NA
ATOM     38  C   UNL A   1      38.061  31.419  31.847  1.00  0.00     0.031 C 
ATOM     39  C   UNL A   1      39.293  28.432  27.986  1.00  0.00     0.029 A 
ATOM     40  N   UNL A   1      40.655  28.406  29.758  1.00  0.00    -0.354 N 
ATOM     41  C   UNL A   1      39.844  30.973  33.188  1.00  0.00     0.074 A 
ATOM     42  C   UNL A   1      38.688  31.802  32.946  1.00  0.00     0.031 C 
ATOM     43  C   UNL A   1      40.279  27.559  27.721  1.00  0.00     0.029 A 
ATOM     44  C   UNL A   1      41.192  27.517  28.858  1.00  0.00     0.049 A 
ATOM     45  H   UNL A   1      41.068  28.609  30.628  1.00  0.00     0.167 HD
ATOM     46  C   UNL A   1      40.569  31.008  34.328  1.00  0.00     0.034 A 
ATOM     47  C   UNL A   1      42.294  26.748  28.954  1.00  0.00     0.034 A 
ATOM     48  C   UNL A   1      41.700  30.156  34.561  1.00  0.00     0.049 A 
ATOM     49  C   UNL A   1      43.091  26.803  30.230  1.00  0.00     0.074 A 
ATOM     50  C   UNL A   1      42.493  30.062  35.687  1.00  0.00     0.029 A 
ATOM     51  N   UNL A   1      42.204  29.255  33.633  1.00  0.00    -0.354 N 
ATOM     52  N   UNL A   1      42.868  27.513  31.311  1.00  0.00    -0.248 NA
ATOM     53  C   UNL A   1      44.266  25.928  30.314  1.00  0.00     0.031 C 
ATOM     54  C   UNL A   1      43.508  29.137  35.422  1.00  0.00     0.029 A 
ATOM     55  C   UNL A   1      43.307  28.608  34.156  1.00  0.00     0.049 A 
ATOM     56  H   UNL A   1      41.830  29.099  32.736  1.00  0.00     0.167 HD
ATOM     57  C   UNL A   1      43.847  27.134  32.223  1.00  0.00     0.074 A 
ATOM     58  C   UNL A   1      44.654  26.125  31.567  1.00  0.00     0.031 C 
ATOM     59  C   UNL A   1      44.063  27.579  33.486  1.00  0.00     0.034 A 
BRANCH  46  60
ATOM     60  C   UNL A   1      40.142  31.987  35.392  1.00  0.00     0.023 A 
ATOM     61  C   UNL A   1      40.806  33.227  35.522  1.00  0.00     0.012 A 
ATOM     62  C   UNL A   1      39.091  31.675  36.275  1.00  0.00     0.148 A 
ATOM     63  C   UNL A   1      40.475  34.109  36.550  1.00  0.00     0.002 A 
ATOM     64  C   UNL A   1      38.726  32.585  37.259  1.00  0.00     0.091 A 
ATOM     65  F   UNL A   1      38.486  30.486  36.153  1.00  0.00    -0.205 F 
ATOM     66  C   UNL A   1      39.429  33.792  37.413  1.00  0.00     0.022 A 
BRANCH  64  67
ATOM     67  S   UNL A   1      37.342  32.308  38.368  1.00  0.00     0.127 S 
ATOM     68  O   UNL A   1      37.844  32.881  39.616  1.00  0.00    -0.237 OA
ATOM     69  O   UNL A   1      36.279  33.081  37.725  1.00  0.00    -0.237 OA
ATOM     70  O   UNL A   1      37.123  30.868  38.388  1.00  0.00    -0.744 OA
ENDBRANCH  64  67
ENDBRANCH  46  60
BRANCH  47  71
ATOM     71  C   UNL A   1      42.665  25.820  27.847  1.00  0.00     0.023 A 
ATOM     72  C   UNL A   1      43.667  26.189  26.929  1.00  0.00     0.012 A 
ATOM     73  C   UNL A   1      42.044  24.564  27.713  1.00  0.00     0.148 A 
ATOM     74  C   UNL A   1      44.020  25.341  25.879  1.00  0.00     0.002 A 
ATOM     75  C   UNL A   1      42.437  23.700  26.698  1.00  0.00     0.091 A 
ATOM     76  F   UNL A   1      41.091  24.232  28.595  1.00  0.00    -0.205 F 
ATOM     77  C   UNL A   1      43.411  24.094  25.767  1.00  0.00     0.022 A 
BRANCH  75  78
ATOM     78  S   UNL A   1      41.795  22.029  26.549  1.00  0.00     0.127 S 
ATOM     79  O   UNL A   1      42.442  21.570  25.321  1.00  0.00    -0.237 OA
ATOM     80  O   UNL A   1      42.290  21.409  27.777  1.00  0.00    -0.237 OA
ATOM     81  O   UNL A   1      40.347  22.165  26.481  1.00  0.00    -0.744 OA
ENDBRANCH  75  78
ENDBRANCH  47  71
BRANCH  59  82
ATOM     82  C   UNL A   1      45.172  26.929  34.267  1.00  0.00     0.023 A 
ATOM     83  C   UNL A   1      46.476  27.458  34.234  1.00  0.00     0.012 A 
ATOM     84  C   UNL A   1      44.889  25.827  35.098  1.00  0.00     0.148 A 
ATOM     85  C   UNL A   1      47.494  26.869  34.983  1.00  0.00     0.002 A 
ATOM     86  C   UNL A   1      45.893  25.286  35.888  1.00  0.00     0.091 A 
ATOM     87  F   UNL A   1      43.643  25.331  35.102  1.00  0.00    -0.205 F 
ATOM     88  C   UNL A   1      47.199  25.795  35.819  1.00  0.00     0.022 A 
BRANCH  86  89
ATOM     89  S   UNL A   1      45.579  23.977  37.075  1.00  0.00     0.127 S 
ATOM     90  O   UNL A   1      45.234  22.859  36.198  1.00  0.00    -0.237 OA
ATOM     91  O   UNL A   1      46.874  23.852  37.745  1.00  0.00    -0.237 OA
ATOM     92  O   UNL A   1      44.499  24.454  37.928  1.00  0.00    -0.744 OA
ENDBRANCH  86  89
ENDBRANCH  59  82
ENDBRANCH  33  34
ENDBRANCH  25  28
ENDBRANCH  23  24
ENDBRANCH   1  23
TORSDOF 16
ENDMDL
MODEL 2
REMARK VINA RESULT:     -13.3      3.014      8.757
REMARK SMILES Cc1cccc(C[N@H+]2CC[C@@](C)(C(=O)NCCCCNC(=O)c3ccc(-c4c5nc(c(-c6cccc(S(=O)(=O)[O-])c6F)c6ccc([nH]6)c(-c6cccc(S(=O)(=O)[O-])c6F)c6nc(c(-c7cccc(S(=O)(=O)[O-])c7F)c7ccc4[nH]7)C=C6)C=C5)cc3)C2)n1
REMARK SMILES IDX 18 1 17 2 16 3 15 4 13 5 14 6 11 8 8 9 9 10 86 11 10 13
REMARK SMILES IDX 12 14 7 15 6 16 1 17 2 18 3 19 87 20 4 21 5 22 19 23 20 24
REMARK SMILES IDX 21 25 22 27 23 28 24 29 85 30 25 31 84 32 26 33 27 34 28 35
REMARK SMILES IDX 78 36 29 37 83 38 77 39 79 40 30 41 82 42 76 43 75 44 31 46
REMARK SMILES IDX 63 47 43 48 62 49 44 50 47 51 61 52 80 53 45 54 46 55 60 57
REMARK SMILES IDX 81 58 48 59 32 60 33 61 41 62 34 63 36 64 42 65 35 66 37 67
REMARK SMILES IDX 38 68 39 69 40 70 64 71 65 72 73 73 66 74 68 75 74 76 67 77
REMARK SMILES IDX 69 78 70 79 71 80 72 81 49 82 50 83 58 84 51 85 53 86 59 87
REMARK SMILES IDX 52 88 54 89 55 90 56 91 57 92
REMARK H PARENT 15 7 8 12 20 26 79 45 47 56
REMARK Flexibility Score: inf
ROOT
ATOM      1  C   UNL A   1      31.570  31.986  26.534  1.00  0.00     0.023 C 
ENDROOT
BRANCH   1   2
ATOM      2  C   UNL A   1      31.620  30.304  26.113  1.00  0.00     0.023 C 
BRANCH   2   3
ATOM      3  C   UNL A   1      31.896  28.431  27.202  1.00  0.00     0.116 C 
BRANCH   3   4
ATOM      4  N   UNL A   1      31.223  27.030  27.130  1.00  0.00    -0.355 N 
ATOM      5  C   UNL A   1      31.517  25.928  26.397  1.00  0.00     0.231 C 
ATOM      6  O   UNL A   1      30.755  24.972  26.604  1.00  0.00    -0.274 OA
ATOM      7  H   UNL A   1      30.445  26.924  27.724  1.00  0.00     0.163 HD
BRANCH   5   8
ATOM      8  C   UNL A   1      32.762  25.772  25.467  1.00  0.00     0.100 C 
ATOM      9  N   UNL A   1      32.810  26.526  23.124  1.00  0.00    -0.329 N 
ATOM     10  C   UNL A   1      33.315  27.630  23.942  1.00  0.00     0.263 C 
ATOM     11  C   UNL A   1      32.545  25.365  24.000  1.00  0.00     0.279 C 
ATOM     12  H   UNL A   1      33.546  26.288  22.460  1.00  0.00     0.348 HD
ATOM     13  C   UNL A   1      33.540  27.091  25.357  1.00  0.00     0.084 C 
ATOM     14  C   UNL A   1      33.645  24.695  26.153  1.00  0.00     0.028 C 
BRANCH   9  15
ATOM     15  C   UNL A   1      31.707  26.851  22.180  1.00  0.00     0.319 C 
BRANCH  15  16
ATOM     16  C   UNL A   1      30.525  27.623  22.781  1.00  0.00     0.095 A 
ATOM     17  C   UNL A   1      28.173  31.056  21.343  1.00  0.00     0.067 C 
ATOM     18  C   UNL A   1      28.463  29.775  22.059  1.00  0.00     0.038 A 
ATOM     19  C   UNL A   1      27.175  28.855  22.915  1.00  0.00     0.023 A 
ATOM     20  N   UNL A   1      30.091  29.123  21.950  1.00  0.00    -0.252 NA
ATOM     21  C   UNL A   1      27.615  27.346  23.798  1.00  0.00     0.004 A 
ATOM     22  C   UNL A   1      29.289  26.694  23.679  1.00  0.00     0.030 A 
ENDBRANCH  15  16
ENDBRANCH   9  15
ENDBRANCH   5   8
ENDBRANCH   3   4
ENDBRANCH   2   3
ENDBRANCH   1   2
BRANCH   1  23
ATOM     23  C   UNL A   1      32.739  32.647  27.255  1.00  0.00     0.116 C 
BRANCH  23  24
ATOM     24  N   UNL A   1      32.535  34.045  27.580  1.00  0.00    -0.352 N 
ATOM     25  C   UNL A   1      33.249  34.754  28.515  1.00  0.00     0.251 C 
ATOM     26  H   UNL A   1      31.828  34.525  27.091  1.00  0.00     0.163 HD
ATOM     27  O   UNL A   1      32.998  35.920  28.786  1.00  0.00    -0.269 OA
BRANCH  25  28
ATOM     28  C   UNL A   1      34.321  34.017  29.203  1.00  0.00     0.039 A 
ATOM     29  C   UNL A   1      35.643  34.390  28.969  1.00  0.00     0.014 A 
ATOM     30  C   UNL A   1      33.979  33.119  30.219  1.00  0.00     0.014 A 
ATOM     31  C   UNL A   1      36.643  33.841  29.764  1.00  0.00     0.010 A 
ATOM     32  C   UNL A   1      34.969  32.662  31.075  1.00  0.00     0.010 A 
ATOM     33  C   UNL A   1      36.312  32.976  30.821  1.00  0.00    -0.014 A 
BRANCH  33  34
ATOM     34  C   UNL A   1      37.382  32.301  31.586  1.00  0.00     0.031 A 
ATOM     35  C   UNL A   1      38.150  31.189  30.925  1.00  0.00     0.074 A 
ATOM     36  C   UNL A   1      37.668  32.696  32.841  1.00  0.00     0.049 A 
ATOM     37  N   UNL A   1      39.164  30.503  31.378  1.00  0.00    -0.248 NA
ATOM     38  C   UNL A   1      37.701  30.772  29.584  1.00  0.00     0.031 C 
ATOM     39  C   UNL A   1      36.945  33.729  33.589  1.00  0.00     0.029 A 
ATOM     40  N   UNL A   1      38.650  32.288  33.704  1.00  0.00    -0.354 N 
ATOM     41  C   UNL A   1      39.449  29.563  30.395  1.00  0.00     0.074 A 
ATOM     42  C   UNL A   1      38.459  29.712  29.357  1.00  0.00     0.031 C 
ATOM     43  C   UNL A   1      37.538  33.903  34.782  1.00  0.00     0.029 A 
ATOM     44  C   UNL A   1      38.657  32.975  34.895  1.00  0.00     0.049 A 
ATOM     45  H   UNL A   1      39.288  31.570  33.492  1.00  0.00     0.167 HD
ATOM     46  C   UNL A   1      40.475  28.684  30.336  1.00  0.00     0.034 A 
ATOM     47  C   UNL A   1      39.487  32.868  35.950  1.00  0.00     0.034 A 
ATOM     48  C   UNL A   1      41.465  28.568  31.367  1.00  0.00     0.049 A 
ATOM     49  C   UNL A   1      40.621  31.882  35.866  1.00  0.00     0.074 A 
ATOM     50  C   UNL A   1      42.577  27.750  31.409  1.00  0.00     0.029 A 
ATOM     51  N   UNL A   1      41.450  29.294  32.550  1.00  0.00    -0.354 N 
ATOM     52  N   UNL A   1      40.942  31.076  34.881  1.00  0.00    -0.248 NA
ATOM     53  C   UNL A   1      41.526  31.815  37.020  1.00  0.00     0.031 C 
ATOM     54  C   UNL A   1      43.207  27.946  32.641  1.00  0.00     0.029 A 
ATOM     55  C   UNL A   1      42.526  28.934  33.337  1.00  0.00     0.049 A 
ATOM     56  H   UNL A   1      40.773  29.966  32.792  1.00  0.00     0.167 HD
ATOM     57  C   UNL A   1      42.114  30.441  35.275  1.00  0.00     0.074 A 
ATOM     58  C   UNL A   1      42.449  30.967  36.584  1.00  0.00     0.031 C 
ATOM     59  C   UNL A   1      42.849  29.508  34.620  1.00  0.00     0.034 A 
BRANCH  46  60
ATOM     60  C   UNL A   1      40.565  27.806  29.113  1.00  0.00     0.023 A 
ATOM     61  C   UNL A   1      39.786  26.631  29.025  1.00  0.00     0.012 A 
ATOM     62  C   UNL A   1      41.433  28.136  28.055  1.00  0.00     0.148 A 
ATOM     63  C   UNL A   1      39.917  25.768  27.937  1.00  0.00     0.002 A 
ATOM     64  C   UNL A   1      41.513  27.302  26.946  1.00  0.00     0.091 A 
ATOM     65  F   UNL A   1      42.182  29.241  28.163  1.00  0.00    -0.205 F 
ATOM     66  C   UNL A   1      40.773  26.108  26.894  1.00  0.00     0.022 A 
BRANCH  64  67
ATOM     67  S   UNL A   1      42.524  27.690  25.515  1.00  0.00     0.127 S 
ATOM     68  O   UNL A   1      42.304  26.517  24.670  1.00  0.00    -0.237 OA
ATOM     69  O   UNL A   1      41.900  28.920  25.027  1.00  0.00    -0.237 OA
ATOM     70  O   UNL A   1      43.883  27.853  26.013  1.00  0.00    -0.744 OA
ENDBRANCH  64  67
ENDBRANCH  46  60
BRANCH  47  71
ATOM     71  C   UNL A   1      39.319  33.758  37.135  1.00  0.00     0.023 A 
ATOM     72  C   UNL A   1      39.768  35.091  37.078  1.00  0.00     0.012 A 
ATOM     73  C   UNL A   1      38.696  33.295  38.310  1.00  0.00     0.148 A 
ATOM     74  C   UNL A   1      39.632  35.937  38.180  1.00  0.00     0.002 A 
ATOM     75  C   UNL A   1      38.513  34.157  39.384  1.00  0.00     0.091 A 
ATOM     76  F   UNL A   1      38.277  32.022  38.344  1.00  0.00    -0.205 F 
ATOM     77  C   UNL A   1      38.998  35.474  39.329  1.00  0.00     0.022 A 
BRANCH  75  78
ATOM     78  S   UNL A   1      37.602  33.685  40.857  1.00  0.00     0.127 S 
ATOM     79  O   UNL A   1      37.460  34.967  41.544  1.00  0.00    -0.237 OA
ATOM     80  O   UNL A   1      36.366  33.150  40.286  1.00  0.00    -0.237 OA
ATOM     81  O   UNL A   1      38.430  32.698  41.536  1.00  0.00    -0.744 OA
ENDBRANCH  75  78
ENDBRANCH  47  71
BRANCH  59  82
ATOM     82  C   UNL A   1      44.122  29.047  35.273  1.00  0.00     0.023 A 
ATOM     83  C   UNL A   1      45.347  29.678  34.982  1.00  0.00     0.012 A 
ATOM     84  C   UNL A   1      44.081  28.023  36.241  1.00  0.00     0.148 A 
ATOM     85  C   UNL A   1      46.519  29.265  35.612  1.00  0.00     0.002 A 
ATOM     86  C   UNL A   1      45.241  27.662  36.910  1.00  0.00     0.091 A 
ATOM     87  F   UNL A   1      42.906  27.427  36.491  1.00  0.00    -0.205 F 
ATOM     88  C   UNL A   1      46.464  28.269  36.584  1.00  0.00     0.022 A 
BRANCH  86  89
ATOM     89  S   UNL A   1      45.243  26.471  38.252  1.00  0.00     0.127 S 
ATOM     90  O   UNL A   1      44.522  27.200  39.295  1.00  0.00    -0.237 OA
ATOM     91  O   UNL A   1      44.505  25.350  37.669  1.00  0.00    -0.237 OA
ATOM     92  O   UNL A   1      46.641  26.190  38.544  1.00  0.00    -0.744 OA
ENDBRANCH  86  89
ENDBRANCH  59  82
ENDBRANCH  33  34
ENDBRANCH  25  28
ENDBRANCH  23  24
ENDBRANCH   1  23
TORSDOF 16
ENDMDL
MODEL 3
REMARK VINA RESULT:     -13.2      5.344     10.389
REMARK SMILES Cc1cccc(C[N@H+]2CC[C@@](C)(C(=O)NCCCCNC(=O)c3ccc(-c4c5nc(c(-c6cccc(S(=O)(=O)[O-])c6F)c6ccc([nH]6)c(-c6cccc(S(=O)(=O)[O-])c6F)c6nc(c(-c7cccc(S(=O)(=O)[O-])c7F)c7ccc4[nH]7)C=C6)C=C5)cc3)C2)n1
REMARK SMILES IDX 18 1 17 2 16 3 15 4 13 5 14 6 11 8 8 9 9 10 86 11 10 13
REMARK SMILES IDX 12 14 7 15 6 16 1 17 2 18 3 19 87 20 4 21 5 22 19 23 20 24
REMARK SMILES IDX 21 25 22 27 23 28 24 29 85 30 25 31 84 32 26 33 27 34 28 35
REMARK SMILES IDX 78 36 29 37 83 38 77 39 79 40 30 41 82 42 76 43 75 44 31 46
REMARK SMILES IDX 63 47 43 48 62 49 44 50 47 51 61 52 80 53 45 54 46 55 60 57
REMARK SMILES IDX 81 58 48 59 32 60 33 61 41 62 34 63 36 64 42 65 35 66 37 67
REMARK SMILES IDX 38 68 39 69 40 70 64 71 65 72 73 73 66 74 68 75 74 76 67 77
REMARK SMILES IDX 69 78 70 79 71 80 72 81 49 82 50 83 58 84 51 85 53 86 59 87
REMARK SMILES IDX 52 88 54 89 55 90 56 91 57 92
REMARK H PARENT 15 7 8 12 20 26 79 45 47 56
REMARK Flexibility Score: inf
ROOT
ATOM      1  C   UNL A   1      34.694  22.472  25.771  1.00  0.00     0.023 C 
ENDROOT
BRANCH   1   2
ATOM      2  C   UNL A   1      33.327  22.900  26.750  1.00  0.00     0.023 C 
BRANCH   2   3
ATOM      3  C   UNL A   1      31.646  24.282  26.562  1.00  0.00     0.116 C 
BRANCH   3   4
ATOM      4  N   UNL A   1      31.471  25.810  26.801  1.00  0.00    -0.355 N 
ATOM      5  C   UNL A   1      32.142  26.880  26.306  1.00  0.00     0.231 C 
ATOM      6  O   UNL A   1      31.718  27.969  26.719  1.00  0.00    -0.274 OA
ATOM      7  H   UNL A   1      30.743  26.041  27.421  1.00  0.00     0.163 HD
BRANCH   5   8
ATOM      8  C   UNL A   1      33.257  26.816  25.215  1.00  0.00     0.100 C 
ATOM      9  N   UNL A   1      32.835  27.181  22.817  1.00  0.00    -0.329 N 
ATOM     10  C   UNL A   1      33.200  28.477  23.393  1.00  0.00     0.263 C 
ATOM     11  C   UNL A   1      32.940  26.145  23.868  1.00  0.00     0.279 C 
ATOM     12  H   UNL A   1      33.510  26.983  22.079  1.00  0.00     0.348 HD
ATOM     13  C   UNL A   1      33.718  28.223  24.811  1.00  0.00     0.084 C 
ATOM     14  C   UNL A   1      34.430  26.050  25.883  1.00  0.00     0.028 C 
BRANCH   9  15
ATOM     15  C   UNL A   1      31.574  27.136  22.030  1.00  0.00     0.319 C 
BRANCH  15  16
ATOM     16  C   UNL A   1      30.405  27.947  22.603  1.00  0.00     0.095 A 
ATOM     17  C   UNL A   1      28.057  31.316  21.014  1.00  0.00     0.067 C 
ATOM     18  C   UNL A   1      28.347  30.073  21.793  1.00  0.00     0.038 A 
ATOM     19  C   UNL A   1      27.064  29.208  22.712  1.00  0.00     0.023 A 
ATOM     20  N   UNL A   1      29.970  29.404  21.700  1.00  0.00    -0.252 NA
ATOM     21  C   UNL A   1      27.505  27.745  23.669  1.00  0.00     0.004 A 
ATOM     22  C   UNL A   1      29.173  27.075  23.564  1.00  0.00     0.030 A 
ENDBRANCH  15  16
ENDBRANCH   9  15
ENDBRANCH   5   8
ENDBRANCH   3   4
ENDBRANCH   2   3
ENDBRANCH   1   2
BRANCH   1  23
ATOM     23  C   UNL A   1      36.107  22.512  26.341  1.00  0.00     0.116 C 
BRANCH  23  24
ATOM     24  N   UNL A   1      36.975  21.448  25.875  1.00  0.00    -0.352 N 
ATOM     25  C   UNL A   1      38.348  21.483  25.887  1.00  0.00     0.251 C 
ATOM     26  H   UNL A   1      36.546  20.636  25.520  1.00  0.00     0.163 HD
ATOM     27  O   UNL A   1      39.031  20.577  25.431  1.00  0.00    -0.269 OA
BRANCH  25  28
ATOM     28  C   UNL A   1      38.957  22.696  26.454  1.00  0.00     0.039 A 
ATOM     29  C   UNL A   1      40.013  22.555  27.352  1.00  0.00     0.014 A 
ATOM     30  C   UNL A   1      38.608  23.941  25.921  1.00  0.00     0.014 A 
ATOM     31  C   UNL A   1      40.724  23.687  27.732  1.00  0.00     0.010 A 
ATOM     32  C   UNL A   1      39.390  25.046  26.219  1.00  0.00     0.010 A 
ATOM     33  C   UNL A   1      40.418  24.938  27.167  1.00  0.00    -0.014 A 
BRANCH  33  34
ATOM     34  C   UNL A   1      41.094  26.157  27.661  1.00  0.00     0.031 A 
ATOM     35  C   UNL A   1      42.517  26.411  27.247  1.00  0.00     0.074 A 
ATOM     36  C   UNL A   1      40.430  27.025  28.447  1.00  0.00     0.049 A 
ATOM     37  N   UNL A   1      43.282  27.437  27.505  1.00  0.00    -0.248 NA
ATOM     38  C   UNL A   1      43.182  25.357  26.459  1.00  0.00     0.031 C 
ATOM     39  C   UNL A   1      39.065  26.842  28.948  1.00  0.00     0.029 A 
ATOM     40  N   UNL A   1      40.808  28.241  28.953  1.00  0.00    -0.354 N 
ATOM     41  C   UNL A   1      44.515  27.137  26.939  1.00  0.00     0.074 A 
ATOM     42  C   UNL A   1      44.425  25.806  26.392  1.00  0.00     0.031 C 
ATOM     43  C   UNL A   1      38.705  27.928  29.651  1.00  0.00     0.029 A 
ATOM     44  C   UNL A   1      39.823  28.866  29.679  1.00  0.00     0.049 A 
ATOM     45  H   UNL A   1      41.701  28.629  28.811  1.00  0.00     0.167 HD
ATOM     46  C   UNL A   1      45.614  27.918  26.839  1.00  0.00     0.034 A 
ATOM     47  C   UNL A   1      39.826  30.068  30.286  1.00  0.00     0.034 A 
ATOM     48  C   UNL A   1      45.676  29.250  27.368  1.00  0.00     0.049 A 
ATOM     49  C   UNL A   1      41.059  30.923  30.166  1.00  0.00     0.074 A 
ATOM     50  C   UNL A   1      46.711  30.161  27.296  1.00  0.00     0.029 A 
ATOM     51  N   UNL A   1      44.651  29.857  28.081  1.00  0.00    -0.354 N 
ATOM     52  N   UNL A   1      42.180  30.668  29.532  1.00  0.00    -0.248 NA
ATOM     53  C   UNL A   1      41.016  32.241  30.810  1.00  0.00     0.031 C 
ATOM     54  C   UNL A   1      46.330  31.301  28.009  1.00  0.00     0.029 A 
ATOM     55  C   UNL A   1      45.033  31.127  28.468  1.00  0.00     0.049 A 
ATOM     56  H   UNL A   1      43.781  29.444  28.281  1.00  0.00     0.167 HD
ATOM     57  C   UNL A   1      42.958  31.813  29.660  1.00  0.00     0.074 A 
ATOM     58  C   UNL A   1      42.172  32.763  30.422  1.00  0.00     0.031 C 
ATOM     59  C   UNL A   1      44.208  32.059  29.194  1.00  0.00     0.034 A 
BRANCH  46  60
ATOM     60  C   UNL A   1      46.810  27.344  26.124  1.00  0.00     0.023 A 
ATOM     61  C   UNL A   1      47.675  26.450  26.793  1.00  0.00     0.012 A 
ATOM     62  C   UNL A   1      47.088  27.699  24.790  1.00  0.00     0.148 A 
ATOM     63  C   UNL A   1      48.828  25.972  26.172  1.00  0.00     0.002 A 
ATOM     64  C   UNL A   1      48.207  27.172  24.157  1.00  0.00     0.091 A 
ATOM     65  F   UNL A   1      46.272  28.565  24.176  1.00  0.00    -0.205 F 
ATOM     66  C   UNL A   1      49.089  26.326  24.851  1.00  0.00     0.022 A 
BRANCH  64  67
ATOM     67  S   UNL A   1      48.588  27.500  22.434  1.00  0.00     0.127 S 
ATOM     68  O   UNL A   1      47.426  28.284  22.019  1.00  0.00    -0.237 OA
ATOM     69  O   UNL A   1      49.833  28.262  22.539  1.00  0.00    -0.237 OA
ATOM     70  O   UNL A   1      48.722  26.198  21.795  1.00  0.00    -0.744 OA
ENDBRANCH  64  67
ENDBRANCH  46  60
BRANCH  47  71
ATOM     71  C   UNL A   1      38.609  30.558  30.995  1.00  0.00     0.023 A 
ATOM     72  C   UNL A   1      38.478  30.357  32.382  1.00  0.00     0.012 A 
ATOM     73  C   UNL A   1      37.590  31.241  30.304  1.00  0.00     0.148 A 
ATOM     74  C   UNL A   1      37.342  30.796  33.063  1.00  0.00     0.002 A 
ATOM     75  C   UNL A   1      36.486  31.724  30.996  1.00  0.00     0.091 A 
ATOM     76  F   UNL A   1      37.732  31.421  28.983  1.00  0.00    -0.205 F 
ATOM     77  C   UNL A   1      36.350  31.486  32.372  1.00  0.00     0.022 A 
BRANCH  75  78
ATOM     78  S   UNL A   1      35.219  32.728  30.213  1.00  0.00     0.127 S 
ATOM     79  O   UNL A   1      34.696  31.811  29.202  1.00  0.00    -0.237 OA
ATOM     80  O   UNL A   1      34.315  32.994  31.331  1.00  0.00    -0.237 OA
ATOM     81  O   UNL A   1      35.907  33.904  29.699  1.00  0.00    -0.744 OA
ENDBRANCH  75  78
ENDBRANCH  47  71
BRANCH  59  82
ATOM     82  C   UNL A   1      44.776  33.431  29.433  1.00  0.00     0.023 A 
ATOM     83  C   UNL A   1      45.467  33.722  30.625  1.00  0.00     0.012 A 
ATOM     84  C   UNL A   1      44.683  34.413  28.426  1.00  0.00     0.148 A 
ATOM     85  C   UNL A   1      46.017  34.987  30.829  1.00  0.00     0.002 A 
ATOM     86  C   UNL A   1      45.287  35.647  28.611  1.00  0.00     0.091 A 
ATOM     87  F   UNL A   1      44.008  34.117  27.305  1.00  0.00    -0.205 F 
ATOM     88  C   UNL A   1      45.940  35.942  29.818  1.00  0.00     0.022 A 
BRANCH  86  89
ATOM     89  S   UNL A   1      45.335  36.894  27.321  1.00  0.00     0.127 S 
ATOM     90  O   UNL A   1      43.913  37.179  27.132  1.00  0.00    -0.237 OA
ATOM     91  O   UNL A   1      46.094  37.969  27.961  1.00  0.00    -0.237 OA
ATOM     92  O   UNL A   1      46.002  36.276  26.183  1.00  0.00    -0.744 OA
ENDBRANCH  86  89
ENDBRANCH  59  82
ENDBRANCH  33  34
ENDBRANCH  25  28
ENDBRANCH  23  24
ENDBRANCH   1  23
TORSDOF 16
ENDMDL
