MODEL 1
REMARK VINA RESULT:     -11.2      0.000      0.000
REMARK SMILES C[C@H](C(=O)NCCCCNC(=O)c1ccc(-c2c3nc(c(-c4cccc(S(=O)(=O)[O-])c4F)c4ccc([nH]4)c(-c4cccc(S(=O)(=O)[O-])c4F)c4nc(c(-c5cccc(S(=O)(=O)[O-])c5F)c5ccc2[nH]5)C=C4)C=C3)cc1)[C@@H](C)C(=O)[C@H]1CC[C@H](C)CC1
REMARK SMILES IDX 7 1 6 2 5 3 3 4 4 5 2 7 1 8 76 9 77 10 78 11 79 12 80 13
REMARK SMILES IDX 84 14 83 15 82 16 85 17 81 18 86 19 8 20 9 21 10 22 11 23
REMARK SMILES IDX 12 25 13 26 14 27 75 28 15 29 74 30 16 31 17 32 18 33 68 34
REMARK SMILES IDX 19 35 73 36 67 37 69 38 20 39 72 40 66 41 65 42 21 44 53 45
REMARK SMILES IDX 33 46 52 47 34 48 37 49 51 50 70 51 35 52 36 53 50 55 71 56
REMARK SMILES IDX 38 57 22 58 23 59 31 60 24 61 26 62 32 63 25 64 27 65 28 66
REMARK SMILES IDX 29 67 30 68 54 69 55 70 63 71 56 72 58 73 64 74 57 75 59 76
REMARK SMILES IDX 60 77 61 78 62 79 39 80 40 81 48 82 41 83 43 84 49 85 42 86
REMARK SMILES IDX 44 87 45 88 46 89 47 90
REMARK H PARENT 5 6 10 24 69 43 37 54
REMARK Flexibility Score: inf
ROOT
ATOM      1  C   UNL A   1      31.950  28.006  26.718  1.00  0.00     0.023 C 
ENDROOT
BRANCH   1   2
ATOM      2  C   UNL A   1      31.160  26.981  25.921  1.00  0.00     0.116 C 
BRANCH   2   3
ATOM      3  N   UNL A   1      30.879  25.771  26.669  1.00  0.00    -0.356 N 
ATOM      4  C   UNL A   1      31.390  24.519  26.541  1.00  0.00     0.223 C 
ATOM      5  O   UNL A   1      31.163  23.712  27.447  1.00  0.00    -0.275 OA
ATOM      6  H   UNL A   1      30.213  25.875  27.387  1.00  0.00     0.163 HD
BRANCH   4   7
ATOM      7  C   UNL A   1      32.187  24.078  25.325  1.00  0.00     0.085 C 
ATOM      8  C   UNL A   1      33.617  23.739  25.779  1.00  0.00     0.019 C 
BRANCH   7   9
ATOM      9  C   UNL A   1      31.491  23.162  24.274  1.00  0.00     0.065 C 
ATOM     10  C   UNL A   1      30.572  23.970  23.339  1.00  0.00     0.017 C 
BRANCH   9  11
ATOM     11  C   UNL A   1      32.332  22.222  23.398  1.00  0.00     0.139 C 
ATOM     12  O   UNL A   1      32.874  22.663  22.374  1.00  0.00    -0.299 OA
BRANCH  11  13
ATOM     13  C   UNL A   1      32.432  20.714  23.694  1.00  0.00     0.056 C 
ATOM     14  C   UNL A   1      33.591  16.489  23.925  1.00  0.00     0.007 C 
ATOM     15  C   UNL A   1      33.587  17.974  23.569  1.00  0.00    -0.014 C 
ATOM     16  C   UNL A   1      33.752  18.858  24.814  1.00  0.00     0.004 C 
ATOM     17  C   UNL A   1      32.295  18.330  22.835  1.00  0.00     0.004 C 
ATOM     18  C   UNL A   1      33.708  20.352  24.462  1.00  0.00     0.012 C 
ATOM     19  C   UNL A   1      32.251  19.810  22.480  1.00  0.00     0.012 C 
ENDBRANCH  11  13
ENDBRANCH   9  11
ENDBRANCH   7   9
ENDBRANCH   4   7
ENDBRANCH   2   3
ENDBRANCH   1   2
BRANCH   1  20
ATOM     20  C   UNL A   1      33.456  27.731  26.755  1.00  0.00     0.023 C 
BRANCH  20  21
ATOM     21  C   UNL A   1      34.343  28.852  26.214  1.00  0.00     0.116 C 
BRANCH  21  22
ATOM     22  N   UNL A   1      33.928  30.172  26.669  1.00  0.00    -0.352 N 
ATOM     23  C   UNL A   1      34.456  30.957  27.669  1.00  0.00     0.251 C 
ATOM     24  H   UNL A   1      33.158  30.559  26.192  1.00  0.00     0.163 HD
ATOM     25  O   UNL A   1      33.865  31.961  28.046  1.00  0.00    -0.269 OA
BRANCH  23  26
ATOM     26  C   UNL A   1      35.736  30.568  28.298  1.00  0.00     0.039 A 
ATOM     27  C   UNL A   1      35.727  29.649  29.349  1.00  0.00     0.014 A 
ATOM     28  C   UNL A   1      36.945  31.098  27.837  1.00  0.00     0.014 A 
ATOM     29  C   UNL A   1      36.937  29.202  29.885  1.00  0.00     0.010 A 
ATOM     30  C   UNL A   1      38.149  30.588  28.314  1.00  0.00     0.010 A 
ATOM     31  C   UNL A   1      38.159  29.636  29.345  1.00  0.00    -0.014 A 
BRANCH  31  32
ATOM     32  C   UNL A   1      39.454  29.090  29.829  1.00  0.00     0.031 A 
ATOM     33  C   UNL A   1      40.195  29.767  30.952  1.00  0.00     0.074 A 
ATOM     34  C   UNL A   1      40.011  28.036  29.200  1.00  0.00     0.049 A 
ATOM     35  N   UNL A   1      41.357  29.467  31.471  1.00  0.00    -0.248 NA
ATOM     36  C   UNL A   1      39.560  30.952  31.554  1.00  0.00     0.031 C 
ATOM     37  C   UNL A   1      39.436  27.342  28.045  1.00  0.00     0.029 A 
ATOM     38  N   UNL A   1      41.196  27.379  29.423  1.00  0.00    -0.354 N 
ATOM     39  C   UNL A   1      41.611  30.443  32.428  1.00  0.00     0.074 A 
ATOM     40  C   UNL A   1      40.495  31.364  32.397  1.00  0.00     0.031 C 
ATOM     41  C   UNL A   1      40.266  26.356  27.665  1.00  0.00     0.029 A 
ATOM     42  C   UNL A   1      41.446  26.370  28.523  1.00  0.00     0.049 A 
ATOM     43  H   UNL A   1      41.809  27.611  30.158  1.00  0.00     0.167 HD
ATOM     44  C   UNL A   1      42.663  30.550  33.274  1.00  0.00     0.034 A 
ATOM     45  C   UNL A   1      42.510  25.553  28.393  1.00  0.00     0.034 A 
ATOM     46  C   UNL A   1      43.751  29.612  33.329  1.00  0.00     0.049 A 
ATOM     47  C   UNL A   1      43.648  25.669  29.370  1.00  0.00     0.074 A 
ATOM     48  C   UNL A   1      44.813  29.580  34.216  1.00  0.00     0.029 A 
ATOM     49  N   UNL A   1      43.930  28.552  32.455  1.00  0.00    -0.354 N 
ATOM     50  N   UNL A   1      43.791  26.499  30.375  1.00  0.00    -0.248 NA
ATOM     51  C   UNL A   1      44.755  24.713  29.220  1.00  0.00     0.031 C 
ATOM     52  C   UNL A   1      45.653  28.524  33.855  1.00  0.00     0.029 A 
ATOM     53  C   UNL A   1      45.093  27.869  32.771  1.00  0.00     0.049 A 
ATOM     54  H   UNL A   1      43.320  28.318  31.719  1.00  0.00     0.167 HD
ATOM     55  C   UNL A   1      44.982  26.143  30.997  1.00  0.00     0.074 A 
ATOM     56  C   UNL A   1      45.511  25.010  30.268  1.00  0.00     0.031 C 
ATOM     57  C   UNL A   1      45.588  26.713  32.068  1.00  0.00     0.034 A 
BRANCH  44  58
ATOM     58  C   UNL A   1      42.672  31.706  34.241  1.00  0.00     0.023 A 
ATOM     59  C   UNL A   1      43.202  32.950  33.842  1.00  0.00     0.012 A 
ATOM     60  C   UNL A   1      42.094  31.580  35.519  1.00  0.00     0.148 A 
ATOM     61  C   UNL A   1      43.191  34.040  34.712  1.00  0.00     0.002 A 
ATOM     62  C   UNL A   1      42.042  32.683  36.363  1.00  0.00     0.091 A 
ATOM     63  F   UNL A   1      41.612  30.385  35.888  1.00  0.00    -0.205 F 
ATOM     64  C   UNL A   1      42.601  33.909  35.967  1.00  0.00     0.022 A 
BRANCH  62  65
ATOM     65  S   UNL A   1      41.231  32.642  37.965  1.00  0.00     0.127 S 
ATOM     66  O   UNL A   1      39.894  32.171  37.606  1.00  0.00    -0.237 OA
ATOM     67  O   UNL A   1      42.043  31.670  38.696  1.00  0.00    -0.237 OA
ATOM     68  O   UNL A   1      41.293  34.001  38.483  1.00  0.00    -0.744 OA
ENDBRANCH  62  65
ENDBRANCH  44  58
BRANCH  45  69
ATOM     69  C   UNL A   1      42.526  24.517  27.321  1.00  0.00     0.023 A 
ATOM     70  C   UNL A   1      43.152  24.798  26.091  1.00  0.00     0.012 A 
ATOM     71  C   UNL A   1      41.949  23.249  27.524  1.00  0.00     0.148 A 
ATOM     72  C   UNL A   1      43.173  23.847  25.069  1.00  0.00     0.002 A 
ATOM     73  C   UNL A   1      42.024  22.286  26.524  1.00  0.00     0.091 A 
ATOM     74  F   UNL A   1      41.351  23.005  28.699  1.00  0.00    -0.205 F 
ATOM     75  C   UNL A   1      42.619  22.589  25.290  1.00  0.00     0.022 A 
BRANCH  73  76
ATOM     76  S   UNL A   1      41.458  20.599  26.766  1.00  0.00     0.127 S 
ATOM     77  O   UNL A   1      40.028  20.794  26.994  1.00  0.00    -0.237 OA
ATOM     78  O   UNL A   1      41.800  19.982  25.485  1.00  0.00    -0.237 OA
ATOM     79  O   UNL A   1      42.214  20.087  27.901  1.00  0.00    -0.744 OA
ENDBRANCH  73  76
ENDBRANCH  45  69
BRANCH  57  80
ATOM     80  C   UNL A   1      46.874  26.097  32.556  1.00  0.00     0.023 A 
ATOM     81  C   UNL A   1      48.112  26.592  32.099  1.00  0.00     0.012 A 
ATOM     82  C   UNL A   1      46.855  25.077  33.528  1.00  0.00     0.148 A 
ATOM     83  C   UNL A   1      49.309  26.056  32.574  1.00  0.00     0.002 A 
ATOM     84  C   UNL A   1      48.050  24.586  34.037  1.00  0.00     0.091 A 
ATOM     85  F   UNL A   1      45.667  24.609  33.938  1.00  0.00    -0.205 F 
ATOM     86  C   UNL A   1      49.278  25.063  33.551  1.00  0.00     0.022 A 
BRANCH  84  87
ATOM     87  S   UNL A   1      48.108  23.380  35.366  1.00  0.00     0.127 S 
ATOM     88  O   UNL A   1      47.521  22.203  34.727  1.00  0.00    -0.237 OA
ATOM     89  O   UNL A   1      49.544  23.278  35.629  1.00  0.00    -0.237 OA
ATOM     90  O   UNL A   1      47.331  23.946  36.460  1.00  0.00    -0.744 OA
ENDBRANCH  84  87
ENDBRANCH  57  80
ENDBRANCH  31  32
ENDBRANCH  23  26
ENDBRANCH  21  22
ENDBRANCH  20  21
ENDBRANCH   1  20
TORSDOF 17
ENDMDL
MODEL 2
REMARK VINA RESULT:     -11.1      1.885      2.722
REMARK SMILES C[C@H](C(=O)NCCCCNC(=O)c1ccc(-c2c3nc(c(-c4cccc(S(=O)(=O)[O-])c4F)c4ccc([nH]4)c(-c4cccc(S(=O)(=O)[O-])c4F)c4nc(c(-c5cccc(S(=O)(=O)[O-])c5F)c5ccc2[nH]5)C=C4)C=C3)cc1)[C@@H](C)C(=O)[C@H]1CC[C@H](C)CC1
REMARK SMILES IDX 7 1 6 2 5 3 3 4 4 5 2 7 1 8 76 9 77 10 78 11 79 12 80 13
REMARK SMILES IDX 84 14 83 15 82 16 85 17 81 18 86 19 8 20 9 21 10 22 11 23
REMARK SMILES IDX 12 25 13 26 14 27 75 28 15 29 74 30 16 31 17 32 18 33 68 34
REMARK SMILES IDX 19 35 73 36 67 37 69 38 20 39 72 40 66 41 65 42 21 44 53 45
REMARK SMILES IDX 33 46 52 47 34 48 37 49 51 50 70 51 35 52 36 53 50 55 71 56
REMARK SMILES IDX 38 57 22 58 23 59 31 60 24 61 26 62 32 63 25 64 27 65 28 66
REMARK SMILES IDX 29 67 30 68 54 69 55 70 63 71 56 72 58 73 64 74 57 75 59 76
REMARK SMILES IDX 60 77 61 78 62 79 39 80 40 81 48 82 41 83 43 84 49 85 42 86
REMARK SMILES IDX 44 87 45 88 46 89 47 90
REMARK H PARENT 5 6 10 24 69 43 37 54
REMARK Flexibility Score: inf
ROOT
ATOM      1  C   UNL A   1      33.735  28.284  24.245  1.00  0.00     0.023 C 
ENDROOT
BRANCH   1   2
ATOM      2  C   UNL A   1      33.229  27.717  22.928  1.00  0.00     0.116 C 
BRANCH   2   3
ATOM      3  N   UNL A   1      33.562  26.317  22.746  1.00  0.00    -0.356 N 
ATOM      4  C   UNL A   1      32.867  25.198  23.077  1.00  0.00     0.223 C 
ATOM      5  O   UNL A   1      33.255  24.123  22.611  1.00  0.00    -0.275 OA
ATOM      6  H   UNL A   1      34.430  26.152  22.312  1.00  0.00     0.163 HD
BRANCH   4   7
ATOM      7  C   UNL A   1      31.669  25.221  24.012  1.00  0.00     0.085 C 
ATOM      8  C   UNL A   1      30.641  24.195  23.509  1.00  0.00     0.019 C 
BRANCH   7   9
ATOM      9  C   UNL A   1      31.926  25.344  25.544  1.00  0.00     0.065 C 
ATOM     10  C   UNL A   1      30.949  26.334  26.205  1.00  0.00     0.017 C 
BRANCH   9  11
ATOM     11  C   UNL A   1      31.971  24.083  26.419  1.00  0.00     0.139 C 
ATOM     12  O   UNL A   1      31.101  23.909  27.284  1.00  0.00    -0.299 OA
BRANCH  11  13
ATOM     13  C   UNL A   1      33.134  23.077  26.328  1.00  0.00     0.056 C 
ATOM     14  C   UNL A   1      36.516  20.583  25.068  1.00  0.00     0.007 C 
ATOM     15  C   UNL A   1      35.385  21.610  25.050  1.00  0.00    -0.014 C 
ATOM     16  C   UNL A   1      35.634  22.750  26.048  1.00  0.00     0.004 C 
ATOM     17  C   UNL A   1      34.055  20.922  25.353  1.00  0.00     0.004 C 
ATOM     18  C   UNL A   1      34.479  23.761  26.059  1.00  0.00     0.012 C 
ATOM     19  C   UNL A   1      32.905  21.921  25.360  1.00  0.00     0.012 C 
ENDBRANCH  11  13
ENDBRANCH   9  11
ENDBRANCH   7   9
ENDBRANCH   4   7
ENDBRANCH   2   3
ENDBRANCH   1   2
BRANCH   1  20
ATOM     20  C   UNL A   1      32.812  29.343  24.854  1.00  0.00     0.023 C 
BRANCH  20  21
ATOM     21  C   UNL A   1      33.019  29.619  26.343  1.00  0.00     0.116 C 
BRANCH  21  22
ATOM     22  N   UNL A   1      32.913  31.032  26.678  1.00  0.00    -0.352 N 
ATOM     23  C   UNL A   1      33.719  31.800  27.488  1.00  0.00     0.251 C 
ATOM     24  H   UNL A   1      32.156  31.507  26.264  1.00  0.00     0.163 HD
ATOM     25  O   UNL A   1      33.375  32.930  27.810  1.00  0.00    -0.269 OA
BRANCH  23  26
ATOM     26  C   UNL A   1      34.996  31.242  27.982  1.00  0.00     0.039 A 
ATOM     27  C   UNL A   1      36.109  32.077  28.085  1.00  0.00     0.014 A 
ATOM     28  C   UNL A   1      35.086  29.899  28.358  1.00  0.00     0.014 A 
ATOM     29  C   UNL A   1      37.292  31.585  28.640  1.00  0.00     0.010 A 
ATOM     30  C   UNL A   1      36.236  29.434  28.989  1.00  0.00     0.010 A 
ATOM     31  C   UNL A   1      37.354  30.271  29.135  1.00  0.00    -0.014 A 
BRANCH  31  32
ATOM     32  C   UNL A   1      38.568  29.763  29.827  1.00  0.00     0.031 A 
ATOM     33  C   UNL A   1      38.979  30.327  31.160  1.00  0.00     0.074 A 
ATOM     34  C   UNL A   1      39.353  28.854  29.213  1.00  0.00     0.049 A 
ATOM     35  N   UNL A   1      40.031  30.046  31.885  1.00  0.00    -0.248 NA
ATOM     36  C   UNL A   1      38.109  31.362  31.745  1.00  0.00     0.031 C 
ATOM     37  C   UNL A   1      39.112  28.289  27.883  1.00  0.00     0.029 A 
ATOM     38  N   UNL A   1      40.527  28.266  29.613  1.00  0.00    -0.354 N 
ATOM     39  C   UNL A   1      39.972  30.893  32.986  1.00  0.00     0.074 A 
ATOM     40  C   UNL A   1      38.797  31.720  32.819  1.00  0.00     0.031 C 
ATOM     41  C   UNL A   1      40.102  27.435  27.580  1.00  0.00     0.029 A 
ATOM     42  C   UNL A   1      41.067  27.416  28.675  1.00  0.00     0.049 A 
ATOM     43  H   UNL A   1      40.944  28.437  30.489  1.00  0.00     0.167 HD
ATOM     44  C   UNL A   1      40.805  30.959  34.052  1.00  0.00     0.034 A 
ATOM     45  C   UNL A   1      42.215  26.711  28.687  1.00  0.00     0.034 A 
ATOM     46  C   UNL A   1      41.950  30.109  34.234  1.00  0.00     0.049 A 
ATOM     47  C   UNL A   1      43.102  26.773  29.900  1.00  0.00     0.074 A 
ATOM     48  C   UNL A   1      42.798  30.033  35.324  1.00  0.00     0.029 A 
ATOM     49  N   UNL A   1      42.420  29.201  33.299  1.00  0.00    -0.354 N 
ATOM     50  N   UNL A   1      42.942  27.460  31.005  1.00  0.00    -0.248 NA
ATOM     51  C   UNL A   1      44.311  25.937  29.885  1.00  0.00     0.031 C 
ATOM     52  C   UNL A   1      43.803  29.106  35.034  1.00  0.00     0.029 A 
ATOM     53  C   UNL A   1      43.556  28.571  33.780  1.00  0.00     0.049 A 
ATOM     54  H   UNL A   1      42.007  29.028  32.422  1.00  0.00     0.167 HD
ATOM     55  C   UNL A   1      44.006  27.113  31.829  1.00  0.00     0.074 A 
ATOM     56  C   UNL A   1      44.794  26.138  31.104  1.00  0.00     0.031 C 
ATOM     57  C   UNL A   1      44.308  27.568  33.070  1.00  0.00     0.034 A 
BRANCH  44  58
ATOM     58  C   UNL A   1      40.487  31.962  35.131  1.00  0.00     0.023 A 
ATOM     59  C   UNL A   1      41.201  33.177  35.191  1.00  0.00     0.012 A 
ATOM     60  C   UNL A   1      39.437  31.733  36.041  1.00  0.00     0.148 A 
ATOM     61  C   UNL A   1      40.901  34.131  36.162  1.00  0.00     0.002 A 
ATOM     62  C   UNL A   1      39.111  32.709  36.975  1.00  0.00     0.091 A 
ATOM     63  F   UNL A   1      38.782  30.565  35.981  1.00  0.00    -0.205 F 
ATOM     64  C   UNL A   1      39.849  33.902  37.046  1.00  0.00     0.022 A 
BRANCH  62  65
ATOM     65  S   UNL A   1      37.721  32.547  38.102  1.00  0.00     0.127 S 
ATOM     66  O   UNL A   1      38.049  33.547  39.118  1.00  0.00    -0.237 OA
ATOM     67  O   UNL A   1      36.589  32.898  37.245  1.00  0.00    -0.237 OA
ATOM     68  O   UNL A   1      37.733  31.166  38.561  1.00  0.00    -0.744 OA
ENDBRANCH  62  65
ENDBRANCH  44  58
BRANCH  45  69
ATOM     69  C   UNL A   1      42.567  25.843  27.527  1.00  0.00     0.023 A 
ATOM     70  C   UNL A   1      43.399  26.345  26.509  1.00  0.00     0.012 A 
ATOM     71  C   UNL A   1      42.102  24.516  27.442  1.00  0.00     0.148 A 
ATOM     72  C   UNL A   1      43.735  25.554  25.409  1.00  0.00     0.002 A 
ATOM     73  C   UNL A   1      42.488  23.714  26.375  1.00  0.00     0.091 A 
ATOM     74  F   UNL A   1      41.304  24.060  28.418  1.00  0.00    -0.205 F 
ATOM     75  C   UNL A   1      43.289  24.237  25.348  1.00  0.00     0.022 A 
BRANCH  73  76
ATOM     76  S   UNL A   1      42.072  21.970  26.279  1.00  0.00     0.127 S 
ATOM     77  O   UNL A   1      42.925  21.518  25.183  1.00  0.00    -0.237 OA
ATOM     78  O   UNL A   1      42.468  21.495  27.605  1.00  0.00    -0.237 OA
ATOM     79  O   UNL A   1      40.638  21.919  26.026  1.00  0.00    -0.744 OA
ENDBRANCH  73  76
ENDBRANCH  45  69
BRANCH  57  80
ATOM     80  C   UNL A   1      45.521  26.991  33.753  1.00  0.00     0.023 A 
ATOM     81  C   UNL A   1      46.764  27.647  33.661  1.00  0.00     0.012 A 
ATOM     82  C   UNL A   1      45.408  25.834  34.551  1.00  0.00     0.148 A 
ATOM     83  C   UNL A   1      47.883  27.142  34.323  1.00  0.00     0.002 A 
ATOM     84  C   UNL A   1      46.513  25.368  35.250  1.00  0.00     0.091 A 
ATOM     85  F   UNL A   1      44.220  25.214  34.612  1.00  0.00    -0.205 F 
ATOM     86  C   UNL A   1      47.755  26.011  35.126  1.00  0.00     0.022 A 
BRANCH  84  87
ATOM     87  S   UNL A   1      46.420  23.980  36.386  1.00  0.00     0.127 S 
ATOM     88  O   UNL A   1      47.786  23.928  36.906  1.00  0.00    -0.237 OA
ATOM     89  O   UNL A   1      45.418  24.435  37.350  1.00  0.00    -0.237 OA
ATOM     90  O   UNL A   1      46.015  22.831  35.588  1.00  0.00    -0.744 OA
ENDBRANCH  84  87
ENDBRANCH  57  80
ENDBRANCH  31  32
ENDBRANCH  23  26
ENDBRANCH  21  22
ENDBRANCH  20  21
ENDBRANCH   1  20
TORSDOF 17
ENDMDL
MODEL 3
REMARK VINA RESULT:     -11.1      5.075      9.954
REMARK SMILES C[C@H](C(=O)NCCCCNC(=O)c1ccc(-c2c3nc(c(-c4cccc(S(=O)(=O)[O-])c4F)c4ccc([nH]4)c(-c4cccc(S(=O)(=O)[O-])c4F)c4nc(c(-c5cccc(S(=O)(=O)[O-])c5F)c5ccc2[nH]5)C=C4)C=C3)cc1)[C@@H](C)C(=O)[C@H]1CC[C@H](C)CC1
REMARK SMILES IDX 7 1 6 2 5 3 3 4 4 5 2 7 1 8 76 9 77 10 78 11 79 12 80 13
REMARK SMILES IDX 84 14 83 15 82 16 85 17 81 18 86 19 8 20 9 21 10 22 11 23
REMARK SMILES IDX 12 25 13 26 14 27 75 28 15 29 74 30 16 31 17 32 18 33 68 34
REMARK SMILES IDX 19 35 73 36 67 37 69 38 20 39 72 40 66 41 65 42 21 44 53 45
REMARK SMILES IDX 33 46 52 47 34 48 37 49 51 50 70 51 35 52 36 53 50 55 71 56
REMARK SMILES IDX 38 57 22 58 23 59 31 60 24 61 26 62 32 63 25 64 27 65 28 66
REMARK SMILES IDX 29 67 30 68 54 69 55 70 63 71 56 72 58 73 64 74 57 75 59 76
REMARK SMILES IDX 60 77 61 78 62 79 39 80 40 81 48 82 41 83 43 84 49 85 42 86
REMARK SMILES IDX 44 87 45 88 46 89 47 90
REMARK H PARENT 5 6 10 24 69 43 37 54
REMARK Flexibility Score: inf
ROOT
ATOM      1  C   UNL A   1      34.551  22.062  24.035  1.00  0.00     0.023 C 
ENDROOT
BRANCH   1   2
ATOM      2  C   UNL A   1      34.601  23.570  24.222  1.00  0.00     0.116 C 
BRANCH   2   3
ATOM      3  N   UNL A   1      34.377  24.303  22.991  1.00  0.00    -0.356 N 
ATOM      4  C   UNL A   1      33.606  25.394  22.745  1.00  0.00     0.223 C 
ATOM      5  O   UNL A   1      33.760  25.974  21.667  1.00  0.00    -0.275 OA
ATOM      6  H   UNL A   1      34.864  23.956  22.209  1.00  0.00     0.163 HD
BRANCH   4   7
ATOM      7  C   UNL A   1      32.554  25.894  23.722  1.00  0.00     0.085 C 
ATOM      8  C   UNL A   1      33.085  27.170  24.394  1.00  0.00     0.019 C 
BRANCH   7   9
ATOM      9  C   UNL A   1      31.057  25.829  23.297  1.00  0.00     0.065 C 
ATOM     10  C   UNL A   1      30.547  24.378  23.237  1.00  0.00     0.017 C 
BRANCH   9  11
ATOM     11  C   UNL A   1      30.008  26.658  24.053  1.00  0.00     0.139 C 
ATOM     12  O   UNL A   1      29.445  26.173  25.044  1.00  0.00    -0.299 OA
BRANCH  11  13
ATOM     13  C   UNL A   1      29.550  28.039  23.546  1.00  0.00     0.056 C 
ATOM     14  C   UNL A   1      27.991  31.419  21.223  1.00  0.00     0.007 C 
ATOM     15  C   UNL A   1      28.410  30.007  21.626  1.00  0.00    -0.014 C 
ATOM     16  C   UNL A   1      27.598  29.489  22.822  1.00  0.00     0.004 C 
ATOM     17  C   UNL A   1      29.904  29.980  21.950  1.00  0.00     0.004 C 
ATOM     18  C   UNL A   1      28.046  28.085  23.252  1.00  0.00     0.012 C 
ATOM     19  C   UNL A   1      30.353  28.588  22.372  1.00  0.00     0.012 C 
ENDBRANCH  11  13
ENDBRANCH   9  11
ENDBRANCH   7   9
ENDBRANCH   4   7
ENDBRANCH   2   3
ENDBRANCH   1   2
BRANCH   1  20
ATOM     20  C   UNL A   1      35.177  21.277  25.191  1.00  0.00     0.023 C 
BRANCH  20  21
ATOM     21  C   UNL A   1      36.498  21.831  25.724  1.00  0.00     0.116 C 
BRANCH  21  22
ATOM     22  N   UNL A   1      37.557  20.832  25.763  1.00  0.00    -0.352 N 
ATOM     23  C   UNL A   1      38.901  20.994  26.010  1.00  0.00     0.251 C 
ATOM     24  H   UNL A   1      37.269  19.906  25.587  1.00  0.00     0.163 HD
ATOM     25  O   UNL A   1      39.682  20.071  25.817  1.00  0.00    -0.269 OA
BRANCH  23  26
ATOM     26  C   UNL A   1      39.398  22.300  26.495  1.00  0.00     0.039 A 
ATOM     27  C   UNL A   1      40.460  22.330  27.401  1.00  0.00     0.014 A 
ATOM     28  C   UNL A   1      38.827  23.491  26.039  1.00  0.00     0.014 A 
ATOM     29  C   UNL A   1      40.999  23.558  27.791  1.00  0.00     0.010 A 
ATOM     30  C   UNL A   1      39.420  24.708  26.361  1.00  0.00     0.010 A 
ATOM     31  C   UNL A   1      40.512  24.757  27.241  1.00  0.00    -0.014 A 
BRANCH  31  32
ATOM     32  C   UNL A   1      41.143  26.064  27.560  1.00  0.00     0.031 A 
ATOM     33  C   UNL A   1      42.569  26.340  27.163  1.00  0.00     0.074 A 
ATOM     34  C   UNL A   1      40.462  26.974  28.287  1.00  0.00     0.049 A 
ATOM     35  N   UNL A   1      43.301  27.398  27.401  1.00  0.00    -0.248 NA
ATOM     36  C   UNL A   1      43.275  25.278  26.426  1.00  0.00     0.031 C 
ATOM     37  C   UNL A   1      39.104  26.796  28.805  1.00  0.00     0.029 A 
ATOM     38  N   UNL A   1      40.828  28.217  28.739  1.00  0.00    -0.354 N 
ATOM     39  C   UNL A   1      44.559  27.115  26.881  1.00  0.00     0.074 A 
ATOM     40  C   UNL A   1      44.501  25.774  26.342  1.00  0.00     0.031 C 
ATOM     41  C   UNL A   1      38.750  27.889  29.499  1.00  0.00     0.029 A 
ATOM     42  C   UNL A   1      39.865  28.831  29.507  1.00  0.00     0.049 A 
ATOM     43  H   UNL A   1      41.698  28.630  28.534  1.00  0.00     0.167 HD
ATOM     44  C   UNL A   1      45.655  27.909  26.833  1.00  0.00     0.034 A 
ATOM     45  C   UNL A   1      39.880  30.011  30.156  1.00  0.00     0.034 A 
ATOM     46  C   UNL A   1      45.698  29.256  27.335  1.00  0.00     0.049 A 
ATOM     47  C   UNL A   1      41.097  30.890  30.053  1.00  0.00     0.074 A 
ATOM     48  C   UNL A   1      46.731  30.173  27.245  1.00  0.00     0.029 A 
ATOM     49  N   UNL A   1      44.675  29.875  28.035  1.00  0.00    -0.354 N 
ATOM     50  N   UNL A   1      42.221  30.671  29.415  1.00  0.00    -0.248 NA
ATOM     51  C   UNL A   1      41.036  32.194  30.729  1.00  0.00     0.031 C 
ATOM     52  C   UNL A   1      46.346  31.332  27.923  1.00  0.00     0.029 A 
ATOM     53  C   UNL A   1      45.056  31.155  28.398  1.00  0.00     0.049 A 
ATOM     54  H   UNL A   1      43.804  29.465  28.242  1.00  0.00     0.167 HD
ATOM     55  C   UNL A   1      42.985  31.820  29.582  1.00  0.00     0.074 A 
ATOM     56  C   UNL A   1      42.188  32.741  30.364  1.00  0.00     0.031 C 
ATOM     57  C   UNL A   1      44.239  32.083  29.136  1.00  0.00     0.034 A 
BRANCH  44  58
ATOM     58  C   UNL A   1      46.895  27.355  26.178  1.00  0.00     0.023 A 
ATOM     59  C   UNL A   1      47.114  27.569  24.801  1.00  0.00     0.012 A 
ATOM     60  C   UNL A   1      47.872  26.684  26.937  1.00  0.00     0.148 A 
ATOM     61  C   UNL A   1      48.269  27.092  24.183  1.00  0.00     0.002 A 
ATOM     62  C   UNL A   1      49.044  26.254  26.325  1.00  0.00     0.091 A 
ATOM     63  F   UNL A   1      47.638  26.474  28.240  1.00  0.00    -0.205 F 
ATOM     64  C   UNL A   1      49.238  26.445  24.947  1.00  0.00     0.022 A 
BRANCH  62  65
ATOM     65  S   UNL A   1      50.389  25.487  27.234  1.00  0.00     0.127 S 
ATOM     66  O   UNL A   1      49.768  24.242  27.684  1.00  0.00    -0.237 OA
ATOM     67  O   UNL A   1      51.405  25.320  26.195  1.00  0.00    -0.237 OA
ATOM     68  O   UNL A   1      50.746  26.422  28.291  1.00  0.00    -0.744 OA
ENDBRANCH  62  65
ENDBRANCH  44  58
BRANCH  45  69
ATOM     69  C   UNL A   1      38.680  30.455  30.921  1.00  0.00     0.023 A 
ATOM     70  C   UNL A   1      38.605  30.204  32.305  1.00  0.00     0.012 A 
ATOM     71  C   UNL A   1      37.627  31.146  30.290  1.00  0.00     0.148 A 
ATOM     72  C   UNL A   1      37.487  30.603  33.041  1.00  0.00     0.002 A 
ATOM     73  C   UNL A   1      36.545  31.592  31.040  1.00  0.00     0.091 A 
ATOM     74  F   UNL A   1      37.715  31.367  28.971  1.00  0.00    -0.205 F 
ATOM     75  C   UNL A   1      36.464  31.305  32.411  1.00  0.00     0.022 A 
BRANCH  73  76
ATOM     76  S   UNL A   1      35.246  32.618  30.342  1.00  0.00     0.127 S 
ATOM     77  O   UNL A   1      34.799  31.807  29.212  1.00  0.00    -0.237 OA
ATOM     78  O   UNL A   1      34.300  32.701  31.454  1.00  0.00    -0.237 OA
ATOM     79  O   UNL A   1      35.883  33.882  29.998  1.00  0.00    -0.744 OA
ENDBRANCH  73  76
ENDBRANCH  45  69
BRANCH  57  80
ATOM     80  C   UNL A   1      44.821  33.439  29.441  1.00  0.00     0.023 A 
ATOM     81  C   UNL A   1      45.520  33.654  30.645  1.00  0.00     0.012 A 
ATOM     82  C   UNL A   1      44.740  34.480  28.494  1.00  0.00     0.148 A 
ATOM     83  C   UNL A   1      46.097  34.894  30.919  1.00  0.00     0.002 A 
ATOM     84  C   UNL A   1      45.363  35.694  28.749  1.00  0.00     0.091 A 
ATOM     85  F   UNL A   1      44.056  34.261  27.361  1.00  0.00    -0.205 F 
ATOM     86  C   UNL A   1      46.029  35.909  29.967  1.00  0.00     0.022 A 
BRANCH  84  87
ATOM     87  S   UNL A   1      45.415  37.024  27.543  1.00  0.00     0.127 S 
ATOM     88  O   UNL A   1      44.014  37.443  27.501  1.00  0.00    -0.237 OA
ATOM     89  O   UNL A   1      46.319  37.983  28.177  1.00  0.00    -0.237 OA
ATOM     90  O   UNL A   1      45.924  36.434  26.313  1.00  0.00    -0.744 OA
ENDBRANCH  84  87
ENDBRANCH  57  80
ENDBRANCH  31  32
ENDBRANCH  23  26
ENDBRANCH  21  22
ENDBRANCH  20  21
ENDBRANCH   1  20
TORSDOF 17
ENDMDL
