MODEL 1
REMARK VINA RESULT:     -11.5      0.000      0.000
REMARK SMILES O=C(CCS(=O)(=O)c1ccc2[nH]c(=O)oc2c1)NCCCCNC(=O)c1ccc(-c2c3nc(c(-c4cccc(S(=O)(=O)[O-])c4F)c4ccc([nH]4)c(-c4cccc(S(=O)(=O)[O-])c4F)c4nc(c(-c5cccc(S(=O)(=O)[O-])c5F)c5ccc2[nH]5)C=C4)C=C3)cc1
REMARK SMILES IDX 20 1 19 2 18 3 1 4 2 5 3 7 4 8 5 9 6 10 7 11 8 12 9 13 17 14
REMARK SMILES IDX 10 15 16 16 11 17 15 18 12 19 13 20 14 22 21 23 22 24 23 25
REMARK SMILES IDX 24 26 25 28 26 29 27 30 88 31 28 32 87 33 29 34 30 35 31 36
REMARK SMILES IDX 81 37 32 38 86 39 80 40 82 41 33 42 85 43 79 44 78 45 34 47
REMARK SMILES IDX 66 48 46 49 65 50 47 51 50 52 64 53 83 54 48 55 49 56 63 58
REMARK SMILES IDX 84 59 51 60 35 61 36 62 44 63 37 64 39 65 45 66 38 67 40 68
REMARK SMILES IDX 41 69 42 70 43 71 67 72 68 73 76 74 69 75 71 76 77 77 70 78
REMARK SMILES IDX 72 79 73 80 74 81 75 82 52 83 53 84 61 85 54 86 56 87 62 88
REMARK SMILES IDX 55 89 57 90 58 91 59 92 60 93
REMARK H PARENT 18 6 12 21 23 27 82 46 50 57
REMARK Flexibility Score: inf
ROOT
ATOM      1  C   UNL A   1      38.101  21.551  25.017  1.00  0.00     0.023 C 
ENDROOT
BRANCH   1   2
ATOM      2  C   UNL A   1      36.808  22.018  25.727  1.00  0.00     0.116 C 
BRANCH   2   3
ATOM      3  N   UNL A   1      35.545  21.905  25.007  1.00  0.00    -0.356 N 
ATOM      4  O   UNL A   1      35.440  24.149  24.508  1.00  0.00    -0.275 OA
ATOM      5  C   UNL A   1      34.984  23.014  24.395  1.00  0.00     0.221 C 
ATOM      6  H   UNL A   1      35.087  21.034  24.956  1.00  0.00     0.163 HD
BRANCH   5   7
ATOM      7  C   UNL A   1      33.822  22.744  23.466  1.00  0.00     0.116 C 
BRANCH   7   8
ATOM      8  C   UNL A   1      32.479  22.973  24.165  1.00  0.00     0.152 C 
BRANCH   8   9
ATOM      9  S   UNL A   1      32.046  21.749  25.395  1.00  0.00     0.179 S 
ATOM     10  O   UNL A   1      32.932  21.914  26.533  1.00  0.00    -0.224 OA
ATOM     11  O   UNL A   1      30.607  21.795  25.561  1.00  0.00    -0.224 OA
BRANCH   9  12
ATOM     12  C   UNL A   1      32.420  20.148  24.702  1.00  0.00     0.071 A 
ATOM     13  C   UNL A   1      32.232  19.827  23.348  1.00  0.00     0.023 A 
ATOM     14  C   UNL A   1      32.782  19.153  25.593  1.00  0.00     0.069 A 
ATOM     15  C   UNL A   1      32.425  18.499  22.903  1.00  0.00     0.031 A 
ATOM     16  C   UNL A   1      33.025  17.884  25.144  1.00  0.00     0.157 A 
ATOM     17  C   UNL A   1      32.825  17.560  23.833  1.00  0.00     0.087 A 
ATOM     18  O   UNL A   1      33.388  16.816  25.938  1.00  0.00    -0.408 OA
ATOM     19  N   UNL A   1      33.049  16.214  23.758  1.00  0.00    -0.287 N 
ATOM     20  C   UNL A   1      33.402  15.771  25.013  1.00  0.00     0.417 A 
ATOM     21  H   UNL A   1      32.972  15.658  22.949  1.00  0.00     0.173 HD
ATOM     22  O   UNL A   1      33.715  14.625  25.309  1.00  0.00    -0.224 OA
ENDBRANCH   9  12
ENDBRANCH   8   9
ENDBRANCH   7   8
ENDBRANCH   5   7
ENDBRANCH   2   3
ENDBRANCH   1   2
BRANCH   1  23
ATOM     23  C   UNL A   1      38.586  20.085  25.020  1.00  0.00     0.023 C 
BRANCH  23  24
ATOM     24  C   UNL A   1      39.278  19.416  26.227  1.00  0.00     0.116 C 
BRANCH  24  25
ATOM     25  N   UNL A   1      40.600  18.847  26.030  1.00  0.00    -0.352 N 
ATOM     26  C   UNL A   1      41.830  19.453  26.219  1.00  0.00     0.251 C 
ATOM     27  H   UNL A   1      40.624  17.911  25.723  1.00  0.00     0.163 HD
ATOM     28  O   UNL A   1      42.864  18.800  26.094  1.00  0.00    -0.269 OA
BRANCH  26  29
ATOM     29  C   UNL A   1      41.934  20.903  26.518  1.00  0.00     0.039 A 
ATOM     30  C   UNL A   1      42.183  21.285  27.842  1.00  0.00     0.014 A 
ATOM     31  C   UNL A   1      41.778  21.883  25.535  1.00  0.00     0.014 A 
ATOM     32  C   UNL A   1      42.377  22.634  28.161  1.00  0.00     0.010 A 
ATOM     33  C   UNL A   1      42.009  23.230  25.850  1.00  0.00     0.010 A 
ATOM     34  C   UNL A   1      42.346  23.618  27.159  1.00  0.00    -0.014 A 
BRANCH  34  35
ATOM     35  C   UNL A   1      42.769  25.019  27.459  1.00  0.00     0.031 A 
ATOM     36  C   UNL A   1      41.838  26.008  28.107  1.00  0.00     0.074 A 
ATOM     37  C   UNL A   1      44.000  25.425  27.075  1.00  0.00     0.049 A 
ATOM     38  N   UNL A   1      42.053  27.262  28.416  1.00  0.00    -0.248 NA
ATOM     39  C   UNL A   1      40.488  25.532  28.441  1.00  0.00     0.031 C 
ATOM     40  C   UNL A   1      44.983  24.589  26.382  1.00  0.00     0.029 A 
ATOM     41  N   UNL A   1      44.627  26.643  27.191  1.00  0.00    -0.354 N 
ATOM     42  C   UNL A   1      40.861  27.738  28.950  1.00  0.00     0.074 A 
ATOM     43  C   UNL A   1      39.920  26.637  28.908  1.00  0.00     0.031 C 
ATOM     44  C   UNL A   1      46.086  25.313  26.140  1.00  0.00     0.029 A 
ATOM     45  C   UNL A   1      45.882  26.675  26.622  1.00  0.00     0.049 A 
ATOM     46  H   UNL A   1      44.218  27.419  27.637  1.00  0.00     0.167 HD
ATOM     47  C   UNL A   1      40.579  28.970  29.443  1.00  0.00     0.034 A 
ATOM     48  C   UNL A   1      46.765  27.685  26.488  1.00  0.00     0.034 A 
ATOM     49  C   UNL A   1      41.519  30.061  29.499  1.00  0.00     0.049 A 
ATOM     50  C   UNL A   1      46.427  29.039  27.051  1.00  0.00     0.074 A 
ATOM     51  C   UNL A   1      41.346  31.318  30.054  1.00  0.00     0.029 A 
ATOM     52  N   UNL A   1      42.797  30.038  28.962  1.00  0.00    -0.354 N 
ATOM     53  N   UNL A   1      45.350  29.420  27.694  1.00  0.00    -0.248 NA
ATOM     54  C   UNL A   1      47.441  30.094  26.902  1.00  0.00     0.031 C 
ATOM     55  C   UNL A   1      42.502  32.069  29.814  1.00  0.00     0.029 A 
ATOM     56  C   UNL A   1      43.415  31.264  29.154  1.00  0.00     0.049 A 
ATOM     57  H   UNL A   1      43.206  29.264  28.511  1.00  0.00     0.167 HD
ATOM     58  C   UNL A   1      45.573  30.743  28.059  1.00  0.00     0.074 A 
ATOM     59  C   UNL A   1      46.896  31.092  27.585  1.00  0.00     0.031 C 
ATOM     60  C   UNL A   1      44.750  31.594  28.721  1.00  0.00     0.034 A 
BRANCH  47  61
ATOM     61  C   UNL A   1      39.193  29.209  29.993  1.00  0.00     0.023 A 
ATOM     62  C   UNL A   1      38.863  28.751  31.284  1.00  0.00     0.012 A 
ATOM     63  C   UNL A   1      38.244  29.952  29.262  1.00  0.00     0.148 A 
ATOM     64  C   UNL A   1      37.599  28.991  31.823  1.00  0.00     0.002 A 
ATOM     65  C   UNL A   1      37.002  30.228  29.824  1.00  0.00     0.091 A 
ATOM     66  F   UNL A   1      38.570  30.372  28.032  1.00  0.00    -0.205 F 
ATOM     67  C   UNL A   1      36.673  29.736  31.099  1.00  0.00     0.022 A 
BRANCH  65  68
ATOM     68  S   UNL A   1      35.769  31.248  29.007  1.00  0.00     0.127 S 
ATOM     69  O   UNL A   1      34.970  31.708  30.143  1.00  0.00    -0.237 OA
ATOM     70  O   UNL A   1      36.593  32.284  28.383  1.00  0.00    -0.237 OA
ATOM     71  O   UNL A   1      35.076  30.373  28.073  1.00  0.00    -0.744 OA
ENDBRANCH  65  68
ENDBRANCH  47  61
BRANCH  48  72
ATOM     72  C   UNL A   1      48.082  27.446  25.828  1.00  0.00     0.023 A 
ATOM     73  C   UNL A   1      49.195  27.077  26.609  1.00  0.00     0.012 A 
ATOM     74  C   UNL A   1      48.237  27.577  24.435  1.00  0.00     0.148 A 
ATOM     75  C   UNL A   1      50.444  26.880  26.021  1.00  0.00     0.002 A 
ATOM     76  C   UNL A   1      49.471  27.323  23.847  1.00  0.00     0.091 A 
ATOM     77  F   UNL A   1      47.170  27.940  23.708  1.00  0.00    -0.205 F 
ATOM     78  C   UNL A   1      50.581  26.993  24.641  1.00  0.00     0.022 A 
BRANCH  76  79
ATOM     79  S   UNL A   1      49.711  27.319  22.067  1.00  0.00     0.127 S 
ATOM     80  O   UNL A   1      51.115  26.931  21.955  1.00  0.00    -0.237 OA
ATOM     81  O   UNL A   1      48.753  26.301  21.638  1.00  0.00    -0.237 OA
ATOM     82  O   UNL A   1      49.393  28.669  21.622  1.00  0.00    -0.744 OA
ENDBRANCH  76  79
ENDBRANCH  48  72
BRANCH  60  83
ATOM     83  C   UNL A   1      45.267  32.978  29.023  1.00  0.00     0.023 A 
ATOM     84  C   UNL A   1      46.031  33.214  30.184  1.00  0.00     0.012 A 
ATOM     85  C   UNL A   1      45.051  34.034  28.115  1.00  0.00     0.148 A 
ATOM     86  C   UNL A   1      46.536  34.485  30.455  1.00  0.00     0.002 A 
ATOM     87  C   UNL A   1      45.605  35.284  28.363  1.00  0.00     0.091 A 
ATOM     88  F   UNL A   1      44.308  33.797  27.025  1.00  0.00    -0.205 F 
ATOM     89  C   UNL A   1      46.335  35.516  29.539  1.00  0.00     0.022 A 
BRANCH  87  90
ATOM     90  S   UNL A   1      45.483  36.644  27.195  1.00  0.00     0.127 S 
ATOM     91  O   UNL A   1      46.106  37.736  27.943  1.00  0.00    -0.237 OA
ATOM     92  O   UNL A   1      46.271  36.152  26.065  1.00  0.00    -0.237 OA
ATOM     93  O   UNL A   1      44.062  36.811  26.917  1.00  0.00    -0.744 OA
ENDBRANCH  87  90
ENDBRANCH  60  83
ENDBRANCH  34  35
ENDBRANCH  26  29
ENDBRANCH  24  25
ENDBRANCH  23  24
ENDBRANCH   1  23
TORSDOF 17
ENDMDL
MODEL 2
REMARK VINA RESULT:     -11.4      2.004      7.873
REMARK SMILES O=C(CCS(=O)(=O)c1ccc2[nH]c(=O)oc2c1)NCCCCNC(=O)c1ccc(-c2c3nc(c(-c4cccc(S(=O)(=O)[O-])c4F)c4ccc([nH]4)c(-c4cccc(S(=O)(=O)[O-])c4F)c4nc(c(-c5cccc(S(=O)(=O)[O-])c5F)c5ccc2[nH]5)C=C4)C=C3)cc1
REMARK SMILES IDX 20 1 19 2 18 3 1 4 2 5 3 7 4 8 5 9 6 10 7 11 8 12 9 13 17 14
REMARK SMILES IDX 10 15 16 16 11 17 15 18 12 19 13 20 14 22 21 23 22 24 23 25
REMARK SMILES IDX 24 26 25 28 26 29 27 30 88 31 28 32 87 33 29 34 30 35 31 36
REMARK SMILES IDX 81 37 32 38 86 39 80 40 82 41 33 42 85 43 79 44 78 45 34 47
REMARK SMILES IDX 66 48 46 49 65 50 47 51 50 52 64 53 83 54 48 55 49 56 63 58
REMARK SMILES IDX 84 59 51 60 35 61 36 62 44 63 37 64 39 65 45 66 38 67 40 68
REMARK SMILES IDX 41 69 42 70 43 71 67 72 68 73 76 74 69 75 71 76 77 77 70 78
REMARK SMILES IDX 72 79 73 80 74 81 75 82 52 83 53 84 61 85 54 86 56 87 62 88
REMARK SMILES IDX 55 89 57 90 58 91 59 92 60 93
REMARK H PARENT 18 6 12 21 23 27 82 46 50 57
REMARK Flexibility Score: inf
ROOT
ATOM      1  C   UNL A   1      36.643  22.973  23.522  1.00  0.00     0.023 C 
ENDROOT
BRANCH   1   2
ATOM      2  C   UNL A   1      35.320  23.744  23.303  1.00  0.00     0.116 C 
BRANCH   2   3
ATOM      3  N   UNL A   1      34.758  24.486  24.426  1.00  0.00    -0.356 N 
ATOM      4  O   UNL A   1      33.686  26.021  23.087  1.00  0.00    -0.275 OA
ATOM      5  C   UNL A   1      33.917  25.564  24.205  1.00  0.00     0.221 C 
ATOM      6  H   UNL A   1      34.978  24.218  25.349  1.00  0.00     0.163 HD
BRANCH   5   7
ATOM      7  C   UNL A   1      33.187  26.099  25.416  1.00  0.00     0.116 C 
BRANCH   7   8
ATOM      8  C   UNL A   1      32.773  24.971  26.366  1.00  0.00     0.152 C 
BRANCH   8   9
ATOM      9  S   UNL A   1      31.267  24.116  25.917  1.00  0.00     0.179 S 
ATOM     10  O   UNL A   1      30.678  23.567  27.124  1.00  0.00    -0.224 OA
ATOM     11  O   UNL A   1      30.509  25.003  25.057  1.00  0.00    -0.224 OA
BRANCH   9  12
ATOM     12  C   UNL A   1      31.733  22.718  24.911  1.00  0.00     0.071 A 
ATOM     13  C   UNL A   1      31.802  22.760  23.509  1.00  0.00     0.023 A 
ATOM     14  C   UNL A   1      31.896  21.508  25.563  1.00  0.00     0.069 A 
ATOM     15  C   UNL A   1      32.048  21.577  22.777  1.00  0.00     0.031 A 
ATOM     16  C   UNL A   1      32.194  20.379  24.851  1.00  0.00     0.157 A 
ATOM     17  C   UNL A   1      32.242  20.409  23.487  1.00  0.00     0.087 A 
ATOM     18  O   UNL A   1      32.374  19.123  25.393  1.00  0.00    -0.408 OA
ATOM     19  N   UNL A   1      32.447  19.112  23.108  1.00  0.00    -0.287 N 
ATOM     20  C   UNL A   1      32.543  18.346  24.246  1.00  0.00     0.417 A 
ATOM     21  H   UNL A   1      32.515  18.784  22.182  1.00  0.00     0.173 HD
ATOM     22  O   UNL A   1      32.770  17.142  24.286  1.00  0.00    -0.224 OA
ENDBRANCH   9  12
ENDBRANCH   8   9
ENDBRANCH   7   8
ENDBRANCH   5   7
ENDBRANCH   2   3
ENDBRANCH   1   2
BRANCH   1  23
ATOM     23  C   UNL A   1      36.700  21.516  24.029  1.00  0.00     0.023 C 
BRANCH  23  24
ATOM     24  C   UNL A   1      37.168  21.122  25.446  1.00  0.00     0.116 C 
BRANCH  24  25
ATOM     25  N   UNL A   1      38.320  20.245  25.569  1.00  0.00    -0.352 N 
ATOM     26  C   UNL A   1      39.547  20.520  26.145  1.00  0.00     0.251 C 
ATOM     27  H   UNL A   1      38.213  19.340  25.194  1.00  0.00     0.163 HD
ATOM     28  O   UNL A   1      40.392  19.633  26.248  1.00  0.00    -0.269 OA
BRANCH  26  29
ATOM     29  C   UNL A   1      39.896  21.890  26.595  1.00  0.00     0.039 A 
ATOM     30  C   UNL A   1      40.859  22.027  27.602  1.00  0.00     0.014 A 
ATOM     31  C   UNL A   1      39.288  23.031  26.064  1.00  0.00     0.014 A 
ATOM     32  C   UNL A   1      41.287  23.299  28.000  1.00  0.00     0.010 A 
ATOM     33  C   UNL A   1      39.744  24.303  26.438  1.00  0.00     0.010 A 
ATOM     34  C   UNL A   1      40.773  24.452  27.385  1.00  0.00    -0.014 A 
BRANCH  34  35
ATOM     35  C   UNL A   1      41.383  25.789  27.650  1.00  0.00     0.031 A 
ATOM     36  C   UNL A   1      42.793  26.115  27.234  1.00  0.00     0.074 A 
ATOM     37  C   UNL A   1      40.670  26.706  28.340  1.00  0.00     0.049 A 
ATOM     38  N   UNL A   1      43.467  27.224  27.407  1.00  0.00    -0.248 NA
ATOM     39  C   UNL A   1      43.547  25.056  26.547  1.00  0.00     0.031 C 
ATOM     40  C   UNL A   1      39.314  26.503  28.857  1.00  0.00     0.029 A 
ATOM     41  N   UNL A   1      40.988  27.981  28.746  1.00  0.00    -0.354 N 
ATOM     42  C   UNL A   1      44.733  26.992  26.882  1.00  0.00     0.074 A 
ATOM     43  C   UNL A   1      44.736  25.626  26.397  1.00  0.00     0.031 C 
ATOM     44  C   UNL A   1      38.917  27.610  29.503  1.00  0.00     0.029 A 
ATOM     45  C   UNL A   1      39.998  28.590  29.484  1.00  0.00     0.049 A 
ATOM     46  H   UNL A   1      41.843  28.417  28.529  1.00  0.00     0.167 HD
ATOM     47  C   UNL A   1      45.790  27.837  26.797  1.00  0.00     0.034 A 
ATOM     48  C   UNL A   1      39.962  29.793  30.093  1.00  0.00     0.034 A 
ATOM     49  C   UNL A   1      45.783  29.200  27.265  1.00  0.00     0.049 A 
ATOM     50  C   UNL A   1      41.147  30.712  29.975  1.00  0.00     0.074 A 
ATOM     51  C   UNL A   1      46.780  30.155  27.148  1.00  0.00     0.029 A 
ATOM     52  N   UNL A   1      44.743  29.798  27.960  1.00  0.00    -0.354 N 
ATOM     53  N   UNL A   1      42.276  30.527  29.335  1.00  0.00    -0.248 NA
ATOM     54  C   UNL A   1      41.040  32.024  30.632  1.00  0.00     0.031 C 
ATOM     55  C   UNL A   1      46.360  31.314  27.810  1.00  0.00     0.029 A 
ATOM     56  C   UNL A   1      45.081  31.099  28.296  1.00  0.00     0.049 A 
ATOM     57  H   UNL A   1      43.888  29.362  28.182  1.00  0.00     0.167 HD
ATOM     58  C   UNL A   1      42.995  31.708  29.480  1.00  0.00     0.074 A 
ATOM     59  C   UNL A   1      42.166  32.612  30.250  1.00  0.00     0.031 C 
ATOM     60  C   UNL A   1      44.235  32.012  29.023  1.00  0.00     0.034 A 
BRANCH  47  61
ATOM     61  C   UNL A   1      47.053  27.326  26.146  1.00  0.00     0.023 A 
ATOM     62  C   UNL A   1      47.273  27.549  24.772  1.00  0.00     0.012 A 
ATOM     63  C   UNL A   1      48.054  26.692  26.909  1.00  0.00     0.148 A 
ATOM     64  C   UNL A   1      48.448  27.113  24.159  1.00  0.00     0.002 A 
ATOM     65  C   UNL A   1      49.242  26.302  26.302  1.00  0.00     0.091 A 
ATOM     66  F   UNL A   1      47.825  26.479  28.213  1.00  0.00    -0.205 F 
ATOM     67  C   UNL A   1      49.435  26.499  24.925  1.00  0.00     0.022 A 
BRANCH  65  68
ATOM     68  S   UNL A   1      50.610  25.577  27.215  1.00  0.00     0.127 S 
ATOM     69  O   UNL A   1      50.015  24.329  27.693  1.00  0.00    -0.237 OA
ATOM     70  O   UNL A   1      51.621  25.409  26.171  1.00  0.00    -0.237 OA
ATOM     71  O   UNL A   1      50.957  26.538  28.252  1.00  0.00    -0.744 OA
ENDBRANCH  65  68
ENDBRANCH  47  61
BRANCH  48  72
ATOM     72  C   UNL A   1      38.741  30.222  30.835  1.00  0.00     0.023 A 
ATOM     73  C   UNL A   1      38.599  29.885  32.196  1.00  0.00     0.012 A 
ATOM     74  C   UNL A   1      37.724  30.964  30.204  1.00  0.00     0.148 A 
ATOM     75  C   UNL A   1      37.453  30.245  32.903  1.00  0.00     0.002 A 
ATOM     76  C   UNL A   1      36.610  31.371  30.930  1.00  0.00     0.091 A 
ATOM     77  F   UNL A   1      37.870  31.266  28.906  1.00  0.00    -0.205 F 
ATOM     78  C   UNL A   1      36.463  30.995  32.275  1.00  0.00     0.022 A 
BRANCH  76  79
ATOM     79  S   UNL A   1      35.347  32.445  30.240  1.00  0.00     0.127 S 
ATOM     80  O   UNL A   1      34.842  31.640  29.131  1.00  0.00    -0.237 OA
ATOM     81  O   UNL A   1      34.426  32.588  31.368  1.00  0.00    -0.237 OA
ATOM     82  O   UNL A   1      36.034  33.674  29.866  1.00  0.00    -0.744 OA
ENDBRANCH  76  79
ENDBRANCH  48  72
BRANCH  60  83
ATOM     83  C   UNL A   1      44.763  33.399  29.294  1.00  0.00     0.023 A 
ATOM     84  C   UNL A   1      45.425  33.682  30.505  1.00  0.00     0.012 A 
ATOM     85  C   UNL A   1      44.662  34.405  28.312  1.00  0.00     0.148 A 
ATOM     86  C   UNL A   1      45.942  34.955  30.751  1.00  0.00     0.002 A 
ATOM     87  C   UNL A   1      45.228  35.654  28.541  1.00  0.00     0.091 A 
ATOM     88  F   UNL A   1      44.014  34.124  27.173  1.00  0.00    -0.205 F 
ATOM     89  C   UNL A   1      45.855  35.935  29.765  1.00  0.00     0.022 A 
BRANCH  87  90
ATOM     90  S   UNL A   1      45.253  36.947  27.294  1.00  0.00     0.127 S 
ATOM     91  O   UNL A   1      46.035  36.318  26.229  1.00  0.00    -0.237 OA
ATOM     92  O   UNL A   1      43.832  37.110  26.990  1.00  0.00    -0.237 OA
ATOM     93  O   UNL A   1      45.877  38.104  27.923  1.00  0.00    -0.744 OA
ENDBRANCH  87  90
ENDBRANCH  60  83
ENDBRANCH  34  35
ENDBRANCH  26  29
ENDBRANCH  24  25
ENDBRANCH  23  24
ENDBRANCH   1  23
TORSDOF 17
ENDMDL
MODEL 3
REMARK VINA RESULT:     -11.4      3.036      9.099
REMARK SMILES O=C(CCS(=O)(=O)c1ccc2[nH]c(=O)oc2c1)NCCCCNC(=O)c1ccc(-c2c3nc(c(-c4cccc(S(=O)(=O)[O-])c4F)c4ccc([nH]4)c(-c4cccc(S(=O)(=O)[O-])c4F)c4nc(c(-c5cccc(S(=O)(=O)[O-])c5F)c5ccc2[nH]5)C=C4)C=C3)cc1
REMARK SMILES IDX 20 1 19 2 18 3 1 4 2 5 3 7 4 8 5 9 6 10 7 11 8 12 9 13 17 14
REMARK SMILES IDX 10 15 16 16 11 17 15 18 12 19 13 20 14 22 21 23 22 24 23 25
REMARK SMILES IDX 24 26 25 28 26 29 27 30 88 31 28 32 87 33 29 34 30 35 31 36
REMARK SMILES IDX 81 37 32 38 86 39 80 40 82 41 33 42 85 43 79 44 78 45 34 47
REMARK SMILES IDX 66 48 46 49 65 50 47 51 50 52 64 53 83 54 48 55 49 56 63 58
REMARK SMILES IDX 84 59 51 60 35 61 36 62 44 63 37 64 39 65 45 66 38 67 40 68
REMARK SMILES IDX 41 69 42 70 43 71 67 72 68 73 76 74 69 75 71 76 77 77 70 78
REMARK SMILES IDX 72 79 73 80 74 81 75 82 52 83 53 84 61 85 54 86 56 87 62 88
REMARK SMILES IDX 55 89 57 90 58 91 59 92 60 93
REMARK H PARENT 18 6 12 21 23 27 82 46 50 57
REMARK Flexibility Score: inf
ROOT
ATOM      1  C   UNL A   1      34.369  22.691  23.996  1.00  0.00     0.023 C 
ENDROOT
BRANCH   1   2
ATOM      2  C   UNL A   1      33.877  23.461  22.748  1.00  0.00     0.116 C 
BRANCH   2   3
ATOM      3  N   UNL A   1      33.542  24.873  22.893  1.00  0.00    -0.356 N 
ATOM      4  O   UNL A   1      33.273  25.210  20.632  1.00  0.00    -0.275 OA
ATOM      5  C   UNL A   1      33.206  25.632  21.784  1.00  0.00     0.221 C 
ATOM      6  H   UNL A   1      33.556  25.290  23.786  1.00  0.00     0.163 HD
BRANCH   5   7
ATOM      7  C   UNL A   1      32.629  27.001  22.065  1.00  0.00     0.116 C 
BRANCH   7   8
ATOM      8  C   UNL A   1      31.100  26.961  22.148  1.00  0.00     0.152 C 
BRANCH   8   9
ATOM      9  S   UNL A   1      30.436  26.741  23.794  1.00  0.00     0.179 S 
ATOM     10  O   UNL A   1      29.050  27.172  23.788  1.00  0.00    -0.224 OA
ATOM     11  O   UNL A   1      30.796  25.406  24.229  1.00  0.00    -0.224 OA
BRANCH   9  12
ATOM     12  C   UNL A   1      31.303  27.870  24.869  1.00  0.00     0.071 A 
ATOM     13  C   UNL A   1      32.253  27.460  25.819  1.00  0.00     0.023 A 
ATOM     14  C   UNL A   1      30.899  29.193  24.839  1.00  0.00     0.069 A 
ATOM     15  C   UNL A   1      32.798  28.399  26.724  1.00  0.00     0.031 A 
ATOM     16  C   UNL A   1      31.476  30.106  25.678  1.00  0.00     0.157 A 
ATOM     17  C   UNL A   1      32.385  29.712  26.617  1.00  0.00     0.087 A 
ATOM     18  O   UNL A   1      31.152  31.447  25.737  1.00  0.00    -0.408 OA
ATOM     19  N   UNL A   1      32.664  30.837  27.341  1.00  0.00    -0.287 N 
ATOM     20  C   UNL A   1      31.940  31.878  26.805  1.00  0.00     0.417 A 
ATOM     21  H   UNL A   1      33.275  30.894  28.111  1.00  0.00     0.173 HD
ATOM     22  O   UNL A   1      31.976  33.045  27.176  1.00  0.00    -0.224 OA
ENDBRANCH   9  12
ENDBRANCH   8   9
ENDBRANCH   7   8
ENDBRANCH   5   7
ENDBRANCH   2   3
ENDBRANCH   1   2
BRANCH   1  23
ATOM     23  C   UNL A   1      35.775  22.064  24.104  1.00  0.00     0.023 C 
BRANCH  23  24
ATOM     24  C   UNL A   1      36.480  21.772  25.446  1.00  0.00     0.116 C 
BRANCH  24  25
ATOM     25  N   UNL A   1      37.597  20.842  25.447  1.00  0.00    -0.352 N 
ATOM     26  C   UNL A   1      38.868  21.031  25.957  1.00  0.00     0.251 C 
ATOM     27  H   UNL A   1      37.426  19.966  25.031  1.00  0.00     0.163 HD
ATOM     28  O   UNL A   1      39.676  20.104  25.958  1.00  0.00    -0.269 OA
BRANCH  26  29
ATOM     29  C   UNL A   1      39.306  22.358  26.458  1.00  0.00     0.039 A 
ATOM     30  C   UNL A   1      40.395  22.402  27.338  1.00  0.00     0.014 A 
ATOM     31  C   UNL A   1      38.664  23.545  26.097  1.00  0.00     0.014 A 
ATOM     32  C   UNL A   1      40.902  23.633  27.771  1.00  0.00     0.010 A 
ATOM     33  C   UNL A   1      39.196  24.777  26.502  1.00  0.00     0.010 A 
ATOM     34  C   UNL A   1      40.342  24.837  27.315  1.00  0.00    -0.014 A 
BRANCH  34  35
ATOM     35  C   UNL A   1      41.015  26.141  27.597  1.00  0.00     0.031 A 
ATOM     36  C   UNL A   1      42.427  26.418  27.154  1.00  0.00     0.074 A 
ATOM     37  C   UNL A   1      40.358  27.069  28.326  1.00  0.00     0.049 A 
ATOM     38  N   UNL A   1      43.152  27.492  27.336  1.00  0.00    -0.248 NA
ATOM     39  C   UNL A   1      43.118  25.346  26.423  1.00  0.00     0.031 C 
ATOM     40  C   UNL A   1      39.008  26.910  28.872  1.00  0.00     0.029 A 
ATOM     41  N   UNL A   1      40.740  28.319  28.754  1.00  0.00    -0.354 N 
ATOM     42  C   UNL A   1      44.394  27.220  26.774  1.00  0.00     0.074 A 
ATOM     43  C   UNL A   1      44.327  25.869  26.257  1.00  0.00     0.031 C 
ATOM     44  C   UNL A   1      38.674  28.016  29.554  1.00  0.00     0.029 A 
ATOM     45  C   UNL A   1      39.794  28.950  29.532  1.00  0.00     0.049 A 
ATOM     46  H   UNL A   1      41.608  28.724  28.527  1.00  0.00     0.167 HD
ATOM     47  C   UNL A   1      45.483  28.023  26.683  1.00  0.00     0.034 A 
ATOM     48  C   UNL A   1      39.824  30.138  30.170  1.00  0.00     0.034 A 
ATOM     49  C   UNL A   1      45.545  29.373  27.184  1.00  0.00     0.049 A 
ATOM     50  C   UNL A   1      41.044  31.010  30.044  1.00  0.00     0.074 A 
ATOM     51  C   UNL A   1      46.579  30.288  27.065  1.00  0.00     0.029 A 
ATOM     52  N   UNL A   1      44.549  29.996  27.918  1.00  0.00    -0.354 N 
ATOM     53  N   UNL A   1      42.149  30.793  29.373  1.00  0.00    -0.248 NA
ATOM     54  C   UNL A   1      41.009  32.308  30.736  1.00  0.00     0.031 C 
ATOM     55  C   UNL A   1      46.225  31.446  27.765  1.00  0.00     0.029 A 
ATOM     56  C   UNL A   1      44.950  31.273  28.277  1.00  0.00     0.049 A 
ATOM     57  H   UNL A   1      43.682  29.590  28.151  1.00  0.00     0.167 HD
ATOM     58  C   UNL A   1      42.921  31.939  29.528  1.00  0.00     0.074 A 
ATOM     59  C   UNL A   1      42.149  32.857  30.340  1.00  0.00     0.031 C 
ATOM     60  C   UNL A   1      44.161  32.202  29.047  1.00  0.00     0.034 A 
BRANCH  47  61
ATOM     61  C   UNL A   1      46.707  27.475  25.989  1.00  0.00     0.023 A 
ATOM     62  C   UNL A   1      46.885  27.692  24.608  1.00  0.00     0.012 A 
ATOM     63  C   UNL A   1      47.716  26.812  26.717  1.00  0.00     0.148 A 
ATOM     64  C   UNL A   1      48.025  27.223  23.955  1.00  0.00     0.002 A 
ATOM     65  C   UNL A   1      48.870  26.388  26.069  1.00  0.00     0.091 A 
ATOM     66  F   UNL A   1      47.526  26.605  28.028  1.00  0.00    -0.205 F 
ATOM     67  C   UNL A   1      49.020  26.581  24.685  1.00  0.00     0.022 A 
BRANCH  65  68
ATOM     68  S   UNL A   1      50.248  25.624  26.934  1.00  0.00     0.127 S 
ATOM     69  O   UNL A   1      51.219  25.461  25.852  1.00  0.00    -0.237 OA
ATOM     70  O   UNL A   1      50.598  26.649  27.918  1.00  0.00    -0.237 OA
ATOM     71  O   UNL A   1      49.732  24.386  27.500  1.00  0.00    -0.744 OA
ENDBRANCH  65  68
ENDBRANCH  47  61
BRANCH  48  72
ATOM     72  C   UNL A   1      38.641  30.599  30.952  1.00  0.00     0.023 A 
ATOM     73  C   UNL A   1      38.592  30.367  32.342  1.00  0.00     0.012 A 
ATOM     74  C   UNL A   1      37.568  31.268  30.332  1.00  0.00     0.148 A 
ATOM     75  C   UNL A   1      37.482  30.759  33.090  1.00  0.00     0.002 A 
ATOM     76  C   UNL A   1      36.491  31.708  31.094  1.00  0.00     0.091 A 
ATOM     77  F   UNL A   1      37.627  31.471  29.008  1.00  0.00    -0.205 F 
ATOM     78  C   UNL A   1      36.437  31.437  32.470  1.00  0.00     0.022 A 
BRANCH  76  79
ATOM     79  S   UNL A   1      35.162  32.699  30.404  1.00  0.00     0.127 S 
ATOM     80  O   UNL A   1      34.262  32.830  31.547  1.00  0.00    -0.237 OA
ATOM     81  O   UNL A   1      35.866  33.926  30.030  1.00  0.00    -0.237 OA
ATOM     82  O   UNL A   1      34.643  31.936  29.277  1.00  0.00    -0.744 OA
ENDBRANCH  76  79
ENDBRANCH  48  72
BRANCH  60  83
ATOM     83  C   UNL A   1      44.754  33.558  29.338  1.00  0.00     0.023 A 
ATOM     84  C   UNL A   1      45.592  33.741  30.456  1.00  0.00     0.012 A 
ATOM     85  C   UNL A   1      44.533  34.637  28.459  1.00  0.00     0.148 A 
ATOM     86  C   UNL A   1      46.168  34.986  30.715  1.00  0.00     0.002 A 
ATOM     87  C   UNL A   1      45.154  35.859  28.692  1.00  0.00     0.091 A 
ATOM     88  F   UNL A   1      43.719  34.450  27.410  1.00  0.00    -0.205 F 
ATOM     89  C   UNL A   1      45.960  36.039  29.828  1.00  0.00     0.022 A 
BRANCH  87  90
ATOM     90  S   UNL A   1      45.025  37.242  27.553  1.00  0.00     0.127 S 
ATOM     91  O   UNL A   1      45.348  38.374  28.421  1.00  0.00    -0.237 OA
ATOM     92  O   UNL A   1      46.052  36.922  26.562  1.00  0.00    -0.237 OA
ATOM     93  O   UNL A   1      43.660  37.218  27.042  1.00  0.00    -0.744 OA
ENDBRANCH  87  90
ENDBRANCH  60  83
ENDBRANCH  34  35
ENDBRANCH  26  29
ENDBRANCH  24  25
ENDBRANCH  23  24
ENDBRANCH   1  23
TORSDOF 17
ENDMDL
