MODEL 1
REMARK VINA RESULT:     -12.7      0.000      0.000
REMARK SMILES O=C(NCCCCNC(=O)[C@H]1CCCCN1C(=O)c1cn2ccccc2n1)c1ccc(-c2c3nc(c(-c4cccc(S(=O)(=O)[O-])c4F)c4ccc([nH]4)c(-c4cccc(S(=O)(=O)[O-])c4F)c4nc(c(-c5cccc(S(=O)(=O)[O-])c5F)c5ccc2[nH]5)C=C4)C=C3)cc1
REMARK SMILES IDX 5 1 4 2 3 3 1 4 2 5 28 7 29 8 90 9 30 10 89 11 31 12 32 13
REMARK SMILES IDX 33 14 83 15 34 16 88 17 82 18 84 19 35 20 87 21 81 22 80 23
REMARK SMILES IDX 36 25 68 26 48 27 67 28 49 29 52 30 66 31 85 32 50 33 51 34
REMARK SMILES IDX 65 36 86 37 53 38 37 39 38 40 46 41 39 42 41 43 47 44 40 45
REMARK SMILES IDX 42 46 43 47 44 48 45 49 69 50 70 51 78 52 71 53 73 54 79 55
REMARK SMILES IDX 72 56 74 57 75 58 76 59 77 60 54 61 55 62 63 63 56 64 58 65
REMARK SMILES IDX 64 66 57 67 59 68 60 69 61 70 62 71 6 72 7 73 8 74 9 75
REMARK SMILES IDX 10 77 11 78 12 79 16 80 13 81 15 82 14 83 17 84 18 85 19 86
REMARK SMILES IDX 20 87 27 88 21 89 26 90 22 91 25 92 23 93 24 94
REMARK H PARENT 3 6 84 24 52 35 8 76
REMARK Flexibility Score: inf
ROOT
ATOM      1  C   UNL A   1      31.845  28.834  26.531  1.00  0.00     0.023 C 
ENDROOT
BRANCH   1   2
ATOM      2  C   UNL A   1      32.805  29.893  26.006  1.00  0.00     0.116 C 
BRANCH   2   3
ATOM      3  N   UNL A   1      32.496  31.247  26.448  1.00  0.00    -0.352 N 
ATOM      4  O   UNL A   1      32.811  33.150  27.626  1.00  0.00    -0.269 OA
ATOM      5  C   UNL A   1      33.231  32.047  27.292  1.00  0.00     0.251 C 
ATOM      6  H   UNL A   1      31.660  31.634  26.103  1.00  0.00     0.163 HD
BRANCH   5   7
ATOM      7  C   UNL A   1      34.505  31.522  27.818  1.00  0.00     0.039 A 
ATOM      8  C   UNL A   1      34.583  30.199  28.259  1.00  0.00     0.014 A 
ATOM      9  C   UNL A   1      35.591  32.388  27.963  1.00  0.00     0.014 A 
ATOM     10  C   UNL A   1      35.687  29.788  28.992  1.00  0.00     0.010 A 
ATOM     11  C   UNL A   1      36.737  31.942  28.623  1.00  0.00     0.010 A 
ATOM     12  C   UNL A   1      36.776  30.653  29.179  1.00  0.00    -0.014 A 
BRANCH  12  13
ATOM     13  C   UNL A   1      37.970  30.171  29.913  1.00  0.00     0.031 A 
ATOM     14  C   UNL A   1      38.249  30.612  31.323  1.00  0.00     0.074 A 
ATOM     15  C   UNL A   1      38.808  29.326  29.283  1.00  0.00     0.049 A 
ATOM     16  N   UNL A   1      39.258  30.298  32.094  1.00  0.00    -0.248 NA
ATOM     17  C   UNL A   1      37.280  31.526  31.948  1.00  0.00     0.031 C 
ATOM     18  C   UNL A   1      38.649  28.861  27.903  1.00  0.00     0.029 A 
ATOM     19  N   UNL A   1      39.956  28.712  29.711  1.00  0.00    -0.354 N 
ATOM     20  C   UNL A   1      39.075  31.010  33.274  1.00  0.00     0.074 A 
ATOM     21  C   UNL A   1      37.854  31.773  33.118  1.00  0.00     0.031 C 
ATOM     22  C   UNL A   1      39.646  28.020  27.604  1.00  0.00     0.029 A 
ATOM     23  C   UNL A   1      40.546  27.930  28.748  1.00  0.00     0.049 A 
ATOM     24  H   UNL A   1      40.321  28.820  30.619  1.00  0.00     0.167 HD
ATOM     25  C   UNL A   1      39.847  31.016  34.386  1.00  0.00     0.034 A 
ATOM     26  C   UNL A   1      41.697  27.232  28.771  1.00  0.00     0.034 A 
ATOM     27  C   UNL A   1      41.034  30.217  34.546  1.00  0.00     0.049 A 
ATOM     28  C   UNL A   1      42.514  27.228  30.029  1.00  0.00     0.074 A 
ATOM     29  C   UNL A   1      41.854  30.106  35.656  1.00  0.00     0.029 A 
ATOM     30  N   UNL A   1      41.572  29.392  33.569  1.00  0.00    -0.354 N 
ATOM     31  N   UNL A   1      42.266  27.823  31.171  1.00  0.00    -0.248 NA
ATOM     32  C   UNL A   1      43.753  26.440  30.014  1.00  0.00     0.031 C 
ATOM     33  C   UNL A   1      42.891  29.219  35.346  1.00  0.00     0.029 A 
ATOM     34  C   UNL A   1      42.713  28.771  34.046  1.00  0.00     0.049 A 
ATOM     35  H   UNL A   1      41.196  29.267  32.667  1.00  0.00     0.167 HD
ATOM     36  C   UNL A   1      43.306  27.469  32.017  1.00  0.00     0.074 A 
ATOM     37  C   UNL A   1      44.174  26.585  31.263  1.00  0.00     0.031 C 
ATOM     38  C   UNL A   1      43.537  27.857  33.296  1.00  0.00     0.034 A 
BRANCH  25  39
ATOM     39  C   UNL A   1      39.415  31.884  35.539  1.00  0.00     0.023 A 
ATOM     40  C   UNL A   1      39.782  33.244  35.559  1.00  0.00     0.012 A 
ATOM     41  C   UNL A   1      38.593  31.375  36.563  1.00  0.00     0.148 A 
ATOM     42  C   UNL A   1      39.359  34.079  36.593  1.00  0.00     0.002 A 
ATOM     43  C   UNL A   1      38.147  32.222  37.573  1.00  0.00     0.091 A 
ATOM     44  F   UNL A   1      38.275  30.073  36.544  1.00  0.00    -0.205 F 
ATOM     45  C   UNL A   1      38.534  33.571  37.593  1.00  0.00     0.022 A 
BRANCH  43  46
ATOM     46  S   UNL A   1      37.024  31.667  38.863  1.00  0.00     0.127 S 
ATOM     47  O   UNL A   1      37.855  31.807  40.057  1.00  0.00    -0.237 OA
ATOM     48  O   UNL A   1      35.930  32.635  38.766  1.00  0.00    -0.237 OA
ATOM     49  O   UNL A   1      36.656  30.305  38.505  1.00  0.00    -0.744 OA
ENDBRANCH  43  46
ENDBRANCH  25  39
BRANCH  26  50
ATOM     50  C   UNL A   1      42.095  26.448  27.570  1.00  0.00     0.023 A 
ATOM     51  C   UNL A   1      42.937  27.037  26.608  1.00  0.00     0.012 A 
ATOM     52  C   UNL A   1      41.727  25.096  27.427  1.00  0.00     0.148 A 
ATOM     53  C   UNL A   1      43.396  26.295  25.520  1.00  0.00     0.002 A 
ATOM     54  C   UNL A   1      42.238  24.347  26.374  1.00  0.00     0.091 A 
ATOM     55  F   UNL A   1      40.910  24.559  28.345  1.00  0.00    -0.205 F 
ATOM     56  C   UNL A   1      43.061  24.948  25.411  1.00  0.00     0.022 A 
BRANCH  54  57
ATOM     57  S   UNL A   1      41.985  22.571  26.260  1.00  0.00     0.127 S 
ATOM     58  O   UNL A   1      42.654  22.253  25.003  1.00  0.00    -0.237 OA
ATOM     59  O   UNL A   1      42.667  22.087  27.462  1.00  0.00    -0.237 OA
ATOM     60  O   UNL A   1      40.541  22.384  26.282  1.00  0.00    -0.744 OA
ENDBRANCH  54  57
ENDBRANCH  26  50
BRANCH  38  61
ATOM     61  C   UNL A   1      44.769  27.318  33.967  1.00  0.00     0.023 A 
ATOM     62  C   UNL A   1      45.964  28.062  33.921  1.00  0.00     0.012 A 
ATOM     63  C   UNL A   1      44.726  26.115  34.697  1.00  0.00     0.148 A 
ATOM     64  C   UNL A   1      47.109  27.604  34.571  1.00  0.00     0.002 A 
ATOM     65  C   UNL A   1      45.860  25.685  35.377  1.00  0.00     0.091 A 
ATOM     66  F   UNL A   1      43.586  25.411  34.707  1.00  0.00    -0.205 F 
ATOM     67  C   UNL A   1      47.053  26.422  35.308  1.00  0.00     0.022 A 
BRANCH  65  68
ATOM     68  S   UNL A   1      45.850  24.219  36.416  1.00  0.00     0.127 S 
ATOM     69  O   UNL A   1      44.783  24.532  37.365  1.00  0.00    -0.237 OA
ATOM     70  O   UNL A   1      45.525  23.158  35.460  1.00  0.00    -0.237 OA
ATOM     71  O   UNL A   1      47.189  24.126  36.981  1.00  0.00    -0.744 OA
ENDBRANCH  65  68
ENDBRANCH  38  61
ENDBRANCH  12  13
ENDBRANCH   5   7
ENDBRANCH   2   3
ENDBRANCH   1   2
BRANCH   1  72
ATOM     72  C   UNL A   1      32.498  27.500  26.875  1.00  0.00     0.023 C 
BRANCH  72  73
ATOM     73  C   UNL A   1      32.137  26.348  25.943  1.00  0.00     0.116 C 
BRANCH  73  74
ATOM     74  N   UNL A   1      31.130  25.483  26.507  1.00  0.00    -0.354 N 
ATOM     75  C   UNL A   1      30.786  24.191  26.267  1.00  0.00     0.242 C 
ATOM     76  H   UNL A   1      30.583  25.913  27.202  1.00  0.00     0.163 HD
ATOM     77  O   UNL A   1      29.869  23.756  26.981  1.00  0.00    -0.273 OA
BRANCH  75  78
ATOM     78  C   UNL A   1      31.356  23.286  25.127  1.00  0.00     0.174 C 
ATOM     79  C   UNL A   1      30.654  23.662  23.811  1.00  0.00     0.035 C 
ATOM     80  N   UNL A   1      32.802  23.067  24.943  1.00  0.00    -0.325 N 
ATOM     81  C   UNL A   1      31.358  24.815  23.117  1.00  0.00     0.004 C 
ATOM     82  C   UNL A   1      33.558  23.867  23.974  1.00  0.00     0.121 C 
ATOM     83  C   UNL A   1      32.776  24.396  22.776  1.00  0.00     0.022 C 
BRANCH  80  84
ATOM     84  C   UNL A   1      33.425  22.179  25.841  1.00  0.00     0.274 C 
ATOM     85  O   UNL A   1      34.004  22.571  26.853  1.00  0.00    -0.267 OA
BRANCH  84  86
ATOM     86  C   UNL A   1      33.488  20.768  25.451  1.00  0.00     0.147 A 
ATOM     87  C   UNL A   1      34.625  20.120  25.002  1.00  0.00     0.127 A 
ATOM     88  N   UNL A   1      32.414  19.895  25.479  1.00  0.00    -0.223 NA
ATOM     89  N   UNL A   1      34.240  18.835  24.732  1.00  0.00    -0.306 N 
ATOM     90  C   UNL A   1      32.898  18.734  25.079  1.00  0.00     0.137 A 
ATOM     91  C   UNL A   1      34.985  17.782  24.208  1.00  0.00     0.093 A 
ATOM     92  C   UNL A   1      32.290  17.454  24.936  1.00  0.00     0.048 A 
ATOM     93  C   UNL A   1      34.399  16.584  24.047  1.00  0.00     0.018 A 
ATOM     94  C   UNL A   1      33.008  16.424  24.446  1.00  0.00     0.005 A 
ENDBRANCH  84  86
ENDBRANCH  80  84
ENDBRANCH  75  78
ENDBRANCH  73  74
ENDBRANCH  72  73
ENDBRANCH   1  72
TORSDOF 16
ENDMDL
MODEL 2
REMARK VINA RESULT:     -12.6      5.262     10.134
REMARK SMILES O=C(NCCCCNC(=O)[C@H]1CCCCN1C(=O)c1cn2ccccc2n1)c1ccc(-c2c3nc(c(-c4cccc(S(=O)(=O)[O-])c4F)c4ccc([nH]4)c(-c4cccc(S(=O)(=O)[O-])c4F)c4nc(c(-c5cccc(S(=O)(=O)[O-])c5F)c5ccc2[nH]5)C=C4)C=C3)cc1
REMARK SMILES IDX 5 1 4 2 3 3 1 4 2 5 28 7 29 8 90 9 30 10 89 11 31 12 32 13
REMARK SMILES IDX 33 14 83 15 34 16 88 17 82 18 84 19 35 20 87 21 81 22 80 23
REMARK SMILES IDX 36 25 68 26 48 27 67 28 49 29 52 30 66 31 85 32 50 33 51 34
REMARK SMILES IDX 65 36 86 37 53 38 37 39 38 40 46 41 39 42 41 43 47 44 40 45
REMARK SMILES IDX 42 46 43 47 44 48 45 49 69 50 70 51 78 52 71 53 73 54 79 55
REMARK SMILES IDX 72 56 74 57 75 58 76 59 77 60 54 61 55 62 63 63 56 64 58 65
REMARK SMILES IDX 64 66 57 67 59 68 60 69 61 70 62 71 6 72 7 73 8 74 9 75
REMARK SMILES IDX 10 77 11 78 12 79 16 80 13 81 15 82 14 83 17 84 18 85 19 86
REMARK SMILES IDX 20 87 27 88 21 89 26 90 22 91 25 92 23 93 24 94
REMARK H PARENT 3 6 84 24 52 35 8 76
REMARK Flexibility Score: inf
ROOT
ATOM      1  C   UNL A   1      37.562  19.611  24.734  1.00  0.00     0.023 C 
ENDROOT
BRANCH   1   2
ATOM      2  C   UNL A   1      38.599  20.181  25.691  1.00  0.00     0.116 C 
BRANCH   2   3
ATOM      3  N   UNL A   1      39.765  19.326  25.882  1.00  0.00    -0.352 N 
ATOM      4  O   UNL A   1      41.919  18.866  26.387  1.00  0.00    -0.269 OA
ATOM      5  C   UNL A   1      41.012  19.689  26.336  1.00  0.00     0.251 C 
ATOM      6  H   UNL A   1      39.645  18.375  25.658  1.00  0.00     0.163 HD
BRANCH   5   7
ATOM      7  C   UNL A   1      41.236  21.099  26.708  1.00  0.00     0.039 A 
ATOM      8  C   UNL A   1      41.252  22.085  25.718  1.00  0.00     0.014 A 
ATOM      9  C   UNL A   1      41.532  21.415  28.035  1.00  0.00     0.014 A 
ATOM     10  C   UNL A   1      41.722  23.353  26.027  1.00  0.00     0.010 A 
ATOM     11  C   UNL A   1      41.920  22.716  28.358  1.00  0.00     0.010 A 
ATOM     12  C   UNL A   1      42.058  23.683  27.350  1.00  0.00    -0.014 A 
BRANCH  12  13
ATOM     13  C   UNL A   1      42.500  25.061  27.666  1.00  0.00     0.031 A 
ATOM     14  C   UNL A   1      43.925  25.491  27.457  1.00  0.00     0.074 A 
ATOM     15  C   UNL A   1      41.591  25.928  28.151  1.00  0.00     0.049 A 
ATOM     16  N   UNL A   1      44.476  26.652  27.703  1.00  0.00    -0.248 NA
ATOM     17  C   UNL A   1      44.858  24.491  26.911  1.00  0.00     0.031 C 
ATOM     18  C   UNL A   1      40.188  25.605  28.423  1.00  0.00     0.029 A 
ATOM     19  N   UNL A   1      41.703  27.246  28.505  1.00  0.00    -0.354 N 
ATOM     20  C   UNL A   1      45.822  26.512  27.389  1.00  0.00     0.074 A 
ATOM     21  C   UNL A   1      46.008  25.151  26.932  1.00  0.00     0.031 C 
ATOM     22  C   UNL A   1      39.565  26.698  28.880  1.00  0.00     0.029 A 
ATOM     23  C   UNL A   1      40.534  27.783  28.989  1.00  0.00     0.049 A 
ATOM     24  H   UNL A   1      42.539  27.760  28.421  1.00  0.00     0.167 HD
ATOM     25  C   UNL A   1      46.808  27.438  27.465  1.00  0.00     0.034 A 
ATOM     26  C   UNL A   1      40.271  29.006  29.485  1.00  0.00     0.034 A 
ATOM     27  C   UNL A   1      46.601  28.802  27.876  1.00  0.00     0.049 A 
ATOM     28  C   UNL A   1      41.374  30.022  29.523  1.00  0.00     0.074 A 
ATOM     29  C   UNL A   1      47.522  29.834  27.930  1.00  0.00     0.029 A 
ATOM     30  N   UNL A   1      45.391  29.325  28.306  1.00  0.00    -0.354 N 
ATOM     31  N   UNL A   1      42.616  29.901  29.121  1.00  0.00    -0.248 NA
ATOM     32  C   UNL A   1      41.038  31.347  30.059  1.00  0.00     0.031 C 
ATOM     33  C   UNL A   1      46.869  30.979  28.400  1.00  0.00     0.029 A 
ATOM     34  C   UNL A   1      45.539  30.663  28.630  1.00  0.00     0.049 A 
ATOM     35  H   UNL A   1      44.548  28.819  28.371  1.00  0.00     0.167 HD
ATOM     36  C   UNL A   1      43.207  31.137  29.336  1.00  0.00     0.074 A 
ATOM     37  C   UNL A   1      42.178  32.001  29.880  1.00  0.00     0.031 C 
ATOM     38  C   UNL A   1      44.491  31.519  29.125  1.00  0.00     0.034 A 
BRANCH  25  39
ATOM     39  C   UNL A   1      48.197  27.023  27.056  1.00  0.00     0.023 A 
ATOM     40  C   UNL A   1      48.965  26.221  27.925  1.00  0.00     0.012 A 
ATOM     41  C   UNL A   1      48.715  27.364  25.792  1.00  0.00     0.148 A 
ATOM     42  C   UNL A   1      50.237  25.788  27.552  1.00  0.00     0.002 A 
ATOM     43  C   UNL A   1      49.971  26.899  25.414  1.00  0.00     0.091 A 
ATOM     44  F   UNL A   1      47.983  28.148  24.988  1.00  0.00    -0.205 F 
ATOM     45  C   UNL A   1      50.736  26.117  26.294  1.00  0.00     0.022 A 
BRANCH  43  46
ATOM     46  S   UNL A   1      50.660  27.219  23.784  1.00  0.00     0.127 S 
ATOM     47  O   UNL A   1      49.603  26.711  22.912  1.00  0.00    -0.237 OA
ATOM     48  O   UNL A   1      50.801  28.676  23.783  1.00  0.00    -0.237 OA
ATOM     49  O   UNL A   1      51.920  26.493  23.740  1.00  0.00    -0.744 OA
ENDBRANCH  43  46
ENDBRANCH  25  39
BRANCH  26  50
ATOM     50  C   UNL A   1      38.888  29.326  29.932  1.00  0.00     0.023 A 
ATOM     51  C   UNL A   1      38.485  28.977  31.235  1.00  0.00     0.012 A 
ATOM     52  C   UNL A   1      38.009  30.059  29.112  1.00  0.00     0.148 A 
ATOM     53  C   UNL A   1      37.225  29.345  31.708  1.00  0.00     0.002 A 
ATOM     54  C   UNL A   1      36.780  30.475  29.611  1.00  0.00     0.091 A 
ATOM     55  F   UNL A   1      38.406  30.366  27.868  1.00  0.00    -0.205 F 
ATOM     56  C   UNL A   1      36.380  30.106  30.904  1.00  0.00     0.022 A 
BRANCH  54  57
ATOM     57  S   UNL A   1      35.712  31.594  28.697  1.00  0.00     0.127 S 
ATOM     58  O   UNL A   1      34.721  31.953  29.707  1.00  0.00    -0.237 OA
ATOM     59  O   UNL A   1      36.637  32.668  28.330  1.00  0.00    -0.237 OA
ATOM     60  O   UNL A   1      35.221  30.821  27.564  1.00  0.00    -0.744 OA
ENDBRANCH  54  57
ENDBRANCH  26  50
BRANCH  38  61
ATOM     61  C   UNL A   1      44.853  32.937  29.469  1.00  0.00     0.023 A 
ATOM     62  C   UNL A   1      45.368  33.228  30.747  1.00  0.00     0.012 A 
ATOM     63  C   UNL A   1      44.749  33.962  28.511  1.00  0.00     0.148 A 
ATOM     64  C   UNL A   1      45.750  34.528  31.077  1.00  0.00     0.002 A 
ATOM     65  C   UNL A   1      45.170  35.247  28.832  1.00  0.00     0.091 A 
ATOM     66  F   UNL A   1      44.233  33.668  27.309  1.00  0.00    -0.205 F 
ATOM     67  C   UNL A   1      45.663  35.534  30.116  1.00  0.00     0.022 A 
BRANCH  65  68
ATOM     68  S   UNL A   1      45.169  36.580  27.628  1.00  0.00     0.127 S 
ATOM     69  O   UNL A   1      46.038  36.042  26.584  1.00  0.00    -0.237 OA
ATOM     70  O   UNL A   1      43.755  36.670  27.259  1.00  0.00    -0.237 OA
ATOM     71  O   UNL A   1      45.679  37.750  28.332  1.00  0.00    -0.744 OA
ENDBRANCH  65  68
ENDBRANCH  38  61
ENDBRANCH  12  13
ENDBRANCH   5   7
ENDBRANCH   2   3
ENDBRANCH   1   2
BRANCH   1  72
ATOM     72  C   UNL A   1      36.130  20.052  25.013  1.00  0.00     0.023 C 
BRANCH  72  73
ATOM     73  C   UNL A   1      35.944  21.555  25.199  1.00  0.00     0.116 C 
BRANCH  73  74
ATOM     74  N   UNL A   1      35.506  21.892  26.531  1.00  0.00    -0.354 N 
ATOM     75  C   UNL A   1      34.409  22.537  27.004  1.00  0.00     0.242 C 
ATOM     76  H   UNL A   1      36.124  21.597  27.237  1.00  0.00     0.163 HD
ATOM     77  O   UNL A   1      34.346  22.619  28.240  1.00  0.00    -0.273 OA
BRANCH  75  78
ATOM     78  C   UNL A   1      33.323  23.256  26.139  1.00  0.00     0.174 C 
ATOM     79  C   UNL A   1      33.755  24.718  25.934  1.00  0.00     0.035 C 
ATOM     80  N   UNL A   1      32.775  22.661  24.907  1.00  0.00    -0.325 N 
ATOM     81  C   UNL A   1      34.671  24.863  24.732  1.00  0.00     0.004 C 
ATOM     82  C   UNL A   1      33.318  23.032  23.597  1.00  0.00     0.121 C 
ATOM     83  C   UNL A   1      33.924  24.427  23.485  1.00  0.00     0.022 C 
BRANCH  80  84
ATOM     84  C   UNL A   1      31.835  21.626  25.070  1.00  0.00     0.274 C 
ATOM     85  O   UNL A   1      30.698  21.834  25.492  1.00  0.00    -0.267 OA
BRANCH  84  86
ATOM     86  C   UNL A   1      32.305  20.255  24.855  1.00  0.00     0.147 A 
ATOM     87  C   UNL A   1      32.617  19.707  23.624  1.00  0.00     0.127 A 
ATOM     88  N   UNL A   1      32.498  19.322  25.861  1.00  0.00    -0.223 NA
ATOM     89  N   UNL A   1      32.989  18.414  23.873  1.00  0.00    -0.306 N 
ATOM     90  C   UNL A   1      32.942  18.240  25.252  1.00  0.00     0.137 A 
ATOM     91  C   UNL A   1      33.349  17.411  22.977  1.00  0.00     0.093 A 
ATOM     92  C   UNL A   1      33.351  16.970  25.754  1.00  0.00     0.048 A 
ATOM     93  C   UNL A   1      33.704  16.206  23.454  1.00  0.00     0.018 A 
ATOM     94  C   UNL A   1      33.718  15.998  24.895  1.00  0.00     0.005 A 
ENDBRANCH  84  86
ENDBRANCH  80  84
ENDBRANCH  75  78
ENDBRANCH  73  74
ENDBRANCH  72  73
ENDBRANCH   1  72
TORSDOF 16
ENDMDL
MODEL 3
REMARK VINA RESULT:     -12.5      5.313     10.703
REMARK SMILES O=C(NCCCCNC(=O)[C@H]1CCCCN1C(=O)c1cn2ccccc2n1)c1ccc(-c2c3nc(c(-c4cccc(S(=O)(=O)[O-])c4F)c4ccc([nH]4)c(-c4cccc(S(=O)(=O)[O-])c4F)c4nc(c(-c5cccc(S(=O)(=O)[O-])c5F)c5ccc2[nH]5)C=C4)C=C3)cc1
REMARK SMILES IDX 5 1 4 2 3 3 1 4 2 5 28 7 29 8 90 9 30 10 89 11 31 12 32 13
REMARK SMILES IDX 33 14 83 15 34 16 88 17 82 18 84 19 35 20 87 21 81 22 80 23
REMARK SMILES IDX 36 25 68 26 48 27 67 28 49 29 52 30 66 31 85 32 50 33 51 34
REMARK SMILES IDX 65 36 86 37 53 38 37 39 38 40 46 41 39 42 41 43 47 44 40 45
REMARK SMILES IDX 42 46 43 47 44 48 45 49 69 50 70 51 78 52 71 53 73 54 79 55
REMARK SMILES IDX 72 56 74 57 75 58 76 59 77 60 54 61 55 62 63 63 56 64 58 65
REMARK SMILES IDX 64 66 57 67 59 68 60 69 61 70 62 71 6 72 7 73 8 74 9 75
REMARK SMILES IDX 10 77 11 78 12 79 16 80 13 81 15 82 14 83 17 84 18 85 19 86
REMARK SMILES IDX 20 87 27 88 21 89 26 90 22 91 25 92 23 93 24 94
REMARK H PARENT 3 6 84 24 52 35 8 76
REMARK Flexibility Score: inf
ROOT
ATOM      1  C   UNL A   1      35.503  22.018  26.203  1.00  0.00     0.023 C 
ENDROOT
BRANCH   1   2
ATOM      2  C   UNL A   1      36.708  22.113  25.278  1.00  0.00     0.116 C 
BRANCH   2   3
ATOM      3  N   UNL A   1      37.656  21.015  25.423  1.00  0.00    -0.352 N 
ATOM      4  O   UNL A   1      39.631  20.058  25.965  1.00  0.00    -0.269 OA
ATOM      5  C   UNL A   1      38.919  21.057  25.966  1.00  0.00     0.251 C 
ATOM      6  H   UNL A   1      37.356  20.138  25.092  1.00  0.00     0.163 HD
BRANCH   5   7
ATOM      7  C   UNL A   1      39.407  22.343  26.499  1.00  0.00     0.039 A 
ATOM      8  C   UNL A   1      38.904  23.543  25.990  1.00  0.00     0.014 A 
ATOM      9  C   UNL A   1      40.443  22.344  27.436  1.00  0.00     0.014 A 
ATOM     10  C   UNL A   1      39.544  24.735  26.295  1.00  0.00     0.010 A 
ATOM     11  C   UNL A   1      41.027  23.556  27.808  1.00  0.00     0.010 A 
ATOM     12  C   UNL A   1      40.610  24.755  27.208  1.00  0.00    -0.014 A 
BRANCH  12  13
ATOM     13  C   UNL A   1      41.240  26.048  27.564  1.00  0.00     0.031 A 
ATOM     14  C   UNL A   1      42.648  26.371  27.149  1.00  0.00     0.074 A 
ATOM     15  C   UNL A   1      40.518  26.935  28.275  1.00  0.00     0.049 A 
ATOM     16  N   UNL A   1      43.349  27.447  27.397  1.00  0.00    -0.248 NA
ATOM     17  C   UNL A   1      43.368  25.356  26.363  1.00  0.00     0.031 C 
ATOM     18  C   UNL A   1      39.152  26.709  28.757  1.00  0.00     0.029 A 
ATOM     19  N   UNL A   1      40.824  28.194  28.720  1.00  0.00    -0.354 N 
ATOM     20  C   UNL A   1      44.604  27.224  26.844  1.00  0.00     0.074 A 
ATOM     21  C   UNL A   1      44.569  25.907  26.242  1.00  0.00     0.031 C 
ATOM     22  C   UNL A   1      38.731  27.799  29.411  1.00  0.00     0.029 A 
ATOM     23  C   UNL A   1      39.812  28.777  29.445  1.00  0.00     0.049 A 
ATOM     24  H   UNL A   1      41.683  28.638  28.538  1.00  0.00     0.167 HD
ATOM     25  C   UNL A   1      45.680  28.046  26.829  1.00  0.00     0.034 A 
ATOM     26  C   UNL A   1      39.764  29.959  30.086  1.00  0.00     0.034 A 
ATOM     27  C   UNL A   1      45.687  29.372  27.389  1.00  0.00     0.049 A 
ATOM     28  C   UNL A   1      40.957  30.865  30.022  1.00  0.00     0.074 A 
ATOM     29  C   UNL A   1      46.706  30.308  27.373  1.00  0.00     0.029 A 
ATOM     30  N   UNL A   1      44.624  29.951  28.068  1.00  0.00    -0.354 N 
ATOM     31  N   UNL A   1      42.097  30.679  29.401  1.00  0.00    -0.248 NA
ATOM     32  C   UNL A   1      40.854  32.151  30.723  1.00  0.00     0.031 C 
ATOM     33  C   UNL A   1      46.262  31.450  28.049  1.00  0.00     0.029 A 
ATOM     34  C   UNL A   1      44.962  31.230  28.478  1.00  0.00     0.049 A 
ATOM     35  H   UNL A   1      43.756  29.517  28.233  1.00  0.00     0.167 HD
ATOM     36  C   UNL A   1      42.841  31.829  29.619  1.00  0.00     0.074 A 
ATOM     37  C   UNL A   1      42.011  32.718  30.408  1.00  0.00     0.031 C 
ATOM     38  C   UNL A   1      44.105  32.117  29.222  1.00  0.00     0.034 A 
BRANCH  25  39
ATOM     39  C   UNL A   1      46.931  27.556  26.149  1.00  0.00     0.023 A 
ATOM     40  C   UNL A   1      47.845  26.760  26.869  1.00  0.00     0.012 A 
ATOM     41  C   UNL A   1      47.171  27.823  24.787  1.00  0.00     0.148 A 
ATOM     42  C   UNL A   1      48.990  26.258  26.251  1.00  0.00     0.002 A 
ATOM     43  C   UNL A   1      48.299  27.290  24.169  1.00  0.00     0.091 A 
ATOM     44  F   UNL A   1      46.306  28.604  24.124  1.00  0.00    -0.205 F 
ATOM     45  C   UNL A   1      49.211  26.514  24.900  1.00  0.00     0.022 A 
BRANCH  43  46
ATOM     46  S   UNL A   1      48.624  27.513  22.415  1.00  0.00     0.127 S 
ATOM     47  O   UNL A   1      47.471  28.310  22.000  1.00  0.00    -0.237 OA
ATOM     48  O   UNL A   1      49.895  28.241  22.421  1.00  0.00    -0.237 OA
ATOM     49  O   UNL A   1      48.702  26.173  21.855  1.00  0.00    -0.744 OA
ENDBRANCH  43  46
ENDBRANCH  25  39
BRANCH  26  50
ATOM     50  C   UNL A   1      38.514  30.350  30.794  1.00  0.00     0.023 A 
ATOM     51  C   UNL A   1      38.384  30.079  32.169  1.00  0.00     0.012 A 
ATOM     52  C   UNL A   1      37.501  31.076  30.136  1.00  0.00     0.148 A 
ATOM     53  C   UNL A   1      37.261  30.514  32.873  1.00  0.00     0.002 A 
ATOM     54  C   UNL A   1      36.416  31.559  30.858  1.00  0.00     0.091 A 
ATOM     55  F   UNL A   1      37.636  31.308  28.822  1.00  0.00    -0.205 F 
ATOM     56  C   UNL A   1      36.287  31.267  32.223  1.00  0.00     0.022 A 
BRANCH  54  57
ATOM     57  S   UNL A   1      35.209  32.672  30.127  1.00  0.00     0.127 S 
ATOM     58  O   UNL A   1      34.594  31.822  29.112  1.00  0.00    -0.237 OA
ATOM     59  O   UNL A   1      34.350  32.985  31.272  1.00  0.00    -0.237 OA
ATOM     60  O   UNL A   1      35.977  33.807  29.634  1.00  0.00    -0.744 OA
ENDBRANCH  54  57
ENDBRANCH  26  50
BRANCH  38  61
ATOM     61  C   UNL A   1      44.665  33.454  29.623  1.00  0.00     0.023 A 
ATOM     62  C   UNL A   1      45.388  33.568  30.826  1.00  0.00     0.012 A 
ATOM     63  C   UNL A   1      44.534  34.574  28.780  1.00  0.00     0.148 A 
ATOM     64  C   UNL A   1      45.953  34.787  31.198  1.00  0.00     0.002 A 
ATOM     65  C   UNL A   1      45.134  35.775  29.138  1.00  0.00     0.091 A 
ATOM     66  F   UNL A   1      43.820  34.449  27.653  1.00  0.00    -0.205 F 
ATOM     67  C   UNL A   1      45.836  35.886  30.350  1.00  0.00     0.022 A 
BRANCH  65  68
ATOM     68  S   UNL A   1      45.102  37.215  28.064  1.00  0.00     0.127 S 
ATOM     69  O   UNL A   1      46.035  38.114  28.740  1.00  0.00    -0.237 OA
ATOM     70  O   UNL A   1      45.590  36.671  26.795  1.00  0.00    -0.237 OA
ATOM     71  O   UNL A   1      43.713  37.654  28.032  1.00  0.00    -0.744 OA
ENDBRANCH  65  68
ENDBRANCH  38  61
ENDBRANCH  12  13
ENDBRANCH   5   7
ENDBRANCH   2   3
ENDBRANCH   1   2
BRANCH   1  72
ATOM     72  C   UNL A   1      34.202  22.543  25.606  1.00  0.00     0.023 C 
BRANCH  72  73
ATOM     73  C   UNL A   1      34.331  23.852  24.835  1.00  0.00     0.116 C 
BRANCH  73  74
ATOM     74  N   UNL A   1      34.115  23.677  23.419  1.00  0.00    -0.354 N 
ATOM     75  C   UNL A   1      33.135  24.097  22.578  1.00  0.00     0.242 C 
ATOM     76  H   UNL A   1      34.816  23.148  22.975  1.00  0.00     0.163 HD
ATOM     77  O   UNL A   1      33.298  23.778  21.390  1.00  0.00    -0.273 OA
BRANCH  75  78
ATOM     78  C   UNL A   1      31.815  24.822  22.995  1.00  0.00     0.174 C 
ATOM     79  C   UNL A   1      30.801  23.759  23.453  1.00  0.00     0.035 C 
ATOM     80  N   UNL A   1      31.810  26.008  23.871  1.00  0.00    -0.325 N 
ATOM     81  C   UNL A   1      30.971  23.427  24.924  1.00  0.00     0.004 C 
ATOM     82  C   UNL A   1      31.574  25.867  25.312  1.00  0.00     0.121 C 
ATOM     83  C   UNL A   1      30.725  24.677  25.746  1.00  0.00     0.022 C 
BRANCH  80  84
ATOM     84  C   UNL A   1      32.191  27.228  23.283  1.00  0.00     0.274 C 
ATOM     85  O   UNL A   1      33.361  27.485  23.007  1.00  0.00    -0.267 OA
BRANCH  84  86
ATOM     86  C   UNL A   1      31.155  28.255  23.141  1.00  0.00     0.147 A 
ATOM     87  C   UNL A   1      30.952  29.303  24.020  1.00  0.00     0.127 A 
ATOM     88  N   UNL A   1      30.238  28.311  22.105  1.00  0.00    -0.223 NA
ATOM     89  N   UNL A   1      29.883  30.002  23.529  1.00  0.00    -0.306 N 
ATOM     90  C   UNL A   1      29.511  29.386  22.340  1.00  0.00     0.137 A 
ATOM     91  C   UNL A   1      29.237  31.115  24.059  1.00  0.00     0.093 A 
ATOM     92  C   UNL A   1      28.442  29.984  21.611  1.00  0.00     0.048 A 
ATOM     93  C   UNL A   1      28.209  31.657  23.384  1.00  0.00     0.018 A 
ATOM     94  C   UNL A   1      27.821  31.072  22.108  1.00  0.00     0.005 A 
ENDBRANCH  84  86
ENDBRANCH  80  84
ENDBRANCH  75  78
ENDBRANCH  73  74
ENDBRANCH  72  73
ENDBRANCH   1  72
TORSDOF 16
ENDMDL
