MODEL 1
REMARK VINA RESULT:     -11.0      0.000      0.000
REMARK SMILES O=C(CC1(NS(=O)(=O)C[C@H]2CCCO2)CCC1)NCCCCNC(=O)c1ccc(-c2c3nc(c(-c4cccc(S(=O)(=O)[O-])c4F)c4ccc([nH]4)c(-c4cccc(S(=O)(=O)[O-])c4F)c4nc(c(-c5cccc(S(=O)(=O)[O-])c5F)c5ccc2[nH]5)C=C4)C=C3)cc1
REMARK SMILES IDX 19 1 18 2 1 3 2 4 3 6 4 7 15 8 17 9 16 10 5 11 6 13 7 14
REMARK SMILES IDX 8 15 9 16 10 17 11 18 14 19 12 20 13 21 20 22 21 23 22 24
REMARK SMILES IDX 23 25 24 26 25 28 26 29 27 30 88 31 28 32 87 33 29 34 30 35
REMARK SMILES IDX 31 36 81 37 32 38 86 39 80 40 82 41 33 42 85 43 79 44 78 45
REMARK SMILES IDX 34 47 66 48 46 49 65 50 47 51 50 52 64 53 83 54 48 55 49 56
REMARK SMILES IDX 63 58 84 59 51 60 35 61 36 62 44 63 37 64 39 65 45 66 38 67
REMARK SMILES IDX 40 68 41 69 42 70 43 71 67 72 68 73 76 74 69 75 71 76 77 77
REMARK SMILES IDX 70 78 72 79 73 80 74 81 75 82 52 83 53 84 61 85 54 86 56 87
REMARK SMILES IDX 62 88 55 89 57 90 58 91 59 92 60 93
REMARK H PARENT 18 5 5 12 23 27 82 46 50 57
REMARK Flexibility Score: inf
ROOT
ATOM      1  C   UNL A   1      33.219  29.941  26.486  1.00  0.00     0.116 C 
ENDROOT
BRANCH   1   2
ATOM      2  N   UNL A   1      33.373  28.616  25.924  1.00  0.00    -0.356 N 
ATOM      3  O   UNL A   1      33.623  29.314  23.744  1.00  0.00    -0.275 OA
ATOM      4  C   UNL A   1      33.566  28.414  24.576  1.00  0.00     0.221 C 
ATOM      5  H   UNL A   1      33.338  27.836  26.524  1.00  0.00     0.163 HD
BRANCH   4   6
ATOM      6  C   UNL A   1      33.664  26.962  24.190  1.00  0.00     0.123 C 
BRANCH   6   7
ATOM      7  C   UNL A   1      32.785  26.507  23.020  1.00  0.00     0.042 C 
ATOM      8  C   UNL A   1      33.492  26.598  21.625  1.00  0.00     0.024 C 
ATOM      9  C   UNL A   1      32.733  24.955  22.750  1.00  0.00     0.024 C 
ATOM     10  C   UNL A   1      32.855  25.251  21.250  1.00  0.00     0.004 C 
BRANCH   7  11
ATOM     11  N   UNL A   1      31.424  27.158  23.115  1.00  0.00    -0.208 NA
ATOM     12  H   UNL A   1      31.055  27.094  22.167  1.00  0.00     0.141 HD
BRANCH  11  13
ATOM     13  S   UNL A   1      30.109  26.802  24.085  1.00  0.00     0.214 S 
ATOM     14  O   UNL A   1      29.759  25.418  23.848  1.00  0.00    -0.212 OA
ATOM     15  O   UNL A   1      30.461  27.244  25.417  1.00  0.00    -0.212 OA
BRANCH  13  16
ATOM     16  C   UNL A   1      28.754  27.788  23.484  1.00  0.00     0.185 C 
BRANCH  16  17
ATOM     17  C   UNL A   1      29.054  29.083  22.731  1.00  0.00     0.134 C 
ATOM     18  C   UNL A   1      27.817  29.878  22.338  1.00  0.00     0.035 C 
ATOM     19  O   UNL A   1      29.920  29.988  23.424  1.00  0.00    -0.377 OA
ATOM     20  C   UNL A   1      27.715  30.899  23.437  1.00  0.00     0.031 C 
ATOM     21  C   UNL A   1      29.168  31.173  23.762  1.00  0.00     0.160 C 
ENDBRANCH  16  17
ENDBRANCH  13  16
ENDBRANCH  11  13
ENDBRANCH   7  11
ENDBRANCH   6   7
ENDBRANCH   4   6
ENDBRANCH   1   2
BRANCH   1  22
ATOM     22  C   UNL A   1      31.766  30.406  26.465  1.00  0.00     0.023 C 
BRANCH  22  23
ATOM     23  C   UNL A   1      31.550  31.882  26.809  1.00  0.00     0.023 C 
BRANCH  23  24
ATOM     24  C   UNL A   1      32.778  32.621  27.335  1.00  0.00     0.116 C 
BRANCH  24  25
ATOM     25  N   UNL A   1      32.508  34.015  27.654  1.00  0.00    -0.352 N 
ATOM     26  C   UNL A   1      33.098  34.829  28.592  1.00  0.00     0.251 C 
ATOM     27  H   UNL A   1      31.799  34.437  27.119  1.00  0.00     0.163 HD
ATOM     28  O   UNL A   1      32.630  35.945  28.808  1.00  0.00    -0.269 OA
BRANCH  26  29
ATOM     29  C   UNL A   1      34.271  34.358  29.363  1.00  0.00     0.039 A 
ATOM     30  C   UNL A   1      34.060  33.741  30.599  1.00  0.00     0.014 A 
ATOM     31  C   UNL A   1      35.570  34.520  28.877  1.00  0.00     0.014 A 
ATOM     32  C   UNL A   1      35.146  33.225  31.312  1.00  0.00     0.010 A 
ATOM     33  C   UNL A   1      36.640  33.935  29.550  1.00  0.00     0.010 A 
ATOM     34  C   UNL A   1      36.443  33.282  30.776  1.00  0.00    -0.014 A 
BRANCH  34  35
ATOM     35  C   UNL A   1      37.595  32.645  31.469  1.00  0.00     0.031 A 
ATOM     36  C   UNL A   1      38.318  31.484  30.842  1.00  0.00     0.074 A 
ATOM     37  C   UNL A   1      37.938  33.059  32.706  1.00  0.00     0.049 A 
ATOM     38  N   UNL A   1      39.306  30.772  31.322  1.00  0.00    -0.248 NA
ATOM     39  C   UNL A   1      37.859  31.049  29.514  1.00  0.00     0.031 C 
ATOM     40  C   UNL A   1      37.270  34.125  33.457  1.00  0.00     0.029 A 
ATOM     41  N   UNL A   1      38.916  32.616  33.562  1.00  0.00    -0.354 N 
ATOM     42  C   UNL A   1      39.562  29.787  30.375  1.00  0.00     0.074 A 
ATOM     43  C   UNL A   1      38.603  29.971  29.309  1.00  0.00     0.031 C 
ATOM     44  C   UNL A   1      37.860  34.255  34.656  1.00  0.00     0.029 A 
ATOM     45  C   UNL A   1      38.922  33.261  34.776  1.00  0.00     0.049 A 
ATOM     46  H   UNL A   1      39.555  31.904  33.327  1.00  0.00     0.167 HD
ATOM     47  C   UNL A   1      40.522  28.832  30.380  1.00  0.00     0.034 A 
ATOM     48  C   UNL A   1      39.683  33.069  35.872  1.00  0.00     0.034 A 
ATOM     49  C   UNL A   1      41.494  28.668  31.428  1.00  0.00     0.049 A 
ATOM     50  C   UNL A   1      40.757  32.015  35.842  1.00  0.00     0.074 A 
ATOM     51  C   UNL A   1      42.558  27.786  31.483  1.00  0.00     0.029 A 
ATOM     52  N   UNL A   1      41.512  29.389  32.612  1.00  0.00    -0.354 N 
ATOM     53  N   UNL A   1      41.082  31.195  34.873  1.00  0.00    -0.248 NA
ATOM     54  C   UNL A   1      41.593  31.884  37.045  1.00  0.00     0.031 C 
ATOM     55  C   UNL A   1      43.197  27.946  32.717  1.00  0.00     0.029 A 
ATOM     56  C   UNL A   1      42.558  28.960  33.412  1.00  0.00     0.049 A 
ATOM     57  H   UNL A   1      40.875  30.101  32.849  1.00  0.00     0.167 HD
ATOM     58  C   UNL A   1      42.182  30.478  35.331  1.00  0.00     0.074 A 
ATOM     59  C   UNL A   1      42.479  30.975  36.659  1.00  0.00     0.031 C 
ATOM     60  C   UNL A   1      42.875  29.491  34.713  1.00  0.00     0.034 A 
BRANCH  47  61
ATOM     61  C   UNL A   1      40.595  27.906  29.191  1.00  0.00     0.023 A 
ATOM     62  C   UNL A   1      39.747  26.782  29.126  1.00  0.00     0.012 A 
ATOM     63  C   UNL A   1      41.460  28.181  28.113  1.00  0.00     0.148 A 
ATOM     64  C   UNL A   1      39.788  25.922  28.028  1.00  0.00     0.002 A 
ATOM     65  C   UNL A   1      41.460  27.347  27.001  1.00  0.00     0.091 A 
ATOM     66  F   UNL A   1      42.272  29.245  28.199  1.00  0.00    -0.205 F 
ATOM     67  C   UNL A   1      40.635  26.211  26.963  1.00  0.00     0.022 A 
BRANCH  65  68
ATOM     68  S   UNL A   1      42.453  27.677  25.541  1.00  0.00     0.127 S 
ATOM     69  O   UNL A   1      43.799  27.735  26.107  1.00  0.00    -0.237 OA
ATOM     70  O   UNL A   1      42.188  26.497  24.717  1.00  0.00    -0.237 OA
ATOM     71  O   UNL A   1      41.954  28.929  24.989  1.00  0.00    -0.744 OA
ENDBRANCH  65  68
ENDBRANCH  47  61
BRANCH  48  72
ATOM     72  C   UNL A   1      39.489  33.928  37.074  1.00  0.00     0.023 A 
ATOM     73  C   UNL A   1      39.926  35.267  37.051  1.00  0.00     0.012 A 
ATOM     74  C   UNL A   1      38.854  33.433  38.230  1.00  0.00     0.148 A 
ATOM     75  C   UNL A   1      39.767  36.086  38.168  1.00  0.00     0.002 A 
ATOM     76  C   UNL A   1      38.645  34.273  39.319  1.00  0.00     0.091 A 
ATOM     77  F   UNL A   1      38.453  32.154  38.236  1.00  0.00    -0.205 F 
ATOM     78  C   UNL A   1      39.119  35.594  39.297  1.00  0.00     0.022 A 
BRANCH  76  79
ATOM     79  S   UNL A   1      37.700  33.765  40.760  1.00  0.00     0.127 S 
ATOM     80  O   UNL A   1      38.611  32.817  41.396  1.00  0.00    -0.237 OA
ATOM     81  O   UNL A   1      37.533  35.034  41.470  1.00  0.00    -0.237 OA
ATOM     82  O   UNL A   1      36.461  33.201  40.242  1.00  0.00    -0.744 OA
ENDBRANCH  76  79
ENDBRANCH  48  72
BRANCH  60  83
ATOM     83  C   UNL A   1      44.059  28.904  35.439  1.00  0.00     0.023 A 
ATOM     84  C   UNL A   1      45.338  29.471  35.281  1.00  0.00     0.012 A 
ATOM     85  C   UNL A   1      43.885  27.830  36.335  1.00  0.00     0.148 A 
ATOM     86  C   UNL A   1      46.433  28.956  35.976  1.00  0.00     0.002 A 
ATOM     87  C   UNL A   1      44.970  27.357  37.064  1.00  0.00     0.091 A 
ATOM     88  F   UNL A   1      42.663  27.292  36.460  1.00  0.00    -0.205 F 
ATOM     89  C   UNL A   1      46.247  27.908  36.875  1.00  0.00     0.022 A 
BRANCH  87  90
ATOM     90  S   UNL A   1      44.808  26.079  38.316  1.00  0.00     0.127 S 
ATOM     91  O   UNL A   1      43.537  26.436  38.945  1.00  0.00    -0.237 OA
ATOM     92  O   UNL A   1      44.767  24.860  37.508  1.00  0.00    -0.237 OA
ATOM     93  O   UNL A   1      45.982  26.200  39.171  1.00  0.00    -0.744 OA
ENDBRANCH  87  90
ENDBRANCH  60  83
ENDBRANCH  34  35
ENDBRANCH  26  29
ENDBRANCH  24  25
ENDBRANCH  23  24
ENDBRANCH  22  23
ENDBRANCH   1  22
TORSDOF 19
ENDMDL
MODEL 2
REMARK VINA RESULT:     -10.9      4.266      9.510
REMARK SMILES O=C(CC1(NS(=O)(=O)C[C@H]2CCCO2)CCC1)NCCCCNC(=O)c1ccc(-c2c3nc(c(-c4cccc(S(=O)(=O)[O-])c4F)c4ccc([nH]4)c(-c4cccc(S(=O)(=O)[O-])c4F)c4nc(c(-c5cccc(S(=O)(=O)[O-])c5F)c5ccc2[nH]5)C=C4)C=C3)cc1
REMARK SMILES IDX 19 1 18 2 1 3 2 4 3 6 4 7 15 8 17 9 16 10 5 11 6 13 7 14
REMARK SMILES IDX 8 15 9 16 10 17 11 18 14 19 12 20 13 21 20 22 21 23 22 24
REMARK SMILES IDX 23 25 24 26 25 28 26 29 27 30 88 31 28 32 87 33 29 34 30 35
REMARK SMILES IDX 31 36 81 37 32 38 86 39 80 40 82 41 33 42 85 43 79 44 78 45
REMARK SMILES IDX 34 47 66 48 46 49 65 50 47 51 50 52 64 53 83 54 48 55 49 56
REMARK SMILES IDX 63 58 84 59 51 60 35 61 36 62 44 63 37 64 39 65 45 66 38 67
REMARK SMILES IDX 40 68 41 69 42 70 43 71 67 72 68 73 76 74 69 75 71 76 77 77
REMARK SMILES IDX 70 78 72 79 73 80 74 81 75 82 52 83 53 84 61 85 54 86 56 87
REMARK SMILES IDX 62 88 55 89 57 90 58 91 59 92 60 93
REMARK H PARENT 18 5 5 12 23 27 82 46 50 57
REMARK Flexibility Score: inf
ROOT
ATOM      1  C   UNL A   1      32.558  26.605  25.305  1.00  0.00     0.116 C 
ENDROOT
BRANCH   1   2
ATOM      2  N   UNL A   1      33.647  25.746  25.718  1.00  0.00    -0.356 N 
ATOM      3  O   UNL A   1      34.073  24.885  23.625  1.00  0.00    -0.275 OA
ATOM      4  C   UNL A   1      34.324  24.946  24.824  1.00  0.00     0.221 C 
ATOM      5  H   UNL A   1      33.913  25.733  26.666  1.00  0.00     0.163 HD
BRANCH   4   6
ATOM      6  C   UNL A   1      35.395  24.101  25.460  1.00  0.00     0.123 C 
BRANCH   6   7
ATOM      7  C   UNL A   1      35.567  22.684  24.902  1.00  0.00     0.042 C 
ATOM      8  C   UNL A   1      36.657  22.573  23.783  1.00  0.00     0.024 C 
ATOM      9  C   UNL A   1      36.498  21.718  25.728  1.00  0.00     0.024 C 
ATOM     10  C   UNL A   1      37.115  21.245  24.406  1.00  0.00     0.004 C 
BRANCH   7  11
ATOM     11  N   UNL A   1      34.215  22.096  24.569  1.00  0.00    -0.208 NA
ATOM     12  H   UNL A   1      34.437  21.281  23.995  1.00  0.00     0.141 HD
BRANCH  11  13
ATOM     13  S   UNL A   1      32.980  21.564  25.564  1.00  0.00     0.214 S 
ATOM     14  O   UNL A   1      33.140  22.225  26.841  1.00  0.00    -0.212 OA
ATOM     15  O   UNL A   1      31.757  21.729  24.809  1.00  0.00    -0.212 OA
BRANCH  13  16
ATOM     16  C   UNL A   1      33.262  19.828  25.840  1.00  0.00     0.185 C 
BRANCH  16  17
ATOM     17  C   UNL A   1      32.964  18.838  24.716  1.00  0.00     0.134 C 
ATOM     18  C   UNL A   1      34.185  18.092  24.199  1.00  0.00     0.035 C 
ATOM     19  O   UNL A   1      31.985  17.844  25.042  1.00  0.00    -0.377 OA
ATOM     20  C   UNL A   1      34.123  16.791  24.950  1.00  0.00     0.031 C 
ATOM     21  C   UNL A   1      32.633  16.555  25.068  1.00  0.00     0.160 C 
ENDBRANCH  16  17
ENDBRANCH  13  16
ENDBRANCH  11  13
ENDBRANCH   7  11
ENDBRANCH   6   7
ENDBRANCH   4   6
ENDBRANCH   1   2
BRANCH   1  22
ATOM     22  C   UNL A   1      33.050  27.978  24.857  1.00  0.00     0.023 C 
BRANCH  22  23
ATOM     23  C   UNL A   1      34.010  28.672  25.825  1.00  0.00     0.023 C 
BRANCH  23  24
ATOM     24  C   UNL A   1      33.451  28.958  27.217  1.00  0.00     0.116 C 
BRANCH  24  25
ATOM     25  N   UNL A   1      33.510  30.367  27.575  1.00  0.00    -0.352 N 
ATOM     26  C   UNL A   1      34.487  31.059  28.251  1.00  0.00     0.251 C 
ATOM     27  H   UNL A   1      32.737  30.905  27.290  1.00  0.00     0.163 HD
ATOM     28  O   UNL A   1      34.287  32.226  28.581  1.00  0.00    -0.269 OA
BRANCH  26  29
ATOM     29  C   UNL A   1      35.763  30.398  28.608  1.00  0.00     0.039 A 
ATOM     30  C   UNL A   1      36.852  30.522  27.740  1.00  0.00     0.014 A 
ATOM     31  C   UNL A   1      35.891  29.659  29.786  1.00  0.00     0.014 A 
ATOM     32  C   UNL A   1      38.086  29.966  28.089  1.00  0.00     0.010 A 
ATOM     33  C   UNL A   1      37.140  29.175  30.169  1.00  0.00     0.010 A 
ATOM     34  C   UNL A   1      38.252  29.321  29.326  1.00  0.00    -0.014 A 
BRANCH  34  35
ATOM     35  C   UNL A   1      39.582  28.816  29.761  1.00  0.00     0.031 A 
ATOM     36  C   UNL A   1      40.352  29.524  30.843  1.00  0.00     0.074 A 
ATOM     37  C   UNL A   1      40.136  27.766  29.122  1.00  0.00     0.049 A 
ATOM     38  N   UNL A   1      41.544  29.260  31.313  1.00  0.00    -0.248 NA
ATOM     39  C   UNL A   1      39.711  30.695  31.462  1.00  0.00     0.031 C 
ATOM     40  C   UNL A   1      39.528  27.037  28.007  1.00  0.00     0.029 A 
ATOM     41  N   UNL A   1      41.349  27.145  29.300  1.00  0.00    -0.354 N 
ATOM     42  C   UNL A   1      41.811  30.248  32.254  1.00  0.00     0.074 A 
ATOM     43  C   UNL A   1      40.670  31.138  32.263  1.00  0.00     0.031 C 
ATOM     44  C   UNL A   1      40.366  26.068  27.604  1.00  0.00     0.029 A 
ATOM     45  C   UNL A   1      41.585  26.128  28.405  1.00  0.00     0.049 A 
ATOM     46  H   UNL A   1      41.988  27.404  30.002  1.00  0.00     0.167 HD
ATOM     47  C   UNL A   1      42.894  30.391  33.055  1.00  0.00     0.034 A 
ATOM     48  C   UNL A   1      42.664  25.339  28.233  1.00  0.00     0.034 A 
ATOM     49  C   UNL A   1      44.016  29.489  33.065  1.00  0.00     0.049 A 
ATOM     50  C   UNL A   1      43.846  25.503  29.151  1.00  0.00     0.074 A 
ATOM     51  C   UNL A   1      45.120  29.500  33.899  1.00  0.00     0.029 A 
ATOM     52  N   UNL A   1      44.186  28.426  32.192  1.00  0.00    -0.354 N 
ATOM     53  N   UNL A   1      44.012  26.349  30.139  1.00  0.00    -0.248 NA
ATOM     54  C   UNL A   1      44.974  24.582  28.954  1.00  0.00     0.031 C 
ATOM     55  C   UNL A   1      45.977  28.468  33.505  1.00  0.00     0.029 A 
ATOM     56  C   UNL A   1      45.384  27.785  32.455  1.00  0.00     0.049 A 
ATOM     57  H   UNL A   1      43.548  28.166  31.489  1.00  0.00     0.167 HD
ATOM     58  C   UNL A   1      45.243  26.038  30.705  1.00  0.00     0.074 A 
ATOM     59  C   UNL A   1      45.771  24.913  29.961  1.00  0.00     0.031 C 
ATOM     60  C   UNL A   1      45.883  26.637  31.739  1.00  0.00     0.034 A 
BRANCH  47  61
ATOM     61  C   UNL A   1      42.904  31.549  34.021  1.00  0.00     0.023 A 
ATOM     62  C   UNL A   1      43.478  32.778  33.634  1.00  0.00     0.012 A 
ATOM     63  C   UNL A   1      42.296  31.440  35.287  1.00  0.00     0.148 A 
ATOM     64  C   UNL A   1      43.483  33.866  34.508  1.00  0.00     0.002 A 
ATOM     65  C   UNL A   1      42.261  32.543  36.132  1.00  0.00     0.091 A 
ATOM     66  F   UNL A   1      41.770  30.259  35.645  1.00  0.00    -0.205 F 
ATOM     67  C   UNL A   1      42.866  33.752  35.750  1.00  0.00     0.022 A 
BRANCH  65  68
ATOM     68  S   UNL A   1      41.419  32.525  37.718  1.00  0.00     0.127 S 
ATOM     69  O   UNL A   1      42.228  31.568  38.470  1.00  0.00    -0.237 OA
ATOM     70  O   UNL A   1      41.556  33.915  38.154  1.00  0.00    -0.237 OA
ATOM     71  O   UNL A   1      40.051  32.106  37.444  1.00  0.00    -0.744 OA
ENDBRANCH  65  68
ENDBRANCH  47  61
BRANCH  48  72
ATOM     72  C   UNL A   1      42.658  24.287  27.178  1.00  0.00     0.023 A 
ATOM     73  C   UNL A   1      43.311  24.526  25.953  1.00  0.00     0.012 A 
ATOM     74  C   UNL A   1      42.030  23.044  27.390  1.00  0.00     0.148 A 
ATOM     75  C   UNL A   1      43.309  23.561  24.945  1.00  0.00     0.002 A 
ATOM     76  C   UNL A   1      42.082  22.065  26.404  1.00  0.00     0.091 A 
ATOM     77  F   UNL A   1      41.407  22.840  28.559  1.00  0.00    -0.205 F 
ATOM     78  C   UNL A   1      42.704  22.329  25.173  1.00  0.00     0.022 A 
BRANCH  76  79
ATOM     79  S   UNL A   1      41.450  20.404  26.663  1.00  0.00     0.127 S 
ATOM     80  O   UNL A   1      41.829  19.742  25.417  1.00  0.00    -0.237 OA
ATOM     81  O   UNL A   1      42.203  19.977  27.843  1.00  0.00    -0.237 OA
ATOM     82  O   UNL A   1      40.018  20.555  26.887  1.00  0.00    -0.744 OA
ENDBRANCH  76  79
ENDBRANCH  48  72
BRANCH  60  83
ATOM     83  C   UNL A   1      47.209  26.065  32.170  1.00  0.00     0.023 A 
ATOM     84  C   UNL A   1      48.401  26.508  31.564  1.00  0.00     0.012 A 
ATOM     85  C   UNL A   1      47.276  25.137  33.229  1.00  0.00     0.148 A 
ATOM     86  C   UNL A   1      49.636  26.010  31.980  1.00  0.00     0.002 A 
ATOM     87  C   UNL A   1      48.513  24.686  33.674  1.00  0.00     0.091 A 
ATOM     88  F   UNL A   1      46.130  24.714  33.782  1.00  0.00    -0.205 F 
ATOM     89  C   UNL A   1      49.692  25.109  33.041  1.00  0.00     0.022 A 
BRANCH  87  90
ATOM     90  S   UNL A   1      48.691  23.603  35.096  1.00  0.00     0.127 S 
ATOM     91  O   UNL A   1      47.931  22.428  34.674  1.00  0.00    -0.237 OA
ATOM     92  O   UNL A   1      50.139  23.405  35.154  1.00  0.00    -0.237 OA
ATOM     93  O   UNL A   1      48.134  24.331  36.229  1.00  0.00    -0.744 OA
ENDBRANCH  87  90
ENDBRANCH  60  83
ENDBRANCH  34  35
ENDBRANCH  26  29
ENDBRANCH  24  25
ENDBRANCH  23  24
ENDBRANCH  22  23
ENDBRANCH   1  22
TORSDOF 19
ENDMDL
MODEL 3
REMARK VINA RESULT:     -10.8      3.233      4.819
REMARK SMILES O=C(CC1(NS(=O)(=O)C[C@H]2CCCO2)CCC1)NCCCCNC(=O)c1ccc(-c2c3nc(c(-c4cccc(S(=O)(=O)[O-])c4F)c4ccc([nH]4)c(-c4cccc(S(=O)(=O)[O-])c4F)c4nc(c(-c5cccc(S(=O)(=O)[O-])c5F)c5ccc2[nH]5)C=C4)C=C3)cc1
REMARK SMILES IDX 19 1 18 2 1 3 2 4 3 6 4 7 15 8 17 9 16 10 5 11 6 13 7 14
REMARK SMILES IDX 8 15 9 16 10 17 11 18 14 19 12 20 13 21 20 22 21 23 22 24
REMARK SMILES IDX 23 25 24 26 25 28 26 29 27 30 88 31 28 32 87 33 29 34 30 35
REMARK SMILES IDX 31 36 81 37 32 38 86 39 80 40 82 41 33 42 85 43 79 44 78 45
REMARK SMILES IDX 34 47 66 48 46 49 65 50 47 51 50 52 64 53 83 54 48 55 49 56
REMARK SMILES IDX 63 58 84 59 51 60 35 61 36 62 44 63 37 64 39 65 45 66 38 67
REMARK SMILES IDX 40 68 41 69 42 70 43 71 67 72 68 73 76 74 69 75 71 76 77 77
REMARK SMILES IDX 70 78 72 79 73 80 74 81 75 82 52 83 53 84 61 85 54 86 56 87
REMARK SMILES IDX 62 88 55 89 57 90 58 91 59 92 60 93
REMARK H PARENT 18 5 5 12 23 27 82 46 50 57
REMARK Flexibility Score: inf
ROOT
ATOM      1  C   UNL A   1      31.196  26.011  24.852  1.00  0.00     0.116 C 
ENDROOT
BRANCH   1   2
ATOM      2  N   UNL A   1      32.527  25.578  25.219  1.00  0.00    -0.356 N 
ATOM      3  O   UNL A   1      33.210  25.079  23.077  1.00  0.00    -0.275 OA
ATOM      4  C   UNL A   1      33.436  25.142  24.281  1.00  0.00     0.221 C 
ATOM      5  H   UNL A   1      32.791  25.596  26.167  1.00  0.00     0.163 HD
BRANCH   4   6
ATOM      6  C   UNL A   1      34.749  24.700  24.872  1.00  0.00     0.123 C 
BRANCH   6   7
ATOM      7  C   UNL A   1      34.991  23.188  24.939  1.00  0.00     0.042 C 
ATOM      8  C   UNL A   1      35.722  22.608  23.681  1.00  0.00     0.024 C 
ATOM      9  C   UNL A   1      36.268  22.723  25.737  1.00  0.00     0.024 C 
ATOM     10  C   UNL A   1      36.555  21.718  24.615  1.00  0.00     0.004 C 
BRANCH   7  11
ATOM     11  N   UNL A   1      33.721  22.482  25.349  1.00  0.00    -0.208 NA
ATOM     12  H   UNL A   1      33.102  23.239  25.640  1.00  0.00     0.141 HD
BRANCH  11  13
ATOM     13  S   UNL A   1      32.719  21.449  24.494  1.00  0.00     0.214 S 
ATOM     14  O   UNL A   1      31.460  21.383  25.204  1.00  0.00    -0.212 OA
ATOM     15  O   UNL A   1      32.757  21.901  23.120  1.00  0.00    -0.212 OA
BRANCH  13  16
ATOM     16  C   UNL A   1      33.455  19.831  24.594  1.00  0.00     0.185 C 
BRANCH  16  17
ATOM     17  C   UNL A   1      32.614  18.608  24.234  1.00  0.00     0.134 C 
ATOM     18  C   UNL A   1      33.282  17.657  23.252  1.00  0.00     0.035 C 
ATOM     19  O   UNL A   1      32.203  17.817  25.355  1.00  0.00    -0.377 OA
ATOM     20  C   UNL A   1      33.871  16.608  24.153  1.00  0.00     0.031 C 
ATOM     21  C   UNL A   1      32.854  16.532  25.272  1.00  0.00     0.160 C 
ENDBRANCH  16  17
ENDBRANCH  13  16
ENDBRANCH  11  13
ENDBRANCH   7  11
ENDBRANCH   6   7
ENDBRANCH   4   6
ENDBRANCH   1   2
BRANCH   1  22
ATOM     22  C   UNL A   1      30.977  27.494  25.135  1.00  0.00     0.023 C 
BRANCH  22  23
ATOM     23  C   UNL A   1      32.025  28.144  26.042  1.00  0.00     0.023 C 
BRANCH  23  24
ATOM     24  C   UNL A   1      32.781  29.322  25.434  1.00  0.00     0.116 C 
BRANCH  24  25
ATOM     25  N   UNL A   1      32.326  30.610  25.937  1.00  0.00    -0.352 N 
ATOM     26  C   UNL A   1      32.869  31.413  26.911  1.00  0.00     0.251 C 
ATOM     27  H   UNL A   1      31.507  30.957  25.516  1.00  0.00     0.163 HD
ATOM     28  O   UNL A   1      32.254  32.405  27.295  1.00  0.00    -0.269 OA
BRANCH  26  29
ATOM     29  C   UNL A   1      34.175  31.072  27.520  1.00  0.00     0.039 A 
ATOM     30  C   UNL A   1      35.140  32.075  27.649  1.00  0.00     0.014 A 
ATOM     31  C   UNL A   1      34.453  29.777  27.962  1.00  0.00     0.014 A 
ATOM     32  C   UNL A   1      36.354  31.794  28.284  1.00  0.00     0.010 A 
ATOM     33  C   UNL A   1      35.629  29.520  28.664  1.00  0.00     0.010 A 
ATOM     34  C   UNL A   1      36.594  30.524  28.833  1.00  0.00    -0.014 A 
BRANCH  34  35
ATOM     35  C   UNL A   1      37.833  30.237  29.604  1.00  0.00     0.031 A 
ATOM     36  C   UNL A   1      38.879  29.306  29.053  1.00  0.00     0.074 A 
ATOM     37  C   UNL A   1      37.979  30.752  30.842  1.00  0.00     0.049 A 
ATOM     38  N   UNL A   1      39.993  28.899  29.606  1.00  0.00    -0.248 NA
ATOM     39  C   UNL A   1      38.632  28.739  27.719  1.00  0.00     0.031 C 
ATOM     40  C   UNL A   1      37.005  31.608  31.523  1.00  0.00     0.029 A 
ATOM     41  N   UNL A   1      38.990  30.607  31.761  1.00  0.00    -0.354 N 
ATOM     42  C   UNL A   1      40.561  28.005  28.706  1.00  0.00     0.074 A 
ATOM     43  C   UNL A   1      39.651  27.901  27.587  1.00  0.00     0.031 C 
ATOM     44  C   UNL A   1      37.467  31.916  32.745  1.00  0.00     0.029 A 
ATOM     45  C   UNL A   1      38.750  31.251  32.952  1.00  0.00     0.049 A 
ATOM     46  H   UNL A   1      39.810  30.092  31.583  1.00  0.00     0.167 HD
ATOM     47  C   UNL A   1      41.742  27.347  28.791  1.00  0.00     0.034 A 
ATOM     48  C   UNL A   1      39.470  31.293  34.091  1.00  0.00     0.034 A 
ATOM     49  C   UNL A   1      42.660  27.473  29.892  1.00  0.00     0.049 A 
ATOM     50  C   UNL A   1      40.790  30.572  34.151  1.00  0.00     0.074 A 
ATOM     51  C   UNL A   1      43.919  26.915  30.030  1.00  0.00     0.029 A 
ATOM     52  N   UNL A   1      42.414  28.193  31.052  1.00  0.00    -0.354 N 
ATOM     53  N   UNL A   1      41.380  29.854  33.226  1.00  0.00    -0.248 NA
ATOM     54  C   UNL A   1      41.559  30.695  35.398  1.00  0.00     0.031 C 
ATOM     55  C   UNL A   1      44.418  27.265  31.289  1.00  0.00     0.029 A 
ATOM     56  C   UNL A   1      43.489  28.080  31.917  1.00  0.00     0.049 A 
ATOM     57  H   UNL A   1      41.595  28.709  31.232  1.00  0.00     0.167 HD
ATOM     58  C   UNL A   1      42.605  29.472  33.763  1.00  0.00     0.074 A 
ATOM     59  C   UNL A   1      42.679  30.055  35.088  1.00  0.00     0.031 C 
ATOM     60  C   UNL A   1      43.574  28.700  33.215  1.00  0.00     0.034 A 
BRANCH  47  61
ATOM     61  C   UNL A   1      42.132  26.455  27.639  1.00  0.00     0.023 A 
ATOM     62  C   UNL A   1      42.955  26.961  26.611  1.00  0.00     0.012 A 
ATOM     63  C   UNL A   1      41.733  25.105  27.602  1.00  0.00     0.148 A 
ATOM     64  C   UNL A   1      43.340  26.149  25.544  1.00  0.00     0.002 A 
ATOM     65  C   UNL A   1      42.162  24.289  26.561  1.00  0.00     0.091 A 
ATOM     66  F   UNL A   1      40.937  24.647  28.578  1.00  0.00    -0.205 F 
ATOM     67  C   UNL A   1      42.953  24.812  25.525  1.00  0.00     0.022 A 
BRANCH  65  68
ATOM     68  S   UNL A   1      41.787  22.534  26.488  1.00  0.00     0.127 S 
ATOM     69  O   UNL A   1      40.326  22.545  26.458  1.00  0.00    -0.237 OA
ATOM     70  O   UNL A   1      42.419  22.138  25.229  1.00  0.00    -0.237 OA
ATOM     71  O   UNL A   1      42.382  21.945  27.679  1.00  0.00    -0.744 OA
ENDBRANCH  65  68
ENDBRANCH  47  61
BRANCH  48  72
ATOM     72  C   UNL A   1      38.981  32.088  35.253  1.00  0.00     0.023 A 
ATOM     73  C   UNL A   1      39.068  33.494  35.220  1.00  0.00     0.012 A 
ATOM     74  C   UNL A   1      38.411  31.462  36.378  1.00  0.00     0.148 A 
ATOM     75  C   UNL A   1      38.629  34.259  36.300  1.00  0.00     0.002 A 
ATOM     76  C   UNL A   1      37.921  32.233  37.426  1.00  0.00     0.091 A 
ATOM     77  F   UNL A   1      38.345  30.123  36.393  1.00  0.00    -0.205 F 
ATOM     78  C   UNL A   1      38.047  33.631  37.398  1.00  0.00     0.022 A 
BRANCH  76  79
ATOM     79  S   UNL A   1      37.035  31.519  38.815  1.00  0.00     0.127 S 
ATOM     80  O   UNL A   1      38.003  31.670  39.898  1.00  0.00    -0.237 OA
ATOM     81  O   UNL A   1      35.865  32.394  38.906  1.00  0.00    -0.237 OA
ATOM     82  O   UNL A   1      36.729  30.148  38.428  1.00  0.00    -0.744 OA
ENDBRANCH  76  79
ENDBRANCH  48  72
BRANCH  60  83
ATOM     83  C   UNL A   1      44.829  28.471  34.019  1.00  0.00     0.023 A 
ATOM     84  C   UNL A   1      45.911  29.366  33.912  1.00  0.00     0.012 A 
ATOM     85  C   UNL A   1      44.903  27.403  34.935  1.00  0.00     0.148 A 
ATOM     86  C   UNL A   1      47.062  29.181  34.677  1.00  0.00     0.002 A 
ATOM     87  C   UNL A   1      46.031  27.257  35.734  1.00  0.00     0.091 A 
ATOM     88  F   UNL A   1      43.870  26.552  35.011  1.00  0.00    -0.205 F 
ATOM     89  C   UNL A   1      47.117  28.135  35.596  1.00  0.00     0.022 A 
BRANCH  87  90
ATOM     90  S   UNL A   1      46.152  26.000  37.012  1.00  0.00     0.127 S 
ATOM     91  O   UNL A   1      46.102  24.769  36.226  1.00  0.00    -0.237 OA
ATOM     92  O   UNL A   1      47.456  26.291  37.608  1.00  0.00    -0.237 OA
ATOM     93  O   UNL A   1      45.018  26.219  37.901  1.00  0.00    -0.744 OA
ENDBRANCH  87  90
ENDBRANCH  60  83
ENDBRANCH  34  35
ENDBRANCH  26  29
ENDBRANCH  24  25
ENDBRANCH  23  24
ENDBRANCH  22  23
ENDBRANCH   1  22
TORSDOF 19
ENDMDL
