MODEL 1
REMARK VINA RESULT:     -12.6      0.000      0.000
REMARK SMILES C[C@@H]1CCCN(c2ccc(NC(=O)Cc3cccs3)c(C(=O)NCCCCNC(=O)c3ccc(-c4c5nc(c(-c6cccc(S(=O)(=O)[O-])c6F)c6ccc([nH]6)c(-c6cccc(S(=O)(=O)[O-])c6F)c6nc(c(-c7cccc(S(=O)(=O)[O-])c7F)c7ccc4[nH]7)C=C6)C=C5)cc3)c2)C1
REMARK SMILES IDX 25 1 24 2 23 3 21 4 22 5 20 7 7 8 8 9 94 10 9 11 10 12 6 13
REMARK SMILES IDX 1 14 2 15 3 16 95 17 4 18 5 19 11 20 12 21 13 23 14 24 15 25
REMARK SMILES IDX 16 26 19 27 17 28 18 29 26 30 27 31 28 32 29 33 30 35 31 36
REMARK SMILES IDX 32 37 93 38 33 39 92 40 34 41 35 42 36 43 86 44 37 45 91 46
REMARK SMILES IDX 85 47 87 48 38 49 90 50 84 51 83 52 39 54 71 55 51 56 70 57
REMARK SMILES IDX 52 58 55 59 69 60 88 61 53 62 54 63 68 65 89 66 56 67 40 68
REMARK SMILES IDX 41 69 49 70 42 71 44 72 50 73 43 74 45 75 46 76 47 77 48 78
REMARK SMILES IDX 72 79 73 80 81 81 74 82 76 83 82 84 75 85 77 86 78 87 79 88
REMARK SMILES IDX 80 89 57 90 58 91 66 92 59 93 61 94 67 95 60 96 62 97 63 98
REMARK SMILES IDX 64 99 65 100
REMARK H PARENT 23 6 11 22 28 34 87 53 55 64
REMARK Flexibility Score: inf
ROOT
ATOM      1  C   UNL A   1      33.016  29.042  24.802  1.00  0.00     0.023 C 
ENDROOT
BRANCH   1   2
ATOM      2  C   UNL A   1      33.014  27.627  25.366  1.00  0.00     0.116 C 
BRANCH   2   3
ATOM      3  N   UNL A   1      31.865  27.267  26.179  1.00  0.00    -0.352 N 
ATOM      4  C   UNL A   1      31.086  26.124  26.175  1.00  0.00     0.253 C 
ATOM      5  O   UNL A   1      30.170  26.034  26.993  1.00  0.00    -0.269 OA
ATOM      6  H   UNL A   1      31.597  27.947  26.839  1.00  0.00     0.163 HD
BRANCH   4   7
ATOM      7  C   UNL A   1      31.259  25.028  25.169  1.00  0.00     0.065 A 
ATOM      8  C   UNL A   1      32.768  23.398  24.162  1.00  0.00     0.038 A 
ATOM      9  C   UNL A   1      31.853  23.252  23.122  1.00  0.00     0.028 A 
ATOM     10  C   UNL A   1      32.388  24.196  25.237  1.00  0.00     0.042 A 
ATOM     11  C   UNL A   1      30.631  23.931  23.121  1.00  0.00     0.029 A 
ATOM     12  C   UNL A   1      30.336  24.877  24.102  1.00  0.00     0.054 A 
BRANCH   8  13
ATOM     13  N   UNL A   1      34.022  22.824  24.076  1.00  0.00    -0.371 N 
ATOM     14  C   UNL A   1      37.079  24.067  26.006  1.00  0.00     0.009 C 
ATOM     15  C   UNL A   1      35.805  23.267  25.731  1.00  0.00     0.005 C 
ATOM     16  C   UNL A   1      36.101  21.761  25.757  1.00  0.00     0.007 C 
ATOM     17  C   UNL A   1      35.181  23.675  24.382  1.00  0.00     0.119 C 
ATOM     18  C   UNL A   1      34.834  20.961  25.461  1.00  0.00     0.022 C 
ATOM     19  C   UNL A   1      34.218  21.378  24.128  1.00  0.00     0.116 C 
ENDBRANCH   8  13
BRANCH  12  20
ATOM     20  N   UNL A   1      29.176  25.689  24.066  1.00  0.00    -0.325 N 
ATOM     21  C   UNL A   1      28.886  26.956  23.648  1.00  0.00     0.229 C 
ATOM     22  H   UNL A   1      28.387  25.228  24.432  1.00  0.00     0.169 HD
ATOM     23  O   UNL A   1      27.707  27.326  23.741  1.00  0.00    -0.274 OA
BRANCH  21  24
ATOM     24  C   UNL A   1      29.903  27.916  23.065  1.00  0.00     0.147 C 
BRANCH  24  25
ATOM     25  C   UNL A   1      29.455  29.353  23.019  1.00  0.00     0.014 A 
ATOM     26  C   UNL A   1      29.686  30.411  23.880  1.00  0.00     0.016 A 
ATOM     27  S   UNL A   1      28.500  29.861  21.678  1.00  0.00    -0.148 S 
ATOM     28  C   UNL A   1      29.122  31.635  23.418  1.00  0.00     0.012 A 
ATOM     29  C   UNL A   1      28.430  31.471  22.243  1.00  0.00     0.065 A 
ENDBRANCH  24  25
ENDBRANCH  21  24
ENDBRANCH  12  20
ENDBRANCH   4   7
ENDBRANCH   2   3
ENDBRANCH   1   2
BRANCH   1  30
ATOM     30  C   UNL A   1      33.243  30.183  25.789  1.00  0.00     0.023 C 
BRANCH  30  31
ATOM     31  C   UNL A   1      32.056  30.585  26.661  1.00  0.00     0.116 C 
BRANCH  31  32
ATOM     32  N   UNL A   1      32.022  32.001  27.010  1.00  0.00    -0.352 N 
ATOM     33  C   UNL A   1      32.972  32.789  27.623  1.00  0.00     0.251 C 
ATOM     34  H   UNL A   1      31.187  32.466  26.773  1.00  0.00     0.163 HD
ATOM     35  O   UNL A   1      32.722  33.962  27.874  1.00  0.00    -0.269 OA
BRANCH  33  36
ATOM     36  C   UNL A   1      34.276  32.209  28.020  1.00  0.00     0.039 A 
ATOM     37  C   UNL A   1      35.412  33.024  27.994  1.00  0.00     0.014 A 
ATOM     38  C   UNL A   1      34.374  30.889  28.463  1.00  0.00     0.014 A 
ATOM     39  C   UNL A   1      36.616  32.554  28.525  1.00  0.00     0.010 A 
ATOM     40  C   UNL A   1      35.551  30.450  29.064  1.00  0.00     0.010 A 
ATOM     41  C   UNL A   1      36.678  31.285  29.123  1.00  0.00    -0.014 A 
BRANCH  41  42
ATOM     42  C   UNL A   1      37.878  30.829  29.874  1.00  0.00     0.031 A 
ATOM     43  C   UNL A   1      38.833  29.844  29.260  1.00  0.00     0.074 A 
ATOM     44  C   UNL A   1      38.037  31.205  31.161  1.00  0.00     0.049 A 
ATOM     45  N   UNL A   1      39.858  29.240  29.803  1.00  0.00    -0.248 NA
ATOM     46  C   UNL A   1      38.583  29.460  27.860  1.00  0.00     0.031 C 
ATOM     47  C   UNL A   1      37.136  32.092  31.901  1.00  0.00     0.029 A 
ATOM     48  N   UNL A   1      38.990  30.857  32.086  1.00  0.00    -0.354 N 
ATOM     49  C   UNL A   1      40.351  28.378  28.831  1.00  0.00     0.074 A 
ATOM     50  C   UNL A   1      39.495  28.516  27.672  1.00  0.00     0.031 C 
ATOM     51  C   UNL A   1      37.580  32.219  33.163  1.00  0.00     0.029 A 
ATOM     52  C   UNL A   1      38.775  31.399  33.333  1.00  0.00     0.049 A 
ATOM     53  H   UNL A   1      39.757  30.276  31.877  1.00  0.00     0.167 HD
ATOM     54  C   UNL A   1      41.434  27.568  28.884  1.00  0.00     0.034 A 
ATOM     55  C   UNL A   1      39.453  31.245  34.488  1.00  0.00     0.034 A 
ATOM     56  C   UNL A   1      42.317  27.473  30.015  1.00  0.00     0.049 A 
ATOM     57  C   UNL A   1      40.677  30.371  34.508  1.00  0.00     0.074 A 
ATOM     58  C   UNL A   1      43.495  26.756  30.130  1.00  0.00     0.029 A 
ATOM     59  N   UNL A   1      42.119  28.112  31.229  1.00  0.00    -0.354 N 
ATOM     60  N   UNL A   1      41.219  29.690  33.527  1.00  0.00    -0.248 NA
ATOM     61  C   UNL A   1      41.400  30.266  35.783  1.00  0.00     0.031 C 
ATOM     62  C   UNL A   1      44.004  26.953  31.417  1.00  0.00     0.029 A 
ATOM     63  C   UNL A   1      43.150  27.803  32.101  1.00  0.00     0.049 A 
ATOM     64  H   UNL A   1      41.358  28.700  31.441  1.00  0.00     0.167 HD
ATOM     65  C   UNL A   1      42.363  29.105  34.057  1.00  0.00     0.074 A 
ATOM     66  C   UNL A   1      42.447  29.526  35.440  1.00  0.00     0.031 C 
ATOM     67  C   UNL A   1      43.253  28.277  33.457  1.00  0.00     0.034 A 
BRANCH  54  68
ATOM     68  C   UNL A   1      41.768  26.768  27.652  1.00  0.00     0.023 A 
ATOM     69  C   UNL A   1      42.299  27.429  26.526  1.00  0.00     0.012 A 
ATOM     70  C   UNL A   1      41.608  25.370  27.622  1.00  0.00     0.148 A 
ATOM     71  C   UNL A   1      42.632  26.717  25.376  1.00  0.00     0.002 A 
ATOM     72  C   UNL A   1      41.981  24.661  26.484  1.00  0.00     0.091 A 
ATOM     73  F   UNL A   1      41.080  24.761  28.693  1.00  0.00    -0.205 F 
ATOM     74  C   UNL A   1      42.484  25.333  25.358  1.00  0.00     0.022 A 
BRANCH  72  75
ATOM     75  S   UNL A   1      41.895  22.869  26.393  1.00  0.00     0.127 S 
ATOM     76  O   UNL A   1      40.451  22.641  26.424  1.00  0.00    -0.237 OA
ATOM     77  O   UNL A   1      42.527  22.592  25.104  1.00  0.00    -0.237 OA
ATOM     78  O   UNL A   1      42.634  22.375  27.547  1.00  0.00    -0.744 OA
ENDBRANCH  72  75
ENDBRANCH  54  68
BRANCH  55  79
ATOM     79  C   UNL A   1      39.033  31.999  35.704  1.00  0.00     0.023 A 
ATOM     80  C   UNL A   1      39.345  33.369  35.801  1.00  0.00     0.012 A 
ATOM     81  C   UNL A   1      38.302  31.387  36.739  1.00  0.00     0.148 A 
ATOM     82  C   UNL A   1      38.960  34.110  36.919  1.00  0.00     0.002 A 
ATOM     83  C   UNL A   1      37.876  32.143  37.827  1.00  0.00     0.091 A 
ATOM     84  F   UNL A   1      38.027  30.078  36.637  1.00  0.00    -0.205 F 
ATOM     85  C   UNL A   1      38.217  33.500  37.925  1.00  0.00     0.022 A 
BRANCH  83  86
ATOM     86  S   UNL A   1      36.803  31.472  39.102  1.00  0.00     0.127 S 
ATOM     87  O   UNL A   1      35.707  32.437  39.110  1.00  0.00    -0.237 OA
ATOM     88  O   UNL A   1      36.464  30.157  38.555  1.00  0.00    -0.237 OA
ATOM     89  O   UNL A   1      37.618  31.423  40.309  1.00  0.00    -0.744 OA
ENDBRANCH  83  86
ENDBRANCH  55  79
BRANCH  67  90
ATOM     90  C   UNL A   1      44.418  27.789  34.276  1.00  0.00     0.023 A 
ATOM     91  C   UNL A   1      45.585  28.574  34.360  1.00  0.00     0.012 A 
ATOM     92  C   UNL A   1      44.324  26.602  35.030  1.00  0.00     0.148 A 
ATOM     93  C   UNL A   1      46.650  28.174  35.167  1.00  0.00     0.002 A 
ATOM     94  C   UNL A   1      45.373  26.233  35.865  1.00  0.00     0.091 A 
ATOM     95  F   UNL A   1      43.214  25.860  34.920  1.00  0.00    -0.205 F 
ATOM     96  C   UNL A   1      46.540  27.012  35.928  1.00  0.00     0.022 A 
BRANCH  94  97
ATOM     97  S   UNL A   1      45.281  24.802  36.948  1.00  0.00     0.127 S 
ATOM     98  O   UNL A   1      45.139  23.709  35.988  1.00  0.00    -0.237 OA
ATOM     99  O   UNL A   1      46.573  24.847  37.635  1.00  0.00    -0.237 OA
ATOM    100  O   UNL A   1      44.132  25.029  37.814  1.00  0.00    -0.744 OA
ENDBRANCH  94  97
ENDBRANCH  67  90
ENDBRANCH  41  42
ENDBRANCH  33  36
ENDBRANCH  31  32
ENDBRANCH  30  31
ENDBRANCH   1  30
TORSDOF 18
ENDMDL
MODEL 2
REMARK VINA RESULT:     -12.5      5.217     10.585
REMARK SMILES C[C@@H]1CCCN(c2ccc(NC(=O)Cc3cccs3)c(C(=O)NCCCCNC(=O)c3ccc(-c4c5nc(c(-c6cccc(S(=O)(=O)[O-])c6F)c6ccc([nH]6)c(-c6cccc(S(=O)(=O)[O-])c6F)c6nc(c(-c7cccc(S(=O)(=O)[O-])c7F)c7ccc4[nH]7)C=C6)C=C5)cc3)c2)C1
REMARK SMILES IDX 25 1 24 2 23 3 21 4 22 5 20 7 7 8 8 9 94 10 9 11 10 12 6 13
REMARK SMILES IDX 1 14 2 15 3 16 95 17 4 18 5 19 11 20 12 21 13 23 14 24 15 25
REMARK SMILES IDX 16 26 19 27 17 28 18 29 26 30 27 31 28 32 29 33 30 35 31 36
REMARK SMILES IDX 32 37 93 38 33 39 92 40 34 41 35 42 36 43 86 44 37 45 91 46
REMARK SMILES IDX 85 47 87 48 38 49 90 50 84 51 83 52 39 54 71 55 51 56 70 57
REMARK SMILES IDX 52 58 55 59 69 60 88 61 53 62 54 63 68 65 89 66 56 67 40 68
REMARK SMILES IDX 41 69 49 70 42 71 44 72 50 73 43 74 45 75 46 76 47 77 48 78
REMARK SMILES IDX 72 79 73 80 81 81 74 82 76 83 82 84 75 85 77 86 78 87 79 88
REMARK SMILES IDX 80 89 57 90 58 91 66 92 59 93 61 94 67 95 60 96 62 97 63 98
REMARK SMILES IDX 64 99 65 100
REMARK H PARENT 23 6 11 22 28 34 87 53 55 64
REMARK Flexibility Score: inf
ROOT
ATOM      1  C   UNL A   1      36.578  22.679  23.571  1.00  0.00     0.023 C 
ENDROOT
BRANCH   1   2
ATOM      2  C   UNL A   1      35.936  23.941  24.132  1.00  0.00     0.116 C 
BRANCH   2   3
ATOM      3  N   UNL A   1      35.308  23.810  25.436  1.00  0.00    -0.352 N 
ATOM      4  C   UNL A   1      33.973  23.856  25.799  1.00  0.00     0.253 C 
ATOM      5  O   UNL A   1      33.679  23.685  26.982  1.00  0.00    -0.269 OA
ATOM      6  H   UNL A   1      35.933  23.666  26.183  1.00  0.00     0.163 HD
BRANCH   4   7
ATOM      7  C   UNL A   1      32.881  24.184  24.827  1.00  0.00     0.065 A 
ATOM      8  C   UNL A   1      31.784  25.902  23.489  1.00  0.00     0.038 A 
ATOM      9  C   UNL A   1      30.708  25.033  23.327  1.00  0.00     0.028 A 
ATOM     10  C   UNL A   1      32.912  25.405  24.135  1.00  0.00     0.042 A 
ATOM     11  C   UNL A   1      30.727  23.737  23.851  1.00  0.00     0.029 A 
ATOM     12  C   UNL A   1      31.777  23.308  24.661  1.00  0.00     0.054 A 
BRANCH   8  13
ATOM     13  N   UNL A   1      31.687  27.220  23.083  1.00  0.00    -0.371 N 
ATOM     14  C   UNL A   1      28.384  29.112  22.739  1.00  0.00     0.009 C 
ATOM     15  C   UNL A   1      29.641  28.568  23.417  1.00  0.00     0.005 C 
ATOM     16  C   UNL A   1      30.527  29.720  23.909  1.00  0.00     0.007 C 
ATOM     17  C   UNL A   1      30.426  27.648  22.462  1.00  0.00     0.119 C 
ATOM     18  C   UNL A   1      31.795  29.179  24.567  1.00  0.00     0.022 C 
ATOM     19  C   UNL A   1      32.560  28.261  23.617  1.00  0.00     0.116 C 
ENDBRANCH   8  13
BRANCH  12  20
ATOM     20  N   UNL A   1      31.776  22.057  25.327  1.00  0.00    -0.325 N 
ATOM     21  C   UNL A   1      32.117  20.777  24.997  1.00  0.00     0.229 C 
ATOM     22  H   UNL A   1      31.448  22.129  26.253  1.00  0.00     0.169 HD
ATOM     23  O   UNL A   1      32.014  19.919  25.885  1.00  0.00    -0.274 OA
BRANCH  21  24
ATOM     24  C   UNL A   1      32.626  20.354  23.635  1.00  0.00     0.147 C 
BRANCH  24  25
ATOM     25  C   UNL A   1      33.140  18.939  23.568  1.00  0.00     0.014 A 
ATOM     26  C   UNL A   1      32.767  17.868  22.777  1.00  0.00     0.016 A 
ATOM     27  S   UNL A   1      34.437  18.499  24.613  1.00  0.00    -0.148 S 
ATOM     28  C   UNL A   1      33.569  16.711  22.997  1.00  0.00     0.012 A 
ATOM     29  C   UNL A   1      34.500  16.912  23.986  1.00  0.00     0.065 A 
ENDBRANCH  24  25
ENDBRANCH  21  24
ENDBRANCH  12  20
ENDBRANCH   4   7
ENDBRANCH   2   3
ENDBRANCH   1   2
BRANCH   1  30
ATOM     30  C   UNL A   1      36.376  21.387  24.358  1.00  0.00     0.023 C 
BRANCH  30  31
ATOM     31  C   UNL A   1      37.089  21.284  25.704  1.00  0.00     0.116 C 
BRANCH  31  32
ATOM     32  N   UNL A   1      38.245  20.394  25.703  1.00  0.00    -0.352 N 
ATOM     33  C   UNL A   1      39.537  20.614  26.131  1.00  0.00     0.251 C 
ATOM     34  H   UNL A   1      38.076  19.496  25.338  1.00  0.00     0.163 HD
ATOM     35  O   UNL A   1      40.381  19.737  25.994  1.00  0.00    -0.269 OA
BRANCH  33  36
ATOM     36  C   UNL A   1      39.916  21.923  26.711  1.00  0.00     0.039 A 
ATOM     37  C   UNL A   1      40.865  21.956  27.737  1.00  0.00     0.014 A 
ATOM     38  C   UNL A   1      39.381  23.114  26.217  1.00  0.00     0.014 A 
ATOM     39  C   UNL A   1      41.365  23.183  28.182  1.00  0.00     0.010 A 
ATOM     40  C   UNL A   1      39.937  24.331  26.603  1.00  0.00     0.010 A 
ATOM     41  C   UNL A   1      40.951  24.378  27.572  1.00  0.00    -0.014 A 
BRANCH  41  42
ATOM     42  C   UNL A   1      41.603  25.680  27.875  1.00  0.00     0.031 A 
ATOM     43  C   UNL A   1      40.847  26.761  28.597  1.00  0.00     0.074 A 
ATOM     44  C   UNL A   1      42.834  25.935  27.384  1.00  0.00     0.049 A 
ATOM     45  N   UNL A   1      41.203  27.996  28.838  1.00  0.00    -0.248 NA
ATOM     46  C   UNL A   1      39.500  26.420  29.083  1.00  0.00     0.031 C 
ATOM     47  C   UNL A   1      43.642  25.000  26.596  1.00  0.00     0.029 A 
ATOM     48  N   UNL A   1      43.606  27.069  27.441  1.00  0.00    -0.354 N 
ATOM     49  C   UNL A   1      40.115  28.591  29.465  1.00  0.00     0.074 A 
ATOM     50  C   UNL A   1      39.074  27.588  29.541  1.00  0.00     0.031 C 
ATOM     51  C   UNL A   1      44.792  25.598  26.246  1.00  0.00     0.029 A 
ATOM     52  C   UNL A   1      44.793  26.966  26.752  1.00  0.00     0.049 A 
ATOM     53  H   UNL A   1      43.336  27.881  27.929  1.00  0.00     0.167 HD
ATOM     54  C   UNL A   1      40.001  29.846  29.959  1.00  0.00     0.034 A 
ATOM     55  C   UNL A   1      45.768  27.872  26.540  1.00  0.00     0.034 A 
ATOM     56  C   UNL A   1      41.055  30.824  29.932  1.00  0.00     0.049 A 
ATOM     57  C   UNL A   1      45.634  29.247  27.136  1.00  0.00     0.074 A 
ATOM     58  C   UNL A   1      41.069  32.088  30.494  1.00  0.00     0.029 A 
ATOM     59  N   UNL A   1      42.280  30.649  29.309  1.00  0.00    -0.354 N 
ATOM     60  N   UNL A   1      44.661  29.736  27.866  1.00  0.00    -0.248 NA
ATOM     61  C   UNL A   1      46.741  30.185  26.905  1.00  0.00     0.031 C 
ATOM     62  C   UNL A   1      42.301  32.683  30.201  1.00  0.00     0.029 A 
ATOM     63  C   UNL A   1      43.059  31.784  29.467  1.00  0.00     0.049 A 
ATOM     64  H   UNL A   1      42.558  29.837  28.826  1.00  0.00     0.167 HD
ATOM     65  C   UNL A   1      45.054  31.025  28.210  1.00  0.00     0.074 A 
ATOM     66  C   UNL A   1      46.362  31.234  27.623  1.00  0.00     0.031 C 
ATOM     67  C   UNL A   1      44.383  31.957  28.930  1.00  0.00     0.034 A 
BRANCH  54  68
ATOM     68  C   UNL A   1      38.707  30.212  30.638  1.00  0.00     0.023 A 
ATOM     69  C   UNL A   1      38.505  29.836  31.981  1.00  0.00     0.012 A 
ATOM     70  C   UNL A   1      37.720  30.965  29.974  1.00  0.00     0.148 A 
ATOM     71  C   UNL A   1      37.326  30.173  32.644  1.00  0.00     0.002 A 
ATOM     72  C   UNL A   1      36.564  31.332  30.655  1.00  0.00     0.091 A 
ATOM     73  F   UNL A   1      37.918  31.294  28.690  1.00  0.00    -0.205 F 
ATOM     74  C   UNL A   1      36.361  30.929  31.985  1.00  0.00     0.022 A 
BRANCH  72  75
ATOM     75  S   UNL A   1      35.295  32.367  29.914  1.00  0.00     0.127 S 
ATOM     76  O   UNL A   1      34.364  32.534  31.029  1.00  0.00    -0.237 OA
ATOM     77  O   UNL A   1      36.044  33.572  29.561  1.00  0.00    -0.237 OA
ATOM     78  O   UNL A   1      34.784  31.617  28.775  1.00  0.00    -0.744 OA
ENDBRANCH  72  75
ENDBRANCH  54  68
BRANCH  55  79
ATOM     79  C   UNL A   1      46.997  27.482  25.790  1.00  0.00     0.023 A 
ATOM     80  C   UNL A   1      47.052  27.714  24.402  1.00  0.00     0.012 A 
ATOM     81  C   UNL A   1      48.113  26.920  26.438  1.00  0.00     0.148 A 
ATOM     82  C   UNL A   1      48.188  27.371  23.668  1.00  0.00     0.002 A 
ATOM     83  C   UNL A   1      49.262  26.629  25.708  1.00  0.00     0.091 A 
ATOM     84  F   UNL A   1      48.036  26.692  27.757  1.00  0.00    -0.205 F 
ATOM     85  C   UNL A   1      49.295  26.839  24.322  1.00  0.00     0.022 A 
BRANCH  83  86
ATOM     86  S   UNL A   1      50.778  26.066  26.490  1.00  0.00     0.127 S 
ATOM     87  O   UNL A   1      50.350  24.816  27.112  1.00  0.00    -0.237 OA
ATOM     88  O   UNL A   1      51.673  25.908  25.342  1.00  0.00    -0.237 OA
ATOM     89  O   UNL A   1      51.164  27.134  27.404  1.00  0.00    -0.744 OA
ENDBRANCH  83  86
ENDBRANCH  55  79
BRANCH  67  90
ATOM     90  C   UNL A   1      45.056  33.285  29.156  1.00  0.00     0.023 A 
ATOM     91  C   UNL A   1      45.971  33.427  30.218  1.00  0.00     0.012 A 
ATOM     92  C   UNL A   1      44.851  34.359  28.268  1.00  0.00     0.148 A 
ATOM     93  C   UNL A   1      46.656  34.627  30.405  1.00  0.00     0.002 A 
ATOM     94  C   UNL A   1      45.570  35.538  28.437  1.00  0.00     0.091 A 
ATOM     95  F   UNL A   1      43.961  34.209  27.277  1.00  0.00    -0.205 F 
ATOM     96  C   UNL A   1      46.465  35.677  29.509  1.00  0.00     0.022 A 
BRANCH  94  97
ATOM     97  S   UNL A   1      45.456  36.907  27.279  1.00  0.00     0.127 S 
ATOM     98  O   UNL A   1      46.334  36.459  26.199  1.00  0.00    -0.237 OA
ATOM     99  O   UNL A   1      44.031  36.915  26.944  1.00  0.00    -0.237 OA
ATOM    100  O   UNL A   1      45.908  38.085  28.006  1.00  0.00    -0.744 OA
ENDBRANCH  94  97
ENDBRANCH  67  90
ENDBRANCH  41  42
ENDBRANCH  33  36
ENDBRANCH  31  32
ENDBRANCH  30  31
ENDBRANCH   1  30
TORSDOF 18
ENDMDL
MODEL 3
REMARK VINA RESULT:     -12.2      5.418     10.348
REMARK SMILES C[C@@H]1CCCN(c2ccc(NC(=O)Cc3cccs3)c(C(=O)NCCCCNC(=O)c3ccc(-c4c5nc(c(-c6cccc(S(=O)(=O)[O-])c6F)c6ccc([nH]6)c(-c6cccc(S(=O)(=O)[O-])c6F)c6nc(c(-c7cccc(S(=O)(=O)[O-])c7F)c7ccc4[nH]7)C=C6)C=C5)cc3)c2)C1
REMARK SMILES IDX 25 1 24 2 23 3 21 4 22 5 20 7 7 8 8 9 94 10 9 11 10 12 6 13
REMARK SMILES IDX 1 14 2 15 3 16 95 17 4 18 5 19 11 20 12 21 13 23 14 24 15 25
REMARK SMILES IDX 16 26 19 27 17 28 18 29 26 30 27 31 28 32 29 33 30 35 31 36
REMARK SMILES IDX 32 37 93 38 33 39 92 40 34 41 35 42 36 43 86 44 37 45 91 46
REMARK SMILES IDX 85 47 87 48 38 49 90 50 84 51 83 52 39 54 71 55 51 56 70 57
REMARK SMILES IDX 52 58 55 59 69 60 88 61 53 62 54 63 68 65 89 66 56 67 40 68
REMARK SMILES IDX 41 69 49 70 42 71 44 72 50 73 43 74 45 75 46 76 47 77 48 78
REMARK SMILES IDX 72 79 73 80 81 81 74 82 76 83 82 84 75 85 77 86 78 87 79 88
REMARK SMILES IDX 80 89 57 90 58 91 66 92 59 93 61 94 67 95 60 96 62 97 63 98
REMARK SMILES IDX 64 99 65 100
REMARK H PARENT 23 6 11 22 28 34 87 53 55 64
REMARK Flexibility Score: inf
ROOT
ATOM      1  C   UNL A   1      35.005  23.839  24.144  1.00  0.00     0.023 C 
ENDROOT
BRANCH   1   2
ATOM      2  C   UNL A   1      34.505  25.155  24.726  1.00  0.00     0.116 C 
BRANCH   2   3
ATOM      3  N   UNL A   1      33.434  25.052  25.703  1.00  0.00    -0.352 N 
ATOM      4  C   UNL A   1      32.630  26.031  26.260  1.00  0.00     0.253 C 
ATOM      5  O   UNL A   1      31.755  25.691  27.056  1.00  0.00    -0.269 OA
ATOM      6  H   UNL A   1      33.250  24.138  26.019  1.00  0.00     0.163 HD
BRANCH   4   7
ATOM      7  C   UNL A   1      32.833  27.492  25.996  1.00  0.00     0.065 A 
ATOM      8  C   UNL A   1      34.132  29.496  26.487  1.00  0.00     0.038 A 
ATOM      9  C   UNL A   1      33.115  30.250  25.907  1.00  0.00     0.028 A 
ATOM     10  C   UNL A   1      34.026  28.111  26.404  1.00  0.00     0.042 A 
ATOM     11  C   UNL A   1      31.997  29.646  25.324  1.00  0.00     0.029 A 
ATOM     12  C   UNL A   1      31.799  28.269  25.411  1.00  0.00     0.054 A 
BRANCH   8  13
ATOM     13  N   UNL A   1      35.157  30.117  27.176  1.00  0.00    -0.371 N 
ATOM     14  C   UNL A   1      34.649  33.034  29.593  1.00  0.00     0.009 C 
ATOM     15  C   UNL A   1      34.753  31.582  29.127  1.00  0.00     0.005 C 
ATOM     16  C   UNL A   1      35.901  30.867  29.853  1.00  0.00     0.007 C 
ATOM     17  C   UNL A   1      34.947  31.508  27.600  1.00  0.00     0.119 C 
ATOM     18  C   UNL A   1      36.022  29.422  29.372  1.00  0.00     0.022 C 
ATOM     19  C   UNL A   1      36.203  29.359  27.857  1.00  0.00     0.116 C 
ENDBRANCH   8  13
BRANCH  12  20
ATOM     20  N   UNL A   1      30.619  27.629  24.961  1.00  0.00    -0.325 N 
ATOM     21  C   UNL A   1      29.835  27.703  23.846  1.00  0.00     0.229 C 
ATOM     22  H   UNL A   1      30.280  26.972  25.612  1.00  0.00     0.169 HD
ATOM     23  O   UNL A   1      28.866  26.933  23.784  1.00  0.00    -0.274 OA
BRANCH  21  24
ATOM     24  C   UNL A   1      30.088  28.643  22.685  1.00  0.00     0.147 C 
BRANCH  24  25
ATOM     25  C   UNL A   1      29.309  29.931  22.739  1.00  0.00     0.014 A 
ATOM     26  C   UNL A   1      29.094  30.826  23.771  1.00  0.00     0.016 A 
ATOM     27  S   UNL A   1      28.536  30.471  21.297  1.00  0.00    -0.148 S 
ATOM     28  C   UNL A   1      28.339  31.966  23.368  1.00  0.00     0.012 A 
ATOM     29  C   UNL A   1      27.953  31.887  22.052  1.00  0.00     0.065 A 
ENDBRANCH  24  25
ENDBRANCH  21  24
ENDBRANCH  12  20
ENDBRANCH   4   7
ENDBRANCH   2   3
ENDBRANCH   1   2
BRANCH   1  30
ATOM     30  C   UNL A   1      36.483  23.512  24.334  1.00  0.00     0.023 C 
BRANCH  30  31
ATOM     31  C   UNL A   1      36.954  23.263  25.764  1.00  0.00     0.116 C 
BRANCH  31  32
ATOM     32  N   UNL A   1      37.897  22.158  25.901  1.00  0.00    -0.352 N 
ATOM     33  C   UNL A   1      39.176  22.139  26.414  1.00  0.00     0.251 C 
ATOM     34  H   UNL A   1      37.568  21.290  25.574  1.00  0.00     0.163 HD
ATOM     35  O   UNL A   1      39.827  21.101  26.390  1.00  0.00    -0.269 OA
BRANCH  33  36
ATOM     36  C   UNL A   1      39.782  23.381  26.948  1.00  0.00     0.039 A 
ATOM     37  C   UNL A   1      40.704  23.284  27.994  1.00  0.00     0.014 A 
ATOM     38  C   UNL A   1      39.486  24.626  26.391  1.00  0.00     0.014 A 
ATOM     39  C   UNL A   1      41.416  24.416  28.400  1.00  0.00     0.010 A 
ATOM     40  C   UNL A   1      40.252  25.736  26.740  1.00  0.00     0.010 A 
ATOM     41  C   UNL A   1      41.241  25.639  27.731  1.00  0.00    -0.014 A 
BRANCH  41  42
ATOM     42  C   UNL A   1      42.118  26.810  27.995  1.00  0.00     0.031 A 
ATOM     43  C   UNL A   1      41.597  27.996  28.760  1.00  0.00     0.074 A 
ATOM     44  C   UNL A   1      43.344  26.861  27.433  1.00  0.00     0.049 A 
ATOM     45  N   UNL A   1      42.169  29.151  28.980  1.00  0.00    -0.248 NA
ATOM     46  C   UNL A   1      40.242  27.879  29.324  1.00  0.00     0.031 C 
ATOM     47  C   UNL A   1      43.937  25.812  26.599  1.00  0.00     0.029 A 
ATOM     48  N   UNL A   1      44.297  27.849  27.444  1.00  0.00    -0.354 N 
ATOM     49  C   UNL A   1      41.233  29.913  29.669  1.00  0.00     0.074 A 
ATOM     50  C   UNL A   1      40.045  29.098  29.807  1.00  0.00     0.031 C 
ATOM     51  C   UNL A   1      45.149  26.212  26.182  1.00  0.00     0.029 A 
ATOM     52  C   UNL A   1      45.408  27.556  26.687  1.00  0.00     0.049 A 
ATOM     53  H   UNL A   1      44.196  28.690  27.948  1.00  0.00     0.167 HD
ATOM     54  C   UNL A   1      41.360  31.164  30.169  1.00  0.00     0.034 A 
ATOM     55  C   UNL A   1      46.508  28.288  26.418  1.00  0.00     0.034 A 
ATOM     56  C   UNL A   1      42.559  31.953  30.081  1.00  0.00     0.049 A 
ATOM     57  C   UNL A   1      46.640  29.660  27.021  1.00  0.00     0.074 A 
ATOM     58  C   UNL A   1      42.818  33.191  30.641  1.00  0.00     0.029 A 
ATOM     59  N   UNL A   1      43.700  31.581  29.387  1.00  0.00    -0.354 N 
ATOM     60  N   UNL A   1      45.807  30.298  27.807  1.00  0.00    -0.248 NA
ATOM     61  C   UNL A   1      47.874  30.402  26.726  1.00  0.00     0.031 C 
ATOM     62  C   UNL A   1      44.113  33.574  30.277  1.00  0.00     0.029 A 
ATOM     63  C   UNL A   1      44.665  32.568  29.500  1.00  0.00     0.049 A 
ATOM     64  H   UNL A   1      43.810  30.740  28.888  1.00  0.00     0.167 HD
ATOM     65  C   UNL A   1      46.430  31.499  28.127  1.00  0.00     0.074 A 
ATOM     66  C   UNL A   1      47.717  31.492  27.466  1.00  0.00     0.031 C 
ATOM     67  C   UNL A   1      45.967  32.524  28.885  1.00  0.00     0.034 A 
BRANCH  54  68
ATOM     68  C   UNL A   1      40.187  31.735  30.923  1.00  0.00     0.023 A 
ATOM     69  C   UNL A   1      39.307  32.616  30.262  1.00  0.00     0.012 A 
ATOM     70  C   UNL A   1      39.924  31.366  32.256  1.00  0.00     0.148 A 
ATOM     71  C   UNL A   1      38.204  33.149  30.925  1.00  0.00     0.002 A 
ATOM     72  C   UNL A   1      38.798  31.872  32.898  1.00  0.00     0.091 A 
ATOM     73  F   UNL A   1      40.784  30.546  32.877  1.00  0.00    -0.205 F 
ATOM     74  C   UNL A   1      37.943  32.770  32.238  1.00  0.00     0.022 A 
BRANCH  72  75
ATOM     75  S   UNL A   1      38.339  31.384  34.566  1.00  0.00     0.127 S 
ATOM     76  O   UNL A   1      38.228  29.933  34.428  1.00  0.00    -0.237 OA
ATOM     77  O   UNL A   1      39.490  31.834  35.350  1.00  0.00    -0.237 OA
ATOM     78  O   UNL A   1      37.097  32.086  34.858  1.00  0.00    -0.744 OA
ENDBRANCH  72  75
ENDBRANCH  54  68
BRANCH  55  79
ATOM     79  C   UNL A   1      47.608  27.705  25.598  1.00  0.00     0.023 A 
ATOM     80  C   UNL A   1      48.611  26.951  26.236  1.00  0.00     0.012 A 
ATOM     81  C   UNL A   1      47.651  27.860  24.199  1.00  0.00     0.148 A 
ATOM     82  C   UNL A   1      49.651  26.381  25.501  1.00  0.00     0.002 A 
ATOM     83  C   UNL A   1      48.662  27.246  23.466  1.00  0.00     0.091 A 
ATOM     84  F   UNL A   1      46.696  28.595  23.610  1.00  0.00    -0.205 F 
ATOM     85  C   UNL A   1      49.670  26.520  24.116  1.00  0.00     0.022 A 
BRANCH  83  86
ATOM     86  S   UNL A   1      48.689  27.261  21.670  1.00  0.00     0.127 S 
ATOM     87  O   UNL A   1      49.941  27.960  21.394  1.00  0.00    -0.237 OA
ATOM     88  O   UNL A   1      48.699  25.832  21.353  1.00  0.00    -0.237 OA
ATOM     89  O   UNL A   1      47.471  27.952  21.268  1.00  0.00    -0.744 OA
ENDBRANCH  83  86
ENDBRANCH  55  79
BRANCH  67  90
ATOM     90  C   UNL A   1      46.865  33.718  29.072  1.00  0.00     0.023 A 
ATOM     91  C   UNL A   1      47.791  33.730  30.133  1.00  0.00     0.012 A 
ATOM     92  C   UNL A   1      46.853  34.782  28.149  1.00  0.00     0.148 A 
ATOM     93  C   UNL A   1      48.678  34.795  30.286  1.00  0.00     0.002 A 
ATOM     94  C   UNL A   1      47.769  35.819  28.283  1.00  0.00     0.091 A 
ATOM     95  F   UNL A   1      45.950  34.759  27.158  1.00  0.00    -0.205 F 
ATOM     96  C   UNL A   1      48.676  35.832  29.355  1.00  0.00     0.022 A 
BRANCH  94  97
ATOM     97  S   UNL A   1      47.899  37.148  27.080  1.00  0.00     0.127 S 
ATOM     98  O   UNL A   1      49.021  37.921  27.611  1.00  0.00    -0.237 OA
ATOM     99  O   UNL A   1      48.189  36.422  25.843  1.00  0.00    -0.237 OA
ATOM    100  O   UNL A   1      46.609  37.826  27.091  1.00  0.00    -0.744 OA
ENDBRANCH  94  97
ENDBRANCH  67  90
ENDBRANCH  41  42
ENDBRANCH  33  36
ENDBRANCH  31  32
ENDBRANCH  30  31
ENDBRANCH   1  30
TORSDOF 18
ENDMDL
