MODEL 1
REMARK VINA RESULT:     -13.4      0.000      0.000
REMARK SMILES Cc1oc2c(C)c3oc(=O)c(CC(=O)N[C@@H](CC(C)C)C(=O)NCCCCNC(=O)c4ccc(-c5c6nc(c(-c7cccc(S(=O)(=O)[O-])c7F)c7ccc([nH]7)c(-c7cccc(S(=O)(=O)[O-])c7F)c7nc(c(-c8cccc(S(=O)(=O)[O-])c8F)c8ccc5[nH]8)C=C7)C=C6)cc4)c(C)c3cc2c1C
REMARK SMILES IDX 25 1 24 2 23 3 21 4 22 5 16 7 15 8 13 9 14 10 12 12 11 13
REMARK SMILES IDX 1 14 2 15 3 16 99 17 4 18 98 19 100 20 5 21 97 22 6 23 7 24
REMARK SMILES IDX 96 25 8 26 94 27 9 28 95 29 10 30 17 31 18 32 19 33 20 34
REMARK SMILES IDX 26 35 27 36 28 37 29 38 30 40 31 41 32 42 93 43 33 44 92 45
REMARK SMILES IDX 34 46 35 47 36 48 86 49 37 50 91 51 85 52 87 53 38 54 90 55
REMARK SMILES IDX 84 56 83 57 39 59 71 60 51 61 70 62 52 63 55 64 69 65 88 66
REMARK SMILES IDX 53 67 54 68 68 70 89 71 56 72 40 73 41 74 49 75 42 76 44 77
REMARK SMILES IDX 50 78 43 79 45 80 46 81 47 82 48 83 72 84 73 85 81 86 74 87
REMARK SMILES IDX 76 88 82 89 75 90 77 91 78 92 79 93 80 94 57 95 58 96 66 97
REMARK SMILES IDX 59 98 61 99 67 100 60 101 62 102 63 103 64 104 65 105
REMARK H PARENT 23 6 15 11 28 39 87 58 55 69
REMARK Flexibility Score: inf
ROOT
ATOM      1  C   UNL A   1      37.020  21.790  24.014  1.00  0.00     0.023 C 
ENDROOT
BRANCH   1   2
ATOM      2  C   UNL A   1      35.571  22.116  24.371  1.00  0.00     0.116 C 
BRANCH   2   3
ATOM      3  N   UNL A   1      35.321  22.127  25.801  1.00  0.00    -0.354 N 
ATOM      4  C   UNL A   1      34.336  21.581  26.570  1.00  0.00     0.242 C 
ATOM      5  O   UNL A   1      34.563  21.508  27.782  1.00  0.00    -0.273 OA
ATOM      6  H   UNL A   1      35.995  22.626  26.318  1.00  0.00     0.163 HD
BRANCH   4   7
ATOM      7  C   UNL A   1      32.997  21.038  26.018  1.00  0.00     0.171 C 
BRANCH   7   8
ATOM      8  N   UNL A   1      31.884  21.915  26.384  1.00  0.00    -0.344 N 
ATOM      9  C   UNL A   1      31.421  23.008  25.712  1.00  0.00     0.225 C 
ATOM     10  O   UNL A   1      30.284  23.410  25.976  1.00  0.00    -0.275 OA
ATOM     11  H   UNL A   1      31.413  21.689  27.219  1.00  0.00     0.164 HD
BRANCH   9  12
ATOM     12  C   UNL A   1      32.309  23.748  24.714  1.00  0.00     0.143 C 
BRANCH  12  13
ATOM     13  C   UNL A   1      31.989  25.230  24.685  1.00  0.00     0.051 A 
ATOM     14  C   UNL A   1      28.734  32.834  22.922  1.00  0.00     0.088 C 
ATOM     15  C   UNL A   1      29.121  31.447  23.252  1.00  0.00     0.105 A 
ATOM     16  O   UNL A   1      30.058  31.298  24.229  1.00  0.00    -0.461 OA
ATOM     17  C   UNL A   1      28.743  30.216  22.748  1.00  0.00    -0.002 A 
ATOM     18  C   UNL A   1      30.343  29.967  24.322  1.00  0.00     0.141 A 
ATOM     19  C   UNL A   1      29.563  29.262  23.419  1.00  0.00     0.025 A 
ATOM     20  C   UNL A   1      27.744  29.922  21.693  1.00  0.00     0.049 C 
ATOM     21  C   UNL A   1      31.290  29.391  25.175  1.00  0.00     0.036 A 
ATOM     22  C   UNL A   1      29.730  27.870  23.324  1.00  0.00     0.024 A 
ATOM     23  C   UNL A   1      32.067  30.197  26.166  1.00  0.00     0.052 C 
ATOM     24  C   UNL A   1      31.472  28.004  24.977  1.00  0.00     0.145 A 
ATOM     25  C   UNL A   1      30.735  27.234  24.070  1.00  0.00     0.022 A 
ATOM     26  O   UNL A   1      32.491  27.388  25.737  1.00  0.00    -0.422 OA
ATOM     27  C   UNL A   1      31.029  25.796  23.921  1.00  0.00    -0.029 A 
ATOM     28  C   UNL A   1      32.835  26.058  25.584  1.00  0.00     0.340 A 
ATOM     29  C   UNL A   1      30.230  25.028  22.894  1.00  0.00     0.046 C 
ATOM     30  O   UNL A   1      33.805  25.592  26.171  1.00  0.00    -0.246 OA
ENDBRANCH  12  13
ENDBRANCH   9  12
ENDBRANCH   7   8
BRANCH   7  31
ATOM     31  C   UNL A   1      32.918  20.529  24.563  1.00  0.00     0.038 C 
BRANCH  31  32
ATOM     32  C   UNL A   1      33.223  19.051  24.272  1.00  0.00    -0.015 C 
ATOM     33  C   UNL A   1      32.794  18.146  25.431  1.00  0.00     0.007 C 
ATOM     34  C   UNL A   1      32.489  18.584  23.008  1.00  0.00     0.007 C 
ENDBRANCH  31  32
ENDBRANCH   7  31
ENDBRANCH   4   7
ENDBRANCH   2   3
ENDBRANCH   1   2
BRANCH   1  35
ATOM     35  C   UNL A   1      37.827  21.056  25.100  1.00  0.00     0.023 C 
BRANCH  35  36
ATOM     36  C   UNL A   1      38.672  21.932  26.044  1.00  0.00     0.116 C 
BRANCH  36  37
ATOM     37  N   UNL A   1      40.012  21.396  26.213  1.00  0.00    -0.352 N 
ATOM     38  C   UNL A   1      41.230  22.009  26.358  1.00  0.00     0.251 C 
ATOM     39  H   UNL A   1      40.053  20.412  26.226  1.00  0.00     0.163 HD
ATOM     40  O   UNL A   1      42.237  21.323  26.168  1.00  0.00    -0.269 OA
BRANCH  38  41
ATOM     41  C   UNL A   1      41.388  23.441  26.716  1.00  0.00     0.039 A 
ATOM     42  C   UNL A   1      42.224  24.223  25.907  1.00  0.00     0.014 A 
ATOM     43  C   UNL A   1      40.872  23.991  27.891  1.00  0.00     0.014 A 
ATOM     44  C   UNL A   1      42.503  25.553  26.240  1.00  0.00     0.010 A 
ATOM     45  C   UNL A   1      41.155  25.325  28.225  1.00  0.00     0.010 A 
ATOM     46  C   UNL A   1      41.960  26.125  27.398  1.00  0.00    -0.014 A 
BRANCH  46  47
ATOM     47  C   UNL A   1      42.146  27.579  27.634  1.00  0.00     0.031 A 
ATOM     48  C   UNL A   1      40.895  28.381  27.763  1.00  0.00     0.074 A 
ATOM     49  C   UNL A   1      43.288  28.134  28.104  1.00  0.00     0.049 A 
ATOM     50  N   UNL A   1      40.236  28.461  28.879  1.00  0.00    -0.248 NA
ATOM     51  C   UNL A   1      40.197  28.972  26.622  1.00  0.00     0.031 C 
ATOM     52  C   UNL A   1      44.280  27.417  28.911  1.00  0.00     0.029 A 
ATOM     53  N   UNL A   1      43.692  29.454  28.169  1.00  0.00    -0.354 N 
ATOM     54  C   UNL A   1      39.019  29.051  28.602  1.00  0.00     0.074 A 
ATOM     55  C   UNL A   1      39.049  29.376  27.193  1.00  0.00     0.031 C 
ATOM     56  C   UNL A   1      45.070  28.321  29.528  1.00  0.00     0.029 A 
ATOM     57  C   UNL A   1      44.759  29.668  29.045  1.00  0.00     0.049 A 
ATOM     58  H   UNL A   1      43.269  30.174  27.647  1.00  0.00     0.167 HD
ATOM     59  C   UNL A   1      38.061  29.227  29.550  1.00  0.00     0.034 A 
ATOM     60  C   UNL A   1      44.970  30.794  29.787  1.00  0.00     0.034 A 
ATOM     61  C   UNL A   1      38.397  28.742  30.859  1.00  0.00     0.049 A 
ATOM     62  C   UNL A   1      43.728  30.860  30.633  1.00  0.00     0.074 A 
ATOM     63  C   UNL A   1      38.271  27.551  31.542  1.00  0.00     0.029 A 
ATOM     64  N   UNL A   1      39.170  29.530  31.680  1.00  0.00    -0.354 N 
ATOM     65  N   UNL A   1      43.495  30.144  31.700  1.00  0.00    -0.248 NA
ATOM     66  C   UNL A   1      42.550  31.509  30.058  1.00  0.00     0.031 C 
ATOM     67  C   UNL A   1      39.344  27.534  32.488  1.00  0.00     0.029 A 
ATOM     68  C   UNL A   1      40.081  28.700  32.288  1.00  0.00     0.049 A 
ATOM     69  H   UNL A   1      39.086  30.503  31.807  1.00  0.00     0.167 HD
ATOM     70  C   UNL A   1      42.107  30.009  31.755  1.00  0.00     0.074 A 
ATOM     71  C   UNL A   1      41.587  30.889  30.725  1.00  0.00     0.031 C 
ATOM     72  C   UNL A   1      41.461  29.075  32.511  1.00  0.00     0.034 A 
BRANCH  59  73
ATOM     73  C   UNL A   1      36.809  29.985  29.341  1.00  0.00     0.023 A 
ATOM     74  C   UNL A   1      36.090  29.717  28.161  1.00  0.00     0.012 A 
ATOM     75  C   UNL A   1      36.428  31.061  30.160  1.00  0.00     0.148 A 
ATOM     76  C   UNL A   1      35.033  30.534  27.771  1.00  0.00     0.002 A 
ATOM     77  C   UNL A   1      35.365  31.871  29.767  1.00  0.00     0.091 A 
ATOM     78  F   UNL A   1      37.133  31.298  31.276  1.00  0.00    -0.205 F 
ATOM     79  C   UNL A   1      34.678  31.616  28.568  1.00  0.00     0.022 A 
BRANCH  77  80
ATOM     80  S   UNL A   1      34.818  33.291  30.722  1.00  0.00     0.127 S 
ATOM     81  O   UNL A   1      34.364  32.662  31.965  1.00  0.00    -0.237 OA
ATOM     82  O   UNL A   1      36.060  34.061  30.851  1.00  0.00    -0.237 OA
ATOM     83  O   UNL A   1      33.789  33.934  29.930  1.00  0.00    -0.744 OA
ENDBRANCH  77  80
ENDBRANCH  59  73
BRANCH  60  84
ATOM     84  C   UNL A   1      45.530  31.989  29.061  1.00  0.00     0.023 A 
ATOM     85  C   UNL A   1      46.664  32.622  29.623  1.00  0.00     0.012 A 
ATOM     86  C   UNL A   1      45.000  32.552  27.881  1.00  0.00     0.148 A 
ATOM     87  C   UNL A   1      47.301  33.696  28.992  1.00  0.00     0.002 A 
ATOM     88  C   UNL A   1      45.677  33.574  27.216  1.00  0.00     0.091 A 
ATOM     89  F   UNL A   1      43.835  32.097  27.407  1.00  0.00    -0.205 F 
ATOM     90  C   UNL A   1      46.826  34.152  27.770  1.00  0.00     0.022 A 
BRANCH  88  91
ATOM     91  S   UNL A   1      45.193  34.156  25.582  1.00  0.00     0.127 S 
ATOM     92  O   UNL A   1      44.173  35.153  25.900  1.00  0.00    -0.237 OA
ATOM     93  O   UNL A   1      46.455  34.702  25.084  1.00  0.00    -0.237 OA
ATOM     94  O   UNL A   1      44.707  32.981  24.871  1.00  0.00    -0.744 OA
ENDBRANCH  88  91
ENDBRANCH  60  84
BRANCH  72  95
ATOM     95  C   UNL A   1      42.302  28.289  33.473  1.00  0.00     0.023 A 
ATOM     96  C   UNL A   1      42.283  28.656  34.832  1.00  0.00     0.012 A 
ATOM     97  C   UNL A   1      43.043  27.154  33.080  1.00  0.00     0.148 A 
ATOM     98  C   UNL A   1      42.957  27.899  35.787  1.00  0.00     0.002 A 
ATOM     99  C   UNL A   1      43.682  26.379  34.044  1.00  0.00     0.091 A 
ATOM    100  F   UNL A   1      43.090  26.829  31.779  1.00  0.00    -0.205 F 
ATOM    101  C   UNL A   1      43.643  26.752  35.396  1.00  0.00     0.022 A 
BRANCH  99 102
ATOM    102  S   UNL A   1      44.533  24.845  33.654  1.00  0.00     0.127 S 
ATOM    103  O   UNL A   1      45.796  24.999  34.376  1.00  0.00    -0.237 OA
ATOM    104  O   UNL A   1      43.628  23.847  34.224  1.00  0.00    -0.237 OA
ATOM    105  O   UNL A   1      44.665  24.804  32.204  1.00  0.00    -0.744 OA
ENDBRANCH  99 102
ENDBRANCH  72  95
ENDBRANCH  46  47
ENDBRANCH  38  41
ENDBRANCH  36  37
ENDBRANCH  35  36
ENDBRANCH   1  35
TORSDOF 19
ENDMDL
MODEL 2
REMARK VINA RESULT:     -12.9      5.220     10.557
REMARK SMILES Cc1oc2c(C)c3oc(=O)c(CC(=O)N[C@@H](CC(C)C)C(=O)NCCCCNC(=O)c4ccc(-c5c6nc(c(-c7cccc(S(=O)(=O)[O-])c7F)c7ccc([nH]7)c(-c7cccc(S(=O)(=O)[O-])c7F)c7nc(c(-c8cccc(S(=O)(=O)[O-])c8F)c8ccc5[nH]8)C=C7)C=C6)cc4)c(C)c3cc2c1C
REMARK SMILES IDX 25 1 24 2 23 3 21 4 22 5 16 7 15 8 13 9 14 10 12 12 11 13
REMARK SMILES IDX 1 14 2 15 3 16 99 17 4 18 98 19 100 20 5 21 97 22 6 23 7 24
REMARK SMILES IDX 96 25 8 26 94 27 9 28 95 29 10 30 17 31 18 32 19 33 20 34
REMARK SMILES IDX 26 35 27 36 28 37 29 38 30 40 31 41 32 42 93 43 33 44 92 45
REMARK SMILES IDX 34 46 35 47 36 48 86 49 37 50 91 51 85 52 87 53 38 54 90 55
REMARK SMILES IDX 84 56 83 57 39 59 71 60 51 61 70 62 52 63 55 64 69 65 88 66
REMARK SMILES IDX 53 67 54 68 68 70 89 71 56 72 40 73 41 74 49 75 42 76 44 77
REMARK SMILES IDX 50 78 43 79 45 80 46 81 47 82 48 83 72 84 73 85 81 86 74 87
REMARK SMILES IDX 76 88 82 89 75 90 77 91 78 92 79 93 80 94 57 95 58 96 66 97
REMARK SMILES IDX 59 98 61 99 67 100 60 101 62 102 63 103 64 104 65 105
REMARK H PARENT 23 6 15 11 28 39 87 58 55 69
REMARK Flexibility Score: inf
ROOT
ATOM      1  C   UNL A   1      42.586  27.531  35.628  1.00  0.00     0.023 C 
ENDROOT
BRANCH   1   2
ATOM      2  C   UNL A   1      42.029  28.953  35.579  1.00  0.00     0.116 C 
BRANCH   2   3
ATOM      3  N   UNL A   1      42.736  29.876  36.448  1.00  0.00    -0.354 N 
ATOM      4  C   UNL A   1      43.021  31.206  36.345  1.00  0.00     0.242 C 
ATOM      5  O   UNL A   1      43.373  31.774  37.385  1.00  0.00    -0.273 OA
ATOM      6  H   UNL A   1      43.077  29.462  37.274  1.00  0.00     0.163 HD
BRANCH   4   7
ATOM      7  C   UNL A   1      42.906  32.025  35.038  1.00  0.00     0.171 C 
BRANCH   7   8
ATOM      8  N   UNL A   1      42.063  33.206  35.232  1.00  0.00    -0.344 N 
ATOM      9  C   UNL A   1      40.755  33.249  35.614  1.00  0.00     0.225 C 
ATOM     10  O   UNL A   1      40.316  34.316  36.054  1.00  0.00    -0.275 OA
ATOM     11  H   UNL A   1      42.494  34.076  35.065  1.00  0.00     0.164 HD
BRANCH   9  12
ATOM     12  C   UNL A   1      39.847  32.033  35.439  1.00  0.00     0.143 C 
BRANCH  12  13
ATOM     13  C   UNL A   1      38.641  32.365  34.582  1.00  0.00     0.051 A 
ATOM     14  C   UNL A   1      33.413  33.914  28.117  1.00  0.00     0.088 C 
ATOM     15  C   UNL A   1      34.371  33.481  29.154  1.00  0.00     0.105 A 
ATOM     16  O   UNL A   1      33.917  33.493  30.438  1.00  0.00    -0.461 OA
ATOM     17  C   UNL A   1      35.692  33.073  29.109  1.00  0.00    -0.002 A 
ATOM     18  C   UNL A   1      34.963  33.152  31.245  1.00  0.00     0.141 A 
ATOM     19  C   UNL A   1      36.083  32.895  30.468  1.00  0.00     0.025 A 
ATOM     20  C   UNL A   1      36.561  32.904  27.920  1.00  0.00     0.049 C 
ATOM     21  C   UNL A   1      34.933  33.090  32.642  1.00  0.00     0.036 A 
ATOM     22  C   UNL A   1      37.288  32.563  31.110  1.00  0.00     0.024 A 
ATOM     23  C   UNL A   1      33.681  33.328  33.424  1.00  0.00     0.052 C 
ATOM     24  C   UNL A   1      36.190  32.833  33.233  1.00  0.00     0.145 A 
ATOM     25  C   UNL A   1      37.363  32.586  32.511  1.00  0.00     0.022 A 
ATOM     26  O   UNL A   1      36.240  32.864  34.643  1.00  0.00    -0.422 OA
ATOM     27  C   UNL A   1      38.632  32.360  33.231  1.00  0.00    -0.029 A 
ATOM     28  C   UNL A   1      37.418  32.715  35.351  1.00  0.00     0.340 A 
ATOM     29  C   UNL A   1      39.872  32.142  32.396  1.00  0.00     0.046 C 
ATOM     30  O   UNL A   1      37.441  32.871  36.567  1.00  0.00    -0.246 OA
ENDBRANCH  12  13
ENDBRANCH   9  12
ENDBRANCH   7   8
BRANCH   7  31
ATOM     31  C   UNL A   1      44.168  32.307  34.197  1.00  0.00     0.038 C 
BRANCH  31  32
ATOM     32  C   UNL A   1      44.146  33.459  33.180  1.00  0.00    -0.015 C 
ATOM     33  C   UNL A   1      45.487  33.596  32.452  1.00  0.00     0.007 C 
ATOM     34  C   UNL A   1      43.054  33.232  32.126  1.00  0.00     0.007 C 
ENDBRANCH  31  32
ENDBRANCH   7  31
ENDBRANCH   4   7
ENDBRANCH   2   3
ENDBRANCH   1   2
BRANCH   1  35
ATOM     35  C   UNL A   1      42.168  26.692  36.849  1.00  0.00     0.023 C 
BRANCH  35  36
ATOM     36  C   UNL A   1      41.762  25.231  36.578  1.00  0.00     0.116 C 
BRANCH  36  37
ATOM     37  N   UNL A   1      42.885  24.325  36.742  1.00  0.00    -0.352 N 
ATOM     38  C   UNL A   1      43.926  24.001  35.910  1.00  0.00     0.251 C 
ATOM     39  H   UNL A   1      42.902  23.857  37.608  1.00  0.00     0.163 HD
ATOM     40  O   UNL A   1      44.560  22.975  36.167  1.00  0.00    -0.269 OA
BRANCH  38  41
ATOM     41  C   UNL A   1      44.310  24.810  34.726  1.00  0.00     0.039 A 
ATOM     42  C   UNL A   1      43.612  24.583  33.532  1.00  0.00     0.014 A 
ATOM     43  C   UNL A   1      45.418  25.660  34.714  1.00  0.00     0.014 A 
ATOM     44  C   UNL A   1      43.985  25.232  32.349  1.00  0.00     0.010 A 
ATOM     45  C   UNL A   1      45.793  26.308  33.526  1.00  0.00     0.010 A 
ATOM     46  C   UNL A   1      45.073  26.115  32.336  1.00  0.00    -0.014 A 
BRANCH  46  47
ATOM     47  C   UNL A   1      45.339  26.905  31.108  1.00  0.00     0.031 A 
ATOM     48  C   UNL A   1      45.486  26.119  29.849  1.00  0.00     0.074 A 
ATOM     49  C   UNL A   1      45.086  28.229  30.984  1.00  0.00     0.049 A 
ATOM     50  N   UNL A   1      44.461  25.720  29.159  1.00  0.00    -0.248 NA
ATOM     51  C   UNL A   1      46.758  25.561  29.391  1.00  0.00     0.031 C 
ATOM     52  C   UNL A   1      44.087  28.953  31.776  1.00  0.00     0.029 A 
ATOM     53  N   UNL A   1      45.470  29.137  30.016  1.00  0.00    -0.354 N 
ATOM     54  C   UNL A   1      44.918  24.819  28.218  1.00  0.00     0.074 A 
ATOM     55  C   UNL A   1      46.355  24.772  28.382  1.00  0.00     0.031 C 
ATOM     56  C   UNL A   1      43.811  30.122  31.160  1.00  0.00     0.029 A 
ATOM     57  C   UNL A   1      44.720  30.315  30.027  1.00  0.00     0.049 A 
ATOM     58  H   UNL A   1      46.203  28.970  29.380  1.00  0.00     0.167 HD
ATOM     59  C   UNL A   1      44.083  24.165  27.368  1.00  0.00     0.034 A 
ATOM     60  C   UNL A   1      44.400  31.070  28.935  1.00  0.00     0.034 A 
ATOM     61  C   UNL A   1      42.688  24.463  27.529  1.00  0.00     0.049 A 
ATOM     62  C   UNL A   1      43.624  30.099  28.089  1.00  0.00     0.074 A 
ATOM     63  C   UNL A   1      41.643  23.967  28.281  1.00  0.00     0.029 A 
ATOM     64  N   UNL A   1      42.182  25.600  26.942  1.00  0.00    -0.354 N 
ATOM     65  N   UNL A   1      42.377  29.755  28.274  1.00  0.00    -0.248 NA
ATOM     66  C   UNL A   1      44.381  29.214  27.205  1.00  0.00     0.031 C 
ATOM     67  C   UNL A   1      40.749  25.068  28.469  1.00  0.00     0.029 A 
ATOM     68  C   UNL A   1      41.331  26.175  27.856  1.00  0.00     0.049 A 
ATOM     69  H   UNL A   1      42.389  25.936  26.040  1.00  0.00     0.167 HD
ATOM     70  C   UNL A   1      42.278  28.456  27.775  1.00  0.00     0.074 A 
ATOM     71  C   UNL A   1      43.542  28.192  27.116  1.00  0.00     0.031 C 
ATOM     72  C   UNL A   1      41.249  27.605  28.063  1.00  0.00     0.034 A 
BRANCH  59  73
ATOM     73  C   UNL A   1      44.533  23.310  26.249  1.00  0.00     0.023 A 
ATOM     74  C   UNL A   1      45.149  23.954  25.161  1.00  0.00     0.012 A 
ATOM     75  C   UNL A   1      44.204  21.947  26.157  1.00  0.00     0.148 A 
ATOM     76  C   UNL A   1      45.396  23.269  23.975  1.00  0.00     0.002 A 
ATOM     77  C   UNL A   1      44.460  21.265  24.969  1.00  0.00     0.091 A 
ATOM     78  F   UNL A   1      43.613  21.358  27.206  1.00  0.00    -0.205 F 
ATOM     79  C   UNL A   1      45.043  21.929  23.876  1.00  0.00     0.022 A 
BRANCH  77  80
ATOM     80  S   UNL A   1      44.049  19.532  24.733  1.00  0.00     0.127 S 
ATOM     81  O   UNL A   1      44.898  18.881  25.735  1.00  0.00    -0.237 OA
ATOM     82  O   UNL A   1      42.617  19.519  25.051  1.00  0.00    -0.237 OA
ATOM     83  O   UNL A   1      44.363  19.231  23.352  1.00  0.00    -0.744 OA
ENDBRANCH  77  80
ENDBRANCH  59  73
BRANCH  60  84
ATOM     84  C   UNL A   1      45.486  31.953  28.380  1.00  0.00     0.023 A 
ATOM     85  C   UNL A   1      46.822  31.641  28.727  1.00  0.00     0.012 A 
ATOM     86  C   UNL A   1      45.283  33.085  27.563  1.00  0.00     0.148 A 
ATOM     87  C   UNL A   1      47.907  32.356  28.209  1.00  0.00     0.002 A 
ATOM     88  C   UNL A   1      46.367  33.751  26.990  1.00  0.00     0.091 A 
ATOM     89  F   UNL A   1      44.036  33.519  27.348  1.00  0.00    -0.205 F 
ATOM     90  C   UNL A   1      47.681  33.392  27.314  1.00  0.00     0.022 A 
BRANCH  88  91
ATOM     91  S   UNL A   1      46.168  35.035  25.744  1.00  0.00     0.127 S 
ATOM     92  O   UNL A   1      45.490  34.316  24.667  1.00  0.00    -0.237 OA
ATOM     93  O   UNL A   1      45.336  36.003  26.457  1.00  0.00    -0.237 OA
ATOM     94  O   UNL A   1      47.514  35.493  25.427  1.00  0.00    -0.744 OA
ENDBRANCH  88  91
ENDBRANCH  60  84
BRANCH  72  95
ATOM     95  C   UNL A   1      40.081  28.188  28.801  1.00  0.00     0.023 A 
ATOM     96  C   UNL A   1      39.037  28.762  28.052  1.00  0.00     0.012 A 
ATOM     97  C   UNL A   1      39.955  28.108  30.204  1.00  0.00     0.148 A 
ATOM     98  C   UNL A   1      37.878  29.221  28.675  1.00  0.00     0.002 A 
ATOM     99  C   UNL A   1      38.779  28.531  30.817  1.00  0.00     0.091 A 
ATOM    100  F   UNL A   1      40.968  27.594  30.918  1.00  0.00    -0.205 F 
ATOM    101  C   UNL A   1      37.742  29.092  30.055  1.00  0.00     0.022 A 
BRANCH  99 102
ATOM    102  S   UNL A   1      38.475  28.344  32.578  1.00  0.00     0.127 S 
ATOM    103  O   UNL A   1      37.233  29.096  32.761  1.00  0.00    -0.237 OA
ATOM    104  O   UNL A   1      38.329  26.894  32.705  1.00  0.00    -0.237 OA
ATOM    105  O   UNL A   1      39.631  28.911  33.258  1.00  0.00    -0.744 OA
ENDBRANCH  99 102
ENDBRANCH  72  95
ENDBRANCH  46  47
ENDBRANCH  38  41
ENDBRANCH  36  37
ENDBRANCH  35  36
ENDBRANCH   1  35
TORSDOF 19
ENDMDL
MODEL 3
REMARK VINA RESULT:     -12.6      8.323     15.495
REMARK SMILES Cc1oc2c(C)c3oc(=O)c(CC(=O)N[C@@H](CC(C)C)C(=O)NCCCCNC(=O)c4ccc(-c5c6nc(c(-c7cccc(S(=O)(=O)[O-])c7F)c7ccc([nH]7)c(-c7cccc(S(=O)(=O)[O-])c7F)c7nc(c(-c8cccc(S(=O)(=O)[O-])c8F)c8ccc5[nH]8)C=C7)C=C6)cc4)c(C)c3cc2c1C
REMARK SMILES IDX 25 1 24 2 23 3 21 4 22 5 16 7 15 8 13 9 14 10 12 12 11 13
REMARK SMILES IDX 1 14 2 15 3 16 99 17 4 18 98 19 100 20 5 21 97 22 6 23 7 24
REMARK SMILES IDX 96 25 8 26 94 27 9 28 95 29 10 30 17 31 18 32 19 33 20 34
REMARK SMILES IDX 26 35 27 36 28 37 29 38 30 40 31 41 32 42 93 43 33 44 92 45
REMARK SMILES IDX 34 46 35 47 36 48 86 49 37 50 91 51 85 52 87 53 38 54 90 55
REMARK SMILES IDX 84 56 83 57 39 59 71 60 51 61 70 62 52 63 55 64 69 65 88 66
REMARK SMILES IDX 53 67 54 68 68 70 89 71 56 72 40 73 41 74 49 75 42 76 44 77
REMARK SMILES IDX 50 78 43 79 45 80 46 81 47 82 48 83 72 84 73 85 81 86 74 87
REMARK SMILES IDX 76 88 82 89 75 90 77 91 78 92 79 93 80 94 57 95 58 96 66 97
REMARK SMILES IDX 59 98 61 99 67 100 60 101 62 102 63 103 64 104 65 105
REMARK H PARENT 23 6 15 11 28 39 87 58 55 69
REMARK Flexibility Score: inf
ROOT
ATOM      1  C   UNL A   1      43.251  40.495  27.576  1.00  0.00     0.023 C 
ENDROOT
BRANCH   1   2
ATOM      2  C   UNL A   1      43.743  41.673  26.736  1.00  0.00     0.116 C 
BRANCH   2   3
ATOM      3  N   UNL A   1      44.424  41.266  25.520  1.00  0.00    -0.354 N 
ATOM      4  C   UNL A   1      44.952  41.971  24.479  1.00  0.00     0.242 C 
ATOM      5  O   UNL A   1      45.733  41.359  23.742  1.00  0.00    -0.273 OA
ATOM      6  H   UNL A   1      44.524  40.291  25.429  1.00  0.00     0.163 HD
BRANCH   4   7
ATOM      7  C   UNL A   1      44.657  43.462  24.194  1.00  0.00     0.171 C 
BRANCH   7   8
ATOM      8  N   UNL A   1      43.281  43.645  23.728  1.00  0.00    -0.344 N 
ATOM      9  C   UNL A   1      42.746  43.277  22.529  1.00  0.00     0.225 C 
ATOM     10  O   UNL A   1      41.518  43.196  22.445  1.00  0.00    -0.275 OA
ATOM     11  H   UNL A   1      42.667  44.089  24.358  1.00  0.00     0.164 HD
BRANCH   9  12
ATOM     12  C   UNL A   1      43.639  43.038  21.313  1.00  0.00     0.143 C 
BRANCH  12  13
ATOM     13  C   UNL A   1      43.582  44.207  20.349  1.00  0.00     0.051 A 
ATOM     14  C   UNL A   1      45.044  51.430  16.201  1.00  0.00     0.088 C 
ATOM     15  C   UNL A   1      44.975  50.130  16.898  1.00  0.00     0.105 A 
ATOM     16  O   UNL A   1      43.987  49.282  16.497  1.00  0.00    -0.461 OA
ATOM     17  C   UNL A   1      45.708  49.571  17.929  1.00  0.00    -0.002 A 
ATOM     18  C   UNL A   1      44.032  48.188  17.311  1.00  0.00     0.141 A 
ATOM     19  C   UNL A   1      45.072  48.329  18.218  1.00  0.00     0.025 A 
ATOM     20  C   UNL A   1      46.874  50.143  18.642  1.00  0.00     0.049 C 
ATOM     21  C   UNL A   1      43.158  47.098  17.267  1.00  0.00     0.036 A 
ATOM     22  C   UNL A   1      45.269  47.323  19.180  1.00  0.00     0.024 A 
ATOM     23  C   UNL A   1      42.085  46.978  16.232  1.00  0.00     0.052 C 
ATOM     24  C   UNL A   1      43.352  46.162  18.307  1.00  0.00     0.145 A 
ATOM     25  C   UNL A   1      44.367  46.252  19.266  1.00  0.00     0.022 A 
ATOM     26  O   UNL A   1      42.430  45.095  18.374  1.00  0.00    -0.422 OA
ATOM     27  C   UNL A   1      44.461  45.233  20.331  1.00  0.00    -0.029 A 
ATOM     28  C   UNL A   1      42.450  44.155  19.387  1.00  0.00     0.340 A 
ATOM     29  C   UNL A   1      45.550  45.408  21.363  1.00  0.00     0.046 C 
ATOM     30  O   UNL A   1      41.559  43.318  19.480  1.00  0.00    -0.246 OA
ENDBRANCH  12  13
ENDBRANCH   9  12
ENDBRANCH   7   8
BRANCH   7  31
ATOM     31  C   UNL A   1      45.107  44.539  25.204  1.00  0.00     0.038 C 
BRANCH  31  32
ATOM     32  C   UNL A   1      46.602  44.680  25.529  1.00  0.00    -0.015 C 
ATOM     33  C   UNL A   1      47.184  43.378  26.090  1.00  0.00     0.007 C 
ATOM     34  C   UNL A   1      47.399  45.054  24.272  1.00  0.00     0.007 C 
ENDBRANCH  31  32
ENDBRANCH   7  31
ENDBRANCH   4   7
ENDBRANCH   2   3
ENDBRANCH   1   2
BRANCH   1  35
ATOM     35  C   UNL A   1      41.930  39.852  27.116  1.00  0.00     0.023 C 
BRANCH  35  36
ATOM     36  C   UNL A   1      41.917  38.318  26.982  1.00  0.00     0.116 C 
BRANCH  36  37
ATOM     37  N   UNL A   1      43.212  37.807  26.567  1.00  0.00    -0.352 N 
ATOM     38  C   UNL A   1      44.057  36.888  27.135  1.00  0.00     0.251 C 
ATOM     39  H   UNL A   1      43.545  38.192  25.724  1.00  0.00     0.163 HD
ATOM     40  O   UNL A   1      45.226  36.874  26.744  1.00  0.00    -0.269 OA
BRANCH  38  41
ATOM     41  C   UNL A   1      43.637  35.934  28.192  1.00  0.00     0.039 A 
ATOM     42  C   UNL A   1      44.298  36.001  29.426  1.00  0.00     0.014 A 
ATOM     43  C   UNL A   1      42.736  34.893  27.959  1.00  0.00     0.014 A 
ATOM     44  C   UNL A   1      44.029  35.068  30.434  1.00  0.00     0.010 A 
ATOM     45  C   UNL A   1      42.469  33.956  28.971  1.00  0.00     0.010 A 
ATOM     46  C   UNL A   1      43.099  34.042  30.223  1.00  0.00    -0.014 A 
BRANCH  46  47
ATOM     47  C   UNL A   1      42.722  33.171  31.365  1.00  0.00     0.031 A 
ATOM     48  C   UNL A   1      41.354  33.385  31.920  1.00  0.00     0.074 A 
ATOM     49  C   UNL A   1      43.336  32.004  31.669  1.00  0.00     0.049 A 
ATOM     50  N   UNL A   1      40.299  32.848  31.387  1.00  0.00    -0.248 NA
ATOM     51  C   UNL A   1      41.054  34.361  32.968  1.00  0.00     0.031 C 
ATOM     52  C   UNL A   1      44.066  31.181  30.698  1.00  0.00     0.029 A 
ATOM     53  N   UNL A   1      43.258  31.206  32.794  1.00  0.00    -0.354 N 
ATOM     54  C   UNL A   1      39.194  33.438  31.967  1.00  0.00     0.074 A 
ATOM     55  C   UNL A   1      39.711  34.352  32.962  1.00  0.00     0.031 C 
ATOM     56  C   UNL A   1      44.213  29.940  31.207  1.00  0.00     0.029 A 
ATOM     57  C   UNL A   1      43.742  29.911  32.594  1.00  0.00     0.049 A 
ATOM     58  H   UNL A   1      42.897  31.520  33.654  1.00  0.00     0.167 HD
ATOM     59  C   UNL A   1      37.923  33.141  31.586  1.00  0.00     0.034 A 
ATOM     60  C   UNL A   1      43.274  28.780  33.199  1.00  0.00     0.034 A 
ATOM     61  C   UNL A   1      37.811  32.181  30.524  1.00  0.00     0.049 A 
ATOM     62  C   UNL A   1      41.836  28.751  32.758  1.00  0.00     0.074 A 
ATOM     63  C   UNL A   1      37.776  32.220  29.146  1.00  0.00     0.029 A 
ATOM     64  N   UNL A   1      37.892  30.842  30.830  1.00  0.00    -0.354 N 
ATOM     65  N   UNL A   1      41.405  28.360  31.588  1.00  0.00    -0.248 NA
ATOM     66  C   UNL A   1      40.871  29.522  33.541  1.00  0.00     0.031 C 
ATOM     67  C   UNL A   1      38.306  30.963  28.713  1.00  0.00     0.029 A 
ATOM     68  C   UNL A   1      38.669  30.258  29.858  1.00  0.00     0.049 A 
ATOM     69  H   UNL A   1      37.474  30.390  31.598  1.00  0.00     0.167 HD
ATOM     70  C   UNL A   1      40.234  29.085  31.367  1.00  0.00     0.074 A 
ATOM     71  C   UNL A   1      39.954  29.767  32.617  1.00  0.00     0.031 C 
ATOM     72  C   UNL A   1      39.646  29.229  30.144  1.00  0.00     0.034 A 
BRANCH  59  73
ATOM     73  C   UNL A   1      36.709  33.629  32.274  1.00  0.00     0.023 A 
ATOM     74  C   UNL A   1      36.504  33.191  33.596  1.00  0.00     0.012 A 
ATOM     75  C   UNL A   1      35.694  34.337  31.609  1.00  0.00     0.148 A 
ATOM     76  C   UNL A   1      35.289  33.410  34.237  1.00  0.00     0.002 A 
ATOM     77  C   UNL A   1      34.483  34.560  32.260  1.00  0.00     0.091 A 
ATOM     78  F   UNL A   1      35.913  34.739  30.349  1.00  0.00    -0.205 F 
ATOM     79  C   UNL A   1      34.276  34.085  33.566  1.00  0.00     0.022 A 
BRANCH  77  80
ATOM     80  S   UNL A   1      33.108  35.423  31.490  1.00  0.00     0.127 S 
ATOM     81  O   UNL A   1      32.981  34.712  30.215  1.00  0.00    -0.237 OA
ATOM     82  O   UNL A   1      32.021  35.161  32.440  1.00  0.00    -0.237 OA
ATOM     83  O   UNL A   1      33.508  36.812  31.398  1.00  0.00    -0.744 OA
ENDBRANCH  77  80
ENDBRANCH  59  73
BRANCH  60  84
ATOM     84  C   UNL A   1      43.696  28.550  34.626  1.00  0.00     0.023 A 
ATOM     85  C   UNL A   1      44.439  29.573  35.260  1.00  0.00     0.012 A 
ATOM     86  C   UNL A   1      43.439  27.384  35.377  1.00  0.00     0.148 A 
ATOM     87  C   UNL A   1      44.821  29.487  36.603  1.00  0.00     0.002 A 
ATOM     88  C   UNL A   1      43.755  27.330  36.735  1.00  0.00     0.091 A 
ATOM     89  F   UNL A   1      42.891  26.324  34.772  1.00  0.00    -0.205 F 
ATOM     90  C   UNL A   1      44.450  28.378  37.351  1.00  0.00     0.022 A 
BRANCH  88  91
ATOM     91  S   UNL A   1      43.224  25.980  37.802  1.00  0.00     0.127 S 
ATOM     92  O   UNL A   1      41.779  25.970  37.589  1.00  0.00    -0.237 OA
ATOM     93  O   UNL A   1      43.942  24.849  37.215  1.00  0.00    -0.237 OA
ATOM     94  O   UNL A   1      43.647  26.348  39.147  1.00  0.00    -0.744 OA
ENDBRANCH  88  91
ENDBRANCH  60  84
BRANCH  72  95
ATOM     95  C   UNL A   1      40.202  28.395  29.028  1.00  0.00     0.023 A 
ATOM     96  C   UNL A   1      39.577  27.168  28.736  1.00  0.00     0.012 A 
ATOM     97  C   UNL A   1      41.269  28.832  28.215  1.00  0.00     0.148 A 
ATOM     98  C   UNL A   1      39.980  26.403  27.644  1.00  0.00     0.002 A 
ATOM     99  C   UNL A   1      41.641  28.083  27.102  1.00  0.00     0.091 A 
ATOM    100  F   UNL A   1      41.886  29.984  28.518  1.00  0.00    -0.205 F 
ATOM    101  C   UNL A   1      41.000  26.867  26.818  1.00  0.00     0.022 A 
BRANCH  99 102
ATOM    102  S   UNL A   1      42.894  28.627  25.935  1.00  0.00     0.127 S 
ATOM    103  O   UNL A   1      44.084  27.915  26.403  1.00  0.00    -0.237 OA
ATOM    104  O   UNL A   1      42.356  28.136  24.666  1.00  0.00    -0.237 OA
ATOM    105  O   UNL A   1      42.969  30.076  26.056  1.00  0.00    -0.744 OA
ENDBRANCH  99 102
ENDBRANCH  72  95
ENDBRANCH  46  47
ENDBRANCH  38  41
ENDBRANCH  36  37
ENDBRANCH  35  36
ENDBRANCH   1  35
TORSDOF 19
ENDMDL
