MODEL 1
REMARK VINA RESULT:     -10.1      0.000      0.000
REMARK SMILES COc1cc(/C=C2/C(=O)NN(c3ccc(Cl)c(Cl)c3)C2=O)ccc1OCC(=O)NCCCCNC(=O)c1ccc(-c2c3nc(c(-c4cccc(S(=O)(=O)[O-])c4F)c4ccc([nH]4)c(-c4cccc(S(=O)(=O)[O-])c4F)c4nc(c(-c5cccc(S(=O)(=O)[O-])c5F)c5ccc2[nH]5)C=C4)C=C3)cc1
REMARK SMILES IDX 31 1 30 2 29 3 27 4 28 5 26 7 25 8 24 9 3 10 4 11 5 12 23 13
REMARK SMILES IDX 22 14 2 15 1 16 6 17 7 18 8 19 20 20 9 21 10 22 11 23 21 24
REMARK SMILES IDX 12 26 13 27 19 28 14 29 17 30 15 31 18 32 16 33 32 34 33 35
REMARK SMILES IDX 34 36 35 37 36 39 37 40 38 41 99 42 39 43 98 44 40 45 41 46
REMARK SMILES IDX 42 47 92 48 43 49 97 50 91 51 93 52 44 53 96 54 90 55 89 56
REMARK SMILES IDX 45 58 77 59 57 60 76 61 58 62 61 63 75 64 94 65 59 66 60 67
REMARK SMILES IDX 74 69 95 70 62 71 46 72 47 73 55 74 48 75 50 76 56 77 49 78
REMARK SMILES IDX 51 79 52 80 53 81 54 82 78 83 79 84 87 85 80 86 82 87 88 88
REMARK SMILES IDX 81 89 83 90 84 91 85 92 86 93 63 94 64 95 72 96 65 97 67 98
REMARK SMILES IDX 73 99 66 100 68 101 69 102 70 103 71 104
REMARK H PARENT 29 6 10 25 34 38 93 57 61 68
REMARK Flexibility Score: inf
ROOT
ATOM      1  C   UNL A   1      45.619  21.104  25.388  1.00  0.00     0.023 C 
ENDROOT
BRANCH   1   2
ATOM      2  C   UNL A   1      44.509  20.149  24.958  1.00  0.00     0.116 C 
BRANCH   2   3
ATOM      3  N   UNL A   1      44.367  19.004  25.833  1.00  0.00    -0.353 N 
ATOM      4  C   UNL A   1      43.222  18.485  26.364  1.00  0.00     0.257 C 
ATOM      5  O   UNL A   1      43.271  17.349  26.842  1.00  0.00    -0.271 OA
ATOM      6  H   UNL A   1      45.203  18.541  26.073  1.00  0.00     0.163 HD
BRANCH   4   7
ATOM      7  C   UNL A   1      41.910  19.272  26.282  1.00  0.00     0.329 C 
BRANCH   7   8
ATOM      8  O   UNL A   1      41.637  20.203  27.312  1.00  0.00    -0.480 OA
BRANCH   8   9
ATOM      9  C   UNL A   1      41.474  21.529  27.030  1.00  0.00     0.161 A 
ATOM     10  C   UNL A   1      40.362  22.181  26.484  1.00  0.00     0.161 A 
ATOM     11  C   UNL A   1      40.432  23.550  26.168  1.00  0.00     0.058 A 
ATOM     12  C   UNL A   1      41.608  24.273  26.400  1.00  0.00    -0.021 A 
ATOM     13  C   UNL A   1      42.629  22.274  27.295  1.00  0.00     0.051 A 
ATOM     14  C   UNL A   1      42.696  23.635  27.000  1.00  0.00     0.012 A 
BRANCH  10  15
ATOM     15  O   UNL A   1      39.266  21.470  26.075  1.00  0.00    -0.493 OA
ATOM     16  C   UNL A   1      38.160  22.310  25.744  1.00  0.00     0.278 C 
ENDBRANCH  10  15
BRANCH  12  17
ATOM     17  C   UNL A   1      41.783  25.630  25.874  1.00  0.00     0.028 C 
ATOM     18  C   UNL A   1      41.217  26.695  26.463  1.00  0.00     0.109 C 
ATOM     19  C   UNL A   1      41.254  28.065  25.904  1.00  0.00     0.275 C 
ATOM     20  C   UNL A   1      40.423  26.733  27.722  1.00  0.00     0.282 C 
ATOM     21  O   UNL A   1      41.889  28.466  24.947  1.00  0.00    -0.267 OA
ATOM     22  N   UNL A   1      40.422  28.804  26.721  1.00  0.00    -0.256 N 
ATOM     23  N   UNL A   1      39.974  28.055  27.806  1.00  0.00    -0.217 N 
ATOM     24  O   UNL A   1      40.195  25.807  28.481  1.00  0.00    -0.267 OA
ATOM     25  H   UNL A   1      40.176  29.744  26.557  1.00  0.00     0.192 HD
BRANCH  23  26
ATOM     26  C   UNL A   1      39.193  28.584  28.851  1.00  0.00     0.068 A 
ATOM     27  C   UNL A   1      37.906  29.072  28.603  1.00  0.00     0.030 A 
ATOM     28  C   UNL A   1      39.694  28.618  30.159  1.00  0.00     0.050 A 
ATOM     29  C   UNL A   1      37.119  29.549  29.658  1.00  0.00     0.024 A 
ATOM     30  C   UNL A   1      38.929  29.142  31.206  1.00  0.00     0.061 A 
ATOM     31  C   UNL A   1      37.631  29.594  30.958  1.00  0.00     0.059 A 
ATOM     32  Cl  UNL A   1      39.656  29.221  32.772  1.00  0.00    -0.083 Cl
ATOM     33  Cl  UNL A   1      36.613  30.217  32.206  1.00  0.00    -0.083 Cl
ENDBRANCH  23  26
ENDBRANCH  12  17
ENDBRANCH   8   9
ENDBRANCH   7   8
ENDBRANCH   4   7
ENDBRANCH   2   3
ENDBRANCH   1   2
BRANCH   1  34
ATOM     34  C   UNL A   1      45.573  22.499  24.765  1.00  0.00     0.023 C 
BRANCH  34  35
ATOM     35  C   UNL A   1      46.315  23.590  25.526  1.00  0.00     0.116 C 
BRANCH  35  36
ATOM     36  N   UNL A   1      47.098  24.459  24.659  1.00  0.00    -0.352 N 
ATOM     37  C   UNL A   1      47.261  25.821  24.712  1.00  0.00     0.251 C 
ATOM     38  H   UNL A   1      47.580  24.004  23.930  1.00  0.00     0.163 HD
ATOM     39  O   UNL A   1      47.872  26.399  23.818  1.00  0.00    -0.269 OA
BRANCH  37  40
ATOM     40  C   UNL A   1      46.670  26.589  25.829  1.00  0.00     0.039 A 
ATOM     41  C   UNL A   1      45.281  26.709  25.901  1.00  0.00     0.014 A 
ATOM     42  C   UNL A   1      47.478  27.166  26.812  1.00  0.00     0.014 A 
ATOM     43  C   UNL A   1      44.699  27.350  26.996  1.00  0.00     0.010 A 
ATOM     44  C   UNL A   1      46.894  27.731  27.943  1.00  0.00     0.010 A 
ATOM     45  C   UNL A   1      45.497  27.831  28.047  1.00  0.00    -0.014 A 
BRANCH  45  46
ATOM     46  C   UNL A   1      44.891  28.436  29.261  1.00  0.00     0.031 A 
ATOM     47  C   UNL A   1      44.694  27.607  30.504  1.00  0.00     0.074 A 
ATOM     48  C   UNL A   1      44.457  29.713  29.226  1.00  0.00     0.049 A 
ATOM     49  N   UNL A   1      44.128  27.939  31.635  1.00  0.00    -0.248 NA
ATOM     50  C   UNL A   1      45.177  26.216  30.463  1.00  0.00     0.031 C 
ATOM     51  C   UNL A   1      44.530  30.603  28.063  1.00  0.00     0.029 A 
ATOM     52  N   UNL A   1      43.844  30.480  30.187  1.00  0.00    -0.354 N 
ATOM     53  C   UNL A   1      44.169  26.801  32.431  1.00  0.00     0.074 A 
ATOM     54  C   UNL A   1      44.773  25.753  31.637  1.00  0.00     0.031 C 
ATOM     55  C   UNL A   1      43.993  31.791  28.382  1.00  0.00     0.029 A 
ATOM     56  C   UNL A   1      43.501  31.741  29.754  1.00  0.00     0.049 A 
ATOM     57  H   UNL A   1      43.669  30.158  31.101  1.00  0.00     0.167 HD
ATOM     58  C   UNL A   1      43.774  26.647  33.717  1.00  0.00     0.034 A 
ATOM     59  C   UNL A   1      42.849  32.737  30.386  1.00  0.00     0.034 A 
ATOM     60  C   UNL A   1      43.200  27.697  34.514  1.00  0.00     0.049 A 
ATOM     61  C   UNL A   1      42.416  32.532  31.816  1.00  0.00     0.074 A 
ATOM     62  C   UNL A   1      42.812  27.653  35.841  1.00  0.00     0.029 A 
ATOM     63  N   UNL A   1      42.930  28.978  34.060  1.00  0.00    -0.354 N 
ATOM     64  N   UNL A   1      42.587  31.488  32.590  1.00  0.00    -0.248 NA
ATOM     65  C   UNL A   1      41.734  33.658  32.470  1.00  0.00     0.031 C 
ATOM     66  C   UNL A   1      42.285  28.902  36.184  1.00  0.00     0.029 A 
ATOM     67  C   UNL A   1      42.380  29.734  35.081  1.00  0.00     0.049 A 
ATOM     68  H   UNL A   1      43.104  29.303  33.147  1.00  0.00     0.167 HD
ATOM     69  C   UNL A   1      42.078  31.850  33.833  1.00  0.00     0.074 A 
ATOM     70  C   UNL A   1      41.614  33.216  33.714  1.00  0.00     0.031 C 
ATOM     71  C   UNL A   1      41.987  31.114  34.967  1.00  0.00     0.034 A 
BRANCH  58  72
ATOM     72  C   UNL A   1      44.008  25.310  34.371  1.00  0.00     0.023 A 
ATOM     73  C   UNL A   1      42.980  24.346  34.358  1.00  0.00     0.012 A 
ATOM     74  C   UNL A   1      45.262  24.975  34.918  1.00  0.00     0.148 A 
ATOM     75  C   UNL A   1      43.185  23.079  34.901  1.00  0.00     0.002 A 
ATOM     76  C   UNL A   1      45.475  23.695  35.416  1.00  0.00     0.091 A 
ATOM     77  F   UNL A   1      46.223  25.910  34.935  1.00  0.00    -0.205 F 
ATOM     78  C   UNL A   1      44.434  22.750  35.418  1.00  0.00     0.022 A 
BRANCH  76  79
ATOM     79  S   UNL A   1      47.069  23.140  36.033  1.00  0.00     0.127 S 
ATOM     80  O   UNL A   1      47.264  24.025  37.180  1.00  0.00    -0.237 OA
ATOM     81  O   UNL A   1      46.793  21.746  36.378  1.00  0.00    -0.237 OA
ATOM     82  O   UNL A   1      48.012  23.327  34.940  1.00  0.00    -0.744 OA
ENDBRANCH  76  79
ENDBRANCH  58  72
BRANCH  59  83
ATOM     83  C   UNL A   1      42.591  34.037  29.702  1.00  0.00     0.023 A 
ATOM     84  C   UNL A   1      41.329  34.279  29.123  1.00  0.00     0.012 A 
ATOM     85  C   UNL A   1      43.595  35.018  29.589  1.00  0.00     0.148 A 
ATOM     86  C   UNL A   1      41.091  35.445  28.394  1.00  0.00     0.002 A 
ATOM     87  C   UNL A   1      43.331  36.204  28.914  1.00  0.00     0.091 A 
ATOM     88  F   UNL A   1      44.793  34.768  30.136  1.00  0.00    -0.205 F 
ATOM     89  C   UNL A   1      42.088  36.410  28.295  1.00  0.00     0.022 A 
BRANCH  87  90
ATOM     90  S   UNL A   1      44.515  37.553  28.848  1.00  0.00     0.127 S 
ATOM     91  O   UNL A   1      45.473  37.063  27.860  1.00  0.00    -0.237 OA
ATOM     92  O   UNL A   1      43.681  38.668  28.398  1.00  0.00    -0.237 OA
ATOM     93  O   UNL A   1      45.020  37.696  30.207  1.00  0.00    -0.744 OA
ENDBRANCH  87  90
ENDBRANCH  59  83
BRANCH  71  94
ATOM     94  C   UNL A   1      41.429  31.785  36.195  1.00  0.00     0.023 A 
ATOM     95  C   UNL A   1      42.282  32.485  37.070  1.00  0.00     0.012 A 
ATOM     96  C   UNL A   1      40.041  31.776  36.442  1.00  0.00     0.148 A 
ATOM     97  C   UNL A   1      41.769  33.131  38.193  1.00  0.00     0.002 A 
ATOM     98  C   UNL A   1      39.531  32.470  37.531  1.00  0.00     0.091 A 
ATOM     99  F   UNL A   1      39.248  31.092  35.605  1.00  0.00    -0.205 F 
ATOM    100  C   UNL A   1      40.394  33.135  38.417  1.00  0.00     0.022 A 
BRANCH  98 101
ATOM    101  S   UNL A   1      37.767  32.614  37.844  1.00  0.00     0.127 S 
ATOM    102  O   UNL A   1      37.388  31.217  38.052  1.00  0.00    -0.237 OA
ATOM    103  O   UNL A   1      37.736  33.442  39.050  1.00  0.00    -0.237 OA
ATOM    104  O   UNL A   1      37.198  33.244  36.661  1.00  0.00    -0.744 OA
ENDBRANCH  98 101
ENDBRANCH  71  94
ENDBRANCH  45  46
ENDBRANCH  37  40
ENDBRANCH  35  36
ENDBRANCH  34  35
ENDBRANCH   1  34
TORSDOF 19
ENDMDL
MODEL 2
REMARK VINA RESULT:      -9.9      0.553      7.119
REMARK SMILES COc1cc(/C=C2/C(=O)NN(c3ccc(Cl)c(Cl)c3)C2=O)ccc1OCC(=O)NCCCCNC(=O)c1ccc(-c2c3nc(c(-c4cccc(S(=O)(=O)[O-])c4F)c4ccc([nH]4)c(-c4cccc(S(=O)(=O)[O-])c4F)c4nc(c(-c5cccc(S(=O)(=O)[O-])c5F)c5ccc2[nH]5)C=C4)C=C3)cc1
REMARK SMILES IDX 31 1 30 2 29 3 27 4 28 5 26 7 25 8 24 9 3 10 4 11 5 12 23 13
REMARK SMILES IDX 22 14 2 15 1 16 6 17 7 18 8 19 20 20 9 21 10 22 11 23 21 24
REMARK SMILES IDX 12 26 13 27 19 28 14 29 17 30 15 31 18 32 16 33 32 34 33 35
REMARK SMILES IDX 34 36 35 37 36 39 37 40 38 41 99 42 39 43 98 44 40 45 41 46
REMARK SMILES IDX 42 47 92 48 43 49 97 50 91 51 93 52 44 53 96 54 90 55 89 56
REMARK SMILES IDX 45 58 77 59 57 60 76 61 58 62 61 63 75 64 94 65 59 66 60 67
REMARK SMILES IDX 74 69 95 70 62 71 46 72 47 73 55 74 48 75 50 76 56 77 49 78
REMARK SMILES IDX 51 79 52 80 53 81 54 82 78 83 79 84 87 85 80 86 82 87 88 88
REMARK SMILES IDX 81 89 83 90 84 91 85 92 86 93 63 94 64 95 72 96 65 97 67 98
REMARK SMILES IDX 73 99 66 100 68 101 69 102 70 103 71 104
REMARK H PARENT 29 6 10 25 34 38 93 57 61 68
REMARK Flexibility Score: inf
ROOT
ATOM      1  C   UNL A   1      45.576  21.175  25.357  1.00  0.00     0.023 C 
ENDROOT
BRANCH   1   2
ATOM      2  C   UNL A   1      44.461  20.211  24.959  1.00  0.00     0.116 C 
BRANCH   2   3
ATOM      3  N   UNL A   1      44.373  19.050  25.821  1.00  0.00    -0.353 N 
ATOM      4  C   UNL A   1      43.255  18.488  26.366  1.00  0.00     0.257 C 
ATOM      5  O   UNL A   1      43.349  17.348  26.828  1.00  0.00    -0.271 OA
ATOM      6  H   UNL A   1      45.227  18.612  26.041  1.00  0.00     0.163 HD
BRANCH   4   7
ATOM      7  C   UNL A   1      41.916  19.233  26.316  1.00  0.00     0.329 C 
BRANCH   7   8
ATOM      8  O   UNL A   1      41.643  20.161  27.348  1.00  0.00    -0.480 OA
BRANCH   8   9
ATOM      9  C   UNL A   1      41.465  21.486  27.066  1.00  0.00     0.161 A 
ATOM     10  C   UNL A   1      40.350  22.123  26.508  1.00  0.00     0.161 A 
ATOM     11  C   UNL A   1      40.404  23.493  26.195  1.00  0.00     0.058 A 
ATOM     12  C   UNL A   1      41.567  24.232  26.442  1.00  0.00    -0.021 A 
ATOM     13  C   UNL A   1      42.606  22.247  27.346  1.00  0.00     0.051 A 
ATOM     14  C   UNL A   1      42.657  23.609  27.053  1.00  0.00     0.012 A 
BRANCH  10  15
ATOM     15  O   UNL A   1      39.269  21.397  26.085  1.00  0.00    -0.493 OA
ATOM     16  C   UNL A   1      38.154  22.222  25.747  1.00  0.00     0.278 C 
ENDBRANCH  10  15
BRANCH  12  17
ATOM     17  C   UNL A   1      41.728  25.593  25.920  1.00  0.00     0.028 C 
ATOM     18  C   UNL A   1      41.169  26.653  26.525  1.00  0.00     0.109 C 
ATOM     19  C   UNL A   1      41.192  28.026  25.972  1.00  0.00     0.275 C 
ATOM     20  C   UNL A   1      40.397  26.682  27.797  1.00  0.00     0.282 C 
ATOM     21  O   UNL A   1      41.810  28.434  25.006  1.00  0.00    -0.267 OA
ATOM     22  N   UNL A   1      40.372  28.757  26.807  1.00  0.00    -0.256 N 
ATOM     23  N   UNL A   1      39.945  28.001  27.896  1.00  0.00    -0.217 N 
ATOM     24  O   UNL A   1      40.185  25.751  28.555  1.00  0.00    -0.267 OA
ATOM     25  H   UNL A   1      40.120  29.698  26.652  1.00  0.00     0.192 HD
BRANCH  23  26
ATOM     26  C   UNL A   1      39.180  28.523  28.956  1.00  0.00     0.068 A 
ATOM     27  C   UNL A   1      37.892  29.019  28.730  1.00  0.00     0.030 A 
ATOM     28  C   UNL A   1      39.698  28.540  30.258  1.00  0.00     0.050 A 
ATOM     29  C   UNL A   1      37.122  29.488  29.801  1.00  0.00     0.024 A 
ATOM     30  C   UNL A   1      38.950  29.056  31.321  1.00  0.00     0.061 A 
ATOM     31  C   UNL A   1      37.651  29.517  31.095  1.00  0.00     0.059 A 
ATOM     32  Cl  UNL A   1      39.698  29.115  32.878  1.00  0.00    -0.083 Cl
ATOM     33  Cl  UNL A   1      36.652  30.131  32.363  1.00  0.00    -0.083 Cl
ENDBRANCH  23  26
ENDBRANCH  12  17
ENDBRANCH   8   9
ENDBRANCH   7   8
ENDBRANCH   4   7
ENDBRANCH   2   3
ENDBRANCH   1   2
BRANCH   1  34
ATOM     34  C   UNL A   1      45.443  22.600  24.821  1.00  0.00     0.023 C 
BRANCH  34  35
ATOM     35  C   UNL A   1      46.277  23.657  25.533  1.00  0.00     0.116 C 
BRANCH  35  36
ATOM     36  N   UNL A   1      47.009  24.520  24.618  1.00  0.00    -0.352 N 
ATOM     37  C   UNL A   1      47.138  25.887  24.627  1.00  0.00     0.251 C 
ATOM     38  H   UNL A   1      47.480  24.057  23.887  1.00  0.00     0.163 HD
ATOM     39  O   UNL A   1      47.705  26.454  23.698  1.00  0.00    -0.269 OA
BRANCH  37  40
ATOM     40  C   UNL A   1      46.562  26.672  25.739  1.00  0.00     0.039 A 
ATOM     41  C   UNL A   1      45.186  26.909  25.752  1.00  0.00     0.014 A 
ATOM     42  C   UNL A   1      47.368  27.150  26.776  1.00  0.00     0.014 A 
ATOM     43  C   UNL A   1      44.609  27.568  26.840  1.00  0.00     0.010 A 
ATOM     44  C   UNL A   1      46.781  27.731  27.896  1.00  0.00     0.010 A 
ATOM     45  C   UNL A   1      45.395  27.949  27.941  1.00  0.00    -0.014 A 
BRANCH  45  46
ATOM     46  C   UNL A   1      44.785  28.570  29.145  1.00  0.00     0.031 A 
ATOM     47  C   UNL A   1      44.385  30.023  29.129  1.00  0.00     0.074 A 
ATOM     48  C   UNL A   1      44.651  27.846  30.276  1.00  0.00     0.049 A 
ATOM     49  N   UNL A   1      43.897  30.754  30.096  1.00  0.00    -0.248 NA
ATOM     50  C   UNL A   1      44.576  30.755  27.864  1.00  0.00     0.031 C 
ATOM     51  C   UNL A   1      45.060  26.448  30.442  1.00  0.00     0.029 A 
ATOM     52  N   UNL A   1      44.155  28.191  31.509  1.00  0.00    -0.354 N 
ATOM     53  C   UNL A   1      43.742  32.031  29.569  1.00  0.00     0.074 A 
ATOM     54  C   UNL A   1      44.231  31.987  28.208  1.00  0.00     0.031 C 
ATOM     55  C   UNL A   1      44.792  26.056  31.697  1.00  0.00     0.029 A 
ATOM     56  C   UNL A   1      44.230  27.179  32.439  1.00  0.00     0.049 A 
ATOM     57  H   UNL A   1      43.781  29.080  31.710  1.00  0.00     0.167 HD
ATOM     58  C   UNL A   1      43.209  33.132  30.149  1.00  0.00     0.034 A 
ATOM     59  C   UNL A   1      43.898  27.163  33.746  1.00  0.00     0.034 A 
ATOM     60  C   UNL A   1      42.697  33.167  31.492  1.00  0.00     0.049 A 
ATOM     61  C   UNL A   1      43.312  28.408  34.364  1.00  0.00     0.074 A 
ATOM     62  C   UNL A   1      42.094  34.222  32.154  1.00  0.00     0.029 A 
ATOM     63  N   UNL A   1      42.730  32.103  32.380  1.00  0.00    -0.354 N 
ATOM     64  N   UNL A   1      43.053  29.565  33.805  1.00  0.00    -0.248 NA
ATOM     65  C   UNL A   1      42.941  28.331  35.784  1.00  0.00     0.031 C 
ATOM     66  C   UNL A   1      41.782  33.802  33.451  1.00  0.00     0.029 A 
ATOM     67  C   UNL A   1      42.157  32.476  33.583  1.00  0.00     0.049 A 
ATOM     68  H   UNL A   1      43.104  31.214  32.183  1.00  0.00     0.167 HD
ATOM     69  C   UNL A   1      42.443  30.334  34.791  1.00  0.00     0.074 A 
ATOM     70  C   UNL A   1      42.354  29.504  35.973  1.00  0.00     0.031 C 
ATOM     71  C   UNL A   1      42.011  31.617  34.729  1.00  0.00     0.034 A 
BRANCH  58  72
ATOM     72  C   UNL A   1      43.088  34.380  29.314  1.00  0.00     0.023 A 
ATOM     73  C   UNL A   1      41.846  34.703  28.731  1.00  0.00     0.012 A 
ATOM     74  C   UNL A   1      44.169  35.274  29.177  1.00  0.00     0.148 A 
ATOM     75  C   UNL A   1      41.686  35.881  28.004  1.00  0.00     0.002 A 
ATOM     76  C   UNL A   1      43.989  36.468  28.490  1.00  0.00     0.091 A 
ATOM     77  F   UNL A   1      45.346  34.942  29.726  1.00  0.00    -0.205 F 
ATOM     78  C   UNL A   1      42.752  36.768  27.894  1.00  0.00     0.022 A 
BRANCH  76  79
ATOM     79  S   UNL A   1      45.272  37.719  28.356  1.00  0.00     0.127 S 
ATOM     80  O   UNL A   1      44.585  38.766  27.601  1.00  0.00    -0.237 OA
ATOM     81  O   UNL A   1      45.526  38.046  29.759  1.00  0.00    -0.237 OA
ATOM     82  O   UNL A   1      46.385  37.085  27.663  1.00  0.00    -0.744 OA
ENDBRANCH  76  79
ENDBRANCH  58  72
BRANCH  59  83
ATOM     83  C   UNL A   1      44.067  25.927  34.562  1.00  0.00     0.023 A 
ATOM     84  C   UNL A   1      42.996  25.017  34.678  1.00  0.00     0.012 A 
ATOM     85  C   UNL A   1      45.266  25.662  35.252  1.00  0.00     0.148 A 
ATOM     86  C   UNL A   1      43.094  23.902  35.511  1.00  0.00     0.002 A 
ATOM     87  C   UNL A   1      45.378  24.516  36.031  1.00  0.00     0.091 A 
ATOM     88  F   UNL A   1      46.272  26.540  35.139  1.00  0.00    -0.205 F 
ATOM     89  C   UNL A   1      44.286  23.648  36.182  1.00  0.00     0.022 A 
BRANCH  87  90
ATOM     90  S   UNL A   1      46.918  24.045  36.827  1.00  0.00     0.127 S 
ATOM     91  O   UNL A   1      47.263  25.263  37.557  1.00  0.00    -0.237 OA
ATOM     92  O   UNL A   1      46.496  22.922  37.665  1.00  0.00    -0.237 OA
ATOM     93  O   UNL A   1      47.819  23.676  35.744  1.00  0.00    -0.744 OA
ENDBRANCH  87  90
ENDBRANCH  59  83
BRANCH  71  94
ATOM     94  C   UNL A   1      41.338  32.188  35.950  1.00  0.00     0.023 A 
ATOM     95  C   UNL A   1      42.056  33.021  36.830  1.00  0.00     0.012 A 
ATOM     96  C   UNL A   1      39.968  31.952  36.183  1.00  0.00     0.148 A 
ATOM     97  C   UNL A   1      41.432  33.576  37.947  1.00  0.00     0.002 A 
ATOM     98  C   UNL A   1      39.340  32.554  37.266  1.00  0.00     0.091 A 
ATOM     99  F   UNL A   1      39.307  31.145  35.341  1.00  0.00    -0.205 F 
ATOM    100  C   UNL A   1      40.073  33.353  38.158  1.00  0.00     0.022 A 
BRANCH  98 101
ATOM    101  S   UNL A   1      37.574  32.406  37.561  1.00  0.00     0.127 S 
ATOM    102  O   UNL A   1      37.404  30.955  37.622  1.00  0.00    -0.237 OA
ATOM    103  O   UNL A   1      37.419  33.093  38.844  1.00  0.00    -0.237 OA
ATOM    104  O   UNL A   1      36.921  33.063  36.438  1.00  0.00    -0.744 OA
ENDBRANCH  98 101
ENDBRANCH  71  94
ENDBRANCH  45  46
ENDBRANCH  37  40
ENDBRANCH  35  36
ENDBRANCH  34  35
ENDBRANCH   1  34
TORSDOF 19
ENDMDL
MODEL 3
REMARK VINA RESULT:      -9.3      5.020      8.243
REMARK SMILES COc1cc(/C=C2/C(=O)NN(c3ccc(Cl)c(Cl)c3)C2=O)ccc1OCC(=O)NCCCCNC(=O)c1ccc(-c2c3nc(c(-c4cccc(S(=O)(=O)[O-])c4F)c4ccc([nH]4)c(-c4cccc(S(=O)(=O)[O-])c4F)c4nc(c(-c5cccc(S(=O)(=O)[O-])c5F)c5ccc2[nH]5)C=C4)C=C3)cc1
REMARK SMILES IDX 31 1 30 2 29 3 27 4 28 5 26 7 25 8 24 9 3 10 4 11 5 12 23 13
REMARK SMILES IDX 22 14 2 15 1 16 6 17 7 18 8 19 20 20 9 21 10 22 11 23 21 24
REMARK SMILES IDX 12 26 13 27 19 28 14 29 17 30 15 31 18 32 16 33 32 34 33 35
REMARK SMILES IDX 34 36 35 37 36 39 37 40 38 41 99 42 39 43 98 44 40 45 41 46
REMARK SMILES IDX 42 47 92 48 43 49 97 50 91 51 93 52 44 53 96 54 90 55 89 56
REMARK SMILES IDX 45 58 77 59 57 60 76 61 58 62 61 63 75 64 94 65 59 66 60 67
REMARK SMILES IDX 74 69 95 70 62 71 46 72 47 73 55 74 48 75 50 76 56 77 49 78
REMARK SMILES IDX 51 79 52 80 53 81 54 82 78 83 79 84 87 85 80 86 82 87 88 88
REMARK SMILES IDX 81 89 83 90 84 91 85 92 86 93 63 94 64 95 72 96 65 97 67 98
REMARK SMILES IDX 73 99 66 100 68 101 69 102 70 103 71 104
REMARK H PARENT 29 6 10 25 34 38 93 57 61 68
REMARK Flexibility Score: inf
ROOT
ATOM      1  C   UNL A   1      38.529  23.395  26.506  1.00  0.00     0.023 C 
ENDROOT
BRANCH   1   2
ATOM      2  C   UNL A   1      37.242  23.663  25.729  1.00  0.00     0.116 C 
BRANCH   2   3
ATOM      3  N   UNL A   1      37.349  23.351  24.319  1.00  0.00    -0.353 N 
ATOM      4  C   UNL A   1      36.428  22.739  23.518  1.00  0.00     0.257 C 
ATOM      5  O   UNL A   1      36.579  22.822  22.296  1.00  0.00    -0.271 OA
ATOM      6  H   UNL A   1      38.193  23.614  23.883  1.00  0.00     0.163 HD
BRANCH   4   7
ATOM      7  C   UNL A   1      35.207  22.051  24.137  1.00  0.00     0.329 C 
BRANCH   7   8
ATOM      8  O   UNL A   1      33.932  22.392  23.627  1.00  0.00    -0.480 OA
BRANCH   8   9
ATOM      9  C   UNL A   1      33.359  23.595  23.927  1.00  0.00     0.161 A 
ATOM     10  C   UNL A   1      32.433  23.901  24.931  1.00  0.00     0.161 A 
ATOM     11  C   UNL A   1      31.878  25.191  25.009  1.00  0.00     0.058 A 
ATOM     12  C   UNL A   1      32.247  26.179  24.090  1.00  0.00    -0.021 A 
ATOM     13  C   UNL A   1      33.750  24.605  23.040  1.00  0.00     0.051 A 
ATOM     14  C   UNL A   1      33.216  25.890  23.125  1.00  0.00     0.012 A 
BRANCH  10  15
ATOM     15  O   UNL A   1      31.914  22.915  25.727  1.00  0.00    -0.493 OA
ATOM     16  C   UNL A   1      32.378  22.998  27.075  1.00  0.00     0.278 C 
ENDBRANCH  10  15
BRANCH  12  17
ATOM     17  C   UNL A   1      31.521  27.450  24.007  1.00  0.00     0.028 C 
ATOM     18  C   UNL A   1      31.897  28.527  24.716  1.00  0.00     0.109 C 
ATOM     19  C   UNL A   1      31.128  29.791  24.769  1.00  0.00     0.275 C 
ATOM     20  C   UNL A   1      33.084  28.673  25.603  1.00  0.00     0.282 C 
ATOM     21  O   UNL A   1      30.158  30.105  24.104  1.00  0.00    -0.267 OA
ATOM     22  N   UNL A   1      31.765  30.553  25.727  1.00  0.00    -0.256 N 
ATOM     23  N   UNL A   1      32.928  29.936  26.182  1.00  0.00    -0.217 N 
ATOM     24  O   UNL A   1      33.967  27.856  25.797  1.00  0.00    -0.267 OA
ATOM     25  H   UNL A   1      31.437  31.425  26.049  1.00  0.00     0.192 HD
BRANCH  23  26
ATOM     26  C   UNL A   1      33.824  30.534  27.087  1.00  0.00     0.068 A 
ATOM     27  C   UNL A   1      35.020  29.896  27.432  1.00  0.00     0.030 A 
ATOM     28  C   UNL A   1      33.535  31.787  27.644  1.00  0.00     0.050 A 
ATOM     29  C   UNL A   1      35.928  30.523  28.294  1.00  0.00     0.024 A 
ATOM     30  C   UNL A   1      34.417  32.392  28.545  1.00  0.00     0.061 A 
ATOM     31  C   UNL A   1      35.625  31.766  28.859  1.00  0.00     0.059 A 
ATOM     32  Cl  UNL A   1      33.941  33.897  29.249  1.00  0.00    -0.083 Cl
ATOM     33  Cl  UNL A   1      36.781  32.470  29.932  1.00  0.00    -0.083 Cl
ENDBRANCH  23  26
ENDBRANCH  12  17
ENDBRANCH   8   9
ENDBRANCH   7   8
ENDBRANCH   4   7
ENDBRANCH   2   3
ENDBRANCH   1   2
BRANCH   1  34
ATOM     34  C   UNL A   1      39.068  24.570  27.322  1.00  0.00     0.023 C 
BRANCH  34  35
ATOM     35  C   UNL A   1      40.578  24.610  27.508  1.00  0.00     0.116 C 
BRANCH  35  36
ATOM     36  N   UNL A   1      41.306  24.719  26.252  1.00  0.00    -0.352 N 
ATOM     37  C   UNL A   1      42.025  25.778  25.753  1.00  0.00     0.251 C 
ATOM     38  H   UNL A   1      41.279  23.920  25.678  1.00  0.00     0.163 HD
ATOM     39  O   UNL A   1      42.477  25.727  24.613  1.00  0.00    -0.269 OA
BRANCH  37  40
ATOM     40  C   UNL A   1      42.220  26.988  26.578  1.00  0.00     0.039 A 
ATOM     41  C   UNL A   1      43.149  26.949  27.620  1.00  0.00     0.014 A 
ATOM     42  C   UNL A   1      41.511  28.163  26.312  1.00  0.00     0.014 A 
ATOM     43  C   UNL A   1      43.416  28.108  28.352  1.00  0.00     0.010 A 
ATOM     44  C   UNL A   1      41.838  29.336  26.987  1.00  0.00     0.010 A 
ATOM     45  C   UNL A   1      42.793  29.322  28.016  1.00  0.00    -0.014 A 
BRANCH  45  46
ATOM     46  C   UNL A   1      43.131  30.583  28.726  1.00  0.00     0.031 A 
ATOM     47  C   UNL A   1      42.274  31.063  29.868  1.00  0.00     0.074 A 
ATOM     48  C   UNL A   1      44.170  31.331  28.301  1.00  0.00     0.049 A 
ATOM     49  N   UNL A   1      42.372  32.165  30.565  1.00  0.00    -0.248 NA
ATOM     50  C   UNL A   1      41.145  30.203  30.265  1.00  0.00     0.031 C 
ATOM     51  C   UNL A   1      45.039  31.009  27.165  1.00  0.00     0.029 A 
ATOM     52  N   UNL A   1      44.660  32.530  28.759  1.00  0.00    -0.354 N 
ATOM     53  C   UNL A   1      41.314  32.141  31.466  1.00  0.00     0.074 A 
ATOM     54  C   UNL A   1      40.557  30.939  31.197  1.00  0.00     0.031 C 
ATOM     55  C   UNL A   1      45.956  31.980  27.021  1.00  0.00     0.029 A 
ATOM     56  C   UNL A   1      45.720  33.012  28.025  1.00  0.00     0.049 A 
ATOM     57  H   UNL A   1      44.288  33.000  29.540  1.00  0.00     0.167 HD
ATOM     58  C   UNL A   1      41.017  33.021  32.453  1.00  0.00     0.034 A 
ATOM     59  C   UNL A   1      46.413  34.162  28.138  1.00  0.00     0.034 A 
ATOM     60  C   UNL A   1      41.787  34.201  32.738  1.00  0.00     0.049 A 
ATOM     61  C   UNL A   1      46.054  35.123  29.243  1.00  0.00     0.074 A 
ATOM     62  C   UNL A   1      41.594  35.129  33.746  1.00  0.00     0.029 A 
ATOM     63  N   UNL A   1      42.892  34.619  32.015  1.00  0.00    -0.354 N 
ATOM     64  N   UNL A   1      45.131  35.013  30.167  1.00  0.00    -0.248 NA
ATOM     65  C   UNL A   1      46.857  36.350  29.342  1.00  0.00     0.031 C 
ATOM     66  C   UNL A   1      42.571  36.122  33.619  1.00  0.00     0.029 A 
ATOM     67  C   UNL A   1      43.393  35.791  32.555  1.00  0.00     0.049 A 
ATOM     68  H   UNL A   1      43.267  34.152  31.233  1.00  0.00     0.167 HD
ATOM     69  C   UNL A   1      45.276  36.130  30.984  1.00  0.00     0.074 A 
ATOM     70  C   UNL A   1      46.388  36.891  30.458  1.00  0.00     0.031 C 
ATOM     71  C   UNL A   1      44.544  36.501  32.062  1.00  0.00     0.034 A 
BRANCH  58  72
ATOM     72  C   UNL A   1      39.844  32.708  33.346  1.00  0.00     0.023 A 
ATOM     73  C   UNL A   1      40.034  31.879  34.470  1.00  0.00     0.012 A 
ATOM     74  C   UNL A   1      38.584  33.299  33.127  1.00  0.00     0.148 A 
ATOM     75  C   UNL A   1      38.984  31.620  35.348  1.00  0.00     0.002 A 
ATOM     76  C   UNL A   1      37.554  33.074  34.033  1.00  0.00     0.091 A 
ATOM     77  F   UNL A   1      38.419  34.073  32.045  1.00  0.00    -0.205 F 
ATOM     78  C   UNL A   1      37.749  32.227  35.137  1.00  0.00     0.022 A 
BRANCH  76  79
ATOM     79  S   UNL A   1      35.948  33.868  33.900  1.00  0.00     0.127 S 
ATOM     80  O   UNL A   1      36.318  35.205  33.438  1.00  0.00    -0.237 OA
ATOM     81  O   UNL A   1      35.280  33.040  32.896  1.00  0.00    -0.237 OA
ATOM     82  O   UNL A   1      35.358  33.814  35.230  1.00  0.00    -0.744 OA
ENDBRANCH  76  79
ENDBRANCH  58  72
BRANCH  59  83
ATOM     83  C   UNL A   1      47.543  34.468  27.214  1.00  0.00     0.023 A 
ATOM     84  C   UNL A   1      47.284  35.114  25.988  1.00  0.00     0.012 A 
ATOM     85  C   UNL A   1      48.865  34.093  27.522  1.00  0.00     0.148 A 
ATOM     86  C   UNL A   1      48.307  35.326  25.064  1.00  0.00     0.002 A 
ATOM     87  C   UNL A   1      49.889  34.363  26.623  1.00  0.00     0.091 A 
ATOM     88  F   UNL A   1      49.094  33.471  28.687  1.00  0.00    -0.205 F 
ATOM     89  C   UNL A   1      49.609  34.957  25.382  1.00  0.00     0.022 A 
BRANCH  87  90
ATOM     90  S   UNL A   1      51.613  34.038  27.007  1.00  0.00     0.127 S 
ATOM     91  O   UNL A   1      51.735  34.609  28.346  1.00  0.00    -0.237 OA
ATOM     92  O   UNL A   1      51.667  32.577  26.952  1.00  0.00    -0.237 OA
ATOM     93  O   UNL A   1      52.378  34.704  25.961  1.00  0.00    -0.744 OA
ENDBRANCH  87  90
ENDBRANCH  59  83
BRANCH  71  94
ATOM     94  C   UNL A   1      44.960  37.750  32.794  1.00  0.00     0.023 A 
ATOM     95  C   UNL A   1      45.938  37.686  33.807  1.00  0.00     0.012 A 
ATOM     96  C   UNL A   1      44.427  39.002  32.427  1.00  0.00     0.148 A 
ATOM     97  C   UNL A   1      46.348  38.841  34.470  1.00  0.00     0.002 A 
ATOM     98  C   UNL A   1      44.882  40.156  33.053  1.00  0.00     0.091 A 
ATOM     99  F   UNL A   1      43.487  39.040  31.471  1.00  0.00    -0.205 F 
ATOM    100  C   UNL A   1      45.830  40.076  34.085  1.00  0.00     0.022 A 
BRANCH  98 101
ATOM    101  S   UNL A   1      44.347  41.797  32.557  1.00  0.00     0.127 S 
ATOM    102  O   UNL A   1      42.923  41.758  32.886  1.00  0.00    -0.237 OA
ATOM    103  O   UNL A   1      45.151  42.657  33.426  1.00  0.00    -0.237 OA
ATOM    104  O   UNL A   1      44.655  41.911  31.139  1.00  0.00    -0.744 OA
ENDBRANCH  98 101
ENDBRANCH  71  94
ENDBRANCH  45  46
ENDBRANCH  37  40
ENDBRANCH  35  36
ENDBRANCH  34  35
ENDBRANCH   1  34
TORSDOF 19
ENDMDL
