MODEL 1
REMARK VINA RESULT:     -11.8      0.000      0.000
REMARK SMILES O=C(C[C@@H]([NH2+]Cc1ccccc1)C(=O)NCCCCNC(=O)c1ccc(-c2c3nc(c(-c4cccc(S(=O)(=O)[O-])c4F)c4ccc([nH]4)c(-c4cccc(S(=O)(=O)[O-])c4F)c4nc(c(-c5cccc(S(=O)(=O)[O-])c5F)c5ccc2[nH]5)C=C4)C=C3)cc1)Nc1cccc(Cl)c1Cl
REMARK SMILES IDX 17 1 16 2 15 3 13 4 14 5 4 7 3 8 2 9 1 10 86 11 87 13 88 14
REMARK SMILES IDX 93 15 89 16 91 17 94 18 90 19 92 20 5 21 6 24 7 25 8 26
REMARK SMILES IDX 12 27 9 28 11 29 10 30 18 31 19 32 20 33 21 34 22 36 23 37
REMARK SMILES IDX 24 38 85 39 25 40 84 41 26 42 27 43 28 44 78 45 29 46 83 47
REMARK SMILES IDX 77 48 79 49 30 50 82 51 76 52 75 53 31 55 63 56 43 57 62 58
REMARK SMILES IDX 44 59 47 60 61 61 80 62 45 63 46 64 60 66 81 67 48 68 32 69
REMARK SMILES IDX 33 70 41 71 34 72 36 73 42 74 35 75 37 76 38 77 39 78 40 79
REMARK SMILES IDX 64 80 65 81 73 82 66 83 68 84 74 85 67 86 69 87 70 88 71 89
REMARK SMILES IDX 72 90 49 91 50 92 58 93 51 94 53 95 59 96 52 97 54 98 55 99
REMARK SMILES IDX 56 100 57 101
REMARK H PARENT 15 6 86 12 5 22 5 23 20 35 79 54 47 65
REMARK Flexibility Score: inf
ROOT
ATOM      1  C   UNL A   1      31.138  27.659  26.358  1.00  0.00     0.023 C 
ENDROOT
BRANCH   1   2
ATOM      2  C   UNL A   1      31.898  26.333  26.341  1.00  0.00     0.116 C 
BRANCH   2   3
ATOM      3  N   UNL A   1      31.118  25.281  26.961  1.00  0.00    -0.351 N 
ATOM      4  C   UNL A   1      30.809  24.034  26.506  1.00  0.00     0.278 C 
ATOM      5  O   UNL A   1      30.104  23.319  27.222  1.00  0.00    -0.268 OA
ATOM      6  H   UNL A   1      30.755  25.502  27.850  1.00  0.00     0.163 HD
BRANCH   4   7
ATOM      7  C   UNL A   1      31.347  23.512  25.159  1.00  0.00     0.282 C 
BRANCH   7   8
ATOM      8  C   UNL A   1      31.735  22.029  25.272  1.00  0.00     0.175 C 
BRANCH   8   9
ATOM      9  C   UNL A   1      33.144  21.843  25.781  1.00  0.00     0.230 C 
ATOM     10  O   UNL A   1      33.385  21.576  26.953  1.00  0.00    -0.274 OA
ATOM     11  N   UNL A   1      34.102  22.092  24.805  1.00  0.00    -0.325 N 
ATOM     12  H   UNL A   1      33.802  22.341  23.901  1.00  0.00     0.169 HD
BRANCH  11  13
ATOM     13  C   UNL A   1      35.485  22.002  25.059  1.00  0.00     0.061 A 
ATOM     14  C   UNL A   1      36.075  20.744  24.875  1.00  0.00     0.028 A 
ATOM     15  C   UNL A   1      36.267  23.093  25.490  1.00  0.00     0.083 A 
ATOM     16  C   UNL A   1      37.450  20.583  25.031  1.00  0.00     0.004 A 
ATOM     17  C   UNL A   1      37.646  22.911  25.672  1.00  0.00     0.061 A 
ATOM     18  Cl  UNL A   1      35.512  24.585  25.965  1.00  0.00    -0.080 Cl
ATOM     19  C   UNL A   1      38.235  21.667  25.423  1.00  0.00     0.022 A 
ATOM     20  Cl  UNL A   1      38.687  24.173  26.239  1.00  0.00    -0.083 Cl
ENDBRANCH  11  13
ENDBRANCH   8   9
ENDBRANCH   7   8
BRANCH   7  21
ATOM     21  N   UNL A   1      30.390  23.790  24.038  1.00  0.00    -0.332 N 
ATOM     22  H   UNL A   1      29.603  24.325  24.406  1.00  0.00     0.347 HD
ATOM     23  H   UNL A   1      30.092  22.893  23.657  1.00  0.00     0.347 HD
BRANCH  21  24
ATOM     24  C   UNL A   1      31.010  24.559  22.937  1.00  0.00     0.297 C 
BRANCH  24  25
ATOM     25  C   UNL A   1      30.640  26.025  22.944  1.00  0.00     0.006 A 
ATOM     26  C   UNL A   1      31.565  27.018  22.580  1.00  0.00     0.009 A 
ATOM     27  C   UNL A   1      29.358  26.418  23.348  1.00  0.00     0.009 A 
ATOM     28  C   UNL A   1      31.239  28.369  22.688  1.00  0.00     0.001 A 
ATOM     29  C   UNL A   1      29.024  27.771  23.431  1.00  0.00     0.001 A 
ATOM     30  C   UNL A   1      29.969  28.746  23.117  1.00  0.00     0.000 A 
ENDBRANCH  24  25
ENDBRANCH  21  24
ENDBRANCH   7  21
ENDBRANCH   4   7
ENDBRANCH   2   3
ENDBRANCH   1   2
BRANCH   1  31
ATOM     31  C   UNL A   1      31.889  28.806  27.039  1.00  0.00     0.023 C 
BRANCH  31  32
ATOM     32  C   UNL A   1      32.629  29.743  26.090  1.00  0.00     0.116 C 
BRANCH  32  33
ATOM     33  N   UNL A   1      32.420  31.146  26.411  1.00  0.00    -0.352 N 
ATOM     34  C   UNL A   1      33.157  31.967  27.227  1.00  0.00     0.251 C 
ATOM     35  H   UNL A   1      31.640  31.566  25.983  1.00  0.00     0.163 HD
ATOM     36  O   UNL A   1      32.737  33.092  27.493  1.00  0.00    -0.269 OA
BRANCH  34  37
ATOM     37  C   UNL A   1      34.432  31.492  27.802  1.00  0.00     0.039 A 
ATOM     38  C   UNL A   1      35.459  32.415  28.005  1.00  0.00     0.014 A 
ATOM     39  C   UNL A   1      34.618  30.149  28.143  1.00  0.00     0.014 A 
ATOM     40  C   UNL A   1      36.653  32.000  28.598  1.00  0.00     0.010 A 
ATOM     41  C   UNL A   1      35.775  29.754  28.808  1.00  0.00     0.010 A 
ATOM     42  C   UNL A   1      36.809  30.673  29.035  1.00  0.00    -0.014 A 
BRANCH  42  43
ATOM     43  C   UNL A   1      38.043  30.256  29.750  1.00  0.00     0.031 A 
ATOM     44  C   UNL A   1      38.316  30.719  31.155  1.00  0.00     0.074 A 
ATOM     45  C   UNL A   1      38.947  29.491  29.106  1.00  0.00     0.049 A 
ATOM     46  N   UNL A   1      39.319  30.418  31.939  1.00  0.00    -0.248 NA
ATOM     47  C   UNL A   1      37.353  31.659  31.753  1.00  0.00     0.031 C 
ATOM     48  C   UNL A   1      38.846  29.055  27.712  1.00  0.00     0.029 A 
ATOM     49  N   UNL A   1      40.135  28.953  29.536  1.00  0.00    -0.354 N 
ATOM     50  C   UNL A   1      39.125  31.146  33.106  1.00  0.00     0.074 A 
ATOM     51  C   UNL A   1      37.928  31.936  32.914  1.00  0.00     0.031 C 
ATOM     52  C   UNL A   1      39.913  28.299  27.407  1.00  0.00     0.029 A 
ATOM     53  C   UNL A   1      40.788  28.220  28.573  1.00  0.00     0.049 A 
ATOM     54  H   UNL A   1      40.487  29.082  30.446  1.00  0.00     0.167 HD
ATOM     55  C   UNL A   1      39.855  31.136  34.247  1.00  0.00     0.034 A 
ATOM     56  C   UNL A   1      41.958  27.555  28.622  1.00  0.00     0.034 A 
ATOM     57  C   UNL A   1      41.029  30.328  34.445  1.00  0.00     0.049 A 
ATOM     58  C   UNL A   1      42.726  27.524  29.914  1.00  0.00     0.074 A 
ATOM     59  C   UNL A   1      41.790  30.181  35.592  1.00  0.00     0.029 A 
ATOM     60  N   UNL A   1      41.624  29.543  33.470  1.00  0.00    -0.354 N 
ATOM     61  N   UNL A   1      42.432  28.081  31.063  1.00  0.00    -0.248 NA
ATOM     62  C   UNL A   1      43.967  26.737  29.928  1.00  0.00     0.031 C 
ATOM     63  C   UNL A   1      42.863  29.334  35.301  1.00  0.00     0.029 A 
ATOM     64  C   UNL A   1      42.750  28.919  33.984  1.00  0.00     0.049 A 
ATOM     65  H   UNL A   1      41.295  29.441  32.548  1.00  0.00     0.167 HD
ATOM     66  C   UNL A   1      43.433  27.688  31.945  1.00  0.00     0.074 A 
ATOM     67  C   UNL A   1      44.323  26.819  31.202  1.00  0.00     0.031 C 
ATOM     68  C   UNL A   1      43.609  28.027  33.246  1.00  0.00     0.034 A 
BRANCH  55  69
ATOM     69  C   UNL A   1      39.380  31.995  35.392  1.00  0.00     0.023 A 
ATOM     70  C   UNL A   1      38.507  31.451  36.357  1.00  0.00     0.012 A 
ATOM     71  C   UNL A   1      39.842  33.317  35.549  1.00  0.00     0.148 A 
ATOM     72  C   UNL A   1      38.072  32.218  37.437  1.00  0.00     0.002 A 
ATOM     73  C   UNL A   1      39.444  34.059  36.655  1.00  0.00     0.091 A 
ATOM     74  F   UNL A   1      40.656  33.825  34.613  1.00  0.00    -0.205 F 
ATOM     75  C   UNL A   1      38.549  33.516  37.592  1.00  0.00     0.022 A 
BRANCH  73  76
ATOM     76  S   UNL A   1      40.063  35.711  36.990  1.00  0.00     0.127 S 
ATOM     77  O   UNL A   1      39.382  36.033  38.244  1.00  0.00    -0.237 OA
ATOM     78  O   UNL A   1      41.501  35.478  37.121  1.00  0.00    -0.237 OA
ATOM     79  O   UNL A   1      39.679  36.525  35.846  1.00  0.00    -0.744 OA
ENDBRANCH  73  76
ENDBRANCH  55  69
BRANCH  56  80
ATOM     80  C   UNL A   1      42.442  26.809  27.425  1.00  0.00     0.023 A 
ATOM     81  C   UNL A   1      43.079  27.507  26.380  1.00  0.00     0.012 A 
ATOM     82  C   UNL A   1      42.292  25.412  27.328  1.00  0.00     0.148 A 
ATOM     83  C   UNL A   1      43.526  26.832  25.243  1.00  0.00     0.002 A 
ATOM     84  C   UNL A   1      42.793  24.739  26.220  1.00  0.00     0.091 A 
ATOM     85  F   UNL A   1      41.675  24.769  28.329  1.00  0.00    -0.205 F 
ATOM     86  C   UNL A   1      43.392  25.448  25.168  1.00  0.00     0.022 A 
BRANCH  84  87
ATOM     87  S   UNL A   1      42.787  22.947  26.102  1.00  0.00     0.127 S 
ATOM     88  O   UNL A   1      43.106  22.740  24.692  1.00  0.00    -0.237 OA
ATOM     89  O   UNL A   1      43.851  22.581  27.036  1.00  0.00    -0.237 OA
ATOM     90  O   UNL A   1      41.455  22.529  26.518  1.00  0.00    -0.744 OA
ENDBRANCH  84  87
ENDBRANCH  56  80
BRANCH  68  91
ATOM     91  C   UNL A   1      44.794  27.432  33.963  1.00  0.00     0.023 A 
ATOM     92  C   UNL A   1      46.000  28.155  34.051  1.00  0.00     0.012 A 
ATOM     93  C   UNL A   1      44.699  26.171  34.583  1.00  0.00     0.148 A 
ATOM     94  C   UNL A   1      47.108  27.613  34.700  1.00  0.00     0.002 A 
ATOM     95  C   UNL A   1      45.790  25.660  35.276  1.00  0.00     0.091 A 
ATOM     96  F   UNL A   1      43.550  25.488  34.476  1.00  0.00    -0.205 F 
ATOM     97  C   UNL A   1      47.001  26.371  35.321  1.00  0.00     0.022 A 
BRANCH  95  98
ATOM     98  S   UNL A   1      45.710  24.116  36.189  1.00  0.00     0.127 S 
ATOM     99  O   UNL A   1      44.537  24.329  37.035  1.00  0.00    -0.237 OA
ATOM    100  O   UNL A   1      45.522  23.133  35.122  1.00  0.00    -0.237 OA
ATOM    101  O   UNL A   1      46.979  24.002  36.895  1.00  0.00    -0.744 OA
ENDBRANCH  95  98
ENDBRANCH  68  91
ENDBRANCH  42  43
ENDBRANCH  34  37
ENDBRANCH  32  33
ENDBRANCH  31  32
ENDBRANCH   1  31
TORSDOF 20
ENDMDL
MODEL 2
REMARK VINA RESULT:     -11.6      1.860      2.453
REMARK SMILES O=C(C[C@@H]([NH2+]Cc1ccccc1)C(=O)NCCCCNC(=O)c1ccc(-c2c3nc(c(-c4cccc(S(=O)(=O)[O-])c4F)c4ccc([nH]4)c(-c4cccc(S(=O)(=O)[O-])c4F)c4nc(c(-c5cccc(S(=O)(=O)[O-])c5F)c5ccc2[nH]5)C=C4)C=C3)cc1)Nc1cccc(Cl)c1Cl
REMARK SMILES IDX 17 1 16 2 15 3 13 4 14 5 4 7 3 8 2 9 1 10 86 11 87 13 88 14
REMARK SMILES IDX 93 15 89 16 91 17 94 18 90 19 92 20 5 21 6 24 7 25 8 26
REMARK SMILES IDX 12 27 9 28 11 29 10 30 18 31 19 32 20 33 21 34 22 36 23 37
REMARK SMILES IDX 24 38 85 39 25 40 84 41 26 42 27 43 28 44 78 45 29 46 83 47
REMARK SMILES IDX 77 48 79 49 30 50 82 51 76 52 75 53 31 55 63 56 43 57 62 58
REMARK SMILES IDX 44 59 47 60 61 61 80 62 45 63 46 64 60 66 81 67 48 68 32 69
REMARK SMILES IDX 33 70 41 71 34 72 36 73 42 74 35 75 37 76 38 77 39 78 40 79
REMARK SMILES IDX 64 80 65 81 73 82 66 83 68 84 74 85 67 86 69 87 70 88 71 89
REMARK SMILES IDX 72 90 49 91 50 92 58 93 51 94 53 95 59 96 52 97 54 98 55 99
REMARK SMILES IDX 56 100 57 101
REMARK H PARENT 15 6 86 12 5 22 5 23 20 35 79 54 47 65
REMARK Flexibility Score: inf
ROOT
ATOM      1  C   UNL A   1      33.002  29.324  24.250  1.00  0.00     0.023 C 
ENDROOT
BRANCH   1   2
ATOM      2  C   UNL A   1      33.696  27.983  24.482  1.00  0.00     0.116 C 
BRANCH   2   3
ATOM      3  N   UNL A   1      33.928  27.297  23.227  1.00  0.00    -0.351 N 
ATOM      4  C   UNL A   1      33.289  26.222  22.684  1.00  0.00     0.278 C 
ATOM      5  O   UNL A   1      33.690  25.805  21.594  1.00  0.00    -0.268 OA
ATOM      6  H   UNL A   1      34.661  27.664  22.681  1.00  0.00     0.163 HD
BRANCH   4   7
ATOM      7  C   UNL A   1      32.083  25.564  23.383  1.00  0.00     0.282 C 
BRANCH   7   8
ATOM      8  C   UNL A   1      32.510  24.942  24.722  1.00  0.00     0.175 C 
BRANCH   8   9
ATOM      9  C   UNL A   1      33.051  23.542  24.555  1.00  0.00     0.230 C 
ATOM     10  O   UNL A   1      34.218  23.326  24.244  1.00  0.00    -0.274 OA
ATOM     11  N   UNL A   1      32.072  22.569  24.705  1.00  0.00    -0.325 N 
ATOM     12  H   UNL A   1      31.152  22.851  24.914  1.00  0.00     0.169 HD
BRANCH  11  13
ATOM     13  C   UNL A   1      32.343  21.192  24.570  1.00  0.00     0.061 A 
ATOM     14  C   UNL A   1      32.783  20.524  25.721  1.00  0.00     0.028 A 
ATOM     15  C   UNL A   1      32.204  20.491  23.355  1.00  0.00     0.083 A 
ATOM     16  C   UNL A   1      33.001  19.148  25.694  1.00  0.00     0.004 A 
ATOM     17  C   UNL A   1      32.455  19.110  23.334  1.00  0.00     0.061 A 
ATOM     18  Cl  UNL A   1      31.908  21.346  21.871  1.00  0.00    -0.080 Cl
ATOM     19  C   UNL A   1      32.831  18.442  24.505  1.00  0.00     0.022 A 
ATOM     20  Cl  UNL A   1      32.356  18.165  21.888  1.00  0.00    -0.083 Cl
ENDBRANCH  11  13
ENDBRANCH   8   9
ENDBRANCH   7   8
BRANCH   7  21
ATOM     21  N   UNL A   1      30.934  26.520  23.515  1.00  0.00    -0.332 N 
ATOM     22  H   UNL A   1      31.118  27.146  24.299  1.00  0.00     0.347 HD
ATOM     23  H   UNL A   1      30.089  25.968  23.663  1.00  0.00     0.347 HD
BRANCH  21  24
ATOM     24  C   UNL A   1      30.728  27.334  22.297  1.00  0.00     0.297 C 
BRANCH  24  25
ATOM     25  C   UNL A   1      29.665  28.398  22.458  1.00  0.00     0.006 A 
ATOM     26  C   UNL A   1      29.902  29.734  22.088  1.00  0.00     0.009 A 
ATOM     27  C   UNL A   1      28.424  28.066  23.014  1.00  0.00     0.009 A 
ATOM     28  C   UNL A   1      28.948  30.720  22.335  1.00  0.00     0.001 A 
ATOM     29  C   UNL A   1      27.461  29.050  23.237  1.00  0.00     0.001 A 
ATOM     30  C   UNL A   1      27.729  30.379  22.913  1.00  0.00     0.000 A 
ENDBRANCH  24  25
ENDBRANCH  21  24
ENDBRANCH   7  21
ENDBRANCH   4   7
ENDBRANCH   2   3
ENDBRANCH   1   2
BRANCH   1  31
ATOM     31  C   UNL A   1      31.848  29.610  25.215  1.00  0.00     0.023 C 
BRANCH  31  32
ATOM     32  C   UNL A   1      32.271  30.089  26.600  1.00  0.00     0.116 C 
BRANCH  32  33
ATOM     33  N   UNL A   1      32.228  31.538  26.729  1.00  0.00    -0.352 N 
ATOM     34  C   UNL A   1      33.099  32.374  27.380  1.00  0.00     0.251 C 
ATOM     35  H   UNL A   1      31.468  31.980  26.288  1.00  0.00     0.163 HD
ATOM     36  O   UNL A   1      32.816  33.565  27.507  1.00  0.00    -0.269 OA
BRANCH  34  37
ATOM     37  C   UNL A   1      34.355  31.842  27.949  1.00  0.00     0.039 A 
ATOM     38  C   UNL A   1      35.444  32.705  28.088  1.00  0.00     0.014 A 
ATOM     39  C   UNL A   1      34.463  30.506  28.344  1.00  0.00     0.014 A 
ATOM     40  C   UNL A   1      36.623  32.239  28.673  1.00  0.00     0.010 A 
ATOM     41  C   UNL A   1      35.609  30.066  29.002  1.00  0.00     0.010 A 
ATOM     42  C   UNL A   1      36.704  30.924  29.165  1.00  0.00    -0.014 A 
BRANCH  42  43
ATOM     43  C   UNL A   1      37.926  30.459  29.871  1.00  0.00     0.031 A 
ATOM     44  C   UNL A   1      38.243  30.936  31.263  1.00  0.00     0.074 A 
ATOM     45  C   UNL A   1      38.781  29.636  29.231  1.00  0.00     0.049 A 
ATOM     46  N   UNL A   1      39.242  30.599  32.039  1.00  0.00    -0.248 NA
ATOM     47  C   UNL A   1      37.338  31.935  31.854  1.00  0.00     0.031 C 
ATOM     48  C   UNL A   1      38.637  29.179  27.847  1.00  0.00     0.029 A 
ATOM     49  N   UNL A   1      39.946  29.048  29.654  1.00  0.00    -0.354 N 
ATOM     50  C   UNL A   1      39.102  31.359  33.193  1.00  0.00     0.074 A 
ATOM     51  C   UNL A   1      37.944  32.206  33.002  1.00  0.00     0.031 C 
ATOM     52  C   UNL A   1      39.659  28.364  27.543  1.00  0.00     0.029 A 
ATOM     53  C   UNL A   1      40.546  28.263  28.698  1.00  0.00     0.049 A 
ATOM     54  H   UNL A   1      40.318  29.176  30.557  1.00  0.00     0.167 HD
ATOM     55  C   UNL A   1      39.848  31.335  34.324  1.00  0.00     0.034 A 
ATOM     56  C   UNL A   1      41.682  27.540  28.744  1.00  0.00     0.034 A 
ATOM     57  C   UNL A   1      40.982  30.472  34.521  1.00  0.00     0.049 A 
ATOM     58  C   UNL A   1      42.467  27.496  30.026  1.00  0.00     0.074 A 
ATOM     59  C   UNL A   1      41.752  30.309  35.660  1.00  0.00     0.029 A 
ATOM     60  N   UNL A   1      41.522  29.638  33.555  1.00  0.00    -0.354 N 
ATOM     61  N   UNL A   1      42.219  28.090  31.167  1.00  0.00    -0.248 NA
ATOM     62  C   UNL A   1      43.667  26.647  30.038  1.00  0.00     0.031 C 
ATOM     63  C   UNL A   1      42.777  29.403  35.371  1.00  0.00     0.029 A 
ATOM     64  C   UNL A   1      42.623  28.968  34.065  1.00  0.00     0.049 A 
ATOM     65  H   UNL A   1      41.174  29.535  32.639  1.00  0.00     0.167 HD
ATOM     66  C   UNL A   1      43.211  27.664  32.042  1.00  0.00     0.074 A 
ATOM     67  C   UNL A   1      44.045  26.736  31.305  1.00  0.00     0.031 C 
ATOM     68  C   UNL A   1      43.424  28.019  33.334  1.00  0.00     0.034 A 
BRANCH  55  69
ATOM     69  C   UNL A   1      39.434  32.240  35.457  1.00  0.00     0.023 A 
ATOM     70  C   UNL A   1      38.567  31.752  36.458  1.00  0.00     0.012 A 
ATOM     71  C   UNL A   1      39.948  33.547  35.567  1.00  0.00     0.148 A 
ATOM     72  C   UNL A   1      38.189  32.562  37.528  1.00  0.00     0.002 A 
ATOM     73  C   UNL A   1      39.606  34.331  36.664  1.00  0.00     0.091 A 
ATOM     74  F   UNL A   1      40.755  34.001  34.599  1.00  0.00    -0.205 F 
ATOM     75  C   UNL A   1      38.717  33.845  37.637  1.00  0.00     0.022 A 
BRANCH  73  76
ATOM     76  S   UNL A   1      40.293  35.967  36.939  1.00  0.00     0.127 S 
ATOM     77  O   UNL A   1      41.729  35.694  36.895  1.00  0.00    -0.237 OA
ATOM     78  O   UNL A   1      39.779  36.713  35.791  1.00  0.00    -0.237 OA
ATOM     79  O   UNL A   1      39.782  36.407  38.230  1.00  0.00    -0.744 OA
ENDBRANCH  73  76
ENDBRANCH  55  69
BRANCH  56  80
ATOM     80  C   UNL A   1      42.109  26.747  27.556  1.00  0.00     0.023 A 
ATOM     81  C   UNL A   1      42.846  27.371  26.530  1.00  0.00     0.012 A 
ATOM     82  C   UNL A   1      41.806  25.376  27.449  1.00  0.00     0.148 A 
ATOM     83  C   UNL A   1      43.243  26.653  25.402  1.00  0.00     0.002 A 
ATOM     84  C   UNL A   1      42.256  24.653  26.351  1.00  0.00     0.091 A 
ATOM     85  F   UNL A   1      41.097  24.804  28.431  1.00  0.00    -0.205 F 
ATOM     86  C   UNL A   1      42.958  25.293  25.318  1.00  0.00     0.022 A 
BRANCH  84  87
ATOM     87  S   UNL A   1      42.053  22.873  26.224  1.00  0.00     0.127 S 
ATOM     88  O   UNL A   1      42.715  22.587  24.954  1.00  0.00    -0.237 OA
ATOM     89  O   UNL A   1      42.767  22.404  27.412  1.00  0.00    -0.237 OA
ATOM     90  O   UNL A   1      40.616  22.638  26.256  1.00  0.00    -0.744 OA
ENDBRANCH  84  87
ENDBRANCH  56  80
BRANCH  68  91
ATOM     91  C   UNL A   1      44.588  27.379  34.046  1.00  0.00     0.023 A 
ATOM     92  C   UNL A   1      45.872  27.953  33.955  1.00  0.00     0.012 A 
ATOM     93  C   UNL A   1      44.401  26.230  34.838  1.00  0.00     0.148 A 
ATOM     94  C   UNL A   1      46.960  27.364  34.598  1.00  0.00     0.002 A 
ATOM     95  C   UNL A   1      45.479  25.681  35.522  1.00  0.00     0.091 A 
ATOM     96  F   UNL A   1      43.177  25.686  34.902  1.00  0.00    -0.205 F 
ATOM     97  C   UNL A   1      46.763  26.235  35.389  1.00  0.00     0.022 A 
BRANCH  95  98
ATOM     98  S   UNL A   1      45.299  24.288  36.641  1.00  0.00     0.127 S 
ATOM     99  O   UNL A   1      44.886  23.223  35.729  1.00  0.00    -0.237 OA
ATOM    100  O   UNL A   1      46.653  24.141  37.176  1.00  0.00    -0.237 OA
ATOM    101  O   UNL A   1      44.304  24.691  37.625  1.00  0.00    -0.744 OA
ENDBRANCH  95  98
ENDBRANCH  68  91
ENDBRANCH  42  43
ENDBRANCH  34  37
ENDBRANCH  32  33
ENDBRANCH  31  32
ENDBRANCH   1  31
TORSDOF 20
ENDMDL
MODEL 3
REMARK VINA RESULT:     -11.6      1.825      2.261
REMARK SMILES O=C(C[C@@H]([NH2+]Cc1ccccc1)C(=O)NCCCCNC(=O)c1ccc(-c2c3nc(c(-c4cccc(S(=O)(=O)[O-])c4F)c4ccc([nH]4)c(-c4cccc(S(=O)(=O)[O-])c4F)c4nc(c(-c5cccc(S(=O)(=O)[O-])c5F)c5ccc2[nH]5)C=C4)C=C3)cc1)Nc1cccc(Cl)c1Cl
REMARK SMILES IDX 17 1 16 2 15 3 13 4 14 5 4 7 3 8 2 9 1 10 86 11 87 13 88 14
REMARK SMILES IDX 93 15 89 16 91 17 94 18 90 19 92 20 5 21 6 24 7 25 8 26
REMARK SMILES IDX 12 27 9 28 11 29 10 30 18 31 19 32 20 33 21 34 22 36 23 37
REMARK SMILES IDX 24 38 85 39 25 40 84 41 26 42 27 43 28 44 78 45 29 46 83 47
REMARK SMILES IDX 77 48 79 49 30 50 82 51 76 52 75 53 31 55 63 56 43 57 62 58
REMARK SMILES IDX 44 59 47 60 61 61 80 62 45 63 46 64 60 66 81 67 48 68 32 69
REMARK SMILES IDX 33 70 41 71 34 72 36 73 42 74 35 75 37 76 38 77 39 78 40 79
REMARK SMILES IDX 64 80 65 81 73 82 66 83 68 84 74 85 67 86 69 87 70 88 71 89
REMARK SMILES IDX 72 90 49 91 50 92 58 93 51 94 53 95 59 96 52 97 54 98 55 99
REMARK SMILES IDX 56 100 57 101
REMARK H PARENT 15 6 86 12 5 22 5 23 20 35 79 54 47 65
REMARK Flexibility Score: inf
ROOT
ATOM      1  C   UNL A   1      32.241  27.633  26.866  1.00  0.00     0.023 C 
ENDROOT
BRANCH   1   2
ATOM      2  C   UNL A   1      31.040  26.736  26.572  1.00  0.00     0.116 C 
BRANCH   2   3
ATOM      3  N   UNL A   1      31.345  25.350  26.867  1.00  0.00    -0.351 N 
ATOM      4  C   UNL A   1      32.061  24.438  26.150  1.00  0.00     0.278 C 
ATOM      5  O   UNL A   1      32.165  23.299  26.611  1.00  0.00    -0.268 OA
ATOM      6  H   UNL A   1      30.978  25.016  27.718  1.00  0.00     0.163 HD
BRANCH   4   7
ATOM      7  C   UNL A   1      32.751  24.817  24.824  1.00  0.00     0.282 C 
BRANCH   7   8
ATOM      8  C   UNL A   1      34.253  24.501  24.890  1.00  0.00     0.175 C 
BRANCH   8   9
ATOM      9  C   UNL A   1      34.576  23.138  24.327  1.00  0.00     0.230 C 
ATOM     10  O   UNL A   1      34.752  22.952  23.128  1.00  0.00    -0.274 OA
ATOM     11  N   UNL A   1      34.560  22.142  25.296  1.00  0.00    -0.325 N 
ATOM     12  H   UNL A   1      34.366  22.393  26.228  1.00  0.00     0.169 HD
BRANCH  11  13
ATOM     13  C   UNL A   1      34.811  20.788  24.997  1.00  0.00     0.061 A 
ATOM     14  C   UNL A   1      36.149  20.373  25.047  1.00  0.00     0.028 A 
ATOM     15  C   UNL A   1      33.799  19.871  24.648  1.00  0.00     0.083 A 
ATOM     16  C   UNL A   1      36.477  19.035  24.839  1.00  0.00     0.004 A 
ATOM     17  C   UNL A   1      34.146  18.532  24.412  1.00  0.00     0.061 A 
ATOM     18  Cl  UNL A   1      32.180  20.422  24.334  1.00  0.00    -0.080 Cl
ATOM     19  C   UNL A   1      35.477  18.115  24.529  1.00  0.00     0.022 A 
ATOM     20  Cl  UNL A   1      32.988  17.337  23.937  1.00  0.00    -0.083 Cl
ENDBRANCH  11  13
ENDBRANCH   8   9
ENDBRANCH   7   8
BRANCH   7  21
ATOM     21  N   UNL A   1      32.064  24.191  23.647  1.00  0.00    -0.332 N 
ATOM     22  H   UNL A   1      32.229  23.184  23.670  1.00  0.00     0.347 HD
ATOM     23  H   UNL A   1      32.447  24.617  22.804  1.00  0.00     0.347 HD
BRANCH  21  24
ATOM     24  C   UNL A   1      30.604  24.431  23.645  1.00  0.00     0.297 C 
BRANCH  24  25
ATOM     25  C   UNL A   1      30.231  25.860  23.319  1.00  0.00     0.006 A 
ATOM     26  C   UNL A   1      31.112  26.710  22.627  1.00  0.00     0.009 A 
ATOM     27  C   UNL A   1      28.995  26.370  23.734  1.00  0.00     0.009 A 
ATOM     28  C   UNL A   1      30.794  28.051  22.422  1.00  0.00     0.001 A 
ATOM     29  C   UNL A   1      28.667  27.707  23.505  1.00  0.00     0.001 A 
ATOM     30  C   UNL A   1      29.572  28.551  22.864  1.00  0.00     0.000 A 
ENDBRANCH  24  25
ENDBRANCH  21  24
ENDBRANCH   7  21
ENDBRANCH   4   7
ENDBRANCH   2   3
ENDBRANCH   1   2
BRANCH   1  31
ATOM     31  C   UNL A   1      31.951  29.131  26.747  1.00  0.00     0.023 C 
BRANCH  31  32
ATOM     32  C   UNL A   1      33.138  29.985  26.312  1.00  0.00     0.116 C 
BRANCH  32  33
ATOM     33  N   UNL A   1      33.012  31.374  26.727  1.00  0.00    -0.352 N 
ATOM     34  C   UNL A   1      33.801  32.094  27.587  1.00  0.00     0.251 C 
ATOM     35  H   UNL A   1      32.256  31.865  26.335  1.00  0.00     0.163 HD
ATOM     36  O   UNL A   1      33.450  33.221  27.931  1.00  0.00    -0.269 OA
BRANCH  34  37
ATOM     37  C   UNL A   1      35.050  31.508  28.117  1.00  0.00     0.039 A 
ATOM     38  C   UNL A   1      36.193  32.309  28.174  1.00  0.00     0.014 A 
ATOM     39  C   UNL A   1      35.099  30.182  28.557  1.00  0.00     0.014 A 
ATOM     40  C   UNL A   1      37.369  31.794  28.721  1.00  0.00     0.010 A 
ATOM     41  C   UNL A   1      36.248  29.698  29.177  1.00  0.00     0.010 A 
ATOM     42  C   UNL A   1      37.398  30.495  29.257  1.00  0.00    -0.014 A 
BRANCH  42  43
ATOM     43  C   UNL A   1      38.624  29.983  29.924  1.00  0.00     0.031 A 
ATOM     44  C   UNL A   1      39.016  30.462  31.295  1.00  0.00     0.074 A 
ATOM     45  C   UNL A   1      39.414  29.113  29.264  1.00  0.00     0.049 A 
ATOM     46  N   UNL A   1      40.027  30.089  32.037  1.00  0.00    -0.248 NA
ATOM     47  C   UNL A   1      38.181  31.510  31.905  1.00  0.00     0.031 C 
ATOM     48  C   UNL A   1      39.196  28.645  27.893  1.00  0.00     0.029 A 
ATOM     49  N   UNL A   1      40.567  28.476  29.651  1.00  0.00    -0.354 N 
ATOM     50  C   UNL A   1      39.966  30.871  33.185  1.00  0.00     0.074 A 
ATOM     51  C   UNL A   1      38.843  31.767  33.025  1.00  0.00     0.031 C 
ATOM     52  C   UNL A   1      40.167  27.779  27.563  1.00  0.00     0.029 A 
ATOM     53  C   UNL A   1      41.093  27.652  28.685  1.00  0.00     0.049 A 
ATOM     54  H   UNL A   1      40.978  28.599  30.537  1.00  0.00     0.167 HD
ATOM     55  C   UNL A   1      40.754  30.826  34.287  1.00  0.00     0.034 A 
ATOM     56  C   UNL A   1      42.195  26.878  28.698  1.00  0.00     0.034 A 
ATOM     57  C   UNL A   1      41.854  29.914  34.454  1.00  0.00     0.049 A 
ATOM     58  C   UNL A   1      43.026  26.814  29.950  1.00  0.00     0.074 A 
ATOM     59  C   UNL A   1      42.658  29.730  35.565  1.00  0.00     0.029 A 
ATOM     60  N   UNL A   1      42.317  29.043  33.480  1.00  0.00    -0.354 N 
ATOM     61  N   UNL A   1      42.849  27.434  31.091  1.00  0.00    -0.248 NA
ATOM     62  C   UNL A   1      44.185  25.910  29.929  1.00  0.00     0.031 C 
ATOM     63  C   UNL A   1      43.628  28.773  35.251  1.00  0.00     0.029 A 
ATOM     64  C   UNL A   1      43.405  28.330  33.958  1.00  0.00     0.049 A 
ATOM     65  H   UNL A   1      41.930  28.945  32.580  1.00  0.00     0.167 HD
ATOM     66  C   UNL A   1      43.854  26.973  31.934  1.00  0.00     0.074 A 
ATOM     67  C   UNL A   1      44.615  25.998  31.180  1.00  0.00     0.031 C 
ATOM     68  C   UNL A   1      44.133  27.335  33.211  1.00  0.00     0.034 A 
BRANCH  55  69
ATOM     69  C   UNL A   1      40.426  31.764  35.421  1.00  0.00     0.023 A 
ATOM     70  C   UNL A   1      41.205  32.924  35.615  1.00  0.00     0.012 A 
ATOM     71  C   UNL A   1      39.313  31.534  36.255  1.00  0.00     0.148 A 
ATOM     72  C   UNL A   1      40.906  33.818  36.642  1.00  0.00     0.002 A 
ATOM     73  C   UNL A   1      38.993  32.456  37.245  1.00  0.00     0.091 A 
ATOM     74  F   UNL A   1      38.595  30.418  36.069  1.00  0.00    -0.205 F 
ATOM     75  C   UNL A   1      39.795  33.591  37.448  1.00  0.00     0.022 A 
BRANCH  73  76
ATOM     76  S   UNL A   1      37.536  32.297  38.284  1.00  0.00     0.127 S 
ATOM     77  O   UNL A   1      36.570  33.127  37.566  1.00  0.00    -0.237 OA
ATOM     78  O   UNL A   1      37.271  30.860  38.222  1.00  0.00    -0.237 OA
ATOM     79  O   UNL A   1      37.924  32.789  39.599  1.00  0.00    -0.744 OA
ENDBRANCH  73  76
ENDBRANCH  55  69
BRANCH  56  80
ATOM     80  C   UNL A   1      42.539  26.050  27.507  1.00  0.00     0.023 A 
ATOM     81  C   UNL A   1      43.310  26.610  26.469  1.00  0.00     0.012 A 
ATOM     82  C   UNL A   1      42.124  24.709  27.408  1.00  0.00     0.148 A 
ATOM     83  C   UNL A   1      43.632  25.859  25.338  1.00  0.00     0.002 A 
ATOM     84  C   UNL A   1      42.498  23.949  26.306  1.00  0.00     0.091 A 
ATOM     85  F   UNL A   1      41.383  24.198  28.401  1.00  0.00    -0.205 F 
ATOM     86  C   UNL A   1      43.234  24.527  25.261  1.00  0.00     0.022 A 
BRANCH  84  87
ATOM     87  S   UNL A   1      42.148  22.192  26.187  1.00  0.00     0.127 S 
ATOM     88  O   UNL A   1      42.646  21.700  27.469  1.00  0.00    -0.237 OA
ATOM     89  O   UNL A   1      40.691  22.184  26.047  1.00  0.00    -0.237 OA
ATOM     90  O   UNL A   1      42.864  21.726  25.008  1.00  0.00    -0.744 OA
ENDBRANCH  84  87
ENDBRANCH  56  80
BRANCH  68  91
ATOM     91  C   UNL A   1      45.292  26.650  33.889  1.00  0.00     0.023 A 
ATOM     92  C   UNL A   1      46.570  27.246  33.871  1.00  0.00     0.012 A 
ATOM     93  C   UNL A   1      45.107  25.436  34.576  1.00  0.00     0.148 A 
ATOM     94  C   UNL A   1      47.654  26.618  34.482  1.00  0.00     0.002 A 
ATOM     95  C   UNL A   1      46.181  24.844  35.231  1.00  0.00     0.091 A 
ATOM     96  F   UNL A   1      43.890  24.874  34.570  1.00  0.00    -0.205 F 
ATOM     97  C   UNL A   1      47.458  25.423  35.170  1.00  0.00     0.022 A 
BRANCH  95  98
ATOM     98  S   UNL A   1      46.000  23.358  36.224  1.00  0.00     0.127 S 
ATOM     99  O   UNL A   1      45.396  22.432  35.268  1.00  0.00    -0.237 OA
ATOM    100  O   UNL A   1      47.386  23.050  36.578  1.00  0.00    -0.237 OA
ATOM    101  O   UNL A   1      45.158  23.731  37.353  1.00  0.00    -0.744 OA
ENDBRANCH  95  98
ENDBRANCH  68  91
ENDBRANCH  42  43
ENDBRANCH  34  37
ENDBRANCH  32  33
ENDBRANCH  31  32
ENDBRANCH   1  31
TORSDOF 20
ENDMDL
