MODEL 1
REMARK VINA RESULT:     -11.1      0.000      0.000
REMARK SMILES CCOC(=O)CS[C@H]1CC(=O)N(c2ccc(C(=O)NCCCCNC(=O)c3ccc(-c4c5nc(c(-c6cccc(S(=O)(=O)[O-])c6F)c6ccc([nH]6)c(-c6cccc(S(=O)(=O)[O-])c6F)c6nc(c(-c7cccc(S(=O)(=O)[O-])c7F)c7ccc4[nH]7)C=C6)C=C5)cc3)c(O)c2)C1=O
REMARK SMILES IDX 20 1 19 2 17 3 18 4 16 6 13 7 14 8 92 9 15 10 90 11 12 12
REMARK SMILES IDX 8 13 9 14 93 15 10 16 94 17 11 18 7 19 6 20 4 21 5 22 3 23
REMARK SMILES IDX 2 24 1 25 91 26 21 28 22 29 23 30 24 31 25 32 26 34 27 35
REMARK SMILES IDX 28 36 89 37 29 38 88 39 30 40 31 41 32 42 82 43 33 44 87 45
REMARK SMILES IDX 81 46 83 47 34 48 86 49 80 50 79 51 35 53 67 54 47 55 66 56
REMARK SMILES IDX 48 57 51 58 65 59 84 60 49 61 50 62 64 64 85 65 52 66 36 67
REMARK SMILES IDX 37 68 45 69 38 70 40 71 46 72 39 73 41 74 42 75 43 76 44 77
REMARK SMILES IDX 68 78 69 79 77 80 70 81 72 82 78 83 71 84 73 85 74 86 75 87
REMARK SMILES IDX 76 88 53 89 54 90 62 91 55 92 57 93 63 94 56 95 58 96 59 97
REMARK SMILES IDX 60 98 61 99
REMARK H PARENT 19 5 91 27 24 33 83 52 51 63
REMARK Flexibility Score: inf
ROOT
ATOM      1  C   UNL A   1      32.582  29.776  27.251  1.00  0.00     0.116 C 
ENDROOT
BRANCH   1   2
ATOM      2  N   UNL A   1      31.797  29.872  26.029  1.00  0.00    -0.352 N 
ATOM      3  C   UNL A   1      31.456  28.888  25.129  1.00  0.00     0.255 C 
ATOM      4  O   UNL A   1      30.811  29.175  24.125  1.00  0.00    -0.269 OA
ATOM      5  H   UNL A   1      31.462  30.772  25.815  1.00  0.00     0.163 HD
BRANCH   3   6
ATOM      6  C   UNL A   1      31.883  27.484  25.330  1.00  0.00     0.081 A 
ATOM      7  C   UNL A   1      32.481  24.723  25.677  1.00  0.00     0.055 A 
ATOM      8  C   UNL A   1      31.365  25.312  26.295  1.00  0.00     0.028 A 
ATOM      9  C   UNL A   1      33.317  25.571  24.933  1.00  0.00     0.073 A 
ATOM     10  C   UNL A   1      31.068  26.672  26.123  1.00  0.00     0.020 A 
ATOM     11  C   UNL A   1      33.046  26.935  24.797  1.00  0.00     0.130 A 
BRANCH   7  12
ATOM     12  N   UNL A   1      32.761  23.325  25.802  1.00  0.00    -0.249 N 
ATOM     13  C   UNL A   1      32.639  20.988  25.526  1.00  0.00     0.146 C 
ATOM     14  C   UNL A   1      33.704  21.303  26.549  1.00  0.00     0.125 C 
ATOM     15  C   UNL A   1      32.047  22.328  25.168  1.00  0.00     0.247 C 
ATOM     16  C   UNL A   1      33.757  22.799  26.593  1.00  0.00     0.235 C 
ATOM     17  O   UNL A   1      31.100  22.431  24.397  1.00  0.00    -0.273 OA
ATOM     18  O   UNL A   1      34.551  23.376  27.326  1.00  0.00    -0.274 OA
BRANCH  13  19
ATOM     19  S   UNL A   1      33.335  20.206  24.022  1.00  0.00    -0.136 SA
BRANCH  19  20
ATOM     20  C   UNL A   1      32.416  18.636  24.008  1.00  0.00     0.192 C 
BRANCH  20  21
ATOM     21  C   UNL A   1      32.738  17.746  22.826  1.00  0.00     0.315 C 
ATOM     22  O   UNL A   1      32.236  17.881  21.717  1.00  0.00    -0.251 OA
BRANCH  21  23
ATOM     23  O   UNL A   1      33.728  16.862  23.133  1.00  0.00    -0.465 OA
BRANCH  23  24
ATOM     24  C   UNL A   1      33.590  16.148  24.370  1.00  0.00     0.229 C 
ATOM     25  C   UNL A   1      34.912  16.061  25.109  1.00  0.00     0.049 C 
ENDBRANCH  23  24
ENDBRANCH  21  23
ENDBRANCH  20  21
ENDBRANCH  19  20
ENDBRANCH  13  19
ENDBRANCH   7  12
BRANCH  11  26
ATOM     26  O   UNL A   1      34.000  27.664  24.140  1.00  0.00    -0.507 OA
ATOM     27  H   UNL A   1      33.964  28.600  24.150  1.00  0.00     0.293 HD
ENDBRANCH  11  26
ENDBRANCH   3   6
ENDBRANCH   1   2
BRANCH   1  28
ATOM     28  C   UNL A   1      33.753  30.750  27.331  1.00  0.00     0.023 C 
BRANCH  28  29
ATOM     29  C   UNL A   1      33.504  32.045  28.102  1.00  0.00     0.023 C 
BRANCH  29  30
ATOM     30  C   UNL A   1      33.385  33.317  27.271  1.00  0.00     0.116 C 
BRANCH  30  31
ATOM     31  N   UNL A   1      32.793  34.438  27.990  1.00  0.00    -0.352 N 
ATOM     32  C   UNL A   1      33.136  34.996  29.201  1.00  0.00     0.251 C 
ATOM     33  H   UNL A   1      32.026  34.861  27.541  1.00  0.00     0.163 HD
ATOM     34  O   UNL A   1      32.438  35.887  29.680  1.00  0.00    -0.269 OA
BRANCH  32  35
ATOM     35  C   UNL A   1      34.316  34.502  29.946  1.00  0.00     0.039 A 
ATOM     36  C   UNL A   1      34.119  33.838  31.160  1.00  0.00     0.014 A 
ATOM     37  C   UNL A   1      35.607  34.665  29.442  1.00  0.00     0.014 A 
ATOM     38  C   UNL A   1      35.208  33.253  31.815  1.00  0.00     0.010 A 
ATOM     39  C   UNL A   1      36.673  34.003  30.045  1.00  0.00     0.010 A 
ATOM     40  C   UNL A   1      36.486  33.285  31.236  1.00  0.00    -0.014 A 
BRANCH  40  41
ATOM     41  C   UNL A   1      37.637  32.560  31.841  1.00  0.00     0.031 A 
ATOM     42  C   UNL A   1      38.210  33.011  33.159  1.00  0.00     0.074 A 
ATOM     43  C   UNL A   1      38.230  31.560  31.159  1.00  0.00     0.049 A 
ATOM     44  N   UNL A   1      39.252  32.555  33.805  1.00  0.00    -0.248 NA
ATOM     45  C   UNL A   1      37.543  34.143  33.822  1.00  0.00     0.031 C 
ATOM     46  C   UNL A   1      37.823  31.075  29.839  1.00  0.00     0.029 A 
ATOM     47  N   UNL A   1      39.320  30.784  31.473  1.00  0.00    -0.354 N 
ATOM     48  C   UNL A   1      39.388  33.365  34.927  1.00  0.00     0.074 A 
ATOM     49  C   UNL A   1      38.349  34.369  34.850  1.00  0.00     0.031 C 
ATOM     50  C   UNL A   1      38.637  30.075  29.464  1.00  0.00     0.029 A 
ATOM     51  C   UNL A   1      39.647  29.869  30.497  1.00  0.00     0.049 A 
ATOM     52  H   UNL A   1      39.820  30.874  32.315  1.00  0.00     0.167 HD
ATOM     53  C   UNL A   1      40.272  33.265  35.949  1.00  0.00     0.034 A 
ATOM     54  C   UNL A   1      40.646  28.967  30.441  1.00  0.00     0.034 A 
ATOM     55  C   UNL A   1      41.277  32.241  36.046  1.00  0.00     0.049 A 
ATOM     56  C   UNL A   1      41.603  28.861  31.598  1.00  0.00     0.074 A 
ATOM     57  C   UNL A   1      42.167  32.003  37.078  1.00  0.00     0.029 A 
ATOM     58  N   UNL A   1      41.531  31.286  35.072  1.00  0.00    -0.354 N 
ATOM     59  N   UNL A   1      41.619  29.537  32.720  1.00  0.00    -0.248 NA
ATOM     60  C   UNL A   1      42.659  27.843  31.495  1.00  0.00     0.031 C 
ATOM     61  C   UNL A   1      42.974  30.918  36.718  1.00  0.00     0.029 A 
ATOM     62  C   UNL A   1      42.569  30.463  35.473  1.00  0.00     0.049 A 
ATOM     63  H   UNL A   1      41.044  31.207  34.220  1.00  0.00     0.167 HD
ATOM     64  C   UNL A   1      42.657  29.000  33.475  1.00  0.00     0.074 A 
ATOM     65  C   UNL A   1      43.235  27.931  32.686  1.00  0.00     0.031 C 
ATOM     66  C   UNL A   1      43.098  29.366  34.703  1.00  0.00     0.034 A 
BRANCH  53  67
ATOM     67  C   UNL A   1      40.149  34.262  37.072  1.00  0.00     0.023 A 
ATOM     68  C   UNL A   1      40.642  35.573  36.895  1.00  0.00     0.012 A 
ATOM     69  C   UNL A   1      39.525  33.921  38.288  1.00  0.00     0.148 A 
ATOM     70  C   UNL A   1      40.560  36.511  37.923  1.00  0.00     0.002 A 
ATOM     71  C   UNL A   1      39.404  34.877  39.292  1.00  0.00     0.091 A 
ATOM     72  F   UNL A   1      39.081  32.667  38.451  1.00  0.00    -0.205 F 
ATOM     73  C   UNL A   1      39.934  36.166  39.116  1.00  0.00     0.022 A 
BRANCH  71  74
ATOM     74  S   UNL A   1      38.542  34.554  40.835  1.00  0.00     0.127 S 
ATOM     75  O   UNL A   1      39.573  33.866  41.610  1.00  0.00    -0.237 OA
ATOM     76  O   UNL A   1      38.229  35.906  41.302  1.00  0.00    -0.237 OA
ATOM     77  O   UNL A   1      37.380  33.752  40.482  1.00  0.00    -0.744 OA
ENDBRANCH  71  74
ENDBRANCH  53  67
BRANCH  54  78
ATOM     78  C   UNL A   1      40.744  28.031  29.283  1.00  0.00     0.023 A 
ATOM     79  C   UNL A   1      39.946  26.870  29.275  1.00  0.00     0.012 A 
ATOM     80  C   UNL A   1      41.592  28.289  28.190  1.00  0.00     0.148 A 
ATOM     81  C   UNL A   1      40.013  25.966  28.215  1.00  0.00     0.002 A 
ATOM     82  C   UNL A   1      41.616  27.410  27.112  1.00  0.00     0.091 A 
ATOM     83  F   UNL A   1      42.350  29.394  28.221  1.00  0.00    -0.205 F 
ATOM     84  C   UNL A   1      40.840  26.241  27.130  1.00  0.00     0.022 A 
BRANCH  82  85
ATOM     85  S   UNL A   1      42.553  27.741  25.615  1.00  0.00     0.127 S 
ATOM     86  O   UNL A   1      43.919  27.814  26.128  1.00  0.00    -0.237 OA
ATOM     87  O   UNL A   1      42.260  26.556  24.809  1.00  0.00    -0.237 OA
ATOM     88  O   UNL A   1      42.013  28.983  25.078  1.00  0.00    -0.744 OA
ENDBRANCH  82  85
ENDBRANCH  54  78
BRANCH  66  89
ATOM     89  C   UNL A   1      44.238  28.581  35.300  1.00  0.00     0.023 A 
ATOM     90  C   UNL A   1      45.566  28.889  34.945  1.00  0.00     0.012 A 
ATOM     91  C   UNL A   1      43.993  27.588  36.270  1.00  0.00     0.148 A 
ATOM     92  C   UNL A   1      46.632  28.198  35.522  1.00  0.00     0.002 A 
ATOM     93  C   UNL A   1      45.062  26.939  36.877  1.00  0.00     0.091 A 
ATOM     94  F   UNL A   1      42.722  27.297  36.580  1.00  0.00    -0.205 F 
ATOM     95  C   UNL A   1      46.381  27.234  36.494  1.00  0.00     0.022 A 
BRANCH  93  96
ATOM     96  S   UNL A   1      44.839  25.754  38.209  1.00  0.00     0.127 S 
ATOM     97  O   UNL A   1      46.219  25.378  38.507  1.00  0.00    -0.237 OA
ATOM     98  O   UNL A   1      44.192  26.567  39.241  1.00  0.00    -0.237 OA
ATOM     99  O   UNL A   1      44.004  24.692  37.666  1.00  0.00    -0.744 OA
ENDBRANCH  93  96
ENDBRANCH  66  89
ENDBRANCH  40  41
ENDBRANCH  32  35
ENDBRANCH  30  31
ENDBRANCH  29  30
ENDBRANCH  28  29
ENDBRANCH   1  28
TORSDOF 21
ENDMDL
MODEL 2
REMARK VINA RESULT:     -11.0      0.884      7.657
REMARK SMILES CCOC(=O)CS[C@H]1CC(=O)N(c2ccc(C(=O)NCCCCNC(=O)c3ccc(-c4c5nc(c(-c6cccc(S(=O)(=O)[O-])c6F)c6ccc([nH]6)c(-c6cccc(S(=O)(=O)[O-])c6F)c6nc(c(-c7cccc(S(=O)(=O)[O-])c7F)c7ccc4[nH]7)C=C6)C=C5)cc3)c(O)c2)C1=O
REMARK SMILES IDX 20 1 19 2 17 3 18 4 16 6 13 7 14 8 92 9 15 10 90 11 12 12
REMARK SMILES IDX 8 13 9 14 93 15 10 16 94 17 11 18 7 19 6 20 4 21 5 22 3 23
REMARK SMILES IDX 2 24 1 25 91 26 21 28 22 29 23 30 24 31 25 32 26 34 27 35
REMARK SMILES IDX 28 36 89 37 29 38 88 39 30 40 31 41 32 42 82 43 33 44 87 45
REMARK SMILES IDX 81 46 83 47 34 48 86 49 80 50 79 51 35 53 67 54 47 55 66 56
REMARK SMILES IDX 48 57 51 58 65 59 84 60 49 61 50 62 64 64 85 65 52 66 36 67
REMARK SMILES IDX 37 68 45 69 38 70 40 71 46 72 39 73 41 74 42 75 43 76 44 77
REMARK SMILES IDX 68 78 69 79 77 80 70 81 72 82 78 83 71 84 73 85 74 86 75 87
REMARK SMILES IDX 76 88 53 89 54 90 62 91 55 92 57 93 63 94 56 95 58 96 59 97
REMARK SMILES IDX 60 98 61 99
REMARK H PARENT 19 5 91 27 24 33 83 52 51 63
REMARK Flexibility Score: inf
ROOT
ATOM      1  C   UNL A   1      32.445  29.653  27.163  1.00  0.00     0.116 C 
ENDROOT
BRANCH   1   2
ATOM      2  N   UNL A   1      31.648  29.968  25.986  1.00  0.00    -0.352 N 
ATOM      3  C   UNL A   1      31.361  29.187  24.890  1.00  0.00     0.255 C 
ATOM      4  O   UNL A   1      30.694  29.650  23.969  1.00  0.00    -0.269 OA
ATOM      5  H   UNL A   1      31.258  30.871  25.973  1.00  0.00     0.163 HD
BRANCH   3   6
ATOM      6  C   UNL A   1      31.873  27.802  24.780  1.00  0.00     0.081 A 
ATOM      7  C   UNL A   1      32.995  25.187  24.749  1.00  0.00     0.055 A 
ATOM      8  C   UNL A   1      33.806  26.328  24.851  1.00  0.00     0.028 A 
ATOM      9  C   UNL A   1      31.614  25.398  24.602  1.00  0.00     0.073 A 
ATOM     10  C   UNL A   1      33.254  27.618  24.869  1.00  0.00     0.020 A 
ATOM     11  C   UNL A   1      31.067  26.684  24.576  1.00  0.00     0.130 A 
BRANCH   7  12
ATOM     12  N   UNL A   1      33.545  23.865  24.786  1.00  0.00    -0.249 N 
ATOM     13  C   UNL A   1      34.079  21.686  25.505  1.00  0.00     0.146 C 
ATOM     14  C   UNL A   1      34.809  21.965  24.213  1.00  0.00     0.125 C 
ATOM     15  C   UNL A   1      33.366  22.976  25.825  1.00  0.00     0.247 C 
ATOM     16  C   UNL A   1      34.346  23.329  23.802  1.00  0.00     0.235 C 
ATOM     17  O   UNL A   1      32.719  23.118  26.857  1.00  0.00    -0.273 OA
ATOM     18  O   UNL A   1      34.748  23.840  22.765  1.00  0.00    -0.274 OA
BRANCH  13  19
ATOM     19  S   UNL A   1      32.851  20.337  25.328  1.00  0.00    -0.136 SA
BRANCH  19  20
ATOM     20  C   UNL A   1      33.899  19.023  24.632  1.00  0.00     0.192 C 
BRANCH  20  21
ATOM     21  C   UNL A   1      33.181  18.117  23.655  1.00  0.00     0.315 C 
ATOM     22  O   UNL A   1      32.199  18.459  23.007  1.00  0.00    -0.251 OA
BRANCH  21  23
ATOM     23  O   UNL A   1      33.831  16.929  23.518  1.00  0.00    -0.465 OA
BRANCH  23  24
ATOM     24  C   UNL A   1      33.735  16.013  24.619  1.00  0.00     0.229 C 
ATOM     25  C   UNL A   1      35.093  15.748  25.239  1.00  0.00     0.049 C 
ENDBRANCH  23  24
ENDBRANCH  21  23
ENDBRANCH  20  21
ENDBRANCH  19  20
ENDBRANCH  13  19
ENDBRANCH   7  12
BRANCH  11  26
ATOM     26  O   UNL A   1      29.726  26.750  24.316  1.00  0.00    -0.507 OA
ATOM     27  H   UNL A   1      29.107  26.579  24.999  1.00  0.00     0.293 HD
ENDBRANCH  11  26
ENDBRANCH   3   6
ENDBRANCH   1   2
BRANCH   1  28
ATOM     28  C   UNL A   1      33.722  30.474  27.304  1.00  0.00     0.023 C 
BRANCH  28  29
ATOM     29  C   UNL A   1      33.587  31.818  28.019  1.00  0.00     0.023 C 
BRANCH  29  30
ATOM     30  C   UNL A   1      33.552  33.058  27.133  1.00  0.00     0.116 C 
BRANCH  30  31
ATOM     31  N   UNL A   1      32.923  34.212  27.760  1.00  0.00    -0.352 N 
ATOM     32  C   UNL A   1      33.226  34.858  28.938  1.00  0.00     0.251 C 
ATOM     33  H   UNL A   1      32.159  34.589  27.265  1.00  0.00     0.163 HD
ATOM     34  O   UNL A   1      32.500  35.766  29.338  1.00  0.00    -0.269 OA
BRANCH  32  35
ATOM     35  C   UNL A   1      34.396  34.439  29.742  1.00  0.00     0.039 A 
ATOM     36  C   UNL A   1      34.181  33.824  30.979  1.00  0.00     0.014 A 
ATOM     37  C   UNL A   1      35.697  34.623  29.272  1.00  0.00     0.014 A 
ATOM     38  C   UNL A   1      35.265  33.307  31.694  1.00  0.00     0.010 A 
ATOM     39  C   UNL A   1      36.763  34.026  29.938  1.00  0.00     0.010 A 
ATOM     40  C   UNL A   1      36.561  33.357  31.155  1.00  0.00    -0.014 A 
BRANCH  40  41
ATOM     41  C   UNL A   1      37.713  32.700  31.830  1.00  0.00     0.031 A 
ATOM     42  C   UNL A   1      38.407  31.530  31.182  1.00  0.00     0.074 A 
ATOM     43  C   UNL A   1      38.072  33.090  33.069  1.00  0.00     0.049 A 
ATOM     44  N   UNL A   1      39.376  30.785  31.647  1.00  0.00    -0.248 NA
ATOM     45  C   UNL A   1      37.927  31.126  29.851  1.00  0.00     0.031 C 
ATOM     46  C   UNL A   1      37.435  34.158  33.841  1.00  0.00     0.029 A 
ATOM     47  N   UNL A   1      39.050  32.615  33.910  1.00  0.00    -0.354 N 
ATOM     48  C   UNL A   1      39.595  29.804  30.686  1.00  0.00     0.074 A 
ATOM     49  C   UNL A   1      38.628  30.023  29.633  1.00  0.00     0.031 C 
ATOM     50  C   UNL A   1      38.047  34.271  35.031  1.00  0.00     0.029 A 
ATOM     51  C   UNL A   1      39.096  33.261  35.125  1.00  0.00     0.049 A 
ATOM     52  H   UNL A   1      39.660  31.882  33.668  1.00  0.00     0.167 HD
ATOM     53  C   UNL A   1      40.537  28.831  30.660  1.00  0.00     0.034 A 
ATOM     54  C   UNL A   1      39.893  33.063  36.194  1.00  0.00     0.034 A 
ATOM     55  C   UNL A   1      41.525  28.640  31.687  1.00  0.00     0.049 A 
ATOM     56  C   UNL A   1      40.946  31.990  36.133  1.00  0.00     0.074 A 
ATOM     57  C   UNL A   1      42.573  27.737  31.718  1.00  0.00     0.029 A 
ATOM     58  N   UNL A   1      41.586  29.362  32.871  1.00  0.00    -0.354 N 
ATOM     59  N   UNL A   1      41.236  31.172  35.150  1.00  0.00    -0.248 NA
ATOM     60  C   UNL A   1      41.804  31.833  37.317  1.00  0.00     0.031 C 
ATOM     61  C   UNL A   1      43.254  27.898  32.930  1.00  0.00     0.029 A 
ATOM     62  C   UNL A   1      42.646  28.920  33.643  1.00  0.00     0.049 A 
ATOM     63  H   UNL A   1      40.966  30.083  33.124  1.00  0.00     0.167 HD
ATOM     64  C   UNL A   1      42.335  30.435  35.578  1.00  0.00     0.074 A 
ATOM     65  C   UNL A   1      42.668  30.915  36.904  1.00  0.00     0.031 C 
ATOM     66  C   UNL A   1      43.001  29.444  34.937  1.00  0.00     0.034 A 
BRANCH  53  67
ATOM     67  C   UNL A   1      40.574  27.933  29.450  1.00  0.00     0.023 A 
ATOM     68  C   UNL A   1      39.713  26.816  29.387  1.00  0.00     0.012 A 
ATOM     69  C   UNL A   1      41.431  28.202  28.365  1.00  0.00     0.148 A 
ATOM     70  C   UNL A   1      39.739  25.957  28.290  1.00  0.00     0.002 A 
ATOM     71  C   UNL A   1      41.417  27.368  27.253  1.00  0.00     0.091 A 
ATOM     72  F   UNL A   1      42.258  29.254  28.448  1.00  0.00    -0.205 F 
ATOM     73  C   UNL A   1      40.583  26.237  27.220  1.00  0.00     0.022 A 
BRANCH  71  74
ATOM     74  S   UNL A   1      42.408  27.690  25.790  1.00  0.00     0.127 S 
ATOM     75  O   UNL A   1      42.023  26.578  24.922  1.00  0.00    -0.237 OA
ATOM     76  O   UNL A   1      41.909  28.998  25.360  1.00  0.00    -0.237 OA
ATOM     77  O   UNL A   1      43.792  27.689  26.238  1.00  0.00    -0.744 OA
ENDBRANCH  71  74
ENDBRANCH  53  67
BRANCH  54  78
ATOM     78  C   UNL A   1      39.785  33.958  37.383  1.00  0.00     0.023 A 
ATOM     79  C   UNL A   1      40.371  35.237  37.330  1.00  0.00     0.012 A 
ATOM     80  C   UNL A   1      39.093  33.567  38.545  1.00  0.00     0.148 A 
ATOM     81  C   UNL A   1      40.298  36.101  38.423  1.00  0.00     0.002 A 
ATOM     82  C   UNL A   1      38.979  34.452  39.612  1.00  0.00     0.091 A 
ATOM     83  F   UNL A   1      38.550  32.342  38.579  1.00  0.00    -0.205 F 
ATOM     84  C   UNL A   1      39.595  35.712  39.559  1.00  0.00     0.022 A 
BRANCH  82  85
ATOM     85  S   UNL A   1      37.989  34.091  41.067  1.00  0.00     0.127 S 
ATOM     86  O   UNL A   1      37.728  35.430  41.591  1.00  0.00    -0.237 OA
ATOM     87  O   UNL A   1      36.827  33.421  40.481  1.00  0.00    -0.237 OA
ATOM     88  O   UNL A   1      38.817  33.235  41.905  1.00  0.00    -0.744 OA
ENDBRANCH  82  85
ENDBRANCH  54  78
BRANCH  66  89
ATOM     89  C   UNL A   1      44.188  28.832  35.636  1.00  0.00     0.023 A 
ATOM     90  C   UNL A   1      45.477  29.360  35.428  1.00  0.00     0.012 A 
ATOM     91  C   UNL A   1      44.012  27.779  36.557  1.00  0.00     0.148 A 
ATOM     92  C   UNL A   1      46.578  28.830  36.101  1.00  0.00     0.002 A 
ATOM     93  C   UNL A   1      45.106  27.290  37.261  1.00  0.00     0.091 A 
ATOM     94  F   UNL A   1      42.781  27.278  36.728  1.00  0.00    -0.205 F 
ATOM     95  C   UNL A   1      46.391  27.805  37.025  1.00  0.00     0.022 A 
BRANCH  93  96
ATOM     96  S   UNL A   1      44.946  26.040  38.542  1.00  0.00     0.127 S 
ATOM     97  O   UNL A   1      44.167  26.749  39.555  1.00  0.00    -0.237 OA
ATOM     98  O   UNL A   1      44.220  24.975  37.848  1.00  0.00    -0.237 OA
ATOM     99  O   UNL A   1      46.305  25.689  38.931  1.00  0.00    -0.744 OA
ENDBRANCH  93  96
ENDBRANCH  66  89
ENDBRANCH  40  41
ENDBRANCH  32  35
ENDBRANCH  30  31
ENDBRANCH  29  30
ENDBRANCH  28  29
ENDBRANCH   1  28
TORSDOF 21
ENDMDL
MODEL 3
REMARK VINA RESULT:     -10.9      6.516     11.916
REMARK SMILES CCOC(=O)CS[C@H]1CC(=O)N(c2ccc(C(=O)NCCCCNC(=O)c3ccc(-c4c5nc(c(-c6cccc(S(=O)(=O)[O-])c6F)c6ccc([nH]6)c(-c6cccc(S(=O)(=O)[O-])c6F)c6nc(c(-c7cccc(S(=O)(=O)[O-])c7F)c7ccc4[nH]7)C=C6)C=C5)cc3)c(O)c2)C1=O
REMARK SMILES IDX 20 1 19 2 17 3 18 4 16 6 13 7 14 8 92 9 15 10 90 11 12 12
REMARK SMILES IDX 8 13 9 14 93 15 10 16 94 17 11 18 7 19 6 20 4 21 5 22 3 23
REMARK SMILES IDX 2 24 1 25 91 26 21 28 22 29 23 30 24 31 25 32 26 34 27 35
REMARK SMILES IDX 28 36 89 37 29 38 88 39 30 40 31 41 32 42 82 43 33 44 87 45
REMARK SMILES IDX 81 46 83 47 34 48 86 49 80 50 79 51 35 53 67 54 47 55 66 56
REMARK SMILES IDX 48 57 51 58 65 59 84 60 49 61 50 62 64 64 85 65 52 66 36 67
REMARK SMILES IDX 37 68 45 69 38 70 40 71 46 72 39 73 41 74 42 75 43 76 44 77
REMARK SMILES IDX 68 78 69 79 77 80 70 81 72 82 78 83 71 84 73 85 74 86 75 87
REMARK SMILES IDX 76 88 53 89 54 90 62 91 55 92 57 93 63 94 56 95 58 96 59 97
REMARK SMILES IDX 60 98 61 99
REMARK H PARENT 19 5 91 27 24 33 83 52 51 63
REMARK Flexibility Score: inf
ROOT
ATOM      1  C   UNL A   1      36.102  21.018  25.550  1.00  0.00     0.116 C 
ENDROOT
BRANCH   1   2
ATOM      2  N   UNL A   1      34.977  20.175  25.171  1.00  0.00    -0.352 N 
ATOM      3  C   UNL A   1      33.661  20.516  24.961  1.00  0.00     0.255 C 
ATOM      4  O   UNL A   1      32.842  19.646  24.681  1.00  0.00    -0.269 OA
ATOM      5  H   UNL A   1      35.190  19.222  25.047  1.00  0.00     0.163 HD
BRANCH   3   6
ATOM      6  C   UNL A   1      33.200  21.917  25.101  1.00  0.00     0.081 A 
ATOM      7  C   UNL A   1      32.518  24.655  25.470  1.00  0.00     0.055 A 
ATOM      8  C   UNL A   1      33.091  23.899  26.506  1.00  0.00     0.028 A 
ATOM      9  C   UNL A   1      32.243  23.982  24.268  1.00  0.00     0.073 A 
ATOM     10  C   UNL A   1      33.430  22.550  26.325  1.00  0.00     0.020 A 
ATOM     11  C   UNL A   1      32.540  22.627  24.101  1.00  0.00     0.130 A 
BRANCH   7  12
ATOM     12  N   UNL A   1      32.221  26.047  25.628  1.00  0.00    -0.249 N 
ATOM     13  C   UNL A   1      32.430  28.393  25.604  1.00  0.00     0.146 C 
ATOM     14  C   UNL A   1      31.110  28.028  26.240  1.00  0.00     0.125 C 
ATOM     15  C   UNL A   1      33.094  27.070  25.319  1.00  0.00     0.247 C 
ATOM     16  C   UNL A   1      31.039  26.536  26.138  1.00  0.00     0.235 C 
ATOM     17  O   UNL A   1      34.225  27.001  24.851  1.00  0.00    -0.273 OA
ATOM     18  O   UNL A   1      30.063  25.926  26.555  1.00  0.00    -0.274 OA
BRANCH  13  19
ATOM     19  S   UNL A   1      32.208  29.315  24.035  1.00  0.00    -0.136 SA
BRANCH  19  20
ATOM     20  C   UNL A   1      30.394  29.430  23.971  1.00  0.00     0.192 C 
BRANCH  20  21
ATOM     21  C   UNL A   1      29.835  29.542  22.568  1.00  0.00     0.315 C 
ATOM     22  O   UNL A   1      29.549  28.576  21.871  1.00  0.00    -0.251 OA
BRANCH  21  23
ATOM     23  O   UNL A   1      29.595  30.841  22.238  1.00  0.00    -0.465 OA
BRANCH  23  24
ATOM     24  C   UNL A   1      28.655  31.550  23.059  1.00  0.00     0.229 C 
ATOM     25  C   UNL A   1      28.835  33.051  22.937  1.00  0.00     0.049 C 
ENDBRANCH  23  24
ENDBRANCH  21  23
ENDBRANCH  20  21
ENDBRANCH  19  20
ENDBRANCH  13  19
ENDBRANCH   7  12
BRANCH  11  26
ATOM     26  O   UNL A   1      32.119  22.071  22.924  1.00  0.00    -0.507 OA
ATOM     27  H   UNL A   1      31.320  22.360  22.529  1.00  0.00     0.293 HD
ENDBRANCH  11  26
ENDBRANCH   3   6
ENDBRANCH   1   2
BRANCH   1  28
ATOM     28  C   UNL A   1      37.318  20.901  24.636  1.00  0.00     0.023 C 
BRANCH  28  29
ATOM     29  C   UNL A   1      38.289  19.761  24.945  1.00  0.00     0.023 C 
BRANCH  29  30
ATOM     30  C   UNL A   1      39.415  20.075  25.922  1.00  0.00     0.116 C 
BRANCH  30  31
ATOM     31  N   UNL A   1      40.489  19.090  25.919  1.00  0.00    -0.352 N 
ATOM     32  C   UNL A   1      41.844  19.254  26.098  1.00  0.00     0.251 C 
ATOM     33  H   UNL A   1      40.200  18.162  25.762  1.00  0.00     0.163 HD
ATOM     34  O   UNL A   1      42.597  18.292  25.961  1.00  0.00    -0.269 OA
BRANCH  32  35
ATOM     35  C   UNL A   1      42.402  20.588  26.415  1.00  0.00     0.039 A 
ATOM     36  C   UNL A   1      42.805  21.419  25.365  1.00  0.00     0.014 A 
ATOM     37  C   UNL A   1      42.502  21.033  27.734  1.00  0.00     0.014 A 
ATOM     38  C   UNL A   1      43.214  22.729  25.635  1.00  0.00     0.010 A 
ATOM     39  C   UNL A   1      42.818  22.364  27.992  1.00  0.00     0.010 A 
ATOM     40  C   UNL A   1      43.174  23.229  26.947  1.00  0.00    -0.014 A 
BRANCH  40  41
ATOM     41  C   UNL A   1      43.477  24.655  27.248  1.00  0.00     0.031 A 
ATOM     42  C   UNL A   1      44.873  25.190  27.069  1.00  0.00     0.074 A 
ATOM     43  C   UNL A   1      42.520  25.444  27.777  1.00  0.00     0.049 A 
ATOM     44  N   UNL A   1      45.344  26.378  27.348  1.00  0.00    -0.248 NA
ATOM     45  C   UNL A   1      45.879  24.257  26.536  1.00  0.00     0.031 C 
ATOM     46  C   UNL A   1      41.146  25.030  28.073  1.00  0.00     0.029 A 
ATOM     47  N   UNL A   1      42.562  26.756  28.183  1.00  0.00    -0.354 N 
ATOM     48  C   UNL A   1      46.704  26.325  27.062  1.00  0.00     0.074 A 
ATOM     49  C   UNL A   1      46.990  24.974  26.630  1.00  0.00     0.031 C 
ATOM     50  C   UNL A   1      40.474  26.068  28.594  1.00  0.00     0.029 A 
ATOM     51  C   UNL A   1      41.373  27.213  28.705  1.00  0.00     0.049 A 
ATOM     52  H   UNL A   1      43.367  27.316  28.109  1.00  0.00     0.167 HD
ATOM     53  C   UNL A   1      47.626  27.315  27.117  1.00  0.00     0.034 A 
ATOM     54  C   UNL A   1      41.044  28.416  29.216  1.00  0.00     0.034 A 
ATOM     55  C   UNL A   1      47.333  28.667  27.506  1.00  0.00     0.049 A 
ATOM     56  C   UNL A   1      42.080  29.506  29.247  1.00  0.00     0.074 A 
ATOM     57  C   UNL A   1      48.177  29.763  27.516  1.00  0.00     0.029 A 
ATOM     58  N   UNL A   1      46.099  29.110  27.959  1.00  0.00    -0.354 N 
ATOM     59  N   UNL A   1      43.322  29.477  28.827  1.00  0.00    -0.248 NA
ATOM     60  C   UNL A   1      41.661  30.806  29.791  1.00  0.00     0.031 C 
ATOM     61  C   UNL A   1      47.459  30.864  27.997  1.00  0.00     0.029 A 
ATOM     62  C   UNL A   1      46.159  30.460  28.261  1.00  0.00     0.049 A 
ATOM     63  H   UNL A   1      45.297  28.547  28.052  1.00  0.00     0.167 HD
ATOM     64  C   UNL A   1      43.819  30.763  29.016  1.00  0.00     0.074 A 
ATOM     65  C   UNL A   1      42.737  31.549  29.573  1.00  0.00     0.031 C 
ATOM     66  C   UNL A   1      45.060  31.245  28.762  1.00  0.00     0.034 A 
BRANCH  53  67
ATOM     67  C   UNL A   1      49.033  26.977  26.691  1.00  0.00     0.023 A 
ATOM     68  C   UNL A   1      49.885  26.296  27.586  1.00  0.00     0.012 A 
ATOM     69  C   UNL A   1      49.506  27.303  25.405  1.00  0.00     0.148 A 
ATOM     70  C   UNL A   1      51.197  25.988  27.228  1.00  0.00     0.002 A 
ATOM     71  C   UNL A   1      50.800  26.950  25.037  1.00  0.00     0.091 A 
ATOM     72  F   UNL A   1      48.692  27.969  24.573  1.00  0.00    -0.205 F 
ATOM     73  C   UNL A   1      51.650  26.306  25.952  1.00  0.00     0.022 A 
BRANCH  71  74
ATOM     74  S   UNL A   1      51.450  27.243  23.388  1.00  0.00     0.127 S 
ATOM     75  O   UNL A   1      50.330  26.818  22.550  1.00  0.00    -0.237 OA
ATOM     76  O   UNL A   1      51.687  28.688  23.402  1.00  0.00    -0.237 OA
ATOM     77  O   UNL A   1      52.656  26.434  23.286  1.00  0.00    -0.744 OA
ENDBRANCH  71  74
ENDBRANCH  53  67
BRANCH  54  78
ATOM     78  C   UNL A   1      39.645  28.681  29.661  1.00  0.00     0.023 A 
ATOM     79  C   UNL A   1      39.266  28.327  30.970  1.00  0.00     0.012 A 
ATOM     80  C   UNL A   1      38.702  29.298  28.816  1.00  0.00     0.148 A 
ATOM     81  C   UNL A   1      37.965  28.552  31.422  1.00  0.00     0.002 A 
ATOM     82  C   UNL A   1      37.422  29.568  29.290  1.00  0.00     0.091 A 
ATOM     83  F   UNL A   1      39.080  29.620  27.571  1.00  0.00    -0.205 F 
ATOM     84  C   UNL A   1      37.048  29.180  30.586  1.00  0.00     0.022 A 
BRANCH  82  85
ATOM     85  S   UNL A   1      36.210  30.485  28.333  1.00  0.00     0.127 S 
ATOM     86  O   UNL A   1      35.161  30.716  29.322  1.00  0.00    -0.237 OA
ATOM     87  O   UNL A   1      36.969  31.675  27.949  1.00  0.00    -0.237 OA
ATOM     88  O   UNL A   1      35.848  29.617  27.220  1.00  0.00    -0.744 OA
ENDBRANCH  82  85
ENDBRANCH  54  78
BRANCH  66  89
ATOM     89  C   UNL A   1      45.315  32.703  29.042  1.00  0.00     0.023 A 
ATOM     90  C   UNL A   1      45.774  33.107  30.311  1.00  0.00     0.012 A 
ATOM     91  C   UNL A   1      45.170  33.664  28.020  1.00  0.00     0.148 A 
ATOM     92  C   UNL A   1      46.054  34.449  30.570  1.00  0.00     0.002 A 
ATOM     93  C   UNL A   1      45.499  34.991  28.271  1.00  0.00     0.091 A 
ATOM     94  F   UNL A   1      44.714  33.264  26.825  1.00  0.00    -0.205 F 
ATOM     95  C   UNL A   1      45.928  35.387  29.548  1.00  0.00     0.022 A 
BRANCH  93  96
ATOM     96  S   UNL A   1      45.463  36.251  26.990  1.00  0.00     0.127 S 
ATOM     97  O   UNL A   1      44.027  36.463  26.821  1.00  0.00    -0.237 OA
ATOM     98  O   UNL A   1      46.174  37.361  27.628  1.00  0.00    -0.237 OA
ATOM     99  O   UNL A   1      46.150  35.675  25.842  1.00  0.00    -0.744 OA
ENDBRANCH  93  96
ENDBRANCH  66  89
ENDBRANCH  40  41
ENDBRANCH  32  35
ENDBRANCH  30  31
ENDBRANCH  29  30
ENDBRANCH  28  29
ENDBRANCH   1  28
TORSDOF 21
ENDMDL
