MODEL 1
REMARK VINA RESULT:     -12.0      0.000      0.000
REMARK SMILES O=C(Cc1ccn(C(F)F)c(=O)c1)NCCCCNC(=O)c1ccc(-c2c3nc(c(-c4cccc(S(=O)(=O)[O-])c4F)c4ccc([nH]4)c(-c4cccc(S(=O)(=O)[O-])c4F)c4nc(c(-c5cccc(S(=O)(=O)[O-])c5F)c5ccc2[nH]5)C=C4)C=C3)cc1
REMARK SMILES IDX 17 1 16 2 15 3 14 4 1 5 2 6 3 8 4 9 5 10 13 11 6 12 11 13
REMARK SMILES IDX 7 14 12 15 8 16 9 17 10 18 18 19 19 20 20 21 21 23 22 24
REMARK SMILES IDX 23 25 84 26 24 27 83 28 25 29 26 30 27 31 77 32 28 33 82 34
REMARK SMILES IDX 76 35 78 36 29 37 81 38 75 39 74 40 30 42 62 43 42 44 61 45
REMARK SMILES IDX 43 46 46 47 60 48 79 49 44 50 45 51 59 53 80 54 47 55 31 56
REMARK SMILES IDX 32 57 40 58 33 59 35 60 41 61 34 62 36 63 37 64 38 65 39 66
REMARK SMILES IDX 63 67 64 68 72 69 65 70 67 71 73 72 66 73 68 74 69 75 70 76
REMARK SMILES IDX 71 77 48 78 49 79 57 80 50 81 52 82 58 83 51 84 53 85 54 86
REMARK SMILES IDX 55 87 56 88
REMARK H PARENT 14 7 19 22 78 41 46 52
REMARK Flexibility Score: inf
ROOT
ATOM      1  C   UNL A   1      36.495  21.709  24.000  1.00  0.00     0.023 C 
ENDROOT
BRANCH   1   2
ATOM      2  C   UNL A   1      36.314  23.116  23.430  1.00  0.00     0.023 C 
BRANCH   2   3
ATOM      3  C   UNL A   1      34.889  23.659  23.473  1.00  0.00     0.116 C 
BRANCH   3   4
ATOM      4  N   UNL A   1      34.012  22.877  24.321  1.00  0.00    -0.356 N 
ATOM      5  O   UNL A   1      32.107  23.262  23.089  1.00  0.00    -0.275 OA
ATOM      6  C   UNL A   1      32.681  22.685  24.008  1.00  0.00     0.224 C 
ATOM      7  H   UNL A   1      34.375  22.472  25.141  1.00  0.00     0.163 HD
BRANCH   6   8
ATOM      8  C   UNL A   1      31.973  21.657  24.888  1.00  0.00     0.135 C 
BRANCH   8   9
ATOM      9  C   UNL A   1      32.315  20.215  24.582  1.00  0.00    -0.032 A 
ATOM     10  C   UNL A   1      32.859  19.437  25.682  1.00  0.00     0.022 A 
ATOM     11  C   UNL A   1      32.173  19.615  23.387  1.00  0.00     0.076 A 
ATOM     12  C   UNL A   1      33.255  18.172  25.495  1.00  0.00     0.095 A 
ATOM     13  C   UNL A   1      32.629  18.217  23.154  1.00  0.00     0.255 A 
ATOM     14  N   UNL A   1      33.155  17.566  24.256  1.00  0.00    -0.258 N 
ATOM     15  O   UNL A   1      32.522  17.753  22.022  1.00  0.00    -0.269 OA
BRANCH  14  16
ATOM     16  C   UNL A   1      33.656  16.234  24.043  1.00  0.00     0.451 C 
ATOM     17  F   UNL A   1      34.901  16.088  24.558  1.00  0.00    -0.185 F 
ATOM     18  F   UNL A   1      32.847  15.318  24.627  1.00  0.00    -0.185 F 
ENDBRANCH  14  16
ENDBRANCH   8   9
ENDBRANCH   6   8
ENDBRANCH   3   4
ENDBRANCH   2   3
ENDBRANCH   1   2
BRANCH   1  19
ATOM     19  C   UNL A   1      37.025  21.646  25.429  1.00  0.00     0.116 C 
BRANCH  19  20
ATOM     20  N   UNL A   1      38.085  20.662  25.603  1.00  0.00    -0.352 N 
ATOM     21  C   UNL A   1      39.353  20.821  26.119  1.00  0.00     0.251 C 
ATOM     22  H   UNL A   1      37.863  19.749  25.310  1.00  0.00     0.163 HD
ATOM     23  O   UNL A   1      40.159  19.898  26.056  1.00  0.00    -0.269 OA
BRANCH  21  24
ATOM     24  C   UNL A   1      39.752  22.124  26.699  1.00  0.00     0.039 A 
ATOM     25  C   UNL A   1      39.149  23.307  26.270  1.00  0.00     0.014 A 
ATOM     26  C   UNL A   1      40.783  22.168  27.643  1.00  0.00     0.014 A 
ATOM     27  C   UNL A   1      39.715  24.530  26.613  1.00  0.00     0.010 A 
ATOM     28  C   UNL A   1      41.284  23.403  28.065  1.00  0.00     0.010 A 
ATOM     29  C   UNL A   1      40.803  24.595  27.501  1.00  0.00    -0.014 A 
BRANCH  29  30
ATOM     30  C   UNL A   1      41.422  25.912  27.808  1.00  0.00     0.031 A 
ATOM     31  C   UNL A   1      42.805  26.255  27.314  1.00  0.00     0.074 A 
ATOM     32  C   UNL A   1      40.719  26.827  28.503  1.00  0.00     0.049 A 
ATOM     33  N   UNL A   1      43.478  27.368  27.465  1.00  0.00    -0.248 NA
ATOM     34  C   UNL A   1      43.531  25.223  26.554  1.00  0.00     0.031 C 
ATOM     35  C   UNL A   1      39.376  26.619  29.049  1.00  0.00     0.029 A 
ATOM     36  N   UNL A   1      41.027  28.115  28.861  1.00  0.00    -0.354 N 
ATOM     37  C   UNL A   1      44.714  27.156  26.866  1.00  0.00     0.074 A 
ATOM     38  C   UNL A   1      44.704  25.806  26.348  1.00  0.00     0.031 C 
ATOM     39  C   UNL A   1      38.960  27.750  29.635  1.00  0.00     0.029 A 
ATOM     40  C   UNL A   1      40.025  28.745  29.560  1.00  0.00     0.049 A 
ATOM     41  H   UNL A   1      41.883  28.548  28.638  1.00  0.00     0.167 HD
ATOM     42  C   UNL A   1      45.756  28.011  26.743  1.00  0.00     0.034 A 
ATOM     43  C   UNL A   1      39.965  29.978  30.097  1.00  0.00     0.034 A 
ATOM     44  C   UNL A   1      45.751  29.369  27.213  1.00  0.00     0.049 A 
ATOM     45  C   UNL A   1      41.131  30.907  29.949  1.00  0.00     0.074 A 
ATOM     46  C   UNL A   1      46.741  30.328  27.071  1.00  0.00     0.029 A 
ATOM     47  N   UNL A   1      44.718  29.964  27.918  1.00  0.00    -0.354 N 
ATOM     48  N   UNL A   1      42.256  30.714  29.305  1.00  0.00    -0.248 NA
ATOM     49  C   UNL A   1      41.020  32.228  30.585  1.00  0.00     0.031 C 
ATOM     50  C   UNL A   1      46.316  31.493  27.714  1.00  0.00     0.029 A 
ATOM     51  C   UNL A   1      45.052  31.270  28.233  1.00  0.00     0.049 A 
ATOM     52  H   UNL A   1      43.871  29.522  28.160  1.00  0.00     0.167 HD
ATOM     53  C   UNL A   1      42.982  31.889  29.445  1.00  0.00     0.074 A 
ATOM     54  C   UNL A   1      42.164  32.797  30.224  1.00  0.00     0.031 C 
ATOM     55  C   UNL A   1      44.219  32.179  28.977  1.00  0.00     0.034 A 
BRANCH  42  56
ATOM     56  C   UNL A   1      46.995  27.524  26.041  1.00  0.00     0.023 A 
ATOM     57  C   UNL A   1      47.910  26.706  26.733  1.00  0.00     0.012 A 
ATOM     58  C   UNL A   1      47.198  27.791  24.672  1.00  0.00     0.148 A 
ATOM     59  C   UNL A   1      49.019  26.173  26.076  1.00  0.00     0.002 A 
ATOM     60  C   UNL A   1      48.288  27.230  24.018  1.00  0.00     0.091 A 
ATOM     61  F   UNL A   1      46.319  28.579  24.039  1.00  0.00    -0.205 F 
ATOM     62  C   UNL A   1      49.201  26.426  24.719  1.00  0.00     0.022 A 
BRANCH  60  63
ATOM     63  S   UNL A   1      48.586  27.448  22.260  1.00  0.00     0.127 S 
ATOM     64  O   UNL A   1      48.663  26.061  21.801  1.00  0.00    -0.237 OA
ATOM     65  O   UNL A   1      47.385  28.166  21.832  1.00  0.00    -0.237 OA
ATOM     66  O   UNL A   1      49.824  28.206  22.151  1.00  0.00    -0.744 OA
ENDBRANCH  60  63
ENDBRANCH  42  56
BRANCH  43  67
ATOM     67  C   UNL A   1      38.716  30.396  30.787  1.00  0.00     0.023 A 
ATOM     68  C   UNL A   1      38.623  30.261  32.184  1.00  0.00     0.012 A 
ATOM     69  C   UNL A   1      37.676  31.033  30.080  1.00  0.00     0.148 A 
ATOM     70  C   UNL A   1      37.516  30.761  32.870  1.00  0.00     0.002 A 
ATOM     71  C   UNL A   1      36.597  31.562  30.773  1.00  0.00     0.091 A 
ATOM     72  F   UNL A   1      37.798  31.151  28.750  1.00  0.00    -0.205 F 
ATOM     73  C   UNL A   1      36.511  31.422  32.167  1.00  0.00     0.022 A 
BRANCH  71  74
ATOM     74  S   UNL A   1      35.304  32.519  29.972  1.00  0.00     0.127 S 
ATOM     75  O   UNL A   1      34.356  32.714  31.067  1.00  0.00    -0.237 OA
ATOM     76  O   UNL A   1      36.033  33.720  29.567  1.00  0.00    -0.237 OA
ATOM     77  O   UNL A   1      34.822  31.696  28.873  1.00  0.00    -0.744 OA
ENDBRANCH  71  74
ENDBRANCH  43  67
BRANCH  55  78
ATOM     78  C   UNL A   1      44.790  33.539  29.272  1.00  0.00     0.023 A 
ATOM     79  C   UNL A   1      45.446  33.763  30.498  1.00  0.00     0.012 A 
ATOM     80  C   UNL A   1      44.798  34.542  28.283  1.00  0.00     0.148 A 
ATOM     81  C   UNL A   1      46.099  34.971  30.737  1.00  0.00     0.002 A 
ATOM     82  C   UNL A   1      45.481  35.730  28.515  1.00  0.00     0.091 A 
ATOM     83  F   UNL A   1      44.162  34.302  27.127  1.00  0.00    -0.205 F 
ATOM     84  C   UNL A   1      46.128  35.948  29.743  1.00  0.00     0.022 A 
BRANCH  82  85
ATOM     85  S   UNL A   1      45.636  37.017  27.272  1.00  0.00     0.127 S 
ATOM     86  O   UNL A   1      46.260  36.290  26.167  1.00  0.00    -0.237 OA
ATOM     87  O   UNL A   1      44.241  37.395  27.044  1.00  0.00    -0.237 OA
ATOM     88  O   UNL A   1      46.460  38.060  27.867  1.00  0.00    -0.744 OA
ENDBRANCH  82  85
ENDBRANCH  55  78
ENDBRANCH  29  30
ENDBRANCH  21  24
ENDBRANCH  19  20
ENDBRANCH   1  19
TORSDOF 16
ENDMDL
MODEL 2
REMARK VINA RESULT:     -11.8      6.316     11.199
REMARK SMILES O=C(Cc1ccn(C(F)F)c(=O)c1)NCCCCNC(=O)c1ccc(-c2c3nc(c(-c4cccc(S(=O)(=O)[O-])c4F)c4ccc([nH]4)c(-c4cccc(S(=O)(=O)[O-])c4F)c4nc(c(-c5cccc(S(=O)(=O)[O-])c5F)c5ccc2[nH]5)C=C4)C=C3)cc1
REMARK SMILES IDX 17 1 16 2 15 3 14 4 1 5 2 6 3 8 4 9 5 10 13 11 6 12 11 13
REMARK SMILES IDX 7 14 12 15 8 16 9 17 10 18 18 19 19 20 20 21 21 23 22 24
REMARK SMILES IDX 23 25 84 26 24 27 83 28 25 29 26 30 27 31 77 32 28 33 82 34
REMARK SMILES IDX 76 35 78 36 29 37 81 38 75 39 74 40 30 42 62 43 42 44 61 45
REMARK SMILES IDX 43 46 46 47 60 48 79 49 44 50 45 51 59 53 80 54 47 55 31 56
REMARK SMILES IDX 32 57 40 58 33 59 35 60 41 61 34 62 36 63 37 64 38 65 39 66
REMARK SMILES IDX 63 67 64 68 72 69 65 70 67 71 73 72 66 73 68 74 69 75 70 76
REMARK SMILES IDX 71 77 48 78 49 79 57 80 50 81 52 82 58 83 51 84 53 85 54 86
REMARK SMILES IDX 55 87 56 88
REMARK H PARENT 14 7 19 22 78 41 46 52
REMARK Flexibility Score: inf
ROOT
ATOM      1  C   UNL A   1      31.534  29.447  26.403  1.00  0.00     0.023 C 
ENDROOT
BRANCH   1   2
ATOM      2  C   UNL A   1      31.586  28.293  27.404  1.00  0.00     0.023 C 
BRANCH   2   3
ATOM      3  C   UNL A   1      32.101  26.969  26.848  1.00  0.00     0.116 C 
BRANCH   3   4
ATOM      4  N   UNL A   1      31.502  26.620  25.575  1.00  0.00    -0.356 N 
ATOM      5  O   UNL A   1      29.804  25.349  26.466  1.00  0.00    -0.275 OA
ATOM      6  C   UNL A   1      30.338  25.881  25.498  1.00  0.00     0.224 C 
ATOM      7  H   UNL A   1      31.936  26.918  24.743  1.00  0.00     0.163 HD
BRANCH   6   8
ATOM      8  C   UNL A   1      29.737  25.803  24.096  1.00  0.00     0.135 C 
BRANCH   8   9
ATOM      9  C   UNL A   1      29.300  27.132  23.517  1.00  0.00    -0.032 A 
ATOM     10  C   UNL A   1      27.909  27.495  23.721  1.00  0.00     0.022 A 
ATOM     11  C   UNL A   1      30.086  27.977  22.825  1.00  0.00     0.076 A 
ATOM     12  C   UNL A   1      27.411  28.619  23.190  1.00  0.00     0.095 A 
ATOM     13  C   UNL A   1      29.543  29.219  22.208  1.00  0.00     0.255 A 
ATOM     14  N   UNL A   1      28.202  29.468  22.438  1.00  0.00    -0.258 N 
ATOM     15  O   UNL A   1      30.304  29.914  21.540  1.00  0.00    -0.269 OA
BRANCH  14  16
ATOM     16  C   UNL A   1      27.641  30.631  21.803  1.00  0.00     0.451 C 
ATOM     17  F   UNL A   1      28.229  31.768  22.249  1.00  0.00    -0.185 F 
ATOM     18  F   UNL A   1      27.803  30.571  20.460  1.00  0.00    -0.185 F 
ENDBRANCH  14  16
ENDBRANCH   8   9
ENDBRANCH   6   8
ENDBRANCH   3   4
ENDBRANCH   2   3
ENDBRANCH   1   2
BRANCH   1  19
ATOM     19  C   UNL A   1      32.818  30.260  26.275  1.00  0.00     0.116 C 
BRANCH  19  20
ATOM     20  N   UNL A   1      32.691  31.615  26.795  1.00  0.00    -0.352 N 
ATOM     21  C   UNL A   1      33.548  32.328  27.605  1.00  0.00     0.251 C 
ATOM     22  H   UNL A   1      31.872  32.092  26.527  1.00  0.00     0.163 HD
ATOM     23  O   UNL A   1      33.201  33.415  28.055  1.00  0.00    -0.269 OA
BRANCH  21  24
ATOM     24  C   UNL A   1      34.862  31.752  27.971  1.00  0.00     0.039 A 
ATOM     25  C   UNL A   1      34.981  30.399  28.292  1.00  0.00     0.014 A 
ATOM     26  C   UNL A   1      35.980  32.589  28.049  1.00  0.00     0.014 A 
ATOM     27  C   UNL A   1      36.146  29.935  28.894  1.00  0.00     0.010 A 
ATOM     28  C   UNL A   1      37.183  32.092  28.560  1.00  0.00     0.010 A 
ATOM     29  C   UNL A   1      37.257  30.780  29.053  1.00  0.00    -0.014 A 
BRANCH  29  30
ATOM     30  C   UNL A   1      38.471  30.273  29.748  1.00  0.00     0.031 A 
ATOM     31  C   UNL A   1      38.791  30.693  31.160  1.00  0.00     0.074 A 
ATOM     32  C   UNL A   1      39.273  29.392  29.119  1.00  0.00     0.049 A 
ATOM     33  N   UNL A   1      39.789  30.321  31.922  1.00  0.00    -0.248 NA
ATOM     34  C   UNL A   1      37.880  31.654  31.806  1.00  0.00     0.031 C 
ATOM     35  C   UNL A   1      39.084  28.912  27.749  1.00  0.00     0.029 A 
ATOM     36  N   UNL A   1      40.398  28.736  29.548  1.00  0.00    -0.354 N 
ATOM     37  C   UNL A   1      39.656  31.031  33.109  1.00  0.00     0.074 A 
ATOM     38  C   UNL A   1      38.480  31.861  32.971  1.00  0.00     0.031 C 
ATOM     39  C   UNL A   1      40.032  28.009  27.464  1.00  0.00     0.029 A 
ATOM     40  C   UNL A   1      40.932  27.888  28.607  1.00  0.00     0.049 A 
ATOM     41  H   UNL A   1      40.786  28.858  30.445  1.00  0.00     0.167 HD
ATOM     42  C   UNL A   1      40.430  30.984  34.218  1.00  0.00     0.034 A 
ATOM     43  C   UNL A   1      42.029  27.107  28.644  1.00  0.00     0.034 A 
ATOM     44  C   UNL A   1      41.570  30.123  34.376  1.00  0.00     0.049 A 
ATOM     45  C   UNL A   1      42.871  27.072  29.883  1.00  0.00     0.074 A 
ATOM     46  C   UNL A   1      42.373  29.963  35.494  1.00  0.00     0.029 A 
ATOM     47  N   UNL A   1      42.076  29.285  33.397  1.00  0.00    -0.354 N 
ATOM     48  N   UNL A   1      42.677  27.689  31.023  1.00  0.00    -0.248 NA
ATOM     49  C   UNL A   1      44.073  26.228  29.851  1.00  0.00     0.031 C 
ATOM     50  C   UNL A   1      43.380  29.048  35.180  1.00  0.00     0.029 A 
ATOM     51  C   UNL A   1      43.189  28.617  33.877  1.00  0.00     0.049 A 
ATOM     52  H   UNL A   1      41.700  29.180  32.493  1.00  0.00     0.167 HD
ATOM     53  C   UNL A   1      43.722  27.298  31.849  1.00  0.00     0.074 A 
ATOM     54  C   UNL A   1      44.541  26.379  31.085  1.00  0.00     0.031 C 
ATOM     55  C   UNL A   1      43.979  27.678  33.124  1.00  0.00     0.034 A 
BRANCH  42  56
ATOM     56  C   UNL A   1      40.060  31.867  35.380  1.00  0.00     0.023 A 
ATOM     57  C   UNL A   1      40.591  33.170  35.459  1.00  0.00     0.012 A 
ATOM     58  C   UNL A   1      39.110  31.444  36.331  1.00  0.00     0.148 A 
ATOM     59  C   UNL A   1      40.194  34.034  36.478  1.00  0.00     0.002 A 
ATOM     60  C   UNL A   1      38.697  32.322  37.325  1.00  0.00     0.091 A 
ATOM     61  F   UNL A   1      38.627  30.198  36.239  1.00  0.00    -0.205 F 
ATOM     62  C   UNL A   1      39.241  33.615  37.403  1.00  0.00     0.022 A 
BRANCH  60  63
ATOM     63  S   UNL A   1      37.436  31.901  38.533  1.00  0.00     0.127 S 
ATOM     64  O   UNL A   1      37.085  30.539  38.130  1.00  0.00    -0.237 OA
ATOM     65  O   UNL A   1      38.175  31.992  39.792  1.00  0.00    -0.237 OA
ATOM     66  O   UNL A   1      36.377  32.886  38.373  1.00  0.00    -0.744 OA
ENDBRANCH  60  63
ENDBRANCH  42  56
BRANCH  43  67
ATOM     67  C   UNL A   1      42.345  26.266  27.460  1.00  0.00     0.023 A 
ATOM     68  C   UNL A   1      43.148  26.795  26.434  1.00  0.00     0.012 A 
ATOM     69  C   UNL A   1      41.954  24.912  27.408  1.00  0.00     0.148 A 
ATOM     70  C   UNL A   1      43.564  25.988  25.374  1.00  0.00     0.002 A 
ATOM     71  C   UNL A   1      42.405  24.105  26.372  1.00  0.00     0.091 A 
ATOM     72  F   UNL A   1      41.196  24.436  28.405  1.00  0.00    -0.205 F 
ATOM     73  C   UNL A   1      43.205  24.643  25.351  1.00  0.00     0.022 A 
BRANCH  71  74
ATOM     74  S   UNL A   1      42.083  22.339  26.307  1.00  0.00     0.127 S 
ATOM     75  O   UNL A   1      40.628  22.306  26.173  1.00  0.00    -0.237 OA
ATOM     76  O   UNL A   1      42.822  21.948  25.108  1.00  0.00    -0.237 OA
ATOM     77  O   UNL A   1      42.604  21.793  27.553  1.00  0.00    -0.744 OA
ENDBRANCH  71  74
ENDBRANCH  43  67
BRANCH  55  78
ATOM     78  C   UNL A   1      45.192  27.107  33.805  1.00  0.00     0.023 A 
ATOM     79  C   UNL A   1      46.427  27.774  33.695  1.00  0.00     0.012 A 
ATOM     80  C   UNL A   1      45.075  25.994  34.660  1.00  0.00     0.148 A 
ATOM     81  C   UNL A   1      47.531  27.339  34.426  1.00  0.00     0.002 A 
ATOM     82  C   UNL A   1      46.170  25.588  35.412  1.00  0.00     0.091 A 
ATOM     83  F   UNL A   1      43.888  25.375  34.742  1.00  0.00    -0.205 F 
ATOM     84  C   UNL A   1      47.400  26.256  35.293  1.00  0.00     0.022 A 
BRANCH  82  85
ATOM     85  S   UNL A   1      46.082  24.251  36.608  1.00  0.00     0.127 S 
ATOM     86  O   UNL A   1      45.785  23.103  35.751  1.00  0.00    -0.237 OA
ATOM     87  O   UNL A   1      47.430  24.255  37.176  1.00  0.00    -0.237 OA
ATOM     88  O   UNL A   1      45.025  24.610  37.545  1.00  0.00    -0.744 OA
ENDBRANCH  82  85
ENDBRANCH  55  78
ENDBRANCH  29  30
ENDBRANCH  21  24
ENDBRANCH  19  20
ENDBRANCH   1  19
TORSDOF 16
ENDMDL
MODEL 3
REMARK VINA RESULT:     -11.6      1.487      7.857
REMARK SMILES O=C(Cc1ccn(C(F)F)c(=O)c1)NCCCCNC(=O)c1ccc(-c2c3nc(c(-c4cccc(S(=O)(=O)[O-])c4F)c4ccc([nH]4)c(-c4cccc(S(=O)(=O)[O-])c4F)c4nc(c(-c5cccc(S(=O)(=O)[O-])c5F)c5ccc2[nH]5)C=C4)C=C3)cc1
REMARK SMILES IDX 17 1 16 2 15 3 14 4 1 5 2 6 3 8 4 9 5 10 13 11 6 12 11 13
REMARK SMILES IDX 7 14 12 15 8 16 9 17 10 18 18 19 19 20 20 21 21 23 22 24
REMARK SMILES IDX 23 25 84 26 24 27 83 28 25 29 26 30 27 31 77 32 28 33 82 34
REMARK SMILES IDX 76 35 78 36 29 37 81 38 75 39 74 40 30 42 62 43 42 44 61 45
REMARK SMILES IDX 43 46 46 47 60 48 79 49 44 50 45 51 59 53 80 54 47 55 31 56
REMARK SMILES IDX 32 57 40 58 33 59 35 60 41 61 34 62 36 63 37 64 38 65 39 66
REMARK SMILES IDX 63 67 64 68 72 69 65 70 67 71 73 72 66 73 68 74 69 75 70 76
REMARK SMILES IDX 71 77 48 78 49 79 57 80 50 81 52 82 58 83 51 84 53 85 54 86
REMARK SMILES IDX 55 87 56 88
REMARK H PARENT 14 7 19 22 78 41 46 52
REMARK Flexibility Score: inf
ROOT
ATOM      1  C   UNL A   1      36.468  21.691  24.041  1.00  0.00     0.023 C 
ENDROOT
BRANCH   1   2
ATOM      2  C   UNL A   1      36.270  23.148  23.624  1.00  0.00     0.023 C 
BRANCH   2   3
ATOM      3  C   UNL A   1      35.342  23.963  24.520  1.00  0.00     0.116 C 
BRANCH   3   4
ATOM      4  N   UNL A   1      34.085  23.294  24.789  1.00  0.00    -0.356 N 
ATOM      5  O   UNL A   1      33.249  23.522  22.657  1.00  0.00    -0.275 OA
ATOM      6  C   UNL A   1      33.157  23.065  23.793  1.00  0.00     0.224 C 
ATOM      7  H   UNL A   1      33.888  22.994  25.706  1.00  0.00     0.163 HD
BRANCH   6   8
ATOM      8  C   UNL A   1      32.002  22.155  24.209  1.00  0.00     0.135 C 
BRANCH   8   9
ATOM      9  C   UNL A   1      32.269  20.675  24.046  1.00  0.00    -0.032 A 
ATOM     10  C   UNL A   1      32.781  19.981  25.214  1.00  0.00     0.022 A 
ATOM     11  C   UNL A   1      32.085  19.969  22.915  1.00  0.00     0.076 A 
ATOM     12  C   UNL A   1      33.110  18.685  25.151  1.00  0.00     0.095 A 
ATOM     13  C   UNL A   1      32.468  18.533  22.820  1.00  0.00     0.255 A 
ATOM     14  N   UNL A   1      32.969  17.967  23.978  1.00  0.00    -0.258 N 
ATOM     15  O   UNL A   1      32.328  17.967  21.739  1.00  0.00    -0.269 OA
BRANCH  14  16
ATOM     16  C   UNL A   1      33.400  16.596  23.895  1.00  0.00     0.451 C 
ATOM     17  F   UNL A   1      34.599  16.493  23.273  1.00  0.00    -0.185 F 
ATOM     18  F   UNL A   1      33.518  16.055  25.131  1.00  0.00    -0.185 F 
ENDBRANCH  14  16
ENDBRANCH   8   9
ENDBRANCH   6   8
ENDBRANCH   3   4
ENDBRANCH   2   3
ENDBRANCH   1   2
BRANCH   1  19
ATOM     19  C   UNL A   1      36.910  21.478  25.486  1.00  0.00     0.116 C 
BRANCH  19  20
ATOM     20  N   UNL A   1      37.982  20.501  25.617  1.00  0.00    -0.352 N 
ATOM     21  C   UNL A   1      39.269  20.669  26.081  1.00  0.00     0.251 C 
ATOM     22  H   UNL A   1      37.754  19.586  25.335  1.00  0.00     0.163 HD
ATOM     23  O   UNL A   1      40.077  19.749  25.986  1.00  0.00    -0.269 OA
BRANCH  21  24
ATOM     24  C   UNL A   1      39.685  21.975  26.641  1.00  0.00     0.039 A 
ATOM     25  C   UNL A   1      39.124  23.161  26.167  1.00  0.00     0.014 A 
ATOM     26  C   UNL A   1      40.689  22.016  27.613  1.00  0.00     0.014 A 
ATOM     27  C   UNL A   1      39.711  24.378  26.497  1.00  0.00     0.010 A 
ATOM     28  C   UNL A   1      41.209  23.248  28.021  1.00  0.00     0.010 A 
ATOM     29  C   UNL A   1      40.774  24.437  27.415  1.00  0.00    -0.014 A 
BRANCH  29  30
ATOM     30  C   UNL A   1      41.418  25.746  27.710  1.00  0.00     0.031 A 
ATOM     31  C   UNL A   1      40.700  26.802  28.512  1.00  0.00     0.074 A 
ATOM     32  C   UNL A   1      42.677  25.973  27.288  1.00  0.00     0.049 A 
ATOM     33  N   UNL A   1      41.129  27.982  28.885  1.00  0.00    -0.248 NA
ATOM     34  C   UNL A   1      39.327  26.504  28.954  1.00  0.00     0.031 C 
ATOM     35  C   UNL A   1      43.479  25.041  26.494  1.00  0.00     0.029 A 
ATOM     36  N   UNL A   1      43.507  27.049  27.475  1.00  0.00    -0.354 N 
ATOM     37  C   UNL A   1      40.071  28.582  29.559  1.00  0.00     0.074 A 
ATOM     38  C   UNL A   1      38.975  27.638  29.545  1.00  0.00     0.031 C 
ATOM     39  C   UNL A   1      44.696  25.564  26.297  1.00  0.00     0.029 A 
ATOM     40  C   UNL A   1      44.745  26.894  26.899  1.00  0.00     0.049 A 
ATOM     41  H   UNL A   1      43.243  27.854  27.976  1.00  0.00     0.167 HD
ATOM     42  C   UNL A   1      40.022  29.798  30.150  1.00  0.00     0.034 A 
ATOM     43  C   UNL A   1      45.803  27.725  26.842  1.00  0.00     0.034 A 
ATOM     44  C   UNL A   1      41.125  30.717  30.209  1.00  0.00     0.049 A 
ATOM     45  C   UNL A   1      45.724  29.067  27.504  1.00  0.00     0.074 A 
ATOM     46  C   UNL A   1      41.183  31.946  30.847  1.00  0.00     0.029 A 
ATOM     47  N   UNL A   1      42.358  30.521  29.609  1.00  0.00    -0.354 N 
ATOM     48  N   UNL A   1      44.744  29.578  28.207  1.00  0.00    -0.248 NA
ATOM     49  C   UNL A   1      46.897  29.944  27.379  1.00  0.00     0.031 C 
ATOM     50  C   UNL A   1      42.441  32.502  30.610  1.00  0.00     0.029 A 
ATOM     51  C   UNL A   1      43.177  31.611  29.847  1.00  0.00     0.049 A 
ATOM     52  H   UNL A   1      42.613  29.724  29.090  1.00  0.00     0.167 HD
ATOM     53  C   UNL A   1      45.183  30.829  28.622  1.00  0.00     0.074 A 
ATOM     54  C   UNL A   1      46.526  30.995  28.102  1.00  0.00     0.031 C 
ATOM     55  C   UNL A   1      44.524  31.755  29.357  1.00  0.00     0.034 A 
BRANCH  42  56
ATOM     56  C   UNL A   1      38.738  30.210  30.820  1.00  0.00     0.023 A 
ATOM     57  C   UNL A   1      38.562  29.962  32.196  1.00  0.00     0.012 A 
ATOM     58  C   UNL A   1      37.756  30.930  30.111  1.00  0.00     0.148 A 
ATOM     59  C   UNL A   1      37.418  30.413  32.854  1.00  0.00     0.002 A 
ATOM     60  C   UNL A   1      36.635  31.403  30.782  1.00  0.00     0.091 A 
ATOM     61  F   UNL A   1      37.943  31.144  28.802  1.00  0.00    -0.205 F 
ATOM     62  C   UNL A   1      36.462  31.141  32.151  1.00  0.00     0.022 A 
BRANCH  60  63
ATOM     63  S   UNL A   1      35.369  32.396  29.983  1.00  0.00     0.127 S 
ATOM     64  O   UNL A   1      36.137  33.569  29.565  1.00  0.00    -0.237 OA
ATOM     65  O   UNL A   1      34.943  31.525  28.887  1.00  0.00    -0.237 OA
ATOM     66  O   UNL A   1      34.354  32.648  30.994  1.00  0.00    -0.744 OA
ENDBRANCH  60  63
ENDBRANCH  42  56
BRANCH  43  67
ATOM     67  C   UNL A   1      47.038  27.263  26.157  1.00  0.00     0.023 A 
ATOM     68  C   UNL A   1      47.270  27.646  24.824  1.00  0.00     0.012 A 
ATOM     69  C   UNL A   1      48.032  26.550  26.859  1.00  0.00     0.148 A 
ATOM     70  C   UNL A   1      48.479  27.333  24.199  1.00  0.00     0.002 A 
ATOM     71  C   UNL A   1      49.246  26.277  26.243  1.00  0.00     0.091 A 
ATOM     72  F   UNL A   1      47.783  26.206  28.130  1.00  0.00    -0.205 F 
ATOM     73  C   UNL A   1      49.469  26.662  24.912  1.00  0.00     0.022 A 
BRANCH  71  74
ATOM     74  S   UNL A   1      50.621  25.510  27.108  1.00  0.00     0.127 S 
ATOM     75  O   UNL A   1      50.960  26.532  28.096  1.00  0.00    -0.237 OA
ATOM     76  O   UNL A   1      49.993  24.308  27.655  1.00  0.00    -0.237 OA
ATOM     77  O   UNL A   1      51.639  25.262  26.097  1.00  0.00    -0.744 OA
ENDBRANCH  71  74
ENDBRANCH  43  67
BRANCH  55  78
ATOM     78  C   UNL A   1      45.228  33.046  29.671  1.00  0.00     0.023 A 
ATOM     79  C   UNL A   1      46.069  33.119  30.798  1.00  0.00     0.012 A 
ATOM     80  C   UNL A   1      45.164  34.132  28.777  1.00  0.00     0.148 A 
ATOM     81  C   UNL A   1      46.836  34.260  31.031  1.00  0.00     0.002 A 
ATOM     82  C   UNL A   1      45.957  35.251  28.997  1.00  0.00     0.091 A 
ATOM     83  F   UNL A   1      44.351  34.035  27.714  1.00  0.00    -0.205 F 
ATOM     84  C   UNL A   1      46.790  35.319  30.126  1.00  0.00     0.022 A 
BRANCH  82  85
ATOM     85  S   UNL A   1      46.022  36.634  27.853  1.00  0.00     0.127 S 
ATOM     86  O   UNL A   1      44.688  37.213  28.009  1.00  0.00    -0.237 OA
ATOM     87  O   UNL A   1      47.107  37.443  28.408  1.00  0.00    -0.237 OA
ATOM     88  O   UNL A   1      46.298  36.064  26.540  1.00  0.00    -0.744 OA
ENDBRANCH  82  85
ENDBRANCH  55  78
ENDBRANCH  29  30
ENDBRANCH  21  24
ENDBRANCH  19  20
ENDBRANCH   1  19
TORSDOF 16
ENDMDL
