MODEL 1
REMARK VINA RESULT:     -11.1      0.000      0.000
REMARK SMILES CCO[C@H](CCn1nnc2c(cnn2C)c1=O)C(=O)NCCCCNC(=O)c1ccc(-c2c3nc(c(-c4cccc(S(=O)(=O)[O-])c4F)c4ccc([nH]4)c(-c4cccc(S(=O)(=O)[O-])c4F)c4nc(c(-c5cccc(S(=O)(=O)[O-])c5F)c5ccc2[nH]5)C=C4)C=C3)cc1
REMARK SMILES IDX 22 1 21 2 20 3 18 4 19 5 4 7 3 8 2 9 1 10 5 11 6 12 7 13
REMARK SMILES IDX 8 14 16 15 9 16 11 17 17 18 10 19 12 20 14 21 13 22 15 23
REMARK SMILES IDX 23 24 24 25 25 26 26 27 27 29 28 30 29 31 90 32 30 33 89 34
REMARK SMILES IDX 31 35 32 36 33 37 83 38 34 39 88 40 82 41 84 42 35 43 87 44
REMARK SMILES IDX 81 45 80 46 36 48 68 49 48 50 67 51 49 52 52 53 66 54 85 55
REMARK SMILES IDX 50 56 51 57 65 59 86 60 53 61 37 62 38 63 46 64 39 65 41 66
REMARK SMILES IDX 47 67 40 68 42 69 43 70 44 71 45 72 69 73 70 74 78 75 71 76
REMARK SMILES IDX 73 77 79 78 72 79 74 80 75 81 76 82 77 83 54 84 55 85 63 86
REMARK SMILES IDX 56 87 58 88 64 89 57 90 59 91 60 92 61 93 62 94
REMARK H PARENT 20 6 25 28 84 47 52 58
REMARK Flexibility Score: inf
ROOT
ATOM      1  C   UNL A   1      37.269  22.479  25.539  1.00  0.00     0.023 C 
ENDROOT
BRANCH   1   2
ATOM      2  C   UNL A   1      35.894  21.818  25.586  1.00  0.00     0.116 C 
BRANCH   2   3
ATOM      3  N   UNL A   1      35.166  21.771  24.335  1.00  0.00    -0.354 N 
ATOM      4  C   UNL A   1      33.823  21.895  24.131  1.00  0.00     0.249 C 
ATOM      5  O   UNL A   1      33.435  22.247  23.015  1.00  0.00    -0.272 OA
ATOM      6  H   UNL A   1      35.711  21.634  23.528  1.00  0.00     0.163 HD
BRANCH   4   7
ATOM      7  C   UNL A   1      32.822  21.604  25.254  1.00  0.00     0.208 C 
BRANCH   7   8
ATOM      8  O   UNL A   1      32.203  20.318  25.365  1.00  0.00    -0.369 OA
BRANCH   8   9
ATOM      9  C   UNL A   1      32.680  19.151  24.693  1.00  0.00     0.158 C 
ATOM     10  C   UNL A   1      32.586  17.775  25.342  1.00  0.00     0.035 C 
ENDBRANCH   8   9
ENDBRANCH   7   8
BRANCH   7  11
ATOM     11  C   UNL A   1      31.759  22.736  25.382  1.00  0.00     0.066 C 
BRANCH  11  12
ATOM     12  C   UNL A   1      31.948  23.848  26.457  1.00  0.00     0.153 C 
BRANCH  12  13
ATOM     13  N   UNL A   1      32.420  25.168  26.030  1.00  0.00    -0.210 N 
ATOM     14  N   UNL A   1      33.687  25.174  25.445  1.00  0.00    -0.062 NA
ATOM     15  C   UNL A   1      31.689  26.352  26.295  1.00  0.00     0.280 A 
ATOM     16  N   UNL A   1      34.102  26.181  24.810  1.00  0.00    -0.111 NA
ATOM     17  C   UNL A   1      32.232  27.487  25.586  1.00  0.00     0.108 A 
ATOM     18  O   UNL A   1      30.662  26.408  26.930  1.00  0.00    -0.267 OA
ATOM     19  C   UNL A   1      33.337  27.285  24.817  1.00  0.00     0.187 A 
ATOM     20  C   UNL A   1      31.807  28.791  25.292  1.00  0.00     0.151 A 
ATOM     21  N   UNL A   1      33.378  28.328  23.933  1.00  0.00    -0.249 N 
ATOM     22  N   UNL A   1      32.493  29.309  24.260  1.00  0.00    -0.179 NA
ATOM     23  C   UNL A   1      33.982  28.323  22.618  1.00  0.00     0.176 C 
ENDBRANCH  12  13
ENDBRANCH  11  12
ENDBRANCH   7  11
ENDBRANCH   4   7
ENDBRANCH   2   3
ENDBRANCH   1   2
BRANCH   1  24
ATOM     24  C   UNL A   1      38.458  21.538  25.467  1.00  0.00     0.023 C 
BRANCH  24  25
ATOM     25  C   UNL A   1      39.544  21.740  26.493  1.00  0.00     0.116 C 
BRANCH  25  26
ATOM     26  N   UNL A   1      40.884  21.705  25.946  1.00  0.00    -0.352 N 
ATOM     27  C   UNL A   1      41.737  22.790  25.854  1.00  0.00     0.251 C 
ATOM     28  H   UNL A   1      41.215  20.840  25.614  1.00  0.00     0.163 HD
ATOM     29  O   UNL A   1      42.666  22.779  25.053  1.00  0.00    -0.269 OA
BRANCH  27  30
ATOM     30  C   UNL A   1      41.486  23.969  26.716  1.00  0.00     0.039 A 
ATOM     31  C   UNL A   1      42.311  24.235  27.806  1.00  0.00     0.014 A 
ATOM     32  C   UNL A   1      40.442  24.841  26.402  1.00  0.00     0.014 A 
ATOM     33  C   UNL A   1      42.117  25.415  28.524  1.00  0.00     0.010 A 
ATOM     34  C   UNL A   1      40.354  26.076  27.010  1.00  0.00     0.010 A 
ATOM     35  C   UNL A   1      41.157  26.360  28.105  1.00  0.00    -0.014 A 
BRANCH  35  36
ATOM     36  C   UNL A   1      41.076  27.671  28.760  1.00  0.00     0.031 A 
ATOM     37  C   UNL A   1      42.129  28.626  28.328  1.00  0.00     0.074 A 
ATOM     38  C   UNL A   1      40.115  28.087  29.617  1.00  0.00     0.049 A 
ATOM     39  N   UNL A   1      43.249  28.846  28.932  1.00  0.00    -0.248 NA
ATOM     40  C   UNL A   1      42.022  29.270  27.013  1.00  0.00     0.031 C 
ATOM     41  C   UNL A   1      38.858  27.415  29.974  1.00  0.00     0.029 A 
ATOM     42  N   UNL A   1      40.026  29.264  30.309  1.00  0.00    -0.354 N 
ATOM     43  C   UNL A   1      43.849  29.883  28.226  1.00  0.00     0.074 A 
ATOM     44  C   UNL A   1      43.186  29.927  26.949  1.00  0.00     0.031 C 
ATOM     45  C   UNL A   1      38.039  28.282  30.613  1.00  0.00     0.029 A 
ATOM     46  C   UNL A   1      38.786  29.490  30.903  1.00  0.00     0.049 A 
ATOM     47  H   UNL A   1      40.774  29.899  30.380  1.00  0.00     0.167 HD
ATOM     48  C   UNL A   1      44.597  30.809  28.887  1.00  0.00     0.034 A 
ATOM     49  C   UNL A   1      38.414  30.567  31.633  1.00  0.00     0.034 A 
ATOM     50  C   UNL A   1      44.832  30.394  30.249  1.00  0.00     0.049 A 
ATOM     51  C   UNL A   1      39.643  31.116  32.238  1.00  0.00     0.074 A 
ATOM     52  C   UNL A   1      45.612  29.483  30.923  1.00  0.00     0.029 A 
ATOM     53  N   UNL A   1      43.841  30.798  31.103  1.00  0.00    -0.354 N 
ATOM     54  N   UNL A   1      40.315  30.497  33.167  1.00  0.00    -0.248 NA
ATOM     55  C   UNL A   1      40.293  32.278  31.647  1.00  0.00     0.031 C 
ATOM     56  C   UNL A   1      44.965  29.253  32.176  1.00  0.00     0.029 A 
ATOM     57  C   UNL A   1      43.824  30.049  32.244  1.00  0.00     0.049 A 
ATOM     58  H   UNL A   1      43.218  31.538  30.917  1.00  0.00     0.167 HD
ATOM     59  C   UNL A   1      41.614  30.901  32.945  1.00  0.00     0.074 A 
ATOM     60  C   UNL A   1      41.514  32.126  32.165  1.00  0.00     0.031 C 
ATOM     61  C   UNL A   1      42.648  30.025  33.086  1.00  0.00     0.034 A 
BRANCH  48  62
ATOM     62  C   UNL A   1      44.706  32.286  28.547  1.00  0.00     0.023 A 
ATOM     63  C   UNL A   1      43.535  33.064  28.723  1.00  0.00     0.012 A 
ATOM     64  C   UNL A   1      45.750  32.877  27.802  1.00  0.00     0.148 A 
ATOM     65  C   UNL A   1      43.388  34.327  28.138  1.00  0.00     0.002 A 
ATOM     66  C   UNL A   1      45.629  34.164  27.286  1.00  0.00     0.091 A 
ATOM     67  F   UNL A   1      46.821  32.159  27.461  1.00  0.00    -0.205 F 
ATOM     68  C   UNL A   1      44.438  34.881  27.424  1.00  0.00     0.022 A 
BRANCH  66  69
ATOM     69  S   UNL A   1      46.971  34.950  26.384  1.00  0.00     0.127 S 
ATOM     70  O   UNL A   1      46.503  36.330  26.309  1.00  0.00    -0.237 OA
ATOM     71  O   UNL A   1      48.103  34.724  27.284  1.00  0.00    -0.237 OA
ATOM     72  O   UNL A   1      47.064  34.236  25.117  1.00  0.00    -0.744 OA
ENDBRANCH  66  69
ENDBRANCH  48  62
BRANCH  49  73
ATOM     73  C   UNL A   1      37.115  31.223  31.895  1.00  0.00     0.023 A 
ATOM     74  C   UNL A   1      36.826  31.660  33.207  1.00  0.00     0.012 A 
ATOM     75  C   UNL A   1      36.358  31.748  30.829  1.00  0.00     0.148 A 
ATOM     76  C   UNL A   1      35.880  32.660  33.442  1.00  0.00     0.002 A 
ATOM     77  C   UNL A   1      35.422  32.752  31.070  1.00  0.00     0.091 A 
ATOM     78  F   UNL A   1      36.638  31.340  29.584  1.00  0.00    -0.205 F 
ATOM     79  C   UNL A   1      35.196  33.223  32.372  1.00  0.00     0.022 A 
BRANCH  77  80
ATOM     80  S   UNL A   1      34.528  33.574  29.745  1.00  0.00     0.127 S 
ATOM     81  O   UNL A   1      35.599  34.298  29.059  1.00  0.00    -0.237 OA
ATOM     82  O   UNL A   1      33.986  32.439  29.002  1.00  0.00    -0.237 OA
ATOM     83  O   UNL A   1      33.552  34.429  30.404  1.00  0.00    -0.744 OA
ENDBRANCH  77  80
ENDBRANCH  49  73
BRANCH  61  84
ATOM     84  C   UNL A   1      42.471  28.866  34.019  1.00  0.00     0.023 A 
ATOM     85  C   UNL A   1      41.664  27.750  33.723  1.00  0.00     0.012 A 
ATOM     86  C   UNL A   1      43.238  28.864  35.195  1.00  0.00     0.148 A 
ATOM     87  C   UNL A   1      41.624  26.656  34.592  1.00  0.00     0.002 A 
ATOM     88  C   UNL A   1      43.238  27.755  36.027  1.00  0.00     0.091 A 
ATOM     89  F   UNL A   1      43.977  29.951  35.471  1.00  0.00    -0.205 F 
ATOM     90  C   UNL A   1      42.424  26.651  35.735  1.00  0.00     0.022 A 
BRANCH  88  91
ATOM     91  S   UNL A   1      44.348  27.643  37.431  1.00  0.00     0.127 S 
ATOM     92  O   UNL A   1      45.627  27.352  36.790  1.00  0.00    -0.237 OA
ATOM     93  O   UNL A   1      44.245  28.981  38.017  1.00  0.00    -0.237 OA
ATOM     94  O   UNL A   1      43.814  26.583  38.278  1.00  0.00    -0.744 OA
ENDBRANCH  88  91
ENDBRANCH  61  84
ENDBRANCH  35  36
ENDBRANCH  27  30
ENDBRANCH  25  26
ENDBRANCH  24  25
ENDBRANCH   1  24
TORSDOF 19
ENDMDL
MODEL 2
REMARK VINA RESULT:     -11.1      1.394      1.756
REMARK SMILES CCO[C@H](CCn1nnc2c(cnn2C)c1=O)C(=O)NCCCCNC(=O)c1ccc(-c2c3nc(c(-c4cccc(S(=O)(=O)[O-])c4F)c4ccc([nH]4)c(-c4cccc(S(=O)(=O)[O-])c4F)c4nc(c(-c5cccc(S(=O)(=O)[O-])c5F)c5ccc2[nH]5)C=C4)C=C3)cc1
REMARK SMILES IDX 22 1 21 2 20 3 18 4 19 5 4 7 3 8 2 9 1 10 5 11 6 12 7 13
REMARK SMILES IDX 8 14 16 15 9 16 11 17 17 18 10 19 12 20 14 21 13 22 15 23
REMARK SMILES IDX 23 24 24 25 25 26 26 27 27 29 28 30 29 31 90 32 30 33 89 34
REMARK SMILES IDX 31 35 32 36 33 37 83 38 34 39 88 40 82 41 84 42 35 43 87 44
REMARK SMILES IDX 81 45 80 46 36 48 68 49 48 50 67 51 49 52 52 53 66 54 85 55
REMARK SMILES IDX 50 56 51 57 65 59 86 60 53 61 37 62 38 63 46 64 39 65 41 66
REMARK SMILES IDX 47 67 40 68 42 69 43 70 44 71 45 72 69 73 70 74 78 75 71 76
REMARK SMILES IDX 73 77 79 78 72 79 74 80 75 81 76 82 77 83 54 84 55 85 63 86
REMARK SMILES IDX 56 87 58 88 64 89 57 90 59 91 60 92 61 93 62 94
REMARK H PARENT 20 6 25 28 84 47 52 58
REMARK Flexibility Score: inf
ROOT
ATOM      1  C   UNL A   1      37.233  22.732  25.725  1.00  0.00     0.023 C 
ENDROOT
BRANCH   1   2
ATOM      2  C   UNL A   1      35.865  22.059  25.790  1.00  0.00     0.116 C 
BRANCH   2   3
ATOM      3  N   UNL A   1      35.167  21.909  24.531  1.00  0.00    -0.354 N 
ATOM      4  C   UNL A   1      33.826  21.782  24.315  1.00  0.00     0.249 C 
ATOM      5  O   UNL A   1      33.385  22.084  23.204  1.00  0.00    -0.272 OA
ATOM      6  H   UNL A   1      35.733  21.899  23.726  1.00  0.00     0.163 HD
BRANCH   4   7
ATOM      7  C   UNL A   1      32.891  21.277  25.419  1.00  0.00     0.208 C 
BRANCH   7   8
ATOM      8  O   UNL A   1      32.217  20.020  25.287  1.00  0.00    -0.369 OA
BRANCH   8   9
ATOM      9  C   UNL A   1      32.569  19.033  24.316  1.00  0.00     0.158 C 
ATOM     10  C   UNL A   1      33.823  18.181  24.479  1.00  0.00     0.035 C 
ENDBRANCH   8   9
ENDBRANCH   7   8
BRANCH   7  11
ATOM     11  C   UNL A   1      31.897  22.385  25.880  1.00  0.00     0.066 C 
BRANCH  11  12
ATOM     12  C   UNL A   1      32.400  23.524  26.816  1.00  0.00     0.153 C 
BRANCH  12  13
ATOM     13  N   UNL A   1      32.292  24.912  26.358  1.00  0.00    -0.210 N 
ATOM     14  N   UNL A   1      31.154  25.587  26.803  1.00  0.00    -0.062 NA
ATOM     15  C   UNL A   1      33.216  25.479  25.447  1.00  0.00     0.280 A 
ATOM     16  N   UNL A   1      31.063  26.841  26.701  1.00  0.00    -0.111 NA
ATOM     17  C   UNL A   1      33.040  26.908  25.325  1.00  0.00     0.108 A 
ATOM     18  O   UNL A   1      34.129  24.885  24.921  1.00  0.00    -0.267 OA
ATOM     19  C   UNL A   1      32.041  27.488  26.045  1.00  0.00     0.187 A 
ATOM     20  C   UNL A   1      33.776  27.974  24.784  1.00  0.00     0.151 A 
ATOM     21  N   UNL A   1      32.355  28.817  26.125  1.00  0.00    -0.249 N 
ATOM     22  N   UNL A   1      33.375  29.152  25.289  1.00  0.00    -0.179 NA
ATOM     23  C   UNL A   1      31.960  29.736  27.171  1.00  0.00     0.176 C 
ENDBRANCH  12  13
ENDBRANCH  11  12
ENDBRANCH   7  11
ENDBRANCH   4   7
ENDBRANCH   2   3
ENDBRANCH   1   2
BRANCH   1  24
ATOM     24  C   UNL A   1      38.414  21.815  25.456  1.00  0.00     0.023 C 
BRANCH  24  25
ATOM     25  C   UNL A   1      39.478  21.753  26.522  1.00  0.00     0.116 C 
BRANCH  25  26
ATOM     26  N   UNL A   1      40.827  21.679  26.003  1.00  0.00    -0.352 N 
ATOM     27  C   UNL A   1      41.710  22.740  25.919  1.00  0.00     0.251 C 
ATOM     28  H   UNL A   1      41.142  20.802  25.684  1.00  0.00     0.163 HD
ATOM     29  O   UNL A   1      42.653  22.699  25.136  1.00  0.00    -0.269 OA
BRANCH  27  30
ATOM     30  C   UNL A   1      41.473  23.933  26.765  1.00  0.00     0.039 A 
ATOM     31  C   UNL A   1      42.258  24.167  27.892  1.00  0.00     0.014 A 
ATOM     32  C   UNL A   1      40.484  24.849  26.402  1.00  0.00     0.014 A 
ATOM     33  C   UNL A   1      42.084  25.358  28.597  1.00  0.00     0.010 A 
ATOM     34  C   UNL A   1      40.423  26.090  27.003  1.00  0.00     0.010 A 
ATOM     35  C   UNL A   1      41.186  26.342  28.133  1.00  0.00    -0.014 A 
BRANCH  35  36
ATOM     36  C   UNL A   1      41.135  27.658  28.780  1.00  0.00     0.031 A 
ATOM     37  C   UNL A   1      42.199  28.593  28.332  1.00  0.00     0.074 A 
ATOM     38  C   UNL A   1      40.189  28.096  29.644  1.00  0.00     0.049 A 
ATOM     39  N   UNL A   1      43.329  28.798  28.924  1.00  0.00    -0.248 NA
ATOM     40  C   UNL A   1      42.090  29.231  27.015  1.00  0.00     0.031 C 
ATOM     41  C   UNL A   1      38.925  27.447  30.018  1.00  0.00     0.029 A 
ATOM     42  N   UNL A   1      40.126  29.278  30.330  1.00  0.00    -0.354 N 
ATOM     43  C   UNL A   1      43.939  29.820  28.206  1.00  0.00     0.074 A 
ATOM     44  C   UNL A   1      43.264  29.867  26.936  1.00  0.00     0.031 C 
ATOM     45  C   UNL A   1      38.126  28.332  30.660  1.00  0.00     0.029 A 
ATOM     46  C   UNL A   1      38.897  29.528  30.934  1.00  0.00     0.049 A 
ATOM     47  H   UNL A   1      40.886  29.901  30.389  1.00  0.00     0.167 HD
ATOM     48  C   UNL A   1      44.709  30.737  28.854  1.00  0.00     0.034 A 
ATOM     49  C   UNL A   1      38.550  30.616  31.662  1.00  0.00     0.034 A 
ATOM     50  C   UNL A   1      44.951  30.326  30.216  1.00  0.00     0.049 A 
ATOM     51  C   UNL A   1      39.794  31.148  32.251  1.00  0.00     0.074 A 
ATOM     52  C   UNL A   1      45.722  29.406  30.888  1.00  0.00     0.029 A 
ATOM     53  N   UNL A   1      43.975  30.752  31.077  1.00  0.00    -0.354 N 
ATOM     54  N   UNL A   1      40.465  30.523  33.178  1.00  0.00    -0.248 NA
ATOM     55  C   UNL A   1      40.458  32.294  31.647  1.00  0.00     0.031 C 
ATOM     56  C   UNL A   1      45.083  29.195  32.149  1.00  0.00     0.029 A 
ATOM     57  C   UNL A   1      43.957  30.010  32.223  1.00  0.00     0.049 A 
ATOM     58  H   UNL A   1      43.363  31.501  30.892  1.00  0.00     0.167 HD
ATOM     59  C   UNL A   1      41.769  30.903  32.940  1.00  0.00     0.074 A 
ATOM     60  C   UNL A   1      41.681  32.126  32.153  1.00  0.00     0.031 C 
ATOM     61  C   UNL A   1      42.789  30.011  33.076  1.00  0.00     0.034 A 
BRANCH  48  62
ATOM     62  C   UNL A   1      44.840  32.210  28.504  1.00  0.00     0.023 A 
ATOM     63  C   UNL A   1      46.153  32.694  28.285  1.00  0.00     0.012 A 
ATOM     64  C   UNL A   1      43.829  33.182  28.672  1.00  0.00     0.148 A 
ATOM     65  C   UNL A   1      46.453  34.061  28.297  1.00  0.00     0.002 A 
ATOM     66  C   UNL A   1      44.119  34.542  28.608  1.00  0.00     0.091 A 
ATOM     67  F   UNL A   1      42.599  32.815  29.034  1.00  0.00    -0.205 F 
ATOM     68  C   UNL A   1      45.434  34.987  28.453  1.00  0.00     0.022 A 
BRANCH  66  69
ATOM     69  S   UNL A   1      42.833  35.789  28.765  1.00  0.00     0.127 S 
ATOM     70  O   UNL A   1      41.804  35.056  29.494  1.00  0.00    -0.237 OA
ATOM     71  O   UNL A   1      43.522  36.826  29.535  1.00  0.00    -0.237 OA
ATOM     72  O   UNL A   1      42.497  36.181  27.402  1.00  0.00    -0.744 OA
ENDBRANCH  66  69
ENDBRANCH  48  62
BRANCH  49  73
ATOM     73  C   UNL A   1      37.265  31.295  31.933  1.00  0.00     0.023 A 
ATOM     74  C   UNL A   1      36.963  31.674  33.259  1.00  0.00     0.012 A 
ATOM     75  C   UNL A   1      36.545  31.894  30.881  1.00  0.00     0.148 A 
ATOM     76  C   UNL A   1      36.041  32.689  33.527  1.00  0.00     0.002 A 
ATOM     77  C   UNL A   1      35.632  32.911  31.155  1.00  0.00     0.091 A 
ATOM     78  F   UNL A   1      36.838  31.541  29.621  1.00  0.00    -0.205 F 
ATOM     79  C   UNL A   1      35.393  33.324  32.474  1.00  0.00     0.022 A 
BRANCH  77  80
ATOM     80  S   UNL A   1      34.788  33.824  29.856  1.00  0.00     0.127 S 
ATOM     81  O   UNL A   1      35.909  34.341  29.069  1.00  0.00    -0.237 OA
ATOM     82  O   UNL A   1      34.018  32.769  29.201  1.00  0.00    -0.237 OA
ATOM     83  O   UNL A   1      34.012  34.849  30.540  1.00  0.00    -0.744 OA
ENDBRANCH  77  80
ENDBRANCH  49  73
BRANCH  61  84
ATOM     84  C   UNL A   1      42.601  28.861  34.019  1.00  0.00     0.023 A 
ATOM     85  C   UNL A   1      41.816  27.732  33.715  1.00  0.00     0.012 A 
ATOM     86  C   UNL A   1      43.338  28.882  35.213  1.00  0.00     0.148 A 
ATOM     87  C   UNL A   1      41.765  26.647  34.596  1.00  0.00     0.002 A 
ATOM     88  C   UNL A   1      43.330  27.782  36.058  1.00  0.00     0.091 A 
ATOM     89  F   UNL A   1      44.057  29.980  35.495  1.00  0.00    -0.205 F 
ATOM     90  C   UNL A   1      42.536  26.665  35.758  1.00  0.00     0.022 A 
BRANCH  88  91
ATOM     91  S   UNL A   1      44.404  27.699  37.491  1.00  0.00     0.127 S 
ATOM     92  O   UNL A   1      44.291  29.049  38.038  1.00  0.00    -0.237 OA
ATOM     93  O   UNL A   1      43.769  26.656  38.298  1.00  0.00    -0.237 OA
ATOM     94  O   UNL A   1      45.722  27.336  36.983  1.00  0.00    -0.744 OA
ENDBRANCH  88  91
ENDBRANCH  61  84
ENDBRANCH  35  36
ENDBRANCH  27  30
ENDBRANCH  25  26
ENDBRANCH  24  25
ENDBRANCH   1  24
TORSDOF 19
ENDMDL
MODEL 3
REMARK VINA RESULT:     -11.1      2.791      9.123
REMARK SMILES CCO[C@H](CCn1nnc2c(cnn2C)c1=O)C(=O)NCCCCNC(=O)c1ccc(-c2c3nc(c(-c4cccc(S(=O)(=O)[O-])c4F)c4ccc([nH]4)c(-c4cccc(S(=O)(=O)[O-])c4F)c4nc(c(-c5cccc(S(=O)(=O)[O-])c5F)c5ccc2[nH]5)C=C4)C=C3)cc1
REMARK SMILES IDX 22 1 21 2 20 3 18 4 19 5 4 7 3 8 2 9 1 10 5 11 6 12 7 13
REMARK SMILES IDX 8 14 16 15 9 16 11 17 17 18 10 19 12 20 14 21 13 22 15 23
REMARK SMILES IDX 23 24 24 25 25 26 26 27 27 29 28 30 29 31 90 32 30 33 89 34
REMARK SMILES IDX 31 35 32 36 33 37 83 38 34 39 88 40 82 41 84 42 35 43 87 44
REMARK SMILES IDX 81 45 80 46 36 48 68 49 48 50 67 51 49 52 52 53 66 54 85 55
REMARK SMILES IDX 50 56 51 57 65 59 86 60 53 61 37 62 38 63 46 64 39 65 41 66
REMARK SMILES IDX 47 67 40 68 42 69 43 70 44 71 45 72 69 73 70 74 78 75 71 76
REMARK SMILES IDX 73 77 79 78 72 79 74 80 75 81 76 82 77 83 54 84 55 85 63 86
REMARK SMILES IDX 56 87 58 88 64 89 57 90 59 91 60 92 61 93 62 94
REMARK H PARENT 20 6 25 28 84 47 52 58
REMARK Flexibility Score: inf
ROOT
ATOM      1  C   UNL A   1      32.824  30.070  25.524  1.00  0.00     0.023 C 
ENDROOT
BRANCH   1   2
ATOM      2  C   UNL A   1      31.401  29.615  25.213  1.00  0.00     0.116 C 
BRANCH   2   3
ATOM      3  N   UNL A   1      31.040  29.563  23.812  1.00  0.00    -0.354 N 
ATOM      4  C   UNL A   1      30.848  28.465  23.026  1.00  0.00     0.249 C 
ATOM      5  O   UNL A   1      30.155  28.588  22.014  1.00  0.00    -0.272 OA
ATOM      6  H   UNL A   1      30.915  30.433  23.370  1.00  0.00     0.163 HD
BRANCH   4   7
ATOM      7  C   UNL A   1      31.476  27.114  23.386  1.00  0.00     0.208 C 
BRANCH   7   8
ATOM      8  O   UNL A   1      31.219  26.506  24.657  1.00  0.00    -0.369 OA
BRANCH   8   9
ATOM      9  C   UNL A   1      30.547  25.255  24.812  1.00  0.00     0.158 C 
ATOM     10  C   UNL A   1      30.663  24.453  26.104  1.00  0.00     0.035 C 
ENDBRANCH   8   9
ENDBRANCH   7   8
BRANCH   7  11
ATOM     11  C   UNL A   1      33.000  27.086  23.065  1.00  0.00     0.066 C 
BRANCH  11  12
ATOM     12  C   UNL A   1      33.637  25.789  22.483  1.00  0.00     0.153 C 
BRANCH  12  13
ATOM     13  N   UNL A   1      33.871  24.654  23.380  1.00  0.00    -0.210 N 
ATOM     14  N   UNL A   1      34.499  24.981  24.584  1.00  0.00    -0.062 NA
ATOM     15  C   UNL A   1      33.580  23.321  23.002  1.00  0.00     0.280 A 
ATOM     16  N   UNL A   1      34.528  24.162  25.542  1.00  0.00    -0.111 NA
ATOM     17  C   UNL A   1      33.677  22.412  24.121  1.00  0.00     0.108 A 
ATOM     18  O   UNL A   1      33.177  22.979  21.914  1.00  0.00    -0.267 OA
ATOM     19  C   UNL A   1      34.043  22.928  25.326  1.00  0.00     0.187 A 
ATOM     20  C   UNL A   1      33.291  21.089  24.383  1.00  0.00     0.151 A 
ATOM     21  N   UNL A   1      33.631  22.023  26.265  1.00  0.00    -0.249 N 
ATOM     22  N   UNL A   1      33.238  20.847  25.703  1.00  0.00    -0.179 NA
ATOM     23  C   UNL A   1      33.289  22.303  27.643  1.00  0.00     0.176 C 
ENDBRANCH  12  13
ENDBRANCH  11  12
ENDBRANCH   7  11
ENDBRANCH   4   7
ENDBRANCH   2   3
ENDBRANCH   1   2
BRANCH   1  24
ATOM     24  C   UNL A   1      33.690  29.079  26.282  1.00  0.00     0.023 C 
BRANCH  24  25
ATOM     25  C   UNL A   1      34.080  29.459  27.688  1.00  0.00     0.116 C 
BRANCH  25  26
ATOM     26  N   UNL A   1      34.053  30.885  27.941  1.00  0.00    -0.352 N 
ATOM     27  C   UNL A   1      34.933  31.567  28.761  1.00  0.00     0.251 C 
ATOM     28  H   UNL A   1      33.353  31.410  27.491  1.00  0.00     0.163 HD
ATOM     29  O   UNL A   1      34.625  32.660  29.224  1.00  0.00    -0.269 OA
BRANCH  27  30
ATOM     30  C   UNL A   1      36.233  30.938  29.091  1.00  0.00     0.039 A 
ATOM     31  C   UNL A   1      36.278  29.711  29.750  1.00  0.00     0.014 A 
ATOM     32  C   UNL A   1      37.420  31.560  28.697  1.00  0.00     0.014 A 
ATOM     33  C   UNL A   1      37.514  29.094  29.941  1.00  0.00     0.010 A 
ATOM     34  C   UNL A   1      38.618  30.878  28.743  1.00  0.00     0.010 A 
ATOM     35  C   UNL A   1      38.689  29.662  29.405  1.00  0.00    -0.014 A 
BRANCH  35  36
ATOM     36  C   UNL A   1      39.957  28.923  29.459  1.00  0.00     0.031 A 
ATOM     37  C   UNL A   1      40.501  28.759  30.831  1.00  0.00     0.074 A 
ATOM     38  C   UNL A   1      40.592  28.334  28.419  1.00  0.00     0.049 A 
ATOM     39  N   UNL A   1      41.386  29.514  31.393  1.00  0.00    -0.248 NA
ATOM     40  C   UNL A   1      39.887  27.782  31.738  1.00  0.00     0.031 C 
ATOM     41  C   UNL A   1      40.110  28.147  27.043  1.00  0.00     0.029 A 
ATOM     42  N   UNL A   1      41.803  27.697  28.395  1.00  0.00    -0.354 N 
ATOM     43  C   UNL A   1      41.654  28.915  32.618  1.00  0.00     0.074 A 
ATOM     44  C   UNL A   1      40.553  28.024  32.872  1.00  0.00     0.031 C 
ATOM     45  C   UNL A   1      40.897  27.254  26.398  1.00  0.00     0.029 A 
ATOM     46  C   UNL A   1      42.051  26.976  27.230  1.00  0.00     0.049 A 
ATOM     47  H   UNL A   1      42.444  27.744  29.140  1.00  0.00     0.167 HD
ATOM     48  C   UNL A   1      42.913  28.964  33.135  1.00  0.00     0.034 A 
ATOM     49  C   UNL A   1      43.153  26.247  26.940  1.00  0.00     0.034 A 
ATOM     50  C   UNL A   1      43.737  29.878  32.381  1.00  0.00     0.049 A 
ATOM     51  C   UNL A   1      44.268  26.839  27.703  1.00  0.00     0.074 A 
ATOM     52  C   UNL A   1      43.890  31.238  32.235  1.00  0.00     0.029 A 
ATOM     53  N   UNL A   1      44.354  29.278  31.317  1.00  0.00    -0.354 N 
ATOM     54  N   UNL A   1      44.762  28.016  27.440  1.00  0.00    -0.248 NA
ATOM     55  C   UNL A   1      44.713  26.224  28.946  1.00  0.00     0.031 C 
ATOM     56  C   UNL A   1      44.510  31.434  30.962  1.00  0.00     0.029 A 
ATOM     57  C   UNL A   1      44.741  30.192  30.379  1.00  0.00     0.049 A 
ATOM     58  H   UNL A   1      44.500  28.307  31.238  1.00  0.00     0.167 HD
ATOM     59  C   UNL A   1      45.191  28.465  28.671  1.00  0.00     0.074 A 
ATOM     60  C   UNL A   1      45.333  27.272  29.494  1.00  0.00     0.031 C 
ATOM     61  C   UNL A   1      45.038  29.771  29.027  1.00  0.00     0.034 A 
BRANCH  48  62
ATOM     62  C   UNL A   1      43.592  27.880  33.955  1.00  0.00     0.023 A 
ATOM     63  C   UNL A   1      44.188  26.818  33.230  1.00  0.00     0.012 A 
ATOM     64  C   UNL A   1      43.423  27.679  35.342  1.00  0.00     0.148 A 
ATOM     65  C   UNL A   1      44.534  25.606  33.838  1.00  0.00     0.002 A 
ATOM     66  C   UNL A   1      43.839  26.501  35.956  1.00  0.00     0.091 A 
ATOM     67  F   UNL A   1      42.735  28.561  36.069  1.00  0.00    -0.205 F 
ATOM     68  C   UNL A   1      44.366  25.449  35.204  1.00  0.00     0.022 A 
BRANCH  66  69
ATOM     69  S   UNL A   1      43.681  26.255  37.731  1.00  0.00     0.127 S 
ATOM     70  O   UNL A   1      44.411  27.406  38.251  1.00  0.00    -0.237 OA
ATOM     71  O   UNL A   1      42.229  26.307  37.907  1.00  0.00    -0.237 OA
ATOM     72  O   UNL A   1      44.269  24.949  38.001  1.00  0.00    -0.744 OA
ENDBRANCH  66  69
ENDBRANCH  48  62
BRANCH  49  73
ATOM     73  C   UNL A   1      43.402  25.071  26.079  1.00  0.00     0.023 A 
ATOM     74  C   UNL A   1      44.624  24.989  25.375  1.00  0.00     0.012 A 
ATOM     75  C   UNL A   1      42.641  23.897  26.245  1.00  0.00     0.148 A 
ATOM     76  C   UNL A   1      45.122  23.760  24.936  1.00  0.00     0.002 A 
ATOM     77  C   UNL A   1      43.148  22.673  25.812  1.00  0.00     0.091 A 
ATOM     78  F   UNL A   1      41.485  23.973  26.920  1.00  0.00    -0.205 F 
ATOM     79  C   UNL A   1      44.396  22.599  25.176  1.00  0.00     0.022 A 
BRANCH  77  80
ATOM     80  S   UNL A   1      42.305  21.116  26.124  1.00  0.00     0.127 S 
ATOM     81  O   UNL A   1      40.965  21.385  25.601  1.00  0.00    -0.237 OA
ATOM     82  O   UNL A   1      43.096  20.183  25.325  1.00  0.00    -0.237 OA
ATOM     83  O   UNL A   1      42.359  20.925  27.566  1.00  0.00    -0.744 OA
ENDBRANCH  77  80
ENDBRANCH  49  73
BRANCH  61  84
ATOM     84  C   UNL A   1      44.977  30.799  27.938  1.00  0.00     0.023 A 
ATOM     85  C   UNL A   1      43.783  31.170  27.291  1.00  0.00     0.012 A 
ATOM     86  C   UNL A   1      46.163  31.487  27.638  1.00  0.00     0.148 A 
ATOM     87  C   UNL A   1      43.779  32.209  26.355  1.00  0.00     0.002 A 
ATOM     88  C   UNL A   1      46.145  32.553  26.751  1.00  0.00     0.091 A 
ATOM     89  F   UNL A   1      47.294  31.096  28.245  1.00  0.00    -0.205 F 
ATOM     90  C   UNL A   1      44.957  32.912  26.098  1.00  0.00     0.022 A 
BRANCH  88  91
ATOM     91  S   UNL A   1      47.597  33.572  26.489  1.00  0.00     0.127 S 
ATOM     92  O   UNL A   1      47.776  34.194  27.798  1.00  0.00    -0.237 OA
ATOM     93  O   UNL A   1      48.615  32.580  26.137  1.00  0.00    -0.237 OA
ATOM     94  O   UNL A   1      47.256  34.483  25.402  1.00  0.00    -0.744 OA
ENDBRANCH  88  91
ENDBRANCH  61  84
ENDBRANCH  35  36
ENDBRANCH  27  30
ENDBRANCH  25  26
ENDBRANCH  24  25
ENDBRANCH   1  24
TORSDOF 19
ENDMDL
