MODEL 1
REMARK VINA RESULT:     -13.1      0.000      0.000
REMARK SMILES CCc1cc(N2CCC[C@H](C(=O)NCCCCNC(=O)c3ccc(-c4c5nc(c(-c6cccc(S(=O)(=O)[O-])c6F)c6ccc([nH]6)c(-c6cccc(S(=O)(=O)[O-])c6F)c6nc(c(-c7cccc(S(=O)(=O)[O-])c7F)c7ccc4[nH]7)C=C6)C=C5)cc3)C2)nc(-c2ccc(Cl)cc2)n1
REMARK SMILES IDX 16 1 15 2 14 3 13 4 11 5 12 6 10 8 6 9 7 10 84 11 8 12 9 13
REMARK SMILES IDX 5 14 3 15 4 16 94 17 86 18 85 19 2 20 1 21 87 22 88 23 93 24
REMARK SMILES IDX 89 25 92 26 90 27 91 28 17 29 18 30 19 31 20 33 21 34 22 35
REMARK SMILES IDX 83 36 23 37 82 38 24 39 25 40 26 41 76 42 27 43 81 44 75 45
REMARK SMILES IDX 77 46 28 47 80 48 74 49 73 50 29 52 61 53 41 54 60 55 42 56
REMARK SMILES IDX 45 57 59 58 78 59 43 60 44 61 58 63 79 64 46 65 30 66 31 67
REMARK SMILES IDX 39 68 32 69 34 70 40 71 33 72 35 73 36 74 37 75 38 76 62 77
REMARK SMILES IDX 63 78 71 79 64 80 66 81 72 82 65 83 67 84 68 85 69 86 70 87
REMARK SMILES IDX 47 88 48 89 56 90 49 91 51 92 57 93 50 94 52 95 53 96 54 97
REMARK SMILES IDX 55 98
REMARK H PARENT 13 7 18 32 77 51 45 62
REMARK Flexibility Score: inf
ROOT
ATOM      1  C   UNL A   1      32.903  28.460  26.316  1.00  0.00     0.023 C 
ENDROOT
BRANCH   1   2
ATOM      2  C   UNL A   1      33.805  27.244  26.121  1.00  0.00     0.023 C 
BRANCH   2   3
ATOM      3  C   UNL A   1      33.066  25.920  25.959  1.00  0.00     0.116 C 
BRANCH   3   4
ATOM      4  N   UNL A   1      31.692  25.922  26.406  1.00  0.00    -0.356 N 
ATOM      5  C   UNL A   1      30.612  25.285  25.877  1.00  0.00     0.224 C 
ATOM      6  O   UNL A   1      29.661  25.076  26.640  1.00  0.00    -0.275 OA
ATOM      7  H   UNL A   1      31.511  26.461  27.210  1.00  0.00     0.163 HD
BRANCH   5   8
ATOM      8  C   UNL A   1      30.493  24.844  24.413  1.00  0.00     0.098 C 
ATOM      9  N   UNL A   1      32.509  23.667  23.661  1.00  0.00    -0.356 N 
ATOM     10  C   UNL A   1      32.809  24.544  22.542  1.00  0.00     0.118 C 
ATOM     11  C   UNL A   1      31.137  23.500  24.098  1.00  0.00     0.131 C 
ATOM     12  C   UNL A   1      32.131  25.913  22.697  1.00  0.00     0.022 C 
ATOM     13  C   UNL A   1      30.751  25.921  23.355  1.00  0.00     0.017 C 
BRANCH   9  14
ATOM     14  C   UNL A   1      33.451  22.772  24.129  1.00  0.00     0.132 A 
ATOM     15  C   UNL A   1      35.673  22.155  24.624  1.00  0.00     0.046 A 
ATOM     16  C   UNL A   1      34.780  23.138  24.250  1.00  0.00     0.070 A 
ATOM     17  N   UNL A   1      35.272  20.910  24.908  1.00  0.00    -0.233 NA
ATOM     18  C   UNL A   1      33.983  20.615  24.699  1.00  0.00     0.161 A 
ATOM     19  N   UNL A   1      33.049  21.500  24.325  1.00  0.00    -0.211 NA
BRANCH  15  20
ATOM     20  C   UNL A   1      37.157  22.382  24.682  1.00  0.00     0.053 C 
ATOM     21  C   UNL A   1      37.493  23.672  25.433  1.00  0.00     0.011 C 
ENDBRANCH  15  20
BRANCH  18  22
ATOM     22  C   UNL A   1      33.718  19.174  24.608  1.00  0.00     0.019 A 
ATOM     23  C   UNL A   1      32.430  18.674  24.878  1.00  0.00     0.013 A 
ATOM     24  C   UNL A   1      34.772  18.252  24.474  1.00  0.00     0.013 A 
ATOM     25  C   UNL A   1      32.217  17.310  25.095  1.00  0.00     0.021 A 
ATOM     26  C   UNL A   1      34.562  16.886  24.686  1.00  0.00     0.021 A 
ATOM     27  C   UNL A   1      33.292  16.428  25.033  1.00  0.00     0.041 A 
ATOM     28  Cl  UNL A   1      33.059  14.767  25.403  1.00  0.00    -0.084 Cl
ENDBRANCH  18  22
ENDBRANCH   9  14
ENDBRANCH   5   8
ENDBRANCH   3   4
ENDBRANCH   2   3
ENDBRANCH   1   2
BRANCH   1  29
ATOM     29  C   UNL A   1      33.426  29.773  25.739  1.00  0.00     0.116 C 
BRANCH  29  30
ATOM     30  N   UNL A   1      33.041  30.977  26.463  1.00  0.00    -0.352 N 
ATOM     31  C   UNL A   1      33.708  31.603  27.504  1.00  0.00     0.251 C 
ATOM     32  H   UNL A   1      32.200  31.400  26.177  1.00  0.00     0.163 HD
ATOM     33  O   UNL A   1      33.215  32.582  28.049  1.00  0.00    -0.269 OA
BRANCH  31  34
ATOM     34  C   UNL A   1      35.017  31.073  27.975  1.00  0.00     0.039 A 
ATOM     35  C   UNL A   1      36.143  31.901  28.009  1.00  0.00     0.014 A 
ATOM     36  C   UNL A   1      35.129  29.752  28.403  1.00  0.00     0.014 A 
ATOM     37  C   UNL A   1      37.347  31.422  28.548  1.00  0.00     0.010 A 
ATOM     38  C   UNL A   1      36.295  29.298  29.002  1.00  0.00     0.010 A 
ATOM     39  C   UNL A   1      37.417  30.123  29.075  1.00  0.00    -0.014 A 
BRANCH  39  40
ATOM     40  C   UNL A   1      38.604  29.605  29.791  1.00  0.00     0.031 A 
ATOM     41  C   UNL A   1      39.020  30.184  31.114  1.00  0.00     0.074 A 
ATOM     42  C   UNL A   1      39.419  28.756  29.138  1.00  0.00     0.049 A 
ATOM     43  N   UNL A   1      40.049  29.881  31.861  1.00  0.00    -0.248 NA
ATOM     44  C   UNL A   1      38.195  31.280  31.644  1.00  0.00     0.031 C 
ATOM     45  C   UNL A   1      39.200  28.263  27.777  1.00  0.00     0.029 A 
ATOM     46  N   UNL A   1      40.610  28.192  29.512  1.00  0.00    -0.354 N 
ATOM     47  C   UNL A   1      40.023  30.773  32.928  1.00  0.00     0.074 A 
ATOM     48  C   UNL A   1      38.894  31.652  32.708  1.00  0.00     0.031 C 
ATOM     49  C   UNL A   1      40.217  27.458  27.434  1.00  0.00     0.029 A 
ATOM     50  C   UNL A   1      41.157  27.380  28.549  1.00  0.00     0.049 A 
ATOM     51  H   UNL A   1      41.032  28.353  30.386  1.00  0.00     0.167 HD
ATOM     52  C   UNL A   1      40.850  30.835  34.002  1.00  0.00     0.034 A 
ATOM     53  C   UNL A   1      42.279  26.636  28.572  1.00  0.00     0.034 A 
ATOM     54  C   UNL A   1      41.945  29.922  34.210  1.00  0.00     0.049 A 
ATOM     55  C   UNL A   1      43.103  26.612  29.828  1.00  0.00     0.074 A 
ATOM     56  C   UNL A   1      42.753  29.780  35.324  1.00  0.00     0.029 A 
ATOM     57  N   UNL A   1      42.398  29.004  33.271  1.00  0.00    -0.354 N 
ATOM     58  N   UNL A   1      42.940  27.296  30.934  1.00  0.00    -0.248 NA
ATOM     59  C   UNL A   1      44.234  25.675  29.860  1.00  0.00     0.031 C 
ATOM     60  C   UNL A   1      43.709  28.795  35.049  1.00  0.00     0.029 A 
ATOM     61  C   UNL A   1      43.474  28.296  33.777  1.00  0.00     0.049 A 
ATOM     62  H   UNL A   1      42.008  28.875  32.376  1.00  0.00     0.167 HD
ATOM     63  C   UNL A   1      43.919  26.847  31.810  1.00  0.00     0.074 A 
ATOM     64  C   UNL A   1      44.662  25.819  31.108  1.00  0.00     0.031 C 
ATOM     65  C   UNL A   1      44.183  27.252  33.079  1.00  0.00     0.034 A 
BRANCH  52  66
ATOM     66  C   UNL A   1      40.562  31.875  35.063  1.00  0.00     0.023 A 
ATOM     67  C   UNL A   1      41.331  33.056  35.108  1.00  0.00     0.012 A 
ATOM     68  C   UNL A   1      39.497  31.721  35.975  1.00  0.00     0.148 A 
ATOM     69  C   UNL A   1      41.091  34.034  36.073  1.00  0.00     0.002 A 
ATOM     70  C   UNL A   1      39.225  32.727  36.898  1.00  0.00     0.091 A 
ATOM     71  F   UNL A   1      38.774  30.592  35.935  1.00  0.00    -0.205 F 
ATOM     72  C   UNL A   1      40.032  33.874  36.961  1.00  0.00     0.022 A 
BRANCH  70  73
ATOM     73  S   UNL A   1      37.815  32.669  38.012  1.00  0.00     0.127 S 
ATOM     74  O   UNL A   1      38.119  33.763  38.933  1.00  0.00    -0.237 OA
ATOM     75  O   UNL A   1      36.694  32.932  37.107  1.00  0.00    -0.237 OA
ATOM     76  O   UNL A   1      37.820  31.335  38.594  1.00  0.00    -0.744 OA
ENDBRANCH  70  73
ENDBRANCH  52  66
BRANCH  53  77
ATOM     77  C   UNL A   1      42.575  25.736  27.425  1.00  0.00     0.023 A 
ATOM     78  C   UNL A   1      43.440  26.193  26.412  1.00  0.00     0.012 A 
ATOM     79  C   UNL A   1      42.095  24.414  27.377  1.00  0.00     0.148 A 
ATOM     80  C   UNL A   1      43.806  25.358  25.357  1.00  0.00     0.002 A 
ATOM     81  C   UNL A   1      42.503  23.570  26.350  1.00  0.00     0.091 A 
ATOM     82  F   UNL A   1      41.278  24.000  28.356  1.00  0.00    -0.205 F 
ATOM     83  C   UNL A   1      43.347  24.044  25.331  1.00  0.00     0.022 A 
BRANCH  81  84
ATOM     84  S   UNL A   1      42.076  21.826  26.300  1.00  0.00     0.127 S 
ATOM     85  O   UNL A   1      40.660  21.873  25.949  1.00  0.00    -0.237 OA
ATOM     86  O   UNL A   1      42.958  21.333  25.242  1.00  0.00    -0.237 OA
ATOM     87  O   UNL A   1      42.377  21.305  27.628  1.00  0.00    -0.744 OA
ENDBRANCH  81  84
ENDBRANCH  53  77
BRANCH  65  88
ATOM     88  C   UNL A   1      45.305  26.560  33.808  1.00  0.00     0.023 A 
ATOM     89  C   UNL A   1      46.597  27.125  33.812  1.00  0.00     0.012 A 
ATOM     90  C   UNL A   1      45.064  25.381  34.541  1.00  0.00     0.148 A 
ATOM     91  C   UNL A   1      47.639  26.504  34.501  1.00  0.00     0.002 A 
ATOM     92  C   UNL A   1      46.095  24.798  35.268  1.00  0.00     0.091 A 
ATOM     93  F   UNL A   1      43.833  24.851  34.512  1.00  0.00    -0.205 F 
ATOM     94  C   UNL A   1      47.385  25.349  35.237  1.00  0.00     0.022 A 
BRANCH  92  95
ATOM     95  S   UNL A   1      45.842  23.364  36.320  1.00  0.00     0.127 S 
ATOM     96  O   UNL A   1      45.209  23.964  37.493  1.00  0.00    -0.237 OA
ATOM     97  O   UNL A   1      44.953  22.536  35.505  1.00  0.00    -0.237 OA
ATOM     98  O   UNL A   1      47.161  22.791  36.547  1.00  0.00    -0.744 OA
ENDBRANCH  92  95
ENDBRANCH  65  88
ENDBRANCH  39  40
ENDBRANCH  31  34
ENDBRANCH  29  30
ENDBRANCH   1  29
TORSDOF 17
ENDMDL
MODEL 2
REMARK VINA RESULT:     -13.0      1.758      2.205
REMARK SMILES CCc1cc(N2CCC[C@H](C(=O)NCCCCNC(=O)c3ccc(-c4c5nc(c(-c6cccc(S(=O)(=O)[O-])c6F)c6ccc([nH]6)c(-c6cccc(S(=O)(=O)[O-])c6F)c6nc(c(-c7cccc(S(=O)(=O)[O-])c7F)c7ccc4[nH]7)C=C6)C=C5)cc3)C2)nc(-c2ccc(Cl)cc2)n1
REMARK SMILES IDX 16 1 15 2 14 3 13 4 11 5 12 6 10 8 6 9 7 10 84 11 8 12 9 13
REMARK SMILES IDX 5 14 3 15 4 16 94 17 86 18 85 19 2 20 1 21 87 22 88 23 93 24
REMARK SMILES IDX 89 25 92 26 90 27 91 28 17 29 18 30 19 31 20 33 21 34 22 35
REMARK SMILES IDX 83 36 23 37 82 38 24 39 25 40 26 41 76 42 27 43 81 44 75 45
REMARK SMILES IDX 77 46 28 47 80 48 74 49 73 50 29 52 61 53 41 54 60 55 42 56
REMARK SMILES IDX 45 57 59 58 78 59 43 60 44 61 58 63 79 64 46 65 30 66 31 67
REMARK SMILES IDX 39 68 32 69 34 70 40 71 33 72 35 73 36 74 37 75 38 76 62 77
REMARK SMILES IDX 63 78 71 79 64 80 66 81 72 82 65 83 67 84 68 85 69 86 70 87
REMARK SMILES IDX 47 88 48 89 56 90 49 91 51 92 57 93 50 94 52 95 53 96 54 97
REMARK SMILES IDX 55 98
REMARK H PARENT 13 7 18 32 77 51 45 62
REMARK Flexibility Score: inf
ROOT
ATOM      1  C   UNL A   1      33.819  28.701  25.254  1.00  0.00     0.023 C 
ENDROOT
BRANCH   1   2
ATOM      2  C   UNL A   1      32.795  29.336  24.318  1.00  0.00     0.023 C 
BRANCH   2   3
ATOM      3  C   UNL A   1      32.829  28.815  22.886  1.00  0.00     0.116 C 
BRANCH   3   4
ATOM      4  N   UNL A   1      33.620  27.623  22.681  1.00  0.00    -0.356 N 
ATOM      5  C   UNL A   1      33.310  26.326  22.949  1.00  0.00     0.224 C 
ATOM      6  O   UNL A   1      33.930  25.463  22.314  1.00  0.00    -0.275 OA
ATOM      7  H   UNL A   1      34.512  27.771  22.291  1.00  0.00     0.163 HD
BRANCH   5   8
ATOM      8  C   UNL A   1      32.278  25.874  23.990  1.00  0.00     0.098 C 
ATOM      9  N   UNL A   1      32.533  23.497  24.537  1.00  0.00    -0.356 N 
ATOM     10  C   UNL A   1      31.180  23.098  24.190  1.00  0.00     0.118 C 
ATOM     11  C   UNL A   1      32.791  24.849  24.993  1.00  0.00     0.131 C 
ATOM     12  C   UNL A   1      30.513  24.112  23.248  1.00  0.00     0.022 C 
ATOM     13  C   UNL A   1      30.869  25.583  23.467  1.00  0.00     0.017 C 
BRANCH   9  14
ATOM     14  C   UNL A   1      33.523  22.551  24.721  1.00  0.00     0.132 A 
ATOM     15  C   UNL A   1      35.778  21.863  24.686  1.00  0.00     0.046 A 
ATOM     16  C   UNL A   1      34.859  22.887  24.589  1.00  0.00     0.070 A 
ATOM     17  N   UNL A   1      35.405  20.603  24.944  1.00  0.00    -0.233 NA
ATOM     18  C   UNL A   1      34.092  20.346  24.988  1.00  0.00     0.161 A 
ATOM     19  N   UNL A   1      33.130  21.274  24.892  1.00  0.00    -0.211 NA
BRANCH  15  20
ATOM     20  C   UNL A   1      37.248  22.063  24.449  1.00  0.00     0.053 C 
ATOM     21  C   UNL A   1      37.893  22.850  25.591  1.00  0.00     0.011 C 
ENDBRANCH  15  20
BRANCH  18  22
ATOM     22  C   UNL A   1      33.768  18.922  24.836  1.00  0.00     0.019 A 
ATOM     23  C   UNL A   1      32.535  18.425  25.301  1.00  0.00     0.013 A 
ATOM     24  C   UNL A   1      34.749  17.995  24.440  1.00  0.00     0.013 A 
ATOM     25  C   UNL A   1      32.320  17.052  25.448  1.00  0.00     0.021 A 
ATOM     26  C   UNL A   1      34.536  16.620  24.581  1.00  0.00     0.021 A 
ATOM     27  C   UNL A   1      33.337  16.159  25.120  1.00  0.00     0.041 A 
ATOM     28  Cl  UNL A   1      33.120  14.477  25.398  1.00  0.00    -0.084 Cl
ENDBRANCH  18  22
ENDBRANCH   9  14
ENDBRANCH   5   8
ENDBRANCH   3   4
ENDBRANCH   2   3
ENDBRANCH   1   2
BRANCH   1  29
ATOM     29  C   UNL A   1      33.590  28.934  26.746  1.00  0.00     0.116 C 
BRANCH  29  30
ATOM     30  N   UNL A   1      33.618  30.325  27.178  1.00  0.00    -0.352 N 
ATOM     31  C   UNL A   1      34.615  30.988  27.874  1.00  0.00     0.251 C 
ATOM     32  H   UNL A   1      32.826  30.862  26.946  1.00  0.00     0.163 HD
ATOM     33  O   UNL A   1      34.455  32.152  28.216  1.00  0.00    -0.269 OA
BRANCH  31  34
ATOM     34  C   UNL A   1      35.876  30.279  28.225  1.00  0.00     0.039 A 
ATOM     35  C   UNL A   1      36.975  30.325  27.362  1.00  0.00     0.014 A 
ATOM     36  C   UNL A   1      35.979  29.576  29.423  1.00  0.00     0.014 A 
ATOM     37  C   UNL A   1      38.191  29.738  27.747  1.00  0.00     0.010 A 
ATOM     38  C   UNL A   1      37.196  29.058  29.838  1.00  0.00     0.010 A 
ATOM     39  C   UNL A   1      38.312  29.126  29.004  1.00  0.00    -0.014 A 
BRANCH  39  40
ATOM     40  C   UNL A   1      39.598  28.621  29.535  1.00  0.00     0.031 A 
ATOM     41  C   UNL A   1      40.312  29.343  30.643  1.00  0.00     0.074 A 
ATOM     42  C   UNL A   1      40.215  27.629  28.867  1.00  0.00     0.049 A 
ATOM     43  N   UNL A   1      41.460  29.067  31.204  1.00  0.00    -0.248 NA
ATOM     44  C   UNL A   1      39.671  30.563  31.157  1.00  0.00     0.031 C 
ATOM     45  C   UNL A   1      39.690  26.971  27.668  1.00  0.00     0.029 A 
ATOM     46  N   UNL A   1      41.430  27.031  29.073  1.00  0.00    -0.354 N 
ATOM     47  C   UNL A   1      41.703  30.097  32.106  1.00  0.00     0.074 A 
ATOM     48  C   UNL A   1      40.596  31.022  31.989  1.00  0.00     0.031 C 
ATOM     49  C   UNL A   1      40.572  26.050  27.253  1.00  0.00     0.029 A 
ATOM     50  C   UNL A   1      41.722  26.054  28.153  1.00  0.00     0.049 A 
ATOM     51  H   UNL A   1      42.035  27.277  29.809  1.00  0.00     0.167 HD
ATOM     52  C   UNL A   1      42.740  30.242  32.968  1.00  0.00     0.034 A 
ATOM     53  C   UNL A   1      42.786  25.235  28.061  1.00  0.00     0.034 A 
ATOM     54  C   UNL A   1      43.810  29.284  33.086  1.00  0.00     0.049 A 
ATOM     55  C   UNL A   1      43.856  25.321  29.112  1.00  0.00     0.074 A 
ATOM     56  C   UNL A   1      44.828  29.234  34.022  1.00  0.00     0.029 A 
ATOM     57  N   UNL A   1      44.010  28.213  32.225  1.00  0.00    -0.354 N 
ATOM     58  N   UNL A   1      43.963  26.161  30.113  1.00  0.00    -0.248 NA
ATOM     59  C   UNL A   1      44.922  24.312  29.057  1.00  0.00     0.031 C 
ATOM     60  C   UNL A   1      45.656  28.150  33.711  1.00  0.00     0.029 A 
ATOM     61  C   UNL A   1      45.134  27.500  32.603  1.00  0.00     0.049 A 
ATOM     62  H   UNL A   1      43.434  27.992  31.458  1.00  0.00     0.167 HD
ATOM     63  C   UNL A   1      45.083  25.762  30.830  1.00  0.00     0.074 A 
ATOM     64  C   UNL A   1      45.611  24.593  30.156  1.00  0.00     0.031 C 
ATOM     65  C   UNL A   1      45.629  26.317  31.943  1.00  0.00     0.034 A 
BRANCH  52  66
ATOM     66  C   UNL A   1      42.733  31.438  33.896  1.00  0.00     0.023 A 
ATOM     67  C   UNL A   1      43.165  32.693  33.419  1.00  0.00     0.012 A 
ATOM     68  C   UNL A   1      42.244  31.343  35.216  1.00  0.00     0.148 A 
ATOM     69  C   UNL A   1      43.170  33.814  34.247  1.00  0.00     0.002 A 
ATOM     70  C   UNL A   1      42.197  32.478  36.020  1.00  0.00     0.091 A 
ATOM     71  F   UNL A   1      41.845  30.146  35.669  1.00  0.00    -0.205 F 
ATOM     72  C   UNL A   1      42.677  33.710  35.544  1.00  0.00     0.022 A 
BRANCH  70  73
ATOM     73  S   UNL A   1      41.477  32.474  37.667  1.00  0.00     0.127 S 
ATOM     74  O   UNL A   1      41.684  33.859  38.086  1.00  0.00    -0.237 OA
ATOM     75  O   UNL A   1      40.082  32.125  37.394  1.00  0.00    -0.237 OA
ATOM     76  O   UNL A   1      42.213  31.471  38.423  1.00  0.00    -0.744 OA
ENDBRANCH  70  73
ENDBRANCH  52  66
BRANCH  53  77
ATOM     77  C   UNL A   1      42.790  24.165  27.027  1.00  0.00     0.023 A 
ATOM     78  C   UNL A   1      43.557  24.353  25.861  1.00  0.00     0.012 A 
ATOM     79  C   UNL A   1      42.131  22.938  27.228  1.00  0.00     0.148 A 
ATOM     80  C   UNL A   1      43.650  23.347  24.900  1.00  0.00     0.002 A 
ATOM     81  C   UNL A   1      42.269  21.920  26.291  1.00  0.00     0.091 A 
ATOM     82  F   UNL A   1      41.413  22.779  28.350  1.00  0.00    -0.205 F 
ATOM     83  C   UNL A   1      43.016  22.128  25.119  1.00  0.00     0.022 A 
BRANCH  81  84
ATOM     84  S   UNL A   1      41.605  20.271  26.545  1.00  0.00     0.127 S 
ATOM     85  O   UNL A   1      40.166  20.521  26.528  1.00  0.00    -0.237 OA
ATOM     86  O   UNL A   1      42.120  19.558  25.375  1.00  0.00    -0.237 OA
ATOM     87  O   UNL A   1      42.149  19.815  27.818  1.00  0.00    -0.744 OA
ENDBRANCH  81  84
ENDBRANCH  53  77
BRANCH  65  88
ATOM     88  C   UNL A   1      46.846  25.647  32.525  1.00  0.00     0.023 A 
ATOM     89  C   UNL A   1      48.132  26.007  32.075  1.00  0.00     0.012 A 
ATOM     90  C   UNL A   1      46.716  24.704  33.565  1.00  0.00     0.148 A 
ATOM     91  C   UNL A   1      49.267  25.409  32.622  1.00  0.00     0.002 A 
ATOM     92  C   UNL A   1      47.854  24.152  34.141  1.00  0.00     0.091 A 
ATOM     93  F   UNL A   1      45.484  24.363  33.968  1.00  0.00    -0.205 F 
ATOM     94  C   UNL A   1      49.129  24.492  33.661  1.00  0.00     0.022 A 
BRANCH  92  95
ATOM     95  S   UNL A   1      47.779  23.035  35.545  1.00  0.00     0.127 S 
ATOM     96  O   UNL A   1      47.136  21.861  34.957  1.00  0.00    -0.237 OA
ATOM     97  O   UNL A   1      49.193  22.854  35.873  1.00  0.00    -0.237 OA
ATOM     98  O   UNL A   1      47.004  23.723  36.568  1.00  0.00    -0.744 OA
ENDBRANCH  92  95
ENDBRANCH  65  88
ENDBRANCH  39  40
ENDBRANCH  31  34
ENDBRANCH  29  30
ENDBRANCH   1  29
TORSDOF 17
ENDMDL
MODEL 3
REMARK VINA RESULT:     -12.9      5.415     10.710
REMARK SMILES CCc1cc(N2CCC[C@H](C(=O)NCCCCNC(=O)c3ccc(-c4c5nc(c(-c6cccc(S(=O)(=O)[O-])c6F)c6ccc([nH]6)c(-c6cccc(S(=O)(=O)[O-])c6F)c6nc(c(-c7cccc(S(=O)(=O)[O-])c7F)c7ccc4[nH]7)C=C6)C=C5)cc3)C2)nc(-c2ccc(Cl)cc2)n1
REMARK SMILES IDX 16 1 15 2 14 3 13 4 11 5 12 6 10 8 6 9 7 10 84 11 8 12 9 13
REMARK SMILES IDX 5 14 3 15 4 16 94 17 86 18 85 19 2 20 1 21 87 22 88 23 93 24
REMARK SMILES IDX 89 25 92 26 90 27 91 28 17 29 18 30 19 31 20 33 21 34 22 35
REMARK SMILES IDX 83 36 23 37 82 38 24 39 25 40 26 41 76 42 27 43 81 44 75 45
REMARK SMILES IDX 77 46 28 47 80 48 74 49 73 50 29 52 61 53 41 54 60 55 42 56
REMARK SMILES IDX 45 57 59 58 78 59 43 60 44 61 58 63 79 64 46 65 30 66 31 67
REMARK SMILES IDX 39 68 32 69 34 70 40 71 33 72 35 73 36 74 37 75 38 76 62 77
REMARK SMILES IDX 63 78 71 79 64 80 66 81 72 82 65 83 67 84 68 85 69 86 70 87
REMARK SMILES IDX 47 88 48 89 56 90 49 91 51 92 57 93 50 94 52 95 53 96 54 97
REMARK SMILES IDX 55 98
REMARK H PARENT 13 7 18 32 77 51 45 62
REMARK Flexibility Score: inf
ROOT
ATOM      1  C   UNL A   1      35.656  22.358  24.570  1.00  0.00     0.023 C 
ENDROOT
BRANCH   1   2
ATOM      2  C   UNL A   1      34.425  21.467  24.716  1.00  0.00     0.023 C 
BRANCH   2   3
ATOM      3  C   UNL A   1      33.396  21.614  23.601  1.00  0.00     0.116 C 
BRANCH   3   4
ATOM      4  N   UNL A   1      33.417  22.879  22.903  1.00  0.00    -0.356 N 
ATOM      5  C   UNL A   1      32.599  23.956  23.046  1.00  0.00     0.224 C 
ATOM      6  O   UNL A   1      33.049  25.049  22.678  1.00  0.00    -0.275 OA
ATOM      7  H   UNL A   1      34.127  22.975  22.227  1.00  0.00     0.163 HD
BRANCH   5   8
ATOM      8  C   UNL A   1      31.169  23.896  23.598  1.00  0.00     0.098 C 
ATOM      9  N   UNL A   1      30.613  25.914  24.876  1.00  0.00    -0.356 N 
ATOM     10  C   UNL A   1      30.270  25.238  26.116  1.00  0.00     0.118 C 
ATOM     11  C   UNL A   1      30.435  25.230  23.610  1.00  0.00     0.131 C 
ATOM     12  C   UNL A   1      30.879  23.830  26.183  1.00  0.00     0.022 C 
ATOM     13  C   UNL A   1      30.964  23.060  24.864  1.00  0.00     0.017 C 
BRANCH   9  14
ATOM     14  C   UNL A   1      30.828  27.278  24.851  1.00  0.00     0.132 A 
ATOM     15  C   UNL A   1      31.650  29.274  25.798  1.00  0.00     0.046 A 
ATOM     16  C   UNL A   1      31.571  27.898  25.840  1.00  0.00     0.070 A 
ATOM     17  N   UNL A   1      31.076  29.984  24.820  1.00  0.00    -0.233 NA
ATOM     18  C   UNL A   1      30.315  29.320  23.941  1.00  0.00     0.161 A 
ATOM     19  N   UNL A   1      30.171  27.988  23.912  1.00  0.00    -0.211 NA
BRANCH  15  20
ATOM     20  C   UNL A   1      32.324  30.084  26.870  1.00  0.00     0.053 C 
ATOM     21  C   UNL A   1      31.809  31.525  26.884  1.00  0.00     0.011 C 
ENDBRANCH  15  20
BRANCH  18  22
ATOM     22  C   UNL A   1      29.393  30.182  23.192  1.00  0.00     0.019 A 
ATOM     23  C   UNL A   1      28.976  29.816  21.898  1.00  0.00     0.013 A 
ATOM     24  C   UNL A   1      29.088  31.479  23.645  1.00  0.00     0.013 A 
ATOM     25  C   UNL A   1      28.354  30.739  21.053  1.00  0.00     0.021 A 
ATOM     26  C   UNL A   1      28.461  32.403  22.802  1.00  0.00     0.021 A 
ATOM     27  C   UNL A   1      28.133  32.039  21.499  1.00  0.00     0.041 A 
ATOM     28  Cl  UNL A   1      27.468  33.208  20.430  1.00  0.00    -0.084 Cl
ENDBRANCH  18  22
ENDBRANCH   9  14
ENDBRANCH   5   8
ENDBRANCH   3   4
ENDBRANCH   2   3
ENDBRANCH   1   2
BRANCH   1  29
ATOM     29  C   UNL A   1      36.620  22.358  25.755  1.00  0.00     0.116 C 
BRANCH  29  30
ATOM     30  N   UNL A   1      37.692  21.374  25.697  1.00  0.00    -0.352 N 
ATOM     31  C   UNL A   1      39.022  21.531  26.047  1.00  0.00     0.251 C 
ATOM     32  H   UNL A   1      37.438  20.482  25.366  1.00  0.00     0.163 HD
ATOM     33  O   UNL A   1      39.815  20.614  25.879  1.00  0.00    -0.269 OA
BRANCH  31  34
ATOM     34  C   UNL A   1      39.496  22.826  26.608  1.00  0.00     0.039 A 
ATOM     35  C   UNL A   1      40.467  22.846  27.614  1.00  0.00     0.014 A 
ATOM     36  C   UNL A   1      38.989  24.031  26.126  1.00  0.00     0.014 A 
ATOM     37  C   UNL A   1      40.979  24.072  28.067  1.00  0.00     0.010 A 
ATOM     38  C   UNL A   1      39.544  25.240  26.518  1.00  0.00     0.010 A 
ATOM     39  C   UNL A   1      40.537  25.275  27.496  1.00  0.00    -0.014 A 
BRANCH  39  40
ATOM     40  C   UNL A   1      41.139  26.589  27.816  1.00  0.00     0.031 A 
ATOM     41  C   UNL A   1      42.588  26.866  27.527  1.00  0.00     0.074 A 
ATOM     42  C   UNL A   1      40.421  27.451  28.560  1.00  0.00     0.049 A 
ATOM     43  N   UNL A   1      43.288  27.942  27.774  1.00  0.00    -0.248 NA
ATOM     44  C   UNL A   1      43.361  25.771  26.921  1.00  0.00     0.031 C 
ATOM     45  C   UNL A   1      39.061  27.210  29.047  1.00  0.00     0.029 A 
ATOM     46  N   UNL A   1      40.747  28.680  29.070  1.00  0.00    -0.354 N 
ATOM     47  C   UNL A   1      44.593  27.643  27.395  1.00  0.00     0.074 A 
ATOM     48  C   UNL A   1      44.589  26.271  26.935  1.00  0.00     0.031 C 
ATOM     49  C   UNL A   1      38.663  28.264  29.774  1.00  0.00     0.029 A 
ATOM     50  C   UNL A   1      39.737  29.252  29.806  1.00  0.00     0.049 A 
ATOM     51  H   UNL A   1      41.619  29.111  28.924  1.00  0.00     0.167 HD
ATOM     52  C   UNL A   1      45.684  28.449  27.407  1.00  0.00     0.034 A 
ATOM     53  C   UNL A   1      39.676  30.451  30.415  1.00  0.00     0.034 A 
ATOM     54  C   UNL A   1      45.648  29.823  27.838  1.00  0.00     0.049 A 
ATOM     55  C   UNL A   1      40.848  31.383  30.294  1.00  0.00     0.074 A 
ATOM     56  C   UNL A   1      46.640  30.784  27.751  1.00  0.00     0.029 A 
ATOM     57  N   UNL A   1      44.561  30.429  28.456  1.00  0.00    -0.354 N 
ATOM     58  N   UNL A   1      42.012  31.175  29.725  1.00  0.00    -0.248 NA
ATOM     59  C   UNL A   1      40.681  32.733  30.848  1.00  0.00     0.031 C 
ATOM     60  C   UNL A   1      46.162  31.961  28.340  1.00  0.00     0.029 A 
ATOM     61  C   UNL A   1      44.859  31.746  28.760  1.00  0.00     0.049 A 
ATOM     62  H   UNL A   1      43.704  29.985  28.649  1.00  0.00     0.167 HD
ATOM     63  C   UNL A   1      42.702  32.377  29.816  1.00  0.00     0.074 A 
ATOM     64  C   UNL A   1      41.817  33.313  30.481  1.00  0.00     0.031 C 
ATOM     65  C   UNL A   1      43.956  32.677  29.392  1.00  0.00     0.034 A 
BRANCH  52  66
ATOM     66  C   UNL A   1      46.987  27.890  26.877  1.00  0.00     0.023 A 
ATOM     67  C   UNL A   1      47.925  27.337  27.775  1.00  0.00     0.012 A 
ATOM     68  C   UNL A   1      47.264  27.851  25.494  1.00  0.00     0.148 A 
ATOM     69  C   UNL A   1      49.134  26.813  27.319  1.00  0.00     0.002 A 
ATOM     70  C   UNL A   1      48.447  27.274  25.042  1.00  0.00     0.091 A 
ATOM     71  F   UNL A   1      46.376  28.387  24.646  1.00  0.00    -0.205 F 
ATOM     72  C   UNL A   1      49.391  26.773  25.953  1.00  0.00     0.022 A 
BRANCH  70  73
ATOM     73  S   UNL A   1      48.824  27.071  23.295  1.00  0.00     0.127 S 
ATOM     74  O   UNL A   1      50.282  26.964  23.316  1.00  0.00    -0.237 OA
ATOM     75  O   UNL A   1      48.128  25.824  22.971  1.00  0.00    -0.237 OA
ATOM     76  O   UNL A   1      48.288  28.251  22.631  1.00  0.00    -0.744 OA
ENDBRANCH  70  73
ENDBRANCH  52  66
BRANCH  53  77
ATOM     77  C   UNL A   1      38.398  30.880  31.044  1.00  0.00     0.023 A 
ATOM     78  C   UNL A   1      38.236  30.714  32.433  1.00  0.00     0.012 A 
ATOM     79  C   UNL A   1      37.392  31.532  30.306  1.00  0.00     0.148 A 
ATOM     80  C   UNL A   1      37.087  31.170  33.076  1.00  0.00     0.002 A 
ATOM     81  C   UNL A   1      36.271  32.029  30.960  1.00  0.00     0.091 A 
ATOM     82  F   UNL A   1      37.572  31.684  28.986  1.00  0.00    -0.205 F 
ATOM     83  C   UNL A   1      36.109  31.837  32.342  1.00  0.00     0.022 A 
BRANCH  81  84
ATOM     84  S   UNL A   1      35.022  33.018  30.130  1.00  0.00     0.127 S 
ATOM     85  O   UNL A   1      35.822  34.104  29.570  1.00  0.00    -0.237 OA
ATOM     86  O   UNL A   1      34.495  32.071  29.147  1.00  0.00    -0.237 OA
ATOM     87  O   UNL A   1      34.071  33.406  31.164  1.00  0.00    -0.744 OA
ENDBRANCH  81  84
ENDBRANCH  53  77
BRANCH  65  88
ATOM     88  C   UNL A   1      44.441  34.087  29.604  1.00  0.00     0.023 A 
ATOM     89  C   UNL A   1      45.012  34.458  30.839  1.00  0.00     0.012 A 
ATOM     90  C   UNL A   1      44.386  35.028  28.557  1.00  0.00     0.148 A 
ATOM     91  C   UNL A   1      45.483  35.755  31.040  1.00  0.00     0.002 A 
ATOM     92  C   UNL A   1      44.906  36.303  28.749  1.00  0.00     0.091 A 
ATOM     93  F   UNL A   1      43.826  34.661  27.396  1.00  0.00    -0.205 F 
ATOM     94  C   UNL A   1      45.441  36.673  29.992  1.00  0.00     0.022 A 
BRANCH  92  95
ATOM     95  S   UNL A   1      44.982  37.521  27.430  1.00  0.00     0.127 S 
ATOM     96  O   UNL A   1      45.816  36.840  26.443  1.00  0.00    -0.237 OA
ATOM     97  O   UNL A   1      43.574  37.654  27.051  1.00  0.00    -0.237 OA
ATOM     98  O   UNL A   1      45.564  38.719  28.019  1.00  0.00    -0.744 OA
ENDBRANCH  92  95
ENDBRANCH  65  88
ENDBRANCH  39  40
ENDBRANCH  31  34
ENDBRANCH  29  30
ENDBRANCH   1  29
TORSDOF 17
ENDMDL
