MODEL 1
REMARK VINA RESULT:     -11.9      0.000      0.000
REMARK SMILES CCCCN1C(=O)[C@H]2[C@H](CCC(=O)NCCCCNC(=O)c3ccc(-c4c5nc(c(-c6cccc(S(=O)(=O)[O-])c6F)c6ccc([nH]6)c(-c6cccc(S(=O)(=O)[O-])c6F)c6nc(c(-c7cccc(S(=O)(=O)[O-])c7F)c7ccc4[nH]7)C=C6)C=C5)cc3)[NH2+][C@@]3(C(=O)Nc4c(CC)cccc43)[C@H]2C1=O
REMARK SMILES IDX 15 1 14 2 12 3 13 4 11 6 10 7 9 8 5 9 6 10 99 11 8 12 7 13
REMARK SMILES IDX 98 14 100 15 86 16 85 17 87 18 97 19 89 22 88 23 90 24 96 25
REMARK SMILES IDX 91 27 95 28 94 29 4 30 3 31 2 32 1 33 92 34 93 35 16 36
REMARK SMILES IDX 17 37 18 38 19 39 20 40 21 42 22 43 23 44 84 45 24 46 83 47
REMARK SMILES IDX 25 48 26 49 27 50 77 51 28 52 82 53 76 54 78 55 29 56 81 57
REMARK SMILES IDX 75 58 74 59 30 61 62 62 42 63 61 64 43 65 46 66 60 67 79 68
REMARK SMILES IDX 44 69 45 70 59 72 80 73 47 74 31 75 32 76 40 77 33 78 35 79
REMARK SMILES IDX 41 80 34 81 36 82 37 83 38 84 39 85 63 86 64 87 72 88 65 89
REMARK SMILES IDX 67 90 73 91 66 92 68 93 69 94 70 95 71 96 48 97 49 98 57 99
REMARK SMILES IDX 50 100 52 101 58 102 51 103 53 104 54 105 55 106 56 107
REMARK H PARENT 14 5 85 20 85 21 89 26 19 41 78 60 46 71
REMARK Flexibility Score: inf
ROOT
ATOM      1  C   UNL A   1      38.986  21.382  25.929  1.00  0.00     0.116 C 
ENDROOT
BRANCH   1   2
ATOM      2  N   UNL A   1      39.236  22.764  26.320  1.00  0.00    -0.356 N 
ATOM      3  C   UNL A   1      38.422  23.860  26.277  1.00  0.00     0.220 C 
ATOM      4  O   UNL A   1      38.914  24.963  26.520  1.00  0.00    -0.275 OA
ATOM      5  H   UNL A   1      40.139  22.935  26.675  1.00  0.00     0.163 HD
BRANCH   3   6
ATOM      6  C   UNL A   1      36.946  23.718  25.955  1.00  0.00     0.106 C 
BRANCH   6   7
ATOM      7  C   UNL A   1      36.621  23.427  24.483  1.00  0.00     0.076 C 
BRANCH   7   8
ATOM      8  C   UNL A   1      35.302  22.674  24.292  1.00  0.00     0.197 C 
ATOM      9  N   UNL A   1      33.998  19.720  24.759  1.00  0.00    -0.282 N 
ATOM     10  C   UNL A   1      35.173  20.370  24.992  1.00  0.00     0.239 C 
ATOM     11  C   UNL A   1      32.912  20.477  25.125  1.00  0.00     0.240 C 
ATOM     12  C   UNL A   1      34.885  21.775  25.443  1.00  0.00     0.157 C 
ATOM     13  O   UNL A   1      36.310  19.967  24.787  1.00  0.00    -0.274 OA
ATOM     14  C   UNL A   1      33.362  21.859  25.540  1.00  0.00     0.174 C 
ATOM     15  O   UNL A   1      31.749  20.106  25.172  1.00  0.00    -0.274 OA
ATOM     16  C   UNL A   1      32.942  22.998  24.612  1.00  0.00     0.216 C 
ATOM     17  N   UNL A   1      34.212  23.611  24.144  1.00  0.00    -0.326 N 
ATOM     18  C   UNL A   1      32.029  22.610  23.401  1.00  0.00     0.291 C 
ATOM     19  C   UNL A   1      32.162  24.161  25.185  1.00  0.00     0.047 A 
ATOM     20  H   UNL A   1      34.119  23.868  23.161  1.00  0.00     0.347 HD
ATOM     21  H   UNL A   1      34.408  24.439  24.704  1.00  0.00     0.347 HD
ATOM     22  N   UNL A   1      31.088  23.619  23.247  1.00  0.00    -0.320 N 
ATOM     23  O   UNL A   1      32.154  21.641  22.662  1.00  0.00    -0.267 OA
ATOM     24  C   UNL A   1      31.169  24.551  24.275  1.00  0.00     0.054 A 
ATOM     25  C   UNL A   1      32.454  24.943  26.290  1.00  0.00     0.013 A 
ATOM     26  H   UNL A   1      30.446  23.669  22.503  1.00  0.00     0.170 HD
ATOM     27  C   UNL A   1      30.454  25.731  24.409  1.00  0.00    -0.024 A 
ATOM     28  C   UNL A   1      31.741  26.130  26.460  1.00  0.00     0.001 A 
ATOM     29  C   UNL A   1      30.764  26.524  25.526  1.00  0.00     0.006 A 
BRANCH   9  30
ATOM     30  C   UNL A   1      33.851  18.446  24.054  1.00  0.00     0.128 C 
BRANCH  30  31
ATOM     31  C   UNL A   1      34.213  17.168  24.822  1.00  0.00     0.022 C 
BRANCH  31  32
ATOM     32  C   UNL A   1      33.335  15.960  24.496  1.00  0.00    -0.002 C 
ATOM     33  C   UNL A   1      32.532  15.481  25.694  1.00  0.00     0.004 C 
ENDBRANCH  31  32
ENDBRANCH  30  31
ENDBRANCH   9  30
BRANCH  27  34
ATOM     34  C   UNL A   1      29.476  26.227  23.376  1.00  0.00     0.034 C 
ATOM     35  C   UNL A   1      29.347  27.746  23.394  1.00  0.00     0.009 C 
ENDBRANCH  27  34
ENDBRANCH   7   8
ENDBRANCH   6   7
ENDBRANCH   3   6
ENDBRANCH   1   2
BRANCH   1  36
ATOM     36  C   UNL A   1      40.234  20.535  26.159  1.00  0.00     0.023 C 
BRANCH  36  37
ATOM     37  C   UNL A   1      41.276  21.157  27.067  1.00  0.00     0.023 C 
BRANCH  37  38
ATOM     38  C   UNL A   1      42.418  20.214  27.383  1.00  0.00     0.116 C 
BRANCH  38  39
ATOM     39  N   UNL A   1      42.954  19.513  26.211  1.00  0.00    -0.352 N 
ATOM     40  C   UNL A   1      43.800  19.930  25.202  1.00  0.00     0.251 C 
ATOM     41  H   UNL A   1      42.659  18.579  26.130  1.00  0.00     0.163 HD
ATOM     42  O   UNL A   1      44.046  19.177  24.263  1.00  0.00    -0.269 OA
BRANCH  40  43
ATOM     43  C   UNL A   1      44.365  21.295  25.239  1.00  0.00     0.039 A 
ATOM     44  C   UNL A   1      45.411  21.576  26.106  1.00  0.00     0.014 A 
ATOM     45  C   UNL A   1      43.783  22.326  24.498  1.00  0.00     0.014 A 
ATOM     46  C   UNL A   1      45.620  22.885  26.501  1.00  0.00     0.010 A 
ATOM     47  C   UNL A   1      44.149  23.652  24.756  1.00  0.00     0.010 A 
ATOM     48  C   UNL A   1      45.005  23.950  25.827  1.00  0.00    -0.014 A 
BRANCH  48  49
ATOM     49  C   UNL A   1      45.273  25.343  26.284  1.00  0.00     0.031 A 
ATOM     50  C   UNL A   1      44.197  26.181  26.926  1.00  0.00     0.074 A 
ATOM     51  C   UNL A   1      46.526  25.834  26.181  1.00  0.00     0.049 A 
ATOM     52  N   UNL A   1      44.259  27.426  27.327  1.00  0.00    -0.248 NA
ATOM     53  C   UNL A   1      42.878  25.559  27.137  1.00  0.00     0.031 C 
ATOM     54  C   UNL A   1      47.661  25.128  25.581  1.00  0.00     0.029 A 
ATOM     55  N   UNL A   1      47.069  27.019  26.608  1.00  0.00    -0.354 N 
ATOM     56  C   UNL A   1      42.976  27.763  27.738  1.00  0.00     0.074 A 
ATOM     57  C   UNL A   1      42.156  26.583  27.574  1.00  0.00     0.031 C 
ATOM     58  C   UNL A   1      48.777  25.841  25.765  1.00  0.00     0.029 A 
ATOM     59  C   UNL A   1      48.421  27.113  26.380  1.00  0.00     0.049 A 
ATOM     60  H   UNL A   1      46.542  27.733  27.035  1.00  0.00     0.167 HD
ATOM     61  C   UNL A   1      42.524  28.947  28.213  1.00  0.00     0.034 A 
ATOM     62  C   UNL A   1      49.287  28.120  26.597  1.00  0.00     0.034 A 
ATOM     63  C   UNL A   1      43.363  30.086  28.474  1.00  0.00     0.049 A 
ATOM     64  C   UNL A   1      48.772  29.409  27.151  1.00  0.00     0.074 A 
ATOM     65  C   UNL A   1      43.012  31.303  29.031  1.00  0.00     0.029 A 
ATOM     66  N   UNL A   1      44.722  30.146  28.204  1.00  0.00    -0.354 N 
ATOM     67  N   UNL A   1      47.561  29.695  27.561  1.00  0.00    -0.248 NA
ATOM     68  C   UNL A   1      49.728  30.518  27.254  1.00  0.00     0.031 C 
ATOM     69  C   UNL A   1      44.158  32.103  29.088  1.00  0.00     0.029 A 
ATOM     70  C   UNL A   1      45.222  31.383  28.571  1.00  0.00     0.049 A 
ATOM     71  H   UNL A   1      45.252  29.417  27.809  1.00  0.00     0.167 HD
ATOM     72  C   UNL A   1      47.601  31.024  27.955  1.00  0.00     0.074 A 
ATOM     73  C   UNL A   1      48.967  31.474  27.771  1.00  0.00     0.031 C 
ATOM     74  C   UNL A   1      46.589  31.806  28.401  1.00  0.00     0.034 A 
BRANCH  61  75
ATOM     75  C   UNL A   1      41.053  29.078  28.505  1.00  0.00     0.023 A 
ATOM     76  C   UNL A   1      40.143  29.284  27.450  1.00  0.00     0.012 A 
ATOM     77  C   UNL A   1      40.570  28.921  29.820  1.00  0.00     0.148 A 
ATOM     78  C   UNL A   1      38.772  29.347  27.702  1.00  0.00     0.002 A 
ATOM     79  C   UNL A   1      39.200  28.954  30.058  1.00  0.00     0.091 A 
ATOM     80  F   UNL A   1      41.457  28.744  30.809  1.00  0.00    -0.205 F 
ATOM     81  C   UNL A   1      38.301  29.174  29.001  1.00  0.00     0.022 A 
BRANCH  79  82
ATOM     82  S   UNL A   1      38.491  28.686  31.686  1.00  0.00     0.127 S 
ATOM     83  O   UNL A   1      39.213  29.674  32.488  1.00  0.00    -0.237 OA
ATOM     84  O   UNL A   1      37.080  28.998  31.463  1.00  0.00    -0.237 OA
ATOM     85  O   UNL A   1      38.761  27.295  32.019  1.00  0.00    -0.744 OA
ENDBRANCH  79  82
ENDBRANCH  61  75
BRANCH  62  86
ATOM     86  C   UNL A   1      50.723  27.910  26.267  1.00  0.00     0.023 A 
ATOM     87  C   UNL A   1      51.598  27.461  27.271  1.00  0.00     0.012 A 
ATOM     88  C   UNL A   1      51.178  27.996  24.935  1.00  0.00     0.148 A 
ATOM     89  C   UNL A   1      52.903  27.081  26.951  1.00  0.00     0.002 A 
ATOM     90  C   UNL A   1      52.458  27.565  24.616  1.00  0.00     0.091 A 
ATOM     91  F   UNL A   1      50.318  28.423  24.000  1.00  0.00    -0.205 F 
ATOM     92  C   UNL A   1      53.327  27.116  25.624  1.00  0.00     0.022 A 
BRANCH  90  93
ATOM     93  S   UNL A   1      53.038  27.425  22.922  1.00  0.00     0.127 S 
ATOM     94  O   UNL A   1      51.934  26.709  22.286  1.00  0.00    -0.237 OA
ATOM     95  O   UNL A   1      53.166  28.830  22.537  1.00  0.00    -0.237 OA
ATOM     96  O   UNL A   1      54.296  26.695  22.989  1.00  0.00    -0.744 OA
ENDBRANCH  90  93
ENDBRANCH  62  86
BRANCH  74  97
ATOM     97  C   UNL A   1      46.908  33.242  28.701  1.00  0.00     0.023 A 
ATOM     98  C   UNL A   1      47.342  33.589  29.995  1.00  0.00     0.012 A 
ATOM     99  C   UNL A   1      46.866  34.220  27.692  1.00  0.00     0.148 A 
ATOM    100  C   UNL A   1      47.718  34.899  30.284  1.00  0.00     0.002 A 
ATOM    101  C   UNL A   1      47.274  35.516  27.978  1.00  0.00     0.091 A 
ATOM    102  F   UNL A   1      46.433  33.863  26.474  1.00  0.00    -0.205 F 
ATOM    103  C   UNL A   1      47.696  35.859  29.274  1.00  0.00     0.022 A 
BRANCH 101 104
ATOM    104  S   UNL A   1      47.347  36.802  26.727  1.00  0.00     0.127 S 
ATOM    105  O   UNL A   1      45.929  37.048  26.470  1.00  0.00    -0.237 OA
ATOM    106  O   UNL A   1      48.036  37.884  27.430  1.00  0.00    -0.237 OA
ATOM    107  O   UNL A   1      48.092  36.234  25.611  1.00  0.00    -0.744 OA
ENDBRANCH 101 104
ENDBRANCH  74  97
ENDBRANCH  48  49
ENDBRANCH  40  43
ENDBRANCH  38  39
ENDBRANCH  37  38
ENDBRANCH  36  37
ENDBRANCH   1  36
TORSDOF 20
ENDMDL
MODEL 2
REMARK VINA RESULT:     -11.6      5.658      9.505
REMARK SMILES CCCCN1C(=O)[C@H]2[C@H](CCC(=O)NCCCCNC(=O)c3ccc(-c4c5nc(c(-c6cccc(S(=O)(=O)[O-])c6F)c6ccc([nH]6)c(-c6cccc(S(=O)(=O)[O-])c6F)c6nc(c(-c7cccc(S(=O)(=O)[O-])c7F)c7ccc4[nH]7)C=C6)C=C5)cc3)[NH2+][C@@]3(C(=O)Nc4c(CC)cccc43)[C@H]2C1=O
REMARK SMILES IDX 15 1 14 2 12 3 13 4 11 6 10 7 9 8 5 9 6 10 99 11 8 12 7 13
REMARK SMILES IDX 98 14 100 15 86 16 85 17 87 18 97 19 89 22 88 23 90 24 96 25
REMARK SMILES IDX 91 27 95 28 94 29 4 30 3 31 2 32 1 33 92 34 93 35 16 36
REMARK SMILES IDX 17 37 18 38 19 39 20 40 21 42 22 43 23 44 84 45 24 46 83 47
REMARK SMILES IDX 25 48 26 49 27 50 77 51 28 52 82 53 76 54 78 55 29 56 81 57
REMARK SMILES IDX 75 58 74 59 30 61 62 62 42 63 61 64 43 65 46 66 60 67 79 68
REMARK SMILES IDX 44 69 45 70 59 72 80 73 47 74 31 75 32 76 40 77 33 78 35 79
REMARK SMILES IDX 41 80 34 81 36 82 37 83 38 84 39 85 63 86 64 87 72 88 65 89
REMARK SMILES IDX 67 90 73 91 66 92 68 93 69 94 70 95 71 96 48 97 49 98 57 99
REMARK SMILES IDX 50 100 52 101 58 102 51 103 53 104 54 105 55 106 56 107
REMARK H PARENT 14 5 85 20 85 21 89 26 19 41 78 60 46 71
REMARK Flexibility Score: inf
ROOT
ATOM      1  C   UNL A   1      39.751  21.431  25.966  1.00  0.00     0.116 C 
ENDROOT
BRANCH   1   2
ATOM      2  N   UNL A   1      39.153  22.519  26.730  1.00  0.00    -0.356 N 
ATOM      3  C   UNL A   1      38.309  23.518  26.339  1.00  0.00     0.220 C 
ATOM      4  O   UNL A   1      38.060  24.420  27.140  1.00  0.00    -0.275 OA
ATOM      5  H   UNL A   1      39.398  22.536  27.684  1.00  0.00     0.163 HD
BRANCH   3   6
ATOM      6  C   UNL A   1      37.679  23.505  24.958  1.00  0.00     0.106 C 
BRANCH   6   7
ATOM      7  C   UNL A   1      37.275  22.119  24.435  1.00  0.00     0.076 C 
BRANCH   7   8
ATOM      8  C   UNL A   1      35.768  21.975  24.206  1.00  0.00     0.197 C 
ATOM      9  N   UNL A   1      33.314  19.912  24.815  1.00  0.00    -0.282 N 
ATOM     10  C   UNL A   1      34.645  20.028  25.083  1.00  0.00     0.239 C 
ATOM     11  C   UNL A   1      32.642  21.090  25.032  1.00  0.00     0.240 C 
ATOM     12  C   UNL A   1      34.968  21.463  25.392  1.00  0.00     0.157 C 
ATOM     13  O   UNL A   1      35.508  19.165  24.999  1.00  0.00    -0.274 OA
ATOM     14  C   UNL A   1      33.624  22.190  25.365  1.00  0.00     0.174 C 
ATOM     15  O   UNL A   1      31.431  21.250  25.020  1.00  0.00    -0.274 OA
ATOM     16  C   UNL A   1      33.762  23.294  24.317  1.00  0.00     0.216 C 
ATOM     17  N   UNL A   1      35.187  23.261  23.899  1.00  0.00    -0.326 N 
ATOM     18  C   UNL A   1      32.812  23.198  23.075  1.00  0.00     0.291 C 
ATOM     19  C   UNL A   1      33.533  24.731  24.730  1.00  0.00     0.047 A 
ATOM     20  H   UNL A   1      35.246  23.426  22.894  1.00  0.00     0.347 HD
ATOM     21  H   UNL A   1      35.697  23.985  24.402  1.00  0.00     0.347 HD
ATOM     22  N   UNL A   1      32.397  24.486  22.767  1.00  0.00    -0.320 N 
ATOM     23  O   UNL A   1      32.538  22.193  22.431  1.00  0.00    -0.267 OA
ATOM     24  C   UNL A   1      32.832  25.402  23.718  1.00  0.00     0.054 A 
ATOM     25  C   UNL A   1      34.091  25.431  25.786  1.00  0.00     0.013 A 
ATOM     26  H   UNL A   1      31.863  24.722  21.974  1.00  0.00     0.170 HD
ATOM     27  C   UNL A   1      32.684  26.780  23.698  1.00  0.00    -0.024 A 
ATOM     28  C   UNL A   1      33.946  26.818  25.803  1.00  0.00     0.001 A 
ATOM     29  C   UNL A   1      33.263  27.484  24.767  1.00  0.00     0.006 A 
BRANCH   9  30
ATOM     30  C   UNL A   1      32.662  18.750  24.207  1.00  0.00     0.128 C 
BRANCH  30  31
ATOM     31  C   UNL A   1      32.439  17.521  25.098  1.00  0.00     0.022 C 
BRANCH  31  32
ATOM     32  C   UNL A   1      32.971  16.211  24.517  1.00  0.00    -0.002 C 
ATOM     33  C   UNL A   1      34.125  16.425  23.552  1.00  0.00     0.004 C 
ENDBRANCH  31  32
ENDBRANCH  30  31
ENDBRANCH   9  30
BRANCH  27  34
ATOM     34  C   UNL A   1      32.047  27.527  22.557  1.00  0.00     0.034 C 
ATOM     35  C   UNL A   1      30.539  27.662  22.734  1.00  0.00     0.009 C 
ENDBRANCH  27  34
ENDBRANCH   7   8
ENDBRANCH   6   7
ENDBRANCH   3   6
ENDBRANCH   1   2
BRANCH   1  36
ATOM     36  C   UNL A   1      40.819  20.727  26.800  1.00  0.00     0.023 C 
BRANCH  36  37
ATOM     37  C   UNL A   1      42.246  20.952  26.341  1.00  0.00     0.023 C 
BRANCH  37  38
ATOM     38  C   UNL A   1      42.341  21.907  25.170  1.00  0.00     0.116 C 
BRANCH  38  39
ATOM     39  N   UNL A   1      43.651  22.552  25.031  1.00  0.00    -0.352 N 
ATOM     40  C   UNL A   1      44.119  23.779  25.458  1.00  0.00     0.251 C 
ATOM     41  H   UNL A   1      44.317  22.012  24.548  1.00  0.00     0.163 HD
ATOM     42  O   UNL A   1      45.250  24.143  25.144  1.00  0.00    -0.269 OA
BRANCH  40  43
ATOM     43  C   UNL A   1      43.237  24.662  26.250  1.00  0.00     0.039 A 
ATOM     44  C   UNL A   1      43.436  26.035  26.210  1.00  0.00     0.014 A 
ATOM     45  C   UNL A   1      42.289  24.123  27.122  1.00  0.00     0.014 A 
ATOM     46  C   UNL A   1      42.977  26.808  27.261  1.00  0.00     0.010 A 
ATOM     47  C   UNL A   1      41.664  24.954  28.059  1.00  0.00     0.010 A 
ATOM     48  C   UNL A   1      42.073  26.289  28.199  1.00  0.00    -0.014 A 
BRANCH  48  49
ATOM     49  C   UNL A   1      41.598  27.167  29.306  1.00  0.00     0.031 A 
ATOM     50  C   UNL A   1      42.433  27.396  30.541  1.00  0.00     0.074 A 
ATOM     51  C   UNL A   1      40.428  27.824  29.163  1.00  0.00     0.049 A 
ATOM     52  N   UNL A   1      42.136  28.088  31.612  1.00  0.00    -0.248 NA
ATOM     53  C   UNL A   1      43.761  26.762  30.598  1.00  0.00     0.031 C 
ATOM     54  C   UNL A   1      39.524  27.694  28.017  1.00  0.00     0.029 A 
ATOM     55  N   UNL A   1      39.813  28.757  29.958  1.00  0.00    -0.354 N 
ATOM     56  C   UNL A   1      43.185  27.891  32.501  1.00  0.00     0.074 A 
ATOM     57  C   UNL A   1      44.149  27.043  31.835  1.00  0.00     0.031 C 
ATOM     58  C   UNL A   1      38.530  28.581  28.132  1.00  0.00     0.029 A 
ATOM     59  C   UNL A   1      38.651  29.254  29.418  1.00  0.00     0.049 A 
ATOM     60  H   UNL A   1      40.169  29.043  30.831  1.00  0.00     0.167 HD
ATOM     61  C   UNL A   1      43.333  28.378  33.756  1.00  0.00     0.034 A 
ATOM     62  C   UNL A   1      37.748  30.123  29.908  1.00  0.00     0.034 A 
ATOM     63  C   UNL A   1      42.424  29.305  34.374  1.00  0.00     0.049 A 
ATOM     64  C   UNL A   1      37.947  30.672  31.284  1.00  0.00     0.074 A 
ATOM     65  C   UNL A   1      42.531  29.917  35.611  1.00  0.00     0.029 A 
ATOM     66  N   UNL A   1      41.247  29.760  33.802  1.00  0.00    -0.354 N 
ATOM     67  N   UNL A   1      38.961  30.496  32.094  1.00  0.00    -0.248 NA
ATOM     68  C   UNL A   1      36.875  31.517  31.824  1.00  0.00     0.031 C 
ATOM     69  C   UNL A   1      41.411  30.737  35.789  1.00  0.00     0.029 A 
ATOM     70  C   UNL A   1      40.610  30.637  34.663  1.00  0.00     0.049 A 
ATOM     71  H   UNL A   1      40.912  29.499  32.913  1.00  0.00     0.167 HD
ATOM     72  C   UNL A   1      38.646  31.193  33.250  1.00  0.00     0.074 A 
ATOM     73  C   UNL A   1      37.362  31.827  33.019  1.00  0.00     0.031 C 
ATOM     74  C   UNL A   1      39.345  31.276  34.408  1.00  0.00     0.034 A 
BRANCH  61  75
ATOM     75  C   UNL A   1      44.533  27.936  34.549  1.00  0.00     0.023 A 
ATOM     76  C   UNL A   1      45.675  28.757  34.613  1.00  0.00     0.012 A 
ATOM     77  C   UNL A   1      44.495  26.739  35.293  1.00  0.00     0.148 A 
ATOM     78  C   UNL A   1      46.771  28.386  35.394  1.00  0.00     0.002 A 
ATOM     79  C   UNL A   1      45.578  26.391  36.092  1.00  0.00     0.091 A 
ATOM     80  F   UNL A   1      43.405  25.965  35.202  1.00  0.00    -0.205 F 
ATOM     81  C   UNL A   1      46.719  27.210  36.139  1.00  0.00     0.022 A 
BRANCH  79  82
ATOM     82  S   UNL A   1      45.587  24.926  37.133  1.00  0.00     0.127 S 
ATOM     83  O   UNL A   1      45.907  23.879  36.163  1.00  0.00    -0.237 OA
ATOM     84  O   UNL A   1      46.660  25.228  38.080  1.00  0.00    -0.237 OA
ATOM     85  O   UNL A   1      44.259  24.844  37.724  1.00  0.00    -0.744 OA
ENDBRANCH  79  82
ENDBRANCH  61  75
BRANCH  62  86
ATOM     86  C   UNL A   1      36.583  30.495  29.061  1.00  0.00     0.023 A 
ATOM     87  C   UNL A   1      35.755  29.479  28.551  1.00  0.00     0.012 A 
ATOM     88  C   UNL A   1      36.206  31.844  28.903  1.00  0.00     0.148 A 
ATOM     89  C   UNL A   1      34.558  29.801  27.910  1.00  0.00     0.002 A 
ATOM     90  C   UNL A   1      34.987  32.153  28.314  1.00  0.00     0.091 A 
ATOM     91  F   UNL A   1      37.013  32.789  29.405  1.00  0.00    -0.205 F 
ATOM     92  C   UNL A   1      34.165  31.134  27.808  1.00  0.00     0.022 A 
BRANCH  90  93
ATOM     93  S   UNL A   1      34.326  33.823  28.278  1.00  0.00     0.127 S 
ATOM     94  O   UNL A   1      35.175  34.459  27.273  1.00  0.00    -0.237 OA
ATOM     95  O   UNL A   1      32.945  33.584  27.858  1.00  0.00    -0.237 OA
ATOM     96  O   UNL A   1      34.470  34.340  29.632  1.00  0.00    -0.744 OA
ENDBRANCH  90  93
ENDBRANCH  62  86
BRANCH  74  97
ATOM     97  C   UNL A   1      38.729  32.060  35.530  1.00  0.00     0.023 A 
ATOM     98  C   UNL A   1      38.650  33.461  35.421  1.00  0.00     0.012 A 
ATOM     99  C   UNL A   1      38.156  31.411  36.638  1.00  0.00     0.148 A 
ATOM    100  C   UNL A   1      38.017  34.211  36.410  1.00  0.00     0.002 A 
ATOM    101  C   UNL A   1      37.497  32.162  37.604  1.00  0.00     0.091 A 
ATOM    102  F   UNL A   1      38.261  30.077  36.724  1.00  0.00    -0.205 F 
ATOM    103  C   UNL A   1      37.431  33.561  37.494  1.00  0.00     0.022 A 
BRANCH 101 104
ATOM    104  S   UNL A   1      36.652  31.408  38.998  1.00  0.00     0.127 S 
ATOM    105  O   UNL A   1      36.403  30.057  38.500  1.00  0.00    -0.237 OA
ATOM    106  O   UNL A   1      37.659  31.493  40.056  1.00  0.00    -0.237 OA
ATOM    107  O   UNL A   1      35.462  32.217  39.230  1.00  0.00    -0.744 OA
ENDBRANCH 101 104
ENDBRANCH  74  97
ENDBRANCH  48  49
ENDBRANCH  40  43
ENDBRANCH  38  39
ENDBRANCH  37  38
ENDBRANCH  36  37
ENDBRANCH   1  36
TORSDOF 20
ENDMDL
MODEL 3
REMARK VINA RESULT:     -11.5      2.362      3.275
REMARK SMILES CCCCN1C(=O)[C@H]2[C@H](CCC(=O)NCCCCNC(=O)c3ccc(-c4c5nc(c(-c6cccc(S(=O)(=O)[O-])c6F)c6ccc([nH]6)c(-c6cccc(S(=O)(=O)[O-])c6F)c6nc(c(-c7cccc(S(=O)(=O)[O-])c7F)c7ccc4[nH]7)C=C6)C=C5)cc3)[NH2+][C@@]3(C(=O)Nc4c(CC)cccc43)[C@H]2C1=O
REMARK SMILES IDX 15 1 14 2 12 3 13 4 11 6 10 7 9 8 5 9 6 10 99 11 8 12 7 13
REMARK SMILES IDX 98 14 100 15 86 16 85 17 87 18 97 19 89 22 88 23 90 24 96 25
REMARK SMILES IDX 91 27 95 28 94 29 4 30 3 31 2 32 1 33 92 34 93 35 16 36
REMARK SMILES IDX 17 37 18 38 19 39 20 40 21 42 22 43 23 44 84 45 24 46 83 47
REMARK SMILES IDX 25 48 26 49 27 50 77 51 28 52 82 53 76 54 78 55 29 56 81 57
REMARK SMILES IDX 75 58 74 59 30 61 62 62 42 63 61 64 43 65 46 66 60 67 79 68
REMARK SMILES IDX 44 69 45 70 59 72 80 73 47 74 31 75 32 76 40 77 33 78 35 79
REMARK SMILES IDX 41 80 34 81 36 82 37 83 38 84 39 85 63 86 64 87 72 88 65 89
REMARK SMILES IDX 67 90 73 91 66 92 68 93 69 94 70 95 71 96 48 97 49 98 57 99
REMARK SMILES IDX 50 100 52 101 58 102 51 103 53 104 54 105 55 106 56 107
REMARK H PARENT 14 5 85 20 85 21 89 26 19 41 78 60 46 71
REMARK Flexibility Score: inf
ROOT
ATOM      1  C   UNL A   1      39.990  24.203  26.814  1.00  0.00     0.116 C 
ENDROOT
BRANCH   1   2
ATOM      2  N   UNL A   1      39.709  22.888  26.252  1.00  0.00    -0.356 N 
ATOM      3  C   UNL A   1      38.537  22.342  25.814  1.00  0.00     0.220 C 
ATOM      4  O   UNL A   1      38.523  21.145  25.523  1.00  0.00    -0.275 OA
ATOM      5  H   UNL A   1      40.494  22.296  26.176  1.00  0.00     0.163 HD
BRANCH   3   6
ATOM      6  C   UNL A   1      37.289  23.194  25.671  1.00  0.00     0.106 C 
BRANCH   6   7
ATOM      7  C   UNL A   1      36.702  23.262  24.254  1.00  0.00     0.076 C 
BRANCH   7   8
ATOM      8  C   UNL A   1      35.232  22.838  24.188  1.00  0.00     0.197 C 
ATOM      9  N   UNL A   1      33.287  20.355  25.025  1.00  0.00    -0.282 N 
ATOM     10  C   UNL A   1      34.595  20.719  25.148  1.00  0.00     0.239 C 
ATOM     11  C   UNL A   1      32.436  21.387  25.334  1.00  0.00     0.240 C 
ATOM     12  C   UNL A   1      34.677  22.190  25.445  1.00  0.00     0.157 C 
ATOM     13  O   UNL A   1      35.589  20.032  24.956  1.00  0.00    -0.274 OA
ATOM     14  C   UNL A   1      33.226  22.652  25.578  1.00  0.00     0.174 C 
ATOM     15  O   UNL A   1      31.222  21.319  25.458  1.00  0.00    -0.274 OA
ATOM     16  C   UNL A   1      33.040  23.759  24.540  1.00  0.00     0.216 C 
ATOM     17  N   UNL A   1      34.391  23.992  23.969  1.00  0.00    -0.326 N 
ATOM     18  C   UNL A   1      31.994  23.484  23.408  1.00  0.00     0.291 C 
ATOM     19  C   UNL A   1      32.594  25.130  25.001  1.00  0.00     0.047 A 
ATOM     20  H   UNL A   1      34.307  24.162  22.966  1.00  0.00     0.347 HD
ATOM     21  H   UNL A   1      34.810  24.801  24.426  1.00  0.00     0.347 HD
ATOM     22  N   UNL A   1      31.314  24.670  23.169  1.00  0.00    -0.320 N 
ATOM     23  O   UNL A   1      31.842  22.443  22.780  1.00  0.00    -0.267 OA
ATOM     24  C   UNL A   1      31.674  25.654  24.083  1.00  0.00     0.054 A 
ATOM     25  C   UNL A   1      33.126  25.925  26.002  1.00  0.00     0.013 A 
ATOM     26  H   UNL A   1      30.662  24.800  22.444  1.00  0.00     0.170 HD
ATOM     27  C   UNL A   1      31.271  26.981  24.104  1.00  0.00    -0.024 A 
ATOM     28  C   UNL A   1      32.728  27.261  26.058  1.00  0.00     0.001 A 
ATOM     29  C   UNL A   1      31.823  27.784  25.115  1.00  0.00     0.006 A 
BRANCH   9  30
ATOM     30  C   UNL A   1      32.800  19.090  24.472  1.00  0.00     0.128 C 
BRANCH  30  31
ATOM     31  C   UNL A   1      33.176  17.803  25.218  1.00  0.00     0.022 C 
BRANCH  31  32
ATOM     32  C   UNL A   1      33.149  16.539  24.358  1.00  0.00    -0.002 C 
ATOM     33  C   UNL A   1      34.147  16.589  23.214  1.00  0.00     0.004 C 
ENDBRANCH  31  32
ENDBRANCH  30  31
ENDBRANCH   9  30
BRANCH  27  34
ATOM     34  C   UNL A   1      30.383  27.591  23.052  1.00  0.00     0.034 C 
ATOM     35  C   UNL A   1      30.781  29.028  22.733  1.00  0.00     0.009 C 
ENDBRANCH  27  34
ENDBRANCH   7   8
ENDBRANCH   6   7
ENDBRANCH   3   6
ENDBRANCH   1   2
BRANCH   1  36
ATOM     36  C   UNL A   1      41.496  24.446  26.861  1.00  0.00     0.023 C 
BRANCH  36  37
ATOM     37  C   UNL A   1      42.337  23.410  26.142  1.00  0.00     0.023 C 
BRANCH  37  38
ATOM     38  C   UNL A   1      43.153  22.556  27.090  1.00  0.00     0.116 C 
BRANCH  38  39
ATOM     39  N   UNL A   1      44.346  21.960  26.480  1.00  0.00    -0.352 N 
ATOM     40  C   UNL A   1      45.557  22.509  26.106  1.00  0.00     0.251 C 
ATOM     41  H   UNL A   1      44.270  20.994  26.307  1.00  0.00     0.163 HD
ATOM     42  O   UNL A   1      46.387  21.814  25.525  1.00  0.00    -0.269 OA
BRANCH  40  43
ATOM     43  C   UNL A   1      45.823  23.939  26.368  1.00  0.00     0.039 A 
ATOM     44  C   UNL A   1      46.255  24.331  27.627  1.00  0.00     0.014 A 
ATOM     45  C   UNL A   1      45.534  24.905  25.402  1.00  0.00     0.014 A 
ATOM     46  C   UNL A   1      46.048  25.638  28.028  1.00  0.00     0.010 A 
ATOM     47  C   UNL A   1      45.527  26.258  25.760  1.00  0.00     0.010 A 
ATOM     48  C   UNL A   1      45.693  26.631  27.103  1.00  0.00    -0.014 A 
BRANCH  48  49
ATOM     49  C   UNL A   1      45.495  28.027  27.584  1.00  0.00     0.031 A 
ATOM     50  C   UNL A   1      44.196  28.465  28.213  1.00  0.00     0.074 A 
ATOM     51  C   UNL A   1      46.526  28.894  27.516  1.00  0.00     0.049 A 
ATOM     52  N   UNL A   1      43.851  29.656  28.632  1.00  0.00    -0.248 NA
ATOM     53  C   UNL A   1      43.142  27.451  28.386  1.00  0.00     0.031 C 
ATOM     54  C   UNL A   1      47.838  28.599  26.932  1.00  0.00     0.029 A 
ATOM     55  N   UNL A   1      46.656  30.182  27.970  1.00  0.00    -0.354 N 
ATOM     56  C   UNL A   1      42.520  29.558  29.019  1.00  0.00     0.074 A 
ATOM     57  C   UNL A   1      42.124  28.182  28.821  1.00  0.00     0.031 C 
ATOM     58  C   UNL A   1      48.664  29.627  27.150  1.00  0.00     0.029 A 
ATOM     59  C   UNL A   1      47.910  30.707  27.774  1.00  0.00     0.049 A 
ATOM     60  H   UNL A   1      45.921  30.682  28.395  1.00  0.00     0.167 HD
ATOM     61  C   UNL A   1      41.706  30.527  29.499  1.00  0.00     0.034 A 
ATOM     62  C   UNL A   1      48.406  31.933  28.024  1.00  0.00     0.034 A 
ATOM     63  C   UNL A   1      42.133  31.868  29.793  1.00  0.00     0.049 A 
ATOM     64  C   UNL A   1      47.496  32.979  28.583  1.00  0.00     0.074 A 
ATOM     65  C   UNL A   1      41.402  32.898  30.359  1.00  0.00     0.029 A 
ATOM     66  N   UNL A   1      43.405  32.364  29.555  1.00  0.00    -0.354 N 
ATOM     67  N   UNL A   1      46.251  32.856  28.969  1.00  0.00    -0.248 NA
ATOM     68  C   UNL A   1      48.047  34.333  28.722  1.00  0.00     0.031 C 
ATOM     69  C   UNL A   1      42.232  34.021  30.453  1.00  0.00     0.029 A 
ATOM     70  C   UNL A   1      43.479  33.689  29.949  1.00  0.00     0.049 A 
ATOM     71  H   UNL A   1      44.148  31.850  29.162  1.00  0.00     0.167 HD
ATOM     72  C   UNL A   1      45.857  34.120  29.382  1.00  0.00     0.074 A 
ATOM     73  C   UNL A   1      47.011  34.986  29.234  1.00  0.00     0.031 C 
ATOM     74  C   UNL A   1      44.641  34.529  29.816  1.00  0.00     0.034 A 
BRANCH  61  75
ATOM     75  C   UNL A   1      40.266  30.176  29.760  1.00  0.00     0.023 A 
ATOM     76  C   UNL A   1      39.357  30.095  28.687  1.00  0.00     0.012 A 
ATOM     77  C   UNL A   1      39.834  29.853  31.062  1.00  0.00     0.148 A 
ATOM     78  C   UNL A   1      38.033  29.712  28.909  1.00  0.00     0.002 A 
ATOM     79  C   UNL A   1      38.522  29.443  31.271  1.00  0.00     0.091 A 
ATOM     80  F   UNL A   1      40.713  29.955  32.070  1.00  0.00    -0.205 F 
ATOM     81  C   UNL A   1      37.619  29.379  30.197  1.00  0.00     0.022 A 
BRANCH  79  82
ATOM     82  S   UNL A   1      37.907  28.938  32.881  1.00  0.00     0.127 S 
ATOM     83  O   UNL A   1      38.842  29.615  33.779  1.00  0.00    -0.237 OA
ATOM     84  O   UNL A   1      36.553  29.493  32.881  1.00  0.00    -0.237 OA
ATOM     85  O   UNL A   1      37.968  27.484  32.898  1.00  0.00    -0.744 OA
ENDBRANCH  79  82
ENDBRANCH  61  75
BRANCH  62  86
ATOM     86  C   UNL A   1      49.839  32.199  27.722  1.00  0.00     0.023 A 
ATOM     87  C   UNL A   1      50.823  31.729  28.609  1.00  0.00     0.012 A 
ATOM     88  C   UNL A   1      50.225  32.764  26.490  1.00  0.00     0.148 A 
ATOM     89  C   UNL A   1      52.174  31.801  28.265  1.00  0.00     0.002 A 
ATOM     90  C   UNL A   1      51.566  32.781  26.131  1.00  0.00     0.091 A 
ATOM     91  F   UNL A   1      49.262  33.197  25.664  1.00  0.00    -0.205 F 
ATOM     92  C   UNL A   1      52.544  32.310  27.022  1.00  0.00     0.022 A 
BRANCH  90  93
ATOM     93  S   UNL A   1      52.124  33.270  24.495  1.00  0.00     0.127 S 
ATOM     94  O   UNL A   1      53.561  33.426  24.704  1.00  0.00    -0.237 OA
ATOM     95  O   UNL A   1      51.739  32.108  23.694  1.00  0.00    -0.237 OA
ATOM     96  O   UNL A   1      51.405  34.495  24.177  1.00  0.00    -0.744 OA
ENDBRANCH  90  93
ENDBRANCH  62  86
BRANCH  74  97
ATOM     97  C   UNL A   1      44.480  35.985  30.142  1.00  0.00     0.023 A 
ATOM     98  C   UNL A   1      44.937  36.461  31.386  1.00  0.00     0.012 A 
ATOM     99  C   UNL A   1      43.965  36.888  29.194  1.00  0.00     0.148 A 
ATOM    100  C   UNL A   1      44.872  37.820  31.688  1.00  0.00     0.002 A 
ATOM    101  C   UNL A   1      43.933  38.245  29.489  1.00  0.00     0.091 A 
ATOM    102  F   UNL A   1      43.522  36.403  28.025  1.00  0.00    -0.205 F 
ATOM    103  C   UNL A   1      44.381  38.712  30.736  1.00  0.00     0.022 A 
BRANCH 101 104
ATOM    104  S   UNL A   1      43.384  39.476  28.302  1.00  0.00     0.127 S 
ATOM    105  O   UNL A   1      41.932  39.332  28.374  1.00  0.00    -0.237 OA
ATOM    106  O   UNL A   1      43.904  40.717  28.877  1.00  0.00    -0.237 OA
ATOM    107  O   UNL A   1      43.986  39.101  27.029  1.00  0.00    -0.744 OA
ENDBRANCH 101 104
ENDBRANCH  74  97
ENDBRANCH  48  49
ENDBRANCH  40  43
ENDBRANCH  38  39
ENDBRANCH  37  38
ENDBRANCH  36  37
ENDBRANCH   1  36
TORSDOF 20
ENDMDL
