MODEL 1
REMARK VINA RESULT:     -11.7      0.000      0.000
REMARK SMILES CC[C@](C)([NH3+])C(=O)Nc1ccc(C(F)(F)F)cc1C(=O)NCCCCNC(=O)c1ccc(-c2c3nc(c(-c4cccc(S(=O)(=O)[O-])c4F)c4ccc([nH]4)c(-c4cccc(S(=O)(=O)[O-])c4F)c4nc(c(-c5cccc(S(=O)(=O)[O-])c5F)c5ccc2[nH]5)C=C4)C=C3)cc1
REMARK SMILES IDX 23 1 22 2 21 3 19 4 20 5 18 7 9 8 10 9 11 10 17 11 12 12
REMARK SMILES IDX 8 13 6 14 7 15 3 17 4 18 2 19 1 20 5 21 13 25 14 26 15 27
REMARK SMILES IDX 16 28 24 29 25 30 26 31 27 32 28 34 29 35 30 36 91 37 31 38
REMARK SMILES IDX 90 39 32 40 33 41 34 42 84 43 35 44 89 45 83 46 85 47 36 48
REMARK SMILES IDX 88 49 82 50 81 51 37 53 69 54 49 55 68 56 50 57 53 58 67 59
REMARK SMILES IDX 86 60 51 61 52 62 66 64 87 65 54 66 38 67 39 68 47 69 40 70
REMARK SMILES IDX 42 71 48 72 41 73 43 74 44 75 45 76 46 77 70 78 71 79 79 80
REMARK SMILES IDX 72 81 74 82 80 83 73 84 75 85 76 86 77 87 78 88 55 89 56 90
REMARK SMILES IDX 64 91 57 92 59 93 65 94 58 95 60 96 61 97 62 98 63 99
REMARK H PARENT 21 6 8 16 5 22 5 23 5 24 26 33 85 52 53 63
REMARK Flexibility Score: inf
ROOT
ATOM      1  C   UNL A   1      37.210  21.550  24.403  1.00  0.00     0.023 C 
ENDROOT
BRANCH   1   2
ATOM      2  C   UNL A   1      36.787  22.639  25.383  1.00  0.00     0.116 C 
BRANCH   2   3
ATOM      3  N   UNL A   1      35.858  22.235  26.411  1.00  0.00    -0.352 N 
ATOM      4  C   UNL A   1      34.618  21.640  26.324  1.00  0.00     0.253 C 
ATOM      5  O   UNL A   1      34.044  21.390  27.389  1.00  0.00    -0.269 OA
ATOM      6  H   UNL A   1      36.161  22.415  27.331  1.00  0.00     0.163 HD
BRANCH   4   7
ATOM      7  C   UNL A   1      33.862  21.375  25.043  1.00  0.00     0.063 A 
ATOM      8  C   UNL A   1      33.309  22.291  24.133  1.00  0.00     0.054 A 
ATOM      9  C   UNL A   1      32.378  21.835  23.179  1.00  0.00     0.027 A 
ATOM     10  C   UNL A   1      32.168  20.477  22.959  1.00  0.00     0.015 A 
ATOM     11  C   UNL A   1      33.669  19.995  24.770  1.00  0.00     0.029 A 
ATOM     12  C   UNL A   1      32.876  19.537  23.704  1.00  0.00     0.056 A 
BRANCH   8  13
ATOM     13  N   UNL A   1      33.560  23.663  24.028  1.00  0.00    -0.320 N 
ATOM     14  C   UNL A   1      32.813  24.776  24.294  1.00  0.00     0.285 C 
ATOM     15  O   UNL A   1      33.345  25.840  23.936  1.00  0.00    -0.267 OA
ATOM     16  H   UNL A   1      34.463  23.870  23.694  1.00  0.00     0.170 HD
BRANCH  14  17
ATOM     17  C   UNL A   1      31.517  24.790  25.161  1.00  0.00     0.171 C 
ATOM     18  C   UNL A   1      31.092  26.252  25.395  1.00  0.00     0.090 C 
BRANCH  17  19
ATOM     19  C   UNL A   1      31.788  24.052  26.493  1.00  0.00     0.075 C 
ATOM     20  C   UNL A   1      30.818  22.917  26.800  1.00  0.00     0.011 C 
ENDBRANCH  17  19
BRANCH  17  21
ATOM     21  N   UNL A   1      30.385  24.136  24.491  1.00  0.00    -0.345 N 
ATOM     22  H   UNL A   1      29.642  24.818  24.337  1.00  0.00     0.345 HD
ATOM     23  H   UNL A   1      30.035  23.378  25.077  1.00  0.00     0.345 HD
ATOM     24  H   UNL A   1      30.692  23.758  23.595  1.00  0.00     0.345 HD
ENDBRANCH  17  21
ENDBRANCH  14  17
ENDBRANCH   8  13
BRANCH  12  25
ATOM     25  C   UNL A   1      32.771  18.071  23.357  1.00  0.00     0.416 C 
ATOM     26  F   UNL A   1      32.376  17.309  24.413  1.00  0.00    -0.166 F 
ATOM     27  F   UNL A   1      31.851  17.844  22.375  1.00  0.00    -0.166 F 
ATOM     28  F   UNL A   1      33.931  17.526  22.904  1.00  0.00    -0.166 F 
ENDBRANCH  12  25
ENDBRANCH   4   7
ENDBRANCH   2   3
ENDBRANCH   1   2
BRANCH   1  29
ATOM     29  C   UNL A   1      37.840  20.297  25.025  1.00  0.00     0.023 C 
BRANCH  29  30
ATOM     30  C   UNL A   1      39.010  20.499  25.992  1.00  0.00     0.116 C 
BRANCH  30  31
ATOM     31  N   UNL A   1      40.002  19.431  25.971  1.00  0.00    -0.352 N 
ATOM     32  C   UNL A   1      41.374  19.482  26.113  1.00  0.00     0.251 C 
ATOM     33  H   UNL A   1      39.634  18.529  25.832  1.00  0.00     0.163 HD
ATOM     34  O   UNL A   1      42.049  18.474  25.957  1.00  0.00    -0.269 OA
BRANCH  32  35
ATOM     35  C   UNL A   1      42.039  20.768  26.430  1.00  0.00     0.039 A 
ATOM     36  C   UNL A   1      42.427  21.610  25.383  1.00  0.00     0.014 A 
ATOM     37  C   UNL A   1      42.273  21.149  27.753  1.00  0.00     0.014 A 
ATOM     38  C   UNL A   1      42.945  22.878  25.666  1.00  0.00     0.010 A 
ATOM     39  C   UNL A   1      42.716  22.439  28.034  1.00  0.00     0.010 A 
ATOM     40  C   UNL A   1      43.042  23.326  26.995  1.00  0.00    -0.014 A 
BRANCH  40  41
ATOM     41  C   UNL A   1      43.425  24.729  27.317  1.00  0.00     0.031 A 
ATOM     42  C   UNL A   1      42.422  25.685  27.905  1.00  0.00     0.074 A 
ATOM     43  C   UNL A   1      44.649  25.179  26.968  1.00  0.00     0.049 A 
ATOM     44  N   UNL A   1      42.557  26.958  28.177  1.00  0.00    -0.248 NA
ATOM     45  C   UNL A   1      41.083  25.149  28.200  1.00  0.00     0.031 C 
ATOM     46  C   UNL A   1      45.685  24.385  26.302  1.00  0.00     0.029 A 
ATOM     47  N   UNL A   1      45.219  26.422  27.095  1.00  0.00    -0.354 N 
ATOM     48  C   UNL A   1      41.315  27.386  28.630  1.00  0.00     0.074 A 
ATOM     49  C   UNL A   1      40.430  26.242  28.572  1.00  0.00     0.031 C 
ATOM     50  C   UNL A   1      46.759  25.157  26.080  1.00  0.00     0.029 A 
ATOM     51  C   UNL A   1      46.485  26.507  26.561  1.00  0.00     0.049 A 
ATOM     52  H   UNL A   1      44.766  27.181  27.529  1.00  0.00     0.167 HD
ATOM     53  C   UNL A   1      40.949  28.609  29.083  1.00  0.00     0.034 A 
ATOM     54  C   UNL A   1      47.330  27.554  26.462  1.00  0.00     0.034 A 
ATOM     55  C   UNL A   1      41.843  29.730  29.195  1.00  0.00     0.049 A 
ATOM     56  C   UNL A   1      46.920  28.885  27.034  1.00  0.00     0.074 A 
ATOM     57  C   UNL A   1      41.594  30.976  29.744  1.00  0.00     0.029 A 
ATOM     58  N   UNL A   1      43.154  29.747  28.746  1.00  0.00    -0.354 N 
ATOM     59  N   UNL A   1      45.800  29.218  27.627  1.00  0.00    -0.248 NA
ATOM     60  C   UNL A   1      47.906  29.973  26.958  1.00  0.00     0.031 C 
ATOM     61  C   UNL A   1      42.750  31.753  29.610  1.00  0.00     0.029 A 
ATOM     62  C   UNL A   1      43.725  30.982  28.998  1.00  0.00     0.049 A 
ATOM     63  H   UNL A   1      43.611  28.991  28.312  1.00  0.00     0.167 HD
ATOM     64  C   UNL A   1      45.958  30.540  28.026  1.00  0.00     0.074 A 
ATOM     65  C   UNL A   1      47.292  30.940  27.626  1.00  0.00     0.031 C 
ATOM     66  C   UNL A   1      45.073  31.354  28.651  1.00  0.00     0.034 A 
BRANCH  53  67
ATOM     67  C   UNL A   1      39.529  28.785  29.558  1.00  0.00     0.023 A 
ATOM     68  C   UNL A   1      39.184  28.392  30.867  1.00  0.00     0.012 A 
ATOM     69  C   UNL A   1      38.559  29.396  28.741  1.00  0.00     0.148 A 
ATOM     70  C   UNL A   1      37.886  28.571  31.344  1.00  0.00     0.002 A 
ATOM     71  C   UNL A   1      37.278  29.611  29.239  1.00  0.00     0.091 A 
ATOM     72  F   UNL A   1      38.900  29.746  27.492  1.00  0.00    -0.205 F 
ATOM     73  C   UNL A   1      36.937  29.190  30.534  1.00  0.00     0.022 A 
BRANCH  71  74
ATOM     74  S   UNL A   1      36.007  30.470  28.303  1.00  0.00     0.127 S 
ATOM     75  O   UNL A   1      35.572  29.430  27.372  1.00  0.00    -0.237 OA
ATOM     76  O   UNL A   1      35.030  30.803  29.342  1.00  0.00    -0.237 OA
ATOM     77  O   UNL A   1      36.663  31.619  27.697  1.00  0.00    -0.744 OA
ENDBRANCH  71  74
ENDBRANCH  53  67
BRANCH  54  78
ATOM     78  C   UNL A   1      48.681  27.365  25.860  1.00  0.00     0.023 A 
ATOM     79  C   UNL A   1      49.753  26.974  26.686  1.00  0.00     0.012 A 
ATOM     80  C   UNL A   1      48.906  27.543  24.482  1.00  0.00     0.148 A 
ATOM     81  C   UNL A   1      51.032  26.795  26.156  1.00  0.00     0.002 A 
ATOM     82  C   UNL A   1      50.170  27.309  23.951  1.00  0.00     0.091 A 
ATOM     83  F   UNL A   1      47.876  27.929  23.715  1.00  0.00    -0.205 F 
ATOM     84  C   UNL A   1      51.238  26.952  24.789  1.00  0.00     0.022 A 
BRANCH  82  85
ATOM     85  S   UNL A   1      50.494  27.360  22.185  1.00  0.00     0.127 S 
ATOM     86  O   UNL A   1      50.296  28.776  21.884  1.00  0.00    -0.237 OA
ATOM     87  O   UNL A   1      51.885  26.905  22.119  1.00  0.00    -0.237 OA
ATOM     88  O   UNL A   1      49.536  26.442  21.586  1.00  0.00    -0.744 OA
ENDBRANCH  82  85
ENDBRANCH  54  78
BRANCH  66  89
ATOM     89  C   UNL A   1      45.518  32.756  28.979  1.00  0.00     0.023 A 
ATOM     90  C   UNL A   1      46.217  33.004  30.176  1.00  0.00     0.012 A 
ATOM     91  C   UNL A   1      45.312  33.809  28.066  1.00  0.00     0.148 A 
ATOM     92  C   UNL A   1      46.680  34.286  30.473  1.00  0.00     0.002 A 
ATOM     93  C   UNL A   1      45.816  35.073  28.347  1.00  0.00     0.091 A 
ATOM     94  F   UNL A   1      44.625  33.557  26.942  1.00  0.00    -0.205 F 
ATOM     95  C   UNL A   1      46.491  35.316  29.555  1.00  0.00     0.022 A 
BRANCH  93  96
ATOM     96  S   UNL A   1      45.703  36.434  27.180  1.00  0.00     0.127 S 
ATOM     97  O   UNL A   1      46.363  35.873  26.003  1.00  0.00    -0.237 OA
ATOM     98  O   UNL A   1      44.256  36.608  27.042  1.00  0.00    -0.237 OA
ATOM     99  O   UNL A   1      46.388  37.557  27.807  1.00  0.00    -0.744 OA
ENDBRANCH  93  96
ENDBRANCH  66  89
ENDBRANCH  40  41
ENDBRANCH  32  35
ENDBRANCH  30  31
ENDBRANCH  29  30
ENDBRANCH   1  29
TORSDOF 19
ENDMDL
MODEL 2
REMARK VINA RESULT:     -11.6      5.557     10.229
REMARK SMILES CC[C@](C)([NH3+])C(=O)Nc1ccc(C(F)(F)F)cc1C(=O)NCCCCNC(=O)c1ccc(-c2c3nc(c(-c4cccc(S(=O)(=O)[O-])c4F)c4ccc([nH]4)c(-c4cccc(S(=O)(=O)[O-])c4F)c4nc(c(-c5cccc(S(=O)(=O)[O-])c5F)c5ccc2[nH]5)C=C4)C=C3)cc1
REMARK SMILES IDX 23 1 22 2 21 3 19 4 20 5 18 7 9 8 10 9 11 10 17 11 12 12
REMARK SMILES IDX 8 13 6 14 7 15 3 17 4 18 2 19 1 20 5 21 13 25 14 26 15 27
REMARK SMILES IDX 16 28 24 29 25 30 26 31 27 32 28 34 29 35 30 36 91 37 31 38
REMARK SMILES IDX 90 39 32 40 33 41 34 42 84 43 35 44 89 45 83 46 85 47 36 48
REMARK SMILES IDX 88 49 82 50 81 51 37 53 69 54 49 55 68 56 50 57 53 58 67 59
REMARK SMILES IDX 86 60 51 61 52 62 66 64 87 65 54 66 38 67 39 68 47 69 40 70
REMARK SMILES IDX 42 71 48 72 41 73 43 74 44 75 45 76 46 77 70 78 71 79 79 80
REMARK SMILES IDX 72 81 74 82 80 83 73 84 75 85 76 86 77 87 78 88 55 89 56 90
REMARK SMILES IDX 64 91 57 92 59 93 65 94 58 95 60 96 61 97 62 98 63 99
REMARK H PARENT 21 6 8 16 5 22 5 23 5 24 26 33 85 52 53 63
REMARK Flexibility Score: inf
ROOT
ATOM      1  C   UNL A   1      33.950  28.371  24.062  1.00  0.00     0.023 C 
ENDROOT
BRANCH   1   2
ATOM      2  C   UNL A   1      34.022  28.025  22.578  1.00  0.00     0.116 C 
BRANCH   2   3
ATOM      3  N   UNL A   1      33.044  27.075  22.104  1.00  0.00    -0.352 N 
ATOM      4  C   UNL A   1      32.685  25.834  22.584  1.00  0.00     0.253 C 
ATOM      5  O   UNL A   1      31.789  25.240  21.974  1.00  0.00    -0.269 OA
ATOM      6  H   UNL A   1      32.550  27.362  21.302  1.00  0.00     0.163 HD
BRANCH   4   7
ATOM      7  C   UNL A   1      33.368  25.101  23.713  1.00  0.00     0.063 A 
ATOM      8  C   UNL A   1      33.041  25.069  25.079  1.00  0.00     0.054 A 
ATOM      9  C   UNL A   1      33.988  24.585  26.003  1.00  0.00     0.027 A 
ATOM     10  C   UNL A   1      35.138  23.923  25.585  1.00  0.00     0.015 A 
ATOM     11  C   UNL A   1      34.524  24.381  23.309  1.00  0.00     0.029 A 
ATOM     12  C   UNL A   1      35.379  23.744  24.224  1.00  0.00     0.056 A 
BRANCH   8  13
ATOM     13  N   UNL A   1      31.848  25.469  25.690  1.00  0.00    -0.320 N 
ATOM     14  C   UNL A   1      30.752  24.791  26.144  1.00  0.00     0.285 C 
ATOM     15  O   UNL A   1      29.817  25.522  26.507  1.00  0.00    -0.267 OA
ATOM     16  H   UNL A   1      31.784  26.443  25.821  1.00  0.00     0.170 HD
BRANCH  14  17
ATOM     17  C   UNL A   1      30.708  23.255  26.414  1.00  0.00     0.171 C 
ATOM     18  C   UNL A   1      31.712  22.919  27.533  1.00  0.00     0.090 C 
BRANCH  17  19
ATOM     19  C   UNL A   1      31.033  22.499  25.105  1.00  0.00     0.075 C 
ATOM     20  C   UNL A   1      32.141  21.460  25.230  1.00  0.00     0.011 C 
ENDBRANCH  17  19
BRANCH  17  21
ATOM     21  N   UNL A   1      29.395  22.806  26.895  1.00  0.00    -0.345 N 
ATOM     22  H   UNL A   1      29.005  23.508  27.524  1.00  0.00     0.345 HD
ATOM     23  H   UNL A   1      29.499  21.922  27.393  1.00  0.00     0.345 HD
ATOM     24  H   UNL A   1      28.767  22.676  26.100  1.00  0.00     0.345 HD
ENDBRANCH  17  21
ENDBRANCH  14  17
ENDBRANCH   8  13
BRANCH  12  25
ATOM     25  C   UNL A   1      36.539  22.890  23.774  1.00  0.00     0.416 C 
ATOM     26  F   UNL A   1      37.738  23.355  24.217  1.00  0.00    -0.166 F 
ATOM     27  F   UNL A   1      36.444  21.611  24.244  1.00  0.00    -0.166 F 
ATOM     28  F   UNL A   1      36.648  22.774  22.423  1.00  0.00    -0.166 F 
ENDBRANCH  12  25
ENDBRANCH   4   7
ENDBRANCH   2   3
ENDBRANCH   1   2
BRANCH   1  29
ATOM     29  C   UNL A   1      32.796  29.291  24.479  1.00  0.00     0.023 C 
BRANCH  29  30
ATOM     30  C   UNL A   1      32.544  29.474  25.978  1.00  0.00     0.116 C 
BRANCH  30  31
ATOM     31  N   UNL A   1      32.293  30.852  26.385  1.00  0.00    -0.352 N 
ATOM     32  C   UNL A   1      33.043  31.704  27.170  1.00  0.00     0.251 C 
ATOM     33  H   UNL A   1      31.452  31.235  26.046  1.00  0.00     0.163 HD
ATOM     34  O   UNL A   1      32.604  32.800  27.487  1.00  0.00    -0.269 OA
BRANCH  32  35
ATOM     35  C   UNL A   1      34.378  31.280  27.657  1.00  0.00     0.039 A 
ATOM     36  C   UNL A   1      35.385  32.239  27.803  1.00  0.00     0.014 A 
ATOM     37  C   UNL A   1      34.635  29.945  27.976  1.00  0.00     0.014 A 
ATOM     38  C   UNL A   1      36.610  31.878  28.374  1.00  0.00     0.010 A 
ATOM     39  C   UNL A   1      35.825  29.603  28.614  1.00  0.00     0.010 A 
ATOM     40  C   UNL A   1      36.821  30.567  28.836  1.00  0.00    -0.014 A 
BRANCH  40  41
ATOM     41  C   UNL A   1      38.045  30.200  29.601  1.00  0.00     0.031 A 
ATOM     42  C   UNL A   1      39.028  29.202  29.048  1.00  0.00     0.074 A 
ATOM     43  C   UNL A   1      38.214  30.679  30.852  1.00  0.00     0.049 A 
ATOM     44  N   UNL A   1      40.103  28.708  29.606  1.00  0.00    -0.248 NA
ATOM     45  C   UNL A   1      38.750  28.666  27.705  1.00  0.00     0.031 C 
ATOM     46  C   UNL A   1      37.288  31.577  31.546  1.00  0.00     0.029 A 
ATOM     47  N   UNL A   1      39.206  30.451  31.774  1.00  0.00    -0.354 N 
ATOM     48  C   UNL A   1      40.605  27.775  28.707  1.00  0.00     0.074 A 
ATOM     49  C   UNL A   1      39.701  27.751  27.577  1.00  0.00     0.031 C 
ATOM     50  C   UNL A   1      37.755  31.823  32.781  1.00  0.00     0.029 A 
ATOM     51  C   UNL A   1      38.996  31.083  32.979  1.00  0.00     0.049 A 
ATOM     52  H   UNL A   1      39.994  29.890  31.591  1.00  0.00     0.167 HD
ATOM     53  C   UNL A   1      41.732  27.027  28.797  1.00  0.00     0.034 A 
ATOM     54  C   UNL A   1      39.716  31.065  34.119  1.00  0.00     0.034 A 
ATOM     55  C   UNL A   1      42.661  27.092  29.893  1.00  0.00     0.049 A 
ATOM     56  C   UNL A   1      40.998  30.277  34.166  1.00  0.00     0.074 A 
ATOM     57  C   UNL A   1      43.883  26.456  30.022  1.00  0.00     0.029 A 
ATOM     58  N   UNL A   1      42.470  27.831  31.050  1.00  0.00    -0.354 N 
ATOM     59  N   UNL A   1      41.549  29.542  33.231  1.00  0.00    -0.248 NA
ATOM     60  C   UNL A   1      41.777  30.346  35.411  1.00  0.00     0.031 C 
ATOM     61  C   UNL A   1      44.424  26.797  31.267  1.00  0.00     0.029 A 
ATOM     62  C   UNL A   1      43.548  27.661  31.902  1.00  0.00     0.049 A 
ATOM     63  H   UNL A   1      41.684  28.393  31.238  1.00  0.00     0.167 HD
ATOM     64  C   UNL A   1      42.753  29.092  33.760  1.00  0.00     0.074 A 
ATOM     65  C   UNL A   1      42.862  29.654  35.090  1.00  0.00     0.031 C 
ATOM     66  C   UNL A   1      43.676  28.272  33.200  1.00  0.00     0.034 A 
BRANCH  53  67
ATOM     67  C   UNL A   1      42.061  26.115  27.642  1.00  0.00     0.023 A 
ATOM     68  C   UNL A   1      42.830  26.609  26.568  1.00  0.00     0.012 A 
ATOM     69  C   UNL A   1      41.673  24.761  27.650  1.00  0.00     0.148 A 
ATOM     70  C   UNL A   1      43.177  25.780  25.503  1.00  0.00     0.002 A 
ATOM     71  C   UNL A   1      42.059  23.930  26.604  1.00  0.00     0.091 A 
ATOM     72  F   UNL A   1      40.926  24.314  28.670  1.00  0.00    -0.205 F 
ATOM     73  C   UNL A   1      42.800  24.439  25.526  1.00  0.00     0.022 A 
BRANCH  71  74
ATOM     74  S   UNL A   1      41.692  22.171  26.579  1.00  0.00     0.127 S 
ATOM     75  O   UNL A   1      42.281  21.729  27.842  1.00  0.00    -0.237 OA
ATOM     76  O   UNL A   1      40.228  22.161  26.554  1.00  0.00    -0.237 OA
ATOM     77  O   UNL A   1      42.322  21.646  25.377  1.00  0.00    -0.744 OA
ENDBRANCH  71  74
ENDBRANCH  53  67
BRANCH  54  78
ATOM     78  C   UNL A   1      39.279  31.880  35.288  1.00  0.00     0.023 A 
ATOM     79  C   UNL A   1      38.419  31.306  36.245  1.00  0.00     0.012 A 
ATOM     80  C   UNL A   1      39.726  33.202  35.473  1.00  0.00     0.148 A 
ATOM     81  C   UNL A   1      37.986  32.044  37.347  1.00  0.00     0.002 A 
ATOM     82  C   UNL A   1      39.335  33.914  36.602  1.00  0.00     0.091 A 
ATOM     83  F   UNL A   1      40.532  33.737  34.545  1.00  0.00    -0.205 F 
ATOM     84  C   UNL A   1      38.451  33.343  37.532  1.00  0.00     0.022 A 
BRANCH  82  85
ATOM     85  S   UNL A   1      39.989  35.542  36.986  1.00  0.00     0.127 S 
ATOM     86  O   UNL A   1      39.353  35.825  38.271  1.00  0.00    -0.237 OA
ATOM     87  O   UNL A   1      41.428  35.283  37.055  1.00  0.00    -0.237 OA
ATOM     88  O   UNL A   1      39.588  36.395  35.876  1.00  0.00    -0.744 OA
ENDBRANCH  82  85
ENDBRANCH  54  78
BRANCH  66  89
ATOM     89  C   UNL A   1      44.910  27.953  34.004  1.00  0.00     0.023 A 
ATOM     90  C   UNL A   1      46.032  28.800  33.928  1.00  0.00     0.012 A 
ATOM     91  C   UNL A   1      44.928  26.859  34.892  1.00  0.00     0.148 A 
ATOM     92  C   UNL A   1      47.165  28.549  34.701  1.00  0.00     0.002 A 
ATOM     93  C   UNL A   1      46.042  26.641  35.694  1.00  0.00     0.091 A 
ATOM     94  F   UNL A   1      43.858  26.051  34.935  1.00  0.00    -0.205 F 
ATOM     95  C   UNL A   1      47.165  27.478  35.593  1.00  0.00     0.022 A 
BRANCH  93  96
ATOM     96  S   UNL A   1      46.092  25.345  36.937  1.00  0.00     0.127 S 
ATOM     97  O   UNL A   1      46.192  24.143  36.110  1.00  0.00    -0.237 OA
ATOM     98  O   UNL A   1      47.307  25.674  37.683  1.00  0.00    -0.237 OA
ATOM     99  O   UNL A   1      44.860  25.478  37.703  1.00  0.00    -0.744 OA
ENDBRANCH  93  96
ENDBRANCH  66  89
ENDBRANCH  40  41
ENDBRANCH  32  35
ENDBRANCH  30  31
ENDBRANCH  29  30
ENDBRANCH   1  29
TORSDOF 19
ENDMDL
MODEL 3
REMARK VINA RESULT:     -11.5      5.485      8.622
REMARK SMILES CC[C@](C)([NH3+])C(=O)Nc1ccc(C(F)(F)F)cc1C(=O)NCCCCNC(=O)c1ccc(-c2c3nc(c(-c4cccc(S(=O)(=O)[O-])c4F)c4ccc([nH]4)c(-c4cccc(S(=O)(=O)[O-])c4F)c4nc(c(-c5cccc(S(=O)(=O)[O-])c5F)c5ccc2[nH]5)C=C4)C=C3)cc1
REMARK SMILES IDX 23 1 22 2 21 3 19 4 20 5 18 7 9 8 10 9 11 10 17 11 12 12
REMARK SMILES IDX 8 13 6 14 7 15 3 17 4 18 2 19 1 20 5 21 13 25 14 26 15 27
REMARK SMILES IDX 16 28 24 29 25 30 26 31 27 32 28 34 29 35 30 36 91 37 31 38
REMARK SMILES IDX 90 39 32 40 33 41 34 42 84 43 35 44 89 45 83 46 85 47 36 48
REMARK SMILES IDX 88 49 82 50 81 51 37 53 69 54 49 55 68 56 50 57 53 58 67 59
REMARK SMILES IDX 86 60 51 61 52 62 66 64 87 65 54 66 38 67 39 68 47 69 40 70
REMARK SMILES IDX 42 71 48 72 41 73 43 74 44 75 45 76 46 77 70 78 71 79 79 80
REMARK SMILES IDX 72 81 74 82 80 83 73 84 75 85 76 86 77 87 78 88 55 89 56 90
REMARK SMILES IDX 64 91 57 92 59 93 65 94 58 95 60 96 61 97 62 98 63 99
REMARK H PARENT 21 6 8 16 5 22 5 23 5 24 26 33 85 52 53 63
REMARK Flexibility Score: inf
ROOT
ATOM      1  C   UNL A   1      31.497  27.769  26.900  1.00  0.00     0.023 C 
ENDROOT
BRANCH   1   2
ATOM      2  C   UNL A   1      31.588  26.380  26.276  1.00  0.00     0.116 C 
BRANCH   2   3
ATOM      3  N   UNL A   1      30.758  25.363  26.874  1.00  0.00    -0.352 N 
ATOM      4  C   UNL A   1      30.584  24.035  26.552  1.00  0.00     0.253 C 
ATOM      5  O   UNL A   1      29.806  23.388  27.260  1.00  0.00    -0.269 OA
ATOM      6  H   UNL A   1      30.224  25.671  27.643  1.00  0.00     0.163 HD
BRANCH   4   7
ATOM      7  C   UNL A   1      31.174  23.342  25.346  1.00  0.00     0.063 A 
ATOM      8  C   UNL A   1      31.036  23.656  23.984  1.00  0.00     0.054 A 
ATOM      9  C   UNL A   1      31.405  22.702  23.017  1.00  0.00     0.027 A 
ATOM     10  C   UNL A   1      32.118  21.557  23.361  1.00  0.00     0.015 A 
ATOM     11  C   UNL A   1      31.944  22.193  25.670  1.00  0.00     0.029 A 
ATOM     12  C   UNL A   1      32.465  21.330  24.690  1.00  0.00     0.056 A 
BRANCH   8  13
ATOM     13  N   UNL A   1      30.558  24.842  23.416  1.00  0.00    -0.320 N 
ATOM     14  C   UNL A   1      31.171  25.945  22.892  1.00  0.00     0.285 C 
ATOM     15  O   UNL A   1      30.393  26.870  22.605  1.00  0.00    -0.267 OA
ATOM     16  H   UNL A   1      29.575  24.893  23.389  1.00  0.00     0.170 HD
BRANCH  14  17
ATOM     17  C   UNL A   1      32.669  26.007  22.462  1.00  0.00     0.171 C 
ATOM     18  C   UNL A   1      32.854  25.167  21.184  1.00  0.00     0.090 C 
BRANCH  17  19
ATOM     19  C   UNL A   1      33.553  25.491  23.620  1.00  0.00     0.075 C 
ATOM     20  C   UNL A   1      34.612  24.476  23.208  1.00  0.00     0.011 C 
ENDBRANCH  17  19
BRANCH  17  21
ATOM     21  N   UNL A   1      33.100  27.370  22.121  1.00  0.00    -0.345 N 
ATOM     22  H   UNL A   1      32.616  27.678  21.277  1.00  0.00     0.345 HD
ATOM     23  H   UNL A   1      34.107  27.377  21.958  1.00  0.00     0.345 HD
ATOM     24  H   UNL A   1      32.875  28.000  22.891  1.00  0.00     0.345 HD
ENDBRANCH  17  21
ENDBRANCH  14  17
ENDBRANCH   8  13
BRANCH  12  25
ATOM     25  C   UNL A   1      33.374  20.177  25.042  1.00  0.00     0.416 C 
ATOM     26  F   UNL A   1      32.932  19.468  26.116  1.00  0.00    -0.166 F 
ATOM     27  F   UNL A   1      33.473  19.275  24.022  1.00  0.00    -0.166 F 
ATOM     28  F   UNL A   1      34.651  20.547  25.327  1.00  0.00    -0.166 F 
ENDBRANCH  12  25
ENDBRANCH   4   7
ENDBRANCH   2   3
ENDBRANCH   1   2
BRANCH   1  29
ATOM     29  C   UNL A   1      31.422  28.942  25.914  1.00  0.00     0.023 C 
BRANCH  29  30
ATOM     30  C   UNL A   1      32.648  29.853  25.804  1.00  0.00     0.116 C 
BRANCH  30  31
ATOM     31  N   UNL A   1      32.449  31.200  26.324  1.00  0.00    -0.352 N 
ATOM     32  C   UNL A   1      33.190  31.926  27.235  1.00  0.00     0.251 C 
ATOM     33  H   UNL A   1      31.657  31.666  25.971  1.00  0.00     0.163 HD
ATOM     34  O   UNL A   1      32.793  33.014  27.627  1.00  0.00    -0.269 OA
BRANCH  32  35
ATOM     35  C   UNL A   1      34.461  31.375  27.763  1.00  0.00     0.039 A 
ATOM     36  C   UNL A   1      35.528  32.243  28.009  1.00  0.00     0.014 A 
ATOM     37  C   UNL A   1      34.598  30.010  28.023  1.00  0.00     0.014 A 
ATOM     38  C   UNL A   1      36.691  31.759  28.620  1.00  0.00     0.010 A 
ATOM     39  C   UNL A   1      35.724  29.544  28.699  1.00  0.00     0.010 A 
ATOM     40  C   UNL A   1      36.777  30.415  29.021  1.00  0.00    -0.014 A 
BRANCH  40  41
ATOM     41  C   UNL A   1      37.927  29.915  29.824  1.00  0.00     0.031 A 
ATOM     42  C   UNL A   1      38.171  30.426  31.220  1.00  0.00     0.074 A 
ATOM     43  C   UNL A   1      38.825  29.086  29.252  1.00  0.00     0.049 A 
ATOM     44  N   UNL A   1      39.161  30.162  32.033  1.00  0.00    -0.248 NA
ATOM     45  C   UNL A   1      37.191  31.382  31.761  1.00  0.00     0.031 C 
ATOM     46  C   UNL A   1      38.762  28.591  27.874  1.00  0.00     0.029 A 
ATOM     47  N   UNL A   1      39.984  28.538  29.746  1.00  0.00    -0.354 N 
ATOM     48  C   UNL A   1      38.950  30.947  33.160  1.00  0.00     0.074 A 
ATOM     49  C   UNL A   1      37.750  31.719  32.915  1.00  0.00     0.031 C 
ATOM     50  C   UNL A   1      39.831  27.816  27.634  1.00  0.00     0.029 A 
ATOM     51  C   UNL A   1      40.671  27.776  28.827  1.00  0.00     0.049 A 
ATOM     52  H   UNL A   1      40.294  28.676  30.670  1.00  0.00     0.167 HD
ATOM     53  C   UNL A   1      39.668  30.999  34.307  1.00  0.00     0.034 A 
ATOM     54  C   UNL A   1      41.847  27.125  28.929  1.00  0.00     0.034 A 
ATOM     55  C   UNL A   1      40.827  30.190  34.574  1.00  0.00     0.049 A 
ATOM     56  C   UNL A   1      42.589  27.148  30.238  1.00  0.00     0.074 A 
ATOM     57  C   UNL A   1      41.556  30.093  35.747  1.00  0.00     0.029 A 
ATOM     58  N   UNL A   1      41.431  29.344  33.657  1.00  0.00    -0.354 N 
ATOM     59  N   UNL A   1      42.272  27.755  31.355  1.00  0.00    -0.248 NA
ATOM     60  C   UNL A   1      43.832  26.366  30.312  1.00  0.00     0.031 C 
ATOM     61  C   UNL A   1      42.612  29.200  35.533  1.00  0.00     0.029 A 
ATOM     62  C   UNL A   1      42.527  28.727  34.234  1.00  0.00     0.049 A 
ATOM     63  H   UNL A   1      41.125  29.204  32.732  1.00  0.00     0.167 HD
ATOM     64  C   UNL A   1      43.253  27.401  32.274  1.00  0.00     0.074 A 
ATOM     65  C   UNL A   1      44.164  26.508  31.588  1.00  0.00     0.031 C 
ATOM     66  C   UNL A   1      43.395  27.793  33.563  1.00  0.00     0.034 A 
BRANCH  53  67
ATOM     67  C   UNL A   1      39.183  31.922  35.396  1.00  0.00     0.023 A 
ATOM     68  C   UNL A   1      38.234  31.453  36.329  1.00  0.00     0.012 A 
ATOM     69  C   UNL A   1      39.709  33.220  35.540  1.00  0.00     0.148 A 
ATOM     70  C   UNL A   1      37.790  32.273  37.365  1.00  0.00     0.002 A 
ATOM     71  C   UNL A   1      39.293  34.017  36.601  1.00  0.00     0.091 A 
ATOM     72  F   UNL A   1      40.596  33.656  34.633  1.00  0.00    -0.205 F 
ATOM     73  C   UNL A   1      38.328  33.550  37.507  1.00  0.00     0.022 A 
BRANCH  71  74
ATOM     74  S   UNL A   1      39.983  35.646  36.917  1.00  0.00     0.127 S 
ATOM     75  O   UNL A   1      39.292  36.024  38.149  1.00  0.00    -0.237 OA
ATOM     76  O   UNL A   1      41.407  35.352  37.084  1.00  0.00    -0.237 OA
ATOM     77  O   UNL A   1      39.663  36.451  35.748  1.00  0.00    -0.744 OA
ENDBRANCH  71  74
ENDBRANCH  53  67
BRANCH  54  78
ATOM     78  C   UNL A   1      42.359  26.330  27.776  1.00  0.00     0.023 A 
ATOM     79  C   UNL A   1      43.279  26.920  26.888  1.00  0.00     0.012 A 
ATOM     80  C   UNL A   1      41.964  24.995  27.567  1.00  0.00     0.148 A 
ATOM     81  C   UNL A   1      43.773  26.206  25.795  1.00  0.00     0.002 A 
ATOM     82  C   UNL A   1      42.502  24.271  26.508  1.00  0.00     0.091 A 
ATOM     83  F   UNL A   1      41.076  24.454  28.414  1.00  0.00    -0.205 F 
ATOM     84  C   UNL A   1      43.393  24.880  25.611  1.00  0.00     0.022 A 
BRANCH  82  85
ATOM     85  S   UNL A   1      42.170  22.521  26.273  1.00  0.00     0.127 S 
ATOM     86  O   UNL A   1      42.726  21.944  27.494  1.00  0.00    -0.237 OA
ATOM     87  O   UNL A   1      40.708  22.498  26.191  1.00  0.00    -0.237 OA
ATOM     88  O   UNL A   1      42.843  22.159  25.034  1.00  0.00    -0.744 OA
ENDBRANCH  82  85
ENDBRANCH  54  78
BRANCH  66  89
ATOM     89  C   UNL A   1      44.560  27.238  34.342  1.00  0.00     0.023 A 
ATOM     90  C   UNL A   1      45.767  27.961  34.402  1.00  0.00     0.012 A 
ATOM     91  C   UNL A   1      44.431  26.043  35.077  1.00  0.00     0.148 A 
ATOM     92  C   UNL A   1      46.840  27.488  35.158  1.00  0.00     0.002 A 
ATOM     93  C   UNL A   1      45.487  25.602  35.865  1.00  0.00     0.091 A 
ATOM     94  F   UNL A   1      43.281  25.359  34.990  1.00  0.00    -0.205 F 
ATOM     95  C   UNL A   1      46.696  26.317  35.899  1.00  0.00     0.022 A 
BRANCH  93  96
ATOM     96  S   UNL A   1      45.357  24.158  36.925  1.00  0.00     0.127 S 
ATOM     97  O   UNL A   1      46.743  23.972  37.349  1.00  0.00    -0.237 OA
ATOM     98  O   UNL A   1      44.455  24.624  37.979  1.00  0.00    -0.237 OA
ATOM     99  O   UNL A   1      44.808  23.097  36.090  1.00  0.00    -0.744 OA
ENDBRANCH  93  96
ENDBRANCH  66  89
ENDBRANCH  40  41
ENDBRANCH  32  35
ENDBRANCH  30  31
ENDBRANCH  29  30
ENDBRANCH   1  29
TORSDOF 19
ENDMDL
