MODEL 1
REMARK VINA RESULT:     -10.6      0.000      0.000
REMARK SMILES NC(=O)C[C@@H](NC(=O)c1ccc(CO)cc1)C(=O)NCCCCNC(=O)c1ccc(-c2c3nc(c(-c4cccc(S(=O)(=O)[O-])c4F)c4ccc([nH]4)c(-c4cccc(S(=O)(=O)[O-])c4F)c4nc(c(-c5cccc(S(=O)(=O)[O-])c5F)c5ccc2[nH]5)C=C4)C=C3)cc1
REMARK SMILES IDX 21 1 20 2 19 3 17 4 18 5 5 7 4 8 2 9 1 10 3 13 6 14 7 15
REMARK SMILES IDX 8 17 9 18 10 19 16 20 11 21 15 22 12 23 13 24 14 25 22 27
REMARK SMILES IDX 23 28 24 29 25 30 26 32 27 33 28 34 89 35 29 36 88 37 30 38
REMARK SMILES IDX 31 39 32 40 82 41 33 42 87 43 81 44 83 45 34 46 86 47 80 48
REMARK SMILES IDX 79 49 35 51 67 52 47 53 66 54 48 55 51 56 65 57 84 58 49 59
REMARK SMILES IDX 50 60 64 62 85 63 52 64 36 65 37 66 45 67 38 68 40 69 46 70
REMARK SMILES IDX 39 71 41 72 42 73 43 74 44 75 68 76 69 77 77 78 70 79 72 80
REMARK SMILES IDX 78 81 71 82 73 83 74 84 75 85 76 86 53 87 54 88 62 89 55 90
REMARK SMILES IDX 57 91 63 92 56 93 58 94 59 95 60 96 61 97
REMARK H PARENT 19 6 1 11 1 12 6 16 14 26 24 31 83 50 51 61
REMARK Flexibility Score: inf
ROOT
ATOM      1  C   UNL A   1      32.771  26.847  26.350  1.00  0.00     0.023 C 
ENDROOT
BRANCH   1   2
ATOM      2  C   UNL A   1      31.462  26.080  26.190  1.00  0.00     0.116 C 
BRANCH   2   3
ATOM      3  N   UNL A   1      31.548  24.771  26.808  1.00  0.00    -0.354 N 
ATOM      4  C   UNL A   1      32.396  23.738  26.557  1.00  0.00     0.243 C 
ATOM      5  O   UNL A   1      32.183  22.664  27.126  1.00  0.00    -0.273 OA
ATOM      6  H   UNL A   1      30.889  24.605  27.521  1.00  0.00     0.163 HD
BRANCH   4   7
ATOM      7  C   UNL A   1      33.490  23.833  25.477  1.00  0.00     0.180 C 
BRANCH   7   8
ATOM      8  C   UNL A   1      34.757  23.278  26.154  1.00  0.00     0.134 C 
BRANCH   8   9
ATOM      9  C   UNL A   1      35.755  22.715  25.183  1.00  0.00     0.220 C 
ATOM     10  N   UNL A   1      36.857  23.493  24.974  1.00  0.00    -0.370 N 
ATOM     11  H   UNL A   1      37.559  23.195  24.351  1.00  0.00     0.159 HD
ATOM     12  H   UNL A   1      36.951  24.352  25.446  1.00  0.00     0.159 HD
ATOM     13  O   UNL A   1      35.617  21.641  24.613  1.00  0.00    -0.275 OA
ENDBRANCH   8   9
ENDBRANCH   7   8
BRANCH   7  14
ATOM     14  N   UNL A   1      33.207  23.190  24.178  1.00  0.00    -0.340 N 
ATOM     15  C   UNL A   1      33.193  23.716  22.904  1.00  0.00     0.251 C 
ATOM     16  H   UNL A   1      32.993  22.231  24.231  1.00  0.00     0.164 HD
ATOM     17  O   UNL A   1      33.309  22.956  21.946  1.00  0.00    -0.269 OA
BRANCH  15  18
ATOM     18  C   UNL A   1      32.850  25.134  22.675  1.00  0.00     0.039 A 
ATOM     19  C   UNL A   1      31.495  25.436  22.495  1.00  0.00     0.014 A 
ATOM     20  C   UNL A   1      33.796  26.156  22.730  1.00  0.00     0.014 A 
ATOM     21  C   UNL A   1      31.072  26.763  22.519  1.00  0.00     0.007 A 
ATOM     22  C   UNL A   1      33.365  27.487  22.763  1.00  0.00     0.007 A 
ATOM     23  C   UNL A   1      31.998  27.799  22.702  1.00  0.00    -0.023 A 
BRANCH  23  24
ATOM     24  C   UNL A   1      31.514  29.211  22.906  1.00  0.00     0.191 C 
BRANCH  24  25
ATOM     25  O   UNL A   1      31.160  29.787  21.661  1.00  0.00    -0.392 OA
ATOM     26  H   UNL A   1      30.866  29.089  21.054  1.00  0.00     0.211 HD
ENDBRANCH  24  25
ENDBRANCH  23  24
ENDBRANCH  15  18
ENDBRANCH   7  14
ENDBRANCH   4   7
ENDBRANCH   2   3
ENDBRANCH   1   2
BRANCH   1  27
ATOM     27  C   UNL A   1      32.595  28.353  26.568  1.00  0.00     0.023 C 
BRANCH  27  28
ATOM     28  C   UNL A   1      33.813  29.204  26.220  1.00  0.00     0.116 C 
BRANCH  28  29
ATOM     29  N   UNL A   1      33.752  30.535  26.805  1.00  0.00    -0.352 N 
ATOM     30  C   UNL A   1      34.589  31.101  27.737  1.00  0.00     0.251 C 
ATOM     31  H   UNL A   1      33.014  31.107  26.492  1.00  0.00     0.163 HD
ATOM     32  O   UNL A   1      34.309  32.184  28.245  1.00  0.00    -0.269 OA
BRANCH  30  33
ATOM     33  C   UNL A   1      35.810  30.377  28.139  1.00  0.00     0.039 A 
ATOM     34  C   UNL A   1      36.939  30.442  27.318  1.00  0.00     0.014 A 
ATOM     35  C   UNL A   1      35.848  29.681  29.350  1.00  0.00     0.014 A 
ATOM     36  C   UNL A   1      38.135  29.866  27.750  1.00  0.00     0.010 A 
ATOM     37  C   UNL A   1      37.056  29.161  29.804  1.00  0.00     0.010 A 
ATOM     38  C   UNL A   1      38.211  29.253  29.011  1.00  0.00    -0.014 A 
BRANCH  38  39
ATOM     39  C   UNL A   1      39.498  28.732  29.539  1.00  0.00     0.031 A 
ATOM     40  C   UNL A   1      40.207  29.453  30.652  1.00  0.00     0.074 A 
ATOM     41  C   UNL A   1      40.077  27.671  28.944  1.00  0.00     0.049 A 
ATOM     42  N   UNL A   1      41.367  29.187  31.195  1.00  0.00    -0.248 NA
ATOM     43  C   UNL A   1      39.540  30.640  31.209  1.00  0.00     0.031 C 
ATOM     44  C   UNL A   1      39.527  26.940  27.799  1.00  0.00     0.029 A 
ATOM     45  N   UNL A   1      41.271  27.043  29.196  1.00  0.00    -0.354 N 
ATOM     46  C   UNL A   1      41.586  30.192  32.128  1.00  0.00     0.074 A 
ATOM     47  C   UNL A   1      40.452  31.087  32.061  1.00  0.00     0.031 C 
ATOM     48  C   UNL A   1      40.384  25.969  27.445  1.00  0.00     0.029 A 
ATOM     49  C   UNL A   1      41.553  26.021  28.318  1.00  0.00     0.049 A 
ATOM     50  H   UNL A   1      41.869  27.300  29.933  1.00  0.00     0.167 HD
ATOM     51  C   UNL A   1      42.623  30.339  32.987  1.00  0.00     0.034 A 
ATOM     52  C   UNL A   1      42.633  25.223  28.223  1.00  0.00     0.034 A 
ATOM     53  C   UNL A   1      43.723  29.421  33.086  1.00  0.00     0.049 A 
ATOM     54  C   UNL A   1      43.750  25.378  29.219  1.00  0.00     0.074 A 
ATOM     55  C   UNL A   1      44.767  29.424  33.995  1.00  0.00     0.029 A 
ATOM     56  N   UNL A   1      43.929  28.339  32.245  1.00  0.00    -0.354 N 
ATOM     57  N   UNL A   1      43.852  26.225  30.215  1.00  0.00    -0.248 NA
ATOM     58  C   UNL A   1      44.882  24.447  29.103  1.00  0.00     0.031 C 
ATOM     59  C   UNL A   1      45.613  28.351  33.692  1.00  0.00     0.029 A 
ATOM     60  C   UNL A   1      45.088  27.672  32.605  1.00  0.00     0.049 A 
ATOM     61  H   UNL A   1      43.337  28.082  31.501  1.00  0.00     0.167 HD
ATOM     62  C   UNL A   1      45.042  25.911  30.862  1.00  0.00     0.074 A 
ATOM     63  C   UNL A   1      45.614  24.781  30.159  1.00  0.00     0.031 C 
ATOM     64  C   UNL A   1      45.617  26.514  31.931  1.00  0.00     0.034 A 
BRANCH  51  65
ATOM     65  C   UNL A   1      42.583  31.509  33.935  1.00  0.00     0.023 A 
ATOM     66  C   UNL A   1      43.104  32.752  33.519  1.00  0.00     0.012 A 
ATOM     67  C   UNL A   1      41.981  31.401  35.203  1.00  0.00     0.148 A 
ATOM     68  C   UNL A   1      43.058  33.860  34.363  1.00  0.00     0.002 A 
ATOM     69  C   UNL A   1      41.902  32.520  36.023  1.00  0.00     0.091 A 
ATOM     70  F   UNL A   1      41.511  30.206  35.590  1.00  0.00    -0.205 F 
ATOM     71  C   UNL A   1      42.448  33.747  35.609  1.00  0.00     0.022 A 
BRANCH  69  72
ATOM     72  S   UNL A   1      41.069  32.494  37.615  1.00  0.00     0.127 S 
ATOM     73  O   UNL A   1      41.948  31.624  38.394  1.00  0.00    -0.237 OA
ATOM     74  O   UNL A   1      41.105  33.905  38.007  1.00  0.00    -0.237 OA
ATOM     75  O   UNL A   1      39.734  31.972  37.358  1.00  0.00    -0.744 OA
ENDBRANCH  69  72
ENDBRANCH  51  65
BRANCH  52  76
ATOM     76  C   UNL A   1      42.675  24.155  27.184  1.00  0.00     0.023 A 
ATOM     77  C   UNL A   1      43.401  24.375  25.998  1.00  0.00     0.012 A 
ATOM     78  C   UNL A   1      42.039  22.914  27.379  1.00  0.00     0.148 A 
ATOM     79  C   UNL A   1      43.472  23.389  25.013  1.00  0.00     0.002 A 
ATOM     80  C   UNL A   1      42.158  21.916  26.418  1.00  0.00     0.091 A 
ATOM     81  F   UNL A   1      41.339  22.727  28.508  1.00  0.00    -0.205 F 
ATOM     82  C   UNL A   1      42.861  22.157  25.227  1.00  0.00     0.022 A 
BRANCH  80  83
ATOM     83  S   UNL A   1      41.519  20.256  26.673  1.00  0.00     0.127 S 
ATOM     84  O   UNL A   1      42.210  19.855  27.896  1.00  0.00    -0.237 OA
ATOM     85  O   UNL A   1      40.085  20.502  26.828  1.00  0.00    -0.237 OA
ATOM     86  O   UNL A   1      41.870  19.514  25.470  1.00  0.00    -0.744 OA
ENDBRANCH  80  83
ENDBRANCH  52  76
BRANCH  64  87
ATOM     87  C   UNL A   1      46.925  25.959  32.429  1.00  0.00     0.023 A 
ATOM     88  C   UNL A   1      46.925  25.017  33.478  1.00  0.00     0.012 A 
ATOM     89  C   UNL A   1      48.140  26.301  31.804  1.00  0.00     0.148 A 
ATOM     90  C   UNL A   1      48.119  24.443  33.912  1.00  0.00     0.002 A 
ATOM     91  C   UNL A   1      49.320  25.690  32.213  1.00  0.00     0.091 A 
ATOM     92  F   UNL A   1      48.120  27.213  30.822  1.00  0.00    -0.205 F 
ATOM     93  C   UNL A   1      49.312  24.768  33.272  1.00  0.00     0.022 A 
BRANCH  91  94
ATOM     94  S   UNL A   1      50.889  25.979  31.386  1.00  0.00     0.127 S 
ATOM     95  O   UNL A   1      50.762  25.131  30.201  1.00  0.00    -0.237 OA
ATOM     96  O   UNL A   1      50.839  27.416  31.116  1.00  0.00    -0.237 OA
ATOM     97  O   UNL A   1      51.919  25.579  32.334  1.00  0.00    -0.744 OA
ENDBRANCH  91  94
ENDBRANCH  64  87
ENDBRANCH  38  39
ENDBRANCH  30  33
ENDBRANCH  28  29
ENDBRANCH  27  28
ENDBRANCH   1  27
TORSDOF 20
ENDMDL
MODEL 2
REMARK VINA RESULT:     -10.6      4.801      8.048
REMARK SMILES NC(=O)C[C@@H](NC(=O)c1ccc(CO)cc1)C(=O)NCCCCNC(=O)c1ccc(-c2c3nc(c(-c4cccc(S(=O)(=O)[O-])c4F)c4ccc([nH]4)c(-c4cccc(S(=O)(=O)[O-])c4F)c4nc(c(-c5cccc(S(=O)(=O)[O-])c5F)c5ccc2[nH]5)C=C4)C=C3)cc1
REMARK SMILES IDX 21 1 20 2 19 3 17 4 18 5 5 7 4 8 2 9 1 10 3 13 6 14 7 15
REMARK SMILES IDX 8 17 9 18 10 19 16 20 11 21 15 22 12 23 13 24 14 25 22 27
REMARK SMILES IDX 23 28 24 29 25 30 26 32 27 33 28 34 89 35 29 36 88 37 30 38
REMARK SMILES IDX 31 39 32 40 82 41 33 42 87 43 81 44 83 45 34 46 86 47 80 48
REMARK SMILES IDX 79 49 35 51 67 52 47 53 66 54 48 55 51 56 65 57 84 58 49 59
REMARK SMILES IDX 50 60 64 62 85 63 52 64 36 65 37 66 45 67 38 68 40 69 46 70
REMARK SMILES IDX 39 71 41 72 42 73 43 74 44 75 68 76 69 77 77 78 70 79 72 80
REMARK SMILES IDX 78 81 71 82 73 83 74 84 75 85 76 86 53 87 54 88 62 89 55 90
REMARK SMILES IDX 57 91 63 92 56 93 58 94 59 95 60 96 61 97
REMARK H PARENT 19 6 1 11 1 12 6 16 14 26 24 31 83 50 51 61
REMARK Flexibility Score: inf
ROOT
ATOM      1  C   UNL A   1      36.709  19.805  24.933  1.00  0.00     0.023 C 
ENDROOT
BRANCH   1   2
ATOM      2  C   UNL A   1      35.509  20.691  25.255  1.00  0.00     0.116 C 
BRANCH   2   3
ATOM      3  N   UNL A   1      34.273  19.936  25.187  1.00  0.00    -0.354 N 
ATOM      4  C   UNL A   1      32.984  20.367  25.132  1.00  0.00     0.243 C 
ATOM      5  O   UNL A   1      32.088  19.524  25.218  1.00  0.00    -0.273 OA
ATOM      6  H   UNL A   1      34.385  18.958  25.180  1.00  0.00     0.163 HD
BRANCH   4   7
ATOM      7  C   UNL A   1      32.633  21.867  25.130  1.00  0.00     0.180 C 
BRANCH   7   8
ATOM      8  C   UNL A   1      31.960  22.109  23.766  1.00  0.00     0.134 C 
BRANCH   8   9
ATOM      9  C   UNL A   1      32.754  23.006  22.859  1.00  0.00     0.220 C 
ATOM     10  N   UNL A   1      32.020  23.945  22.192  1.00  0.00    -0.370 N 
ATOM     11  H   UNL A   1      32.466  24.572  21.578  1.00  0.00     0.159 HD
ATOM     12  H   UNL A   1      31.047  23.995  22.326  1.00  0.00     0.159 HD
ATOM     13  O   UNL A   1      33.966  22.926  22.715  1.00  0.00    -0.275 OA
ENDBRANCH   8   9
ENDBRANCH   7   8
BRANCH   7  14
ATOM     14  N   UNL A   1      31.828  22.368  26.263  1.00  0.00    -0.340 N 
ATOM     15  C   UNL A   1      31.264  23.606  26.480  1.00  0.00     0.251 C 
ATOM     16  H   UNL A   1      31.669  21.710  26.978  1.00  0.00     0.164 HD
ATOM     17  O   UNL A   1      30.336  23.705  27.278  1.00  0.00    -0.269 OA
BRANCH  15  18
ATOM     18  C   UNL A   1      31.882  24.826  25.923  1.00  0.00     0.039 A 
ATOM     19  C   UNL A   1      31.027  25.733  25.284  1.00  0.00     0.014 A 
ATOM     20  C   UNL A   1      33.230  25.136  26.098  1.00  0.00     0.014 A 
ATOM     21  C   UNL A   1      31.489  27.005  24.955  1.00  0.00     0.007 A 
ATOM     22  C   UNL A   1      33.686  26.418  25.773  1.00  0.00     0.007 A 
ATOM     23  C   UNL A   1      32.810  27.376  25.240  1.00  0.00    -0.023 A 
BRANCH  23  24
ATOM     24  C   UNL A   1      33.247  28.805  25.046  1.00  0.00     0.191 C 
BRANCH  24  25
ATOM     25  O   UNL A   1      32.202  29.555  24.453  1.00  0.00    -0.392 OA
ATOM     26  H   UNL A   1      31.842  30.179  25.103  1.00  0.00     0.211 HD
ENDBRANCH  24  25
ENDBRANCH  23  24
ENDBRANCH  15  18
ENDBRANCH   7  14
ENDBRANCH   4   7
ENDBRANCH   2   3
ENDBRANCH   1   2
BRANCH   1  27
ATOM     27  C   UNL A   1      38.029  20.567  24.781  1.00  0.00     0.023 C 
BRANCH  27  28
ATOM     28  C   UNL A   1      38.919  20.574  26.021  1.00  0.00     0.116 C 
BRANCH  28  29
ATOM     29  N   UNL A   1      39.880  19.481  26.027  1.00  0.00    -0.352 N 
ATOM     30  C   UNL A   1      41.248  19.544  26.140  1.00  0.00     0.251 C 
ATOM     31  H   UNL A   1      39.500  18.577  25.940  1.00  0.00     0.163 HD
ATOM     32  O   UNL A   1      41.931  18.537  25.971  1.00  0.00    -0.269 OA
BRANCH  30  33
ATOM     33  C   UNL A   1      41.886  20.842  26.436  1.00  0.00     0.039 A 
ATOM     34  C   UNL A   1      42.146  21.725  25.385  1.00  0.00     0.014 A 
ATOM     35  C   UNL A   1      42.175  21.199  27.755  1.00  0.00     0.014 A 
ATOM     36  C   UNL A   1      42.633  23.003  25.668  1.00  0.00     0.010 A 
ATOM     37  C   UNL A   1      42.602  22.492  28.038  1.00  0.00     0.010 A 
ATOM     38  C   UNL A   1      42.829  23.407  26.998  1.00  0.00    -0.014 A 
BRANCH  38  39
ATOM     39  C   UNL A   1      43.240  24.796  27.329  1.00  0.00     0.031 A 
ATOM     40  C   UNL A   1      42.259  25.745  27.958  1.00  0.00     0.074 A 
ATOM     41  C   UNL A   1      44.463  25.229  26.965  1.00  0.00     0.049 A 
ATOM     42  N   UNL A   1      42.414  27.009  28.256  1.00  0.00    -0.248 NA
ATOM     43  C   UNL A   1      40.923  25.214  28.270  1.00  0.00     0.031 C 
ATOM     44  C   UNL A   1      45.472  24.426  26.270  1.00  0.00     0.029 A 
ATOM     45  N   UNL A   1      45.053  26.461  27.098  1.00  0.00    -0.354 N 
ATOM     46  C   UNL A   1      41.189  27.434  28.753  1.00  0.00     0.074 A 
ATOM     47  C   UNL A   1      40.292  26.300  28.694  1.00  0.00     0.031 C 
ATOM     48  C   UNL A   1      46.552  25.189  26.033  1.00  0.00     0.029 A 
ATOM     49  C   UNL A   1      46.306  26.537  26.535  1.00  0.00     0.049 A 
ATOM     50  H   UNL A   1      44.620  27.220  27.551  1.00  0.00     0.167 HD
ATOM     51  C   UNL A   1      40.849  28.649  29.245  1.00  0.00     0.034 A 
ATOM     52  C   UNL A   1      47.156  27.576  26.427  1.00  0.00     0.034 A 
ATOM     53  C   UNL A   1      41.756  29.758  29.349  1.00  0.00     0.049 A 
ATOM     54  C   UNL A   1      46.772  28.902  27.024  1.00  0.00     0.074 A 
ATOM     55  C   UNL A   1      41.538  30.996  29.929  1.00  0.00     0.029 A 
ATOM     56  N   UNL A   1      43.051  29.769  28.857  1.00  0.00    -0.354 N 
ATOM     57  N   UNL A   1      45.671  29.232  27.655  1.00  0.00    -0.248 NA
ATOM     58  C   UNL A   1      47.758  29.989  26.926  1.00  0.00     0.031 C 
ATOM     59  C   UNL A   1      42.699  31.761  29.773  1.00  0.00     0.029 A 
ATOM     60  C   UNL A   1      43.644  30.996  29.109  1.00  0.00     0.049 A 
ATOM     61  H   UNL A   1      43.487  29.016  28.395  1.00  0.00     0.167 HD
ATOM     62  C   UNL A   1      45.843  30.553  28.056  1.00  0.00     0.074 A 
ATOM     63  C   UNL A   1      47.163  30.954  27.616  1.00  0.00     0.031 C 
ATOM     64  C   UNL A   1      44.979  31.364  28.714  1.00  0.00     0.034 A 
BRANCH  51  65
ATOM     65  C   UNL A   1      39.447  28.822  29.768  1.00  0.00     0.023 A 
ATOM     66  C   UNL A   1      39.158  28.458  31.099  1.00  0.00     0.012 A 
ATOM     67  C   UNL A   1      38.437  29.397  28.973  1.00  0.00     0.148 A 
ATOM     68  C   UNL A   1      37.877  28.631  31.621  1.00  0.00     0.002 A 
ATOM     69  C   UNL A   1      37.173  29.604  29.513  1.00  0.00     0.091 A 
ATOM     70  F   UNL A   1      38.725  29.716  27.702  1.00  0.00    -0.205 F 
ATOM     71  C   UNL A   1      36.889  29.213  30.831  1.00  0.00     0.022 A 
BRANCH  69  72
ATOM     72  S   UNL A   1      35.854  30.415  28.600  1.00  0.00     0.127 S 
ATOM     73  O   UNL A   1      35.268  31.273  29.627  1.00  0.00    -0.237 OA
ATOM     74  O   UNL A   1      36.593  31.129  27.557  1.00  0.00    -0.237 OA
ATOM     75  O   UNL A   1      34.995  29.346  28.108  1.00  0.00    -0.744 OA
ENDBRANCH  69  72
ENDBRANCH  51  65
BRANCH  52  76
ATOM     76  C   UNL A   1      48.489  27.378  25.789  1.00  0.00     0.023 A 
ATOM     77  C   UNL A   1      49.577  26.964  26.581  1.00  0.00     0.012 A 
ATOM     78  C   UNL A   1      48.675  27.556  24.405  1.00  0.00     0.148 A 
ATOM     79  C   UNL A   1      50.834  26.756  26.011  1.00  0.00     0.002 A 
ATOM     80  C   UNL A   1      49.916  27.296  23.834  1.00  0.00     0.091 A 
ATOM     81  F   UNL A   1      47.631  27.966  23.669  1.00  0.00    -0.205 F 
ATOM     82  C   UNL A   1      51.001  26.911  24.637  1.00  0.00     0.022 A 
BRANCH  80  83
ATOM     83  S   UNL A   1      50.183  27.337  22.057  1.00  0.00     0.127 S 
ATOM     84  O   UNL A   1      51.552  26.838  21.949  1.00  0.00    -0.237 OA
ATOM     85  O   UNL A   1      49.152  26.418  21.573  1.00  0.00    -0.237 OA
ATOM     86  O   UNL A   1      49.977  28.724  21.665  1.00  0.00    -0.744 OA
ENDBRANCH  80  83
ENDBRANCH  52  76
BRANCH  64  87
ATOM     87  C   UNL A   1      45.432  32.766  29.024  1.00  0.00     0.023 A 
ATOM     88  C   UNL A   1      46.182  33.012  30.191  1.00  0.00     0.012 A 
ATOM     89  C   UNL A   1      45.193  33.818  28.119  1.00  0.00     0.148 A 
ATOM     90  C   UNL A   1      46.665  34.291  30.465  1.00  0.00     0.002 A 
ATOM     91  C   UNL A   1      45.717  35.080  28.376  1.00  0.00     0.091 A 
ATOM     92  F   UNL A   1      44.461  33.567  27.024  1.00  0.00    -0.205 F 
ATOM     93  C   UNL A   1      46.445  35.320  29.553  1.00  0.00     0.022 A 
BRANCH  91  94
ATOM     94  S   UNL A   1      45.561  36.441  27.214  1.00  0.00     0.127 S 
ATOM     95  O   UNL A   1      46.043  37.569  28.011  1.00  0.00    -0.237 OA
ATOM     96  O   UNL A   1      46.457  36.033  26.132  1.00  0.00    -0.237 OA
ATOM     97  O   UNL A   1      44.153  36.492  26.845  1.00  0.00    -0.744 OA
ENDBRANCH  91  94
ENDBRANCH  64  87
ENDBRANCH  38  39
ENDBRANCH  30  33
ENDBRANCH  28  29
ENDBRANCH  27  28
ENDBRANCH   1  27
TORSDOF 20
ENDMDL
MODEL 3
REMARK VINA RESULT:     -10.4      4.537      9.253
REMARK SMILES NC(=O)C[C@@H](NC(=O)c1ccc(CO)cc1)C(=O)NCCCCNC(=O)c1ccc(-c2c3nc(c(-c4cccc(S(=O)(=O)[O-])c4F)c4ccc([nH]4)c(-c4cccc(S(=O)(=O)[O-])c4F)c4nc(c(-c5cccc(S(=O)(=O)[O-])c5F)c5ccc2[nH]5)C=C4)C=C3)cc1
REMARK SMILES IDX 21 1 20 2 19 3 17 4 18 5 5 7 4 8 2 9 1 10 3 13 6 14 7 15
REMARK SMILES IDX 8 17 9 18 10 19 16 20 11 21 15 22 12 23 13 24 14 25 22 27
REMARK SMILES IDX 23 28 24 29 25 30 26 32 27 33 28 34 89 35 29 36 88 37 30 38
REMARK SMILES IDX 31 39 32 40 82 41 33 42 87 43 81 44 83 45 34 46 86 47 80 48
REMARK SMILES IDX 79 49 35 51 67 52 47 53 66 54 48 55 51 56 65 57 84 58 49 59
REMARK SMILES IDX 50 60 64 62 85 63 52 64 36 65 37 66 45 67 38 68 40 69 46 70
REMARK SMILES IDX 39 71 41 72 42 73 43 74 44 75 68 76 69 77 77 78 70 79 72 80
REMARK SMILES IDX 78 81 71 82 73 83 74 84 75 85 76 86 53 87 54 88 62 89 55 90
REMARK SMILES IDX 57 91 63 92 56 93 58 94 59 95 60 96 61 97
REMARK H PARENT 19 6 1 11 1 12 6 16 14 26 24 31 83 50 51 61
REMARK Flexibility Score: inf
ROOT
ATOM      1  C   UNL A   1      34.540  22.437  23.836  1.00  0.00     0.023 C 
ENDROOT
BRANCH   1   2
ATOM      2  C   UNL A   1      33.016  22.497  23.854  1.00  0.00     0.116 C 
BRANCH   2   3
ATOM      3  N   UNL A   1      32.535  23.096  25.083  1.00  0.00    -0.354 N 
ATOM      4  C   UNL A   1      31.633  24.096  25.276  1.00  0.00     0.243 C 
ATOM      5  O   UNL A   1      31.486  24.530  26.421  1.00  0.00    -0.273 OA
ATOM      6  H   UNL A   1      32.921  22.720  25.907  1.00  0.00     0.163 HD
BRANCH   4   7
ATOM      7  C   UNL A   1      30.930  24.790  24.094  1.00  0.00     0.180 C 
BRANCH   7   8
ATOM      8  C   UNL A   1      30.229  26.010  24.718  1.00  0.00     0.134 C 
BRANCH   8   9
ATOM      9  C   UNL A   1      29.278  26.697  23.779  1.00  0.00     0.220 C 
ATOM     10  N   UNL A   1      27.979  26.286  23.872  1.00  0.00    -0.370 N 
ATOM     11  H   UNL A   1      27.293  26.687  23.290  1.00  0.00     0.159 HD
ATOM     12  H   UNL A   1      27.729  25.588  24.519  1.00  0.00     0.159 HD
ATOM     13  O   UNL A   1      29.615  27.566  22.986  1.00  0.00    -0.275 OA
ENDBRANCH   8   9
ENDBRANCH   7   8
BRANCH   7  14
ATOM     14  N   UNL A   1      31.769  25.145  22.931  1.00  0.00    -0.340 N 
ATOM     15  C   UNL A   1      32.957  25.841  22.864  1.00  0.00     0.251 C 
ATOM     16  H   UNL A   1      31.424  24.833  22.063  1.00  0.00     0.164 HD
ATOM     17  O   UNL A   1      33.673  25.702  21.875  1.00  0.00    -0.269 OA
BRANCH  15  18
ATOM     18  C   UNL A   1      33.279  26.883  23.858  1.00  0.00     0.039 A 
ATOM     19  C   UNL A   1      32.834  28.182  23.582  1.00  0.00     0.014 A 
ATOM     20  C   UNL A   1      33.906  26.600  25.071  1.00  0.00     0.014 A 
ATOM     21  C   UNL A   1      32.884  29.157  24.575  1.00  0.00     0.007 A 
ATOM     22  C   UNL A   1      33.946  27.581  26.068  1.00  0.00     0.007 A 
ATOM     23  C   UNL A   1      33.396  28.853  25.843  1.00  0.00    -0.023 A 
BRANCH  23  24
ATOM     24  C   UNL A   1      33.281  29.857  26.960  1.00  0.00     0.191 C 
BRANCH  24  25
ATOM     25  O   UNL A   1      34.362  30.771  26.903  1.00  0.00    -0.392 OA
ATOM     26  H   UNL A   1      34.501  31.051  25.985  1.00  0.00     0.211 HD
ENDBRANCH  24  25
ENDBRANCH  23  24
ENDBRANCH  15  18
ENDBRANCH   7  14
ENDBRANCH   4   7
ENDBRANCH   2   3
ENDBRANCH   1   2
BRANCH   1  27
ATOM     27  C   UNL A   1      35.155  21.703  25.031  1.00  0.00     0.023 C 
BRANCH  27  28
ATOM     28  C   UNL A   1      36.525  22.214  25.470  1.00  0.00     0.116 C 
BRANCH  28  29
ATOM     29  N   UNL A   1      37.508  21.148  25.592  1.00  0.00    -0.352 N 
ATOM     30  C   UNL A   1      38.818  21.233  25.998  1.00  0.00     0.251 C 
ATOM     31  H   UNL A   1      37.194  20.246  25.352  1.00  0.00     0.163 HD
ATOM     32  O   UNL A   1      39.563  20.262  25.898  1.00  0.00    -0.269 OA
BRANCH  30  33
ATOM     33  C   UNL A   1      39.324  22.514  26.528  1.00  0.00     0.039 A 
ATOM     34  C   UNL A   1      40.383  22.501  27.439  1.00  0.00     0.014 A 
ATOM     35  C   UNL A   1      38.783  23.723  26.081  1.00  0.00     0.014 A 
ATOM     36  C   UNL A   1      40.950  23.709  27.850  1.00  0.00     0.010 A 
ATOM     37  C   UNL A   1      39.389  24.921  26.444  1.00  0.00     0.010 A 
ATOM     38  C   UNL A   1      40.481  24.925  27.327  1.00  0.00    -0.014 A 
BRANCH  38  39
ATOM     39  C   UNL A   1      41.140  26.214  27.662  1.00  0.00     0.031 A 
ATOM     40  C   UNL A   1      42.560  26.470  27.242  1.00  0.00     0.074 A 
ATOM     41  C   UNL A   1      40.491  27.107  28.435  1.00  0.00     0.049 A 
ATOM     42  N   UNL A   1      43.320  27.502  27.499  1.00  0.00    -0.248 NA
ATOM     43  C   UNL A   1      43.220  25.419  26.451  1.00  0.00     0.031 C 
ATOM     44  C   UNL A   1      39.141  26.933  28.978  1.00  0.00     0.029 A 
ATOM     45  N   UNL A   1      40.893  28.323  28.929  1.00  0.00    -0.354 N 
ATOM     46  C   UNL A   1      44.556  27.211  26.938  1.00  0.00     0.074 A 
ATOM     47  C   UNL A   1      44.453  25.894  26.347  1.00  0.00     0.031 C 
ATOM     48  C   UNL A   1      38.831  28.000  29.732  1.00  0.00     0.029 A 
ATOM     49  C   UNL A   1      39.964  28.921  29.748  1.00  0.00     0.049 A 
ATOM     50  H   UNL A   1      41.764  28.729  28.717  1.00  0.00     0.167 HD
ATOM     51  C   UNL A   1      45.668  27.983  26.890  1.00  0.00     0.034 A 
ATOM     52  C   UNL A   1      40.020  30.074  30.441  1.00  0.00     0.034 A 
ATOM     53  C   UNL A   1      45.751  29.311  27.434  1.00  0.00     0.049 A 
ATOM     54  C   UNL A   1      41.249  30.935  30.332  1.00  0.00     0.074 A 
ATOM     55  C   UNL A   1      46.796  30.213  27.344  1.00  0.00     0.029 A 
ATOM     56  N   UNL A   1      44.755  29.925  28.176  1.00  0.00    -0.354 N 
ATOM     57  N   UNL A   1      42.345  30.722  29.643  1.00  0.00    -0.248 NA
ATOM     58  C   UNL A   1      41.239  32.209  31.066  1.00  0.00     0.031 C 
ATOM     59  C   UNL A   1      46.437  31.369  28.046  1.00  0.00     0.029 A 
ATOM     60  C   UNL A   1      45.162  31.191  28.560  1.00  0.00     0.049 A 
ATOM     61  H   UNL A   1      43.884  29.521  28.397  1.00  0.00     0.167 HD
ATOM     62  C   UNL A   1      43.140  31.846  29.834  1.00  0.00     0.074 A 
ATOM     63  C   UNL A   1      42.392  32.747  30.686  1.00  0.00     0.031 C 
ATOM     64  C   UNL A   1      44.385  32.101  29.362  1.00  0.00     0.034 A 
BRANCH  51  65
ATOM     65  C   UNL A   1      46.869  27.432  26.168  1.00  0.00     0.023 A 
ATOM     66  C   UNL A   1      47.704  26.505  26.826  1.00  0.00     0.012 A 
ATOM     67  C   UNL A   1      47.140  27.779  24.831  1.00  0.00     0.148 A 
ATOM     68  C   UNL A   1      48.808  25.957  26.175  1.00  0.00     0.002 A 
ATOM     69  C   UNL A   1      48.219  27.197  24.175  1.00  0.00     0.091 A 
ATOM     70  F   UNL A   1      46.348  28.679  24.229  1.00  0.00    -0.205 F 
ATOM     71  C   UNL A   1      49.059  26.295  24.848  1.00  0.00     0.022 A 
BRANCH  69  72
ATOM     72  S   UNL A   1      48.580  27.511  22.443  1.00  0.00     0.127 S 
ATOM     73  O   UNL A   1      48.581  26.158  21.891  1.00  0.00    -0.237 OA
ATOM     74  O   UNL A   1      47.442  28.336  22.033  1.00  0.00    -0.237 OA
ATOM     75  O   UNL A   1      49.863  28.201  22.423  1.00  0.00    -0.744 OA
ENDBRANCH  69  72
ENDBRANCH  51  65
BRANCH  52  76
ATOM     76  C   UNL A   1      38.843  30.516  31.241  1.00  0.00     0.023 A 
ATOM     77  C   UNL A   1      38.847  30.325  32.635  1.00  0.00     0.012 A 
ATOM     78  C   UNL A   1      37.743  31.158  30.639  1.00  0.00     0.148 A 
ATOM     79  C   UNL A   1      37.766  30.741  33.414  1.00  0.00     0.002 A 
ATOM     80  C   UNL A   1      36.694  31.619  31.427  1.00  0.00     0.091 A 
ATOM     81  F   UNL A   1      37.750  31.319  29.307  1.00  0.00    -0.205 F 
ATOM     82  C   UNL A   1      36.696  31.397  32.813  1.00  0.00     0.022 A 
BRANCH  80  83
ATOM     83  S   UNL A   1      35.344  32.594  30.752  1.00  0.00     0.127 S 
ATOM     84  O   UNL A   1      35.989  33.885  30.530  1.00  0.00    -0.237 OA
ATOM     85  O   UNL A   1      35.011  31.853  29.535  1.00  0.00    -0.237 OA
ATOM     86  O   UNL A   1      34.300  32.570  31.768  1.00  0.00    -0.744 OA
ENDBRANCH  80  83
ENDBRANCH  52  76
BRANCH  64  87
ATOM     87  C   UNL A   1      45.019  33.416  29.731  1.00  0.00     0.023 A 
ATOM     88  C   UNL A   1      45.854  33.491  30.864  1.00  0.00     0.012 A 
ATOM     89  C   UNL A   1      44.860  34.550  28.911  1.00  0.00     0.148 A 
ATOM     90  C   UNL A   1      46.501  34.682  31.187  1.00  0.00     0.002 A 
ATOM     91  C   UNL A   1      45.544  35.721  29.215  1.00  0.00     0.091 A 
ATOM     92  F   UNL A   1      44.045  34.463  27.849  1.00  0.00    -0.205 F 
ATOM     93  C   UNL A   1      46.357  35.791  30.358  1.00  0.00     0.022 A 
BRANCH  91  94
ATOM     94  S   UNL A   1      45.491  37.169  28.154  1.00  0.00     0.127 S 
ATOM     95  O   UNL A   1      45.970  36.626  26.884  1.00  0.00    -0.237 OA
ATOM     96  O   UNL A   1      44.070  37.517  28.171  1.00  0.00    -0.237 OA
ATOM     97  O   UNL A   1      46.361  38.156  28.780  1.00  0.00    -0.744 OA
ENDBRANCH  91  94
ENDBRANCH  64  87
ENDBRANCH  38  39
ENDBRANCH  30  33
ENDBRANCH  28  29
ENDBRANCH  27  28
ENDBRANCH   1  27
TORSDOF 20
ENDMDL
