MODEL 1
REMARK VINA RESULT:     -12.5      0.000      0.000
REMARK SMILES Cc1nn(C)c(C)c1C[C@@H](C)C(=O)N[C@@H](C(=O)NCCCCNC(=O)c1ccc(-c2c3nc(c(-c4cccc(S(=O)(=O)[O-])c4F)c4ccc([nH]4)c(-c4cccc(S(=O)(=O)[O-])c4F)c4nc(c(-c5cccc(S(=O)(=O)[O-])c5F)c5ccc2[nH]5)C=C4)C=C3)cc1)c1ccccc1Cl
REMARK SMILES IDX 20 1 19 2 18 3 16 4 17 5 15 7 14 8 12 9 13 10 10 12 11 13
REMARK SMILES IDX 9 14 8 15 1 16 2 17 3 18 4 19 6 20 5 21 7 22 89 23 90 24
REMARK SMILES IDX 94 25 91 26 93 27 95 28 92 29 21 30 22 31 23 32 24 33 25 35
REMARK SMILES IDX 26 36 27 37 88 38 28 39 87 40 29 41 30 42 31 43 81 44 32 45
REMARK SMILES IDX 86 46 80 47 82 48 33 49 85 50 79 51 78 52 34 54 66 55 46 56
REMARK SMILES IDX 65 57 47 58 50 59 64 60 83 61 48 62 49 63 63 65 84 66 51 67
REMARK SMILES IDX 35 68 36 69 44 70 37 71 39 72 45 73 38 74 40 75 41 76 42 77
REMARK SMILES IDX 43 78 67 79 68 80 76 81 69 82 71 83 77 84 70 85 72 86 73 87
REMARK SMILES IDX 74 88 75 89 52 90 53 91 61 92 54 93 56 94 62 95 55 96 57 97
REMARK SMILES IDX 58 98 59 99 60 100
REMARK H PARENT 18 6 14 11 23 34 82 53 50 64
REMARK Flexibility Score: inf
ROOT
ATOM      1  C   UNL A   1      37.220  21.634  24.311  1.00  0.00     0.023 C 
ENDROOT
BRANCH   1   2
ATOM      2  C   UNL A   1      35.751  21.949  24.545  1.00  0.00     0.116 C 
BRANCH   2   3
ATOM      3  N   UNL A   1      35.364  22.030  25.934  1.00  0.00    -0.354 N 
ATOM      4  C   UNL A   1      34.136  21.850  26.515  1.00  0.00     0.247 C 
ATOM      5  O   UNL A   1      34.146  21.589  27.725  1.00  0.00    -0.272 OA
ATOM      6  H   UNL A   1      36.092  22.249  26.559  1.00  0.00     0.163 HD
BRANCH   4   7
ATOM      7  C   UNL A   1      32.802  21.784  25.682  1.00  0.00     0.203 C 
BRANCH   7   8
ATOM      8  N   UNL A   1      31.569  22.024  26.441  1.00  0.00    -0.340 N 
ATOM      9  C   UNL A   1      30.825  23.132  26.696  1.00  0.00     0.224 C 
ATOM     10  O   UNL A   1      29.879  22.997  27.478  1.00  0.00    -0.275 OA
ATOM     11  H   UNL A   1      31.202  21.208  26.851  1.00  0.00     0.164 HD
BRANCH   9  12
ATOM     12  C   UNL A   1      31.088  24.502  26.061  1.00  0.00     0.080 C 
ATOM     13  C   UNL A   1      30.687  24.446  24.595  1.00  0.00     0.018 C 
BRANCH  12  14
ATOM     14  C   UNL A   1      32.475  25.070  26.404  1.00  0.00     0.052 C 
BRANCH  14  15
ATOM     15  C   UNL A   1      32.823  26.440  25.915  1.00  0.00    -0.003 A 
ATOM     16  C   UNL A   1      33.854  25.907  23.543  1.00  0.00     0.069 C 
ATOM     17  C   UNL A   1      33.444  26.782  24.675  1.00  0.00     0.063 A 
ATOM     18  N   UNL A   1      33.582  28.105  24.543  1.00  0.00    -0.178 NA
ATOM     19  N   UNL A   1      32.987  28.615  25.628  1.00  0.00    -0.272 N 
ATOM     20  C   UNL A   1      32.432  27.663  26.444  1.00  0.00     0.038 A 
ATOM     21  C   UNL A   1      32.938  30.051  25.768  1.00  0.00     0.174 C 
ATOM     22  C   UNL A   1      31.561  28.005  27.598  1.00  0.00     0.066 C 
ENDBRANCH  14  15
ENDBRANCH  12  14
ENDBRANCH   9  12
ENDBRANCH   7   8
BRANCH   7  23
ATOM     23  C   UNL A   1      32.690  20.469  24.914  1.00  0.00     0.002 A 
ATOM     24  C   UNL A   1      32.821  19.255  25.621  1.00  0.00     0.008 A 
ATOM     25  C   UNL A   1      32.429  20.403  23.535  1.00  0.00     0.046 A 
ATOM     26  C   UNL A   1      32.708  18.023  24.973  1.00  0.00     0.000 A 
ATOM     27  C   UNL A   1      32.302  19.166  22.892  1.00  0.00     0.021 A 
ATOM     28  Cl  UNL A   1      32.265  21.823  22.562  1.00  0.00    -0.084 Cl
ATOM     29  C   UNL A   1      32.445  17.979  23.608  1.00  0.00     0.002 A 
ENDBRANCH   7  23
ENDBRANCH   4   7
ENDBRANCH   2   3
ENDBRANCH   1   2
BRANCH   1  30
ATOM     30  C   UNL A   1      37.635  20.209  24.653  1.00  0.00     0.023 C 
BRANCH  30  31
ATOM     31  C   UNL A   1      38.397  20.038  25.963  1.00  0.00     0.116 C 
BRANCH  31  32
ATOM     32  N   UNL A   1      39.622  19.256  25.843  1.00  0.00    -0.352 N 
ATOM     33  C   UNL A   1      40.917  19.651  26.097  1.00  0.00     0.251 C 
ATOM     34  H   UNL A   1      39.510  18.326  25.540  1.00  0.00     0.163 HD
ATOM     35  O   UNL A   1      41.855  18.887  25.886  1.00  0.00    -0.269 OA
BRANCH  33  36
ATOM     36  C   UNL A   1      41.164  21.024  26.585  1.00  0.00     0.039 A 
ATOM     37  C   UNL A   1      41.925  21.205  27.742  1.00  0.00     0.014 A 
ATOM     38  C   UNL A   1      40.729  22.124  25.842  1.00  0.00     0.014 A 
ATOM     39  C   UNL A   1      42.335  22.492  28.101  1.00  0.00     0.010 A 
ATOM     40  C   UNL A   1      41.203  23.393  26.157  1.00  0.00     0.010 A 
ATOM     41  C   UNL A   1      42.020  23.590  27.281  1.00  0.00    -0.014 A 
BRANCH  41  42
ATOM     42  C   UNL A   1      42.560  24.947  27.555  1.00  0.00     0.031 A 
ATOM     43  C   UNL A   1      41.689  25.987  28.204  1.00  0.00     0.074 A 
ATOM     44  C   UNL A   1      43.793  25.278  27.117  1.00  0.00     0.049 A 
ATOM     45  N   UNL A   1      41.938  27.251  28.426  1.00  0.00    -0.248 NA
ATOM     46  C   UNL A   1      40.347  25.556  28.634  1.00  0.00     0.031 C 
ATOM     47  C   UNL A   1      44.705  24.387  26.397  1.00  0.00     0.029 A 
ATOM     48  N   UNL A   1      44.478  26.467  27.186  1.00  0.00    -0.354 N 
ATOM     49  C   UNL A   1      40.780  27.773  28.988  1.00  0.00     0.074 A 
ATOM     50  C   UNL A   1      39.812  26.699  29.038  1.00  0.00     0.031 C 
ATOM     51  C   UNL A   1      45.827  25.060  26.089  1.00  0.00     0.029 A 
ATOM     52  C   UNL A   1      45.706  26.433  26.564  1.00  0.00     0.049 A 
ATOM     53  H   UNL A   1      44.125  27.267  27.637  1.00  0.00     0.167 HD
ATOM     54  C   UNL A   1      40.552  29.023  29.458  1.00  0.00     0.034 A 
ATOM     55  C   UNL A   1      46.626  27.403  26.390  1.00  0.00     0.034 A 
ATOM     56  C   UNL A   1      41.531  30.075  29.457  1.00  0.00     0.049 A 
ATOM     57  C   UNL A   1      46.366  28.770  26.965  1.00  0.00     0.074 A 
ATOM     58  C   UNL A   1      41.420  31.354  29.974  1.00  0.00     0.029 A 
ATOM     59  N   UNL A   1      42.804  29.970  28.920  1.00  0.00    -0.354 N 
ATOM     60  N   UNL A   1      45.321  29.200  27.629  1.00  0.00    -0.248 NA
ATOM     61  C   UNL A   1      47.427  29.775  26.798  1.00  0.00     0.031 C 
ATOM     62  C   UNL A   1      42.627  32.023  29.748  1.00  0.00     0.029 A 
ATOM     63  C   UNL A   1      43.492  31.158  29.097  1.00  0.00     0.049 A 
ATOM     64  H   UNL A   1      43.166  29.168  28.478  1.00  0.00     0.167 HD
ATOM     65  C   UNL A   1      45.611  30.511  27.989  1.00  0.00     0.074 A 
ATOM     66  C   UNL A   1      46.940  30.798  27.489  1.00  0.00     0.031 C 
ATOM     67  C   UNL A   1      44.839  31.405  28.655  1.00  0.00     0.034 A 
BRANCH  54  68
ATOM     68  C   UNL A   1      39.213  29.295  30.090  1.00  0.00     0.023 A 
ATOM     69  C   UNL A   1      38.950  28.786  31.379  1.00  0.00     0.012 A 
ATOM     70  C   UNL A   1      38.244  30.089  29.448  1.00  0.00     0.148 A 
ATOM     71  C   UNL A   1      37.731  29.037  32.006  1.00  0.00     0.002 A 
ATOM     72  C   UNL A   1      37.046  30.367  30.098  1.00  0.00     0.091 A 
ATOM     73  F   UNL A   1      38.503  30.544  28.214  1.00  0.00    -0.205 F 
ATOM     74  C   UNL A   1      36.784  29.834  31.371  1.00  0.00     0.022 A 
BRANCH  72  75
ATOM     75  S   UNL A   1      35.790  31.444  29.395  1.00  0.00     0.127 S 
ATOM     76  O   UNL A   1      36.608  32.493  28.788  1.00  0.00    -0.237 OA
ATOM     77  O   UNL A   1      35.125  30.558  28.438  1.00  0.00    -0.237 OA
ATOM     78  O   UNL A   1      34.955  31.866  30.510  1.00  0.00    -0.744 OA
ENDBRANCH  72  75
ENDBRANCH  54  68
BRANCH  55  79
ATOM     79  C   UNL A   1      47.915  27.099  25.703  1.00  0.00     0.023 A 
ATOM     80  C   UNL A   1      48.966  26.517  26.438  1.00  0.00     0.012 A 
ATOM     81  C   UNL A   1      48.103  27.365  24.334  1.00  0.00     0.148 A 
ATOM     82  C   UNL A   1      50.192  26.238  25.832  1.00  0.00     0.002 A 
ATOM     83  C   UNL A   1      49.308  27.036  23.723  1.00  0.00     0.091 A 
ATOM     84  F   UNL A   1      47.100  27.936  23.650  1.00  0.00    -0.205 F 
ATOM     85  C   UNL A   1      50.360  26.488  24.473  1.00  0.00     0.022 A 
BRANCH  83  86
ATOM     86  S   UNL A   1      49.552  27.207  21.950  1.00  0.00     0.127 S 
ATOM     87  O   UNL A   1      48.600  26.236  21.421  1.00  0.00    -0.237 OA
ATOM     88  O   UNL A   1      49.196  28.608  21.721  1.00  0.00    -0.237 OA
ATOM     89  O   UNL A   1      50.962  26.910  21.731  1.00  0.00    -0.744 OA
ENDBRANCH  83  86
ENDBRANCH  55  79
BRANCH  67  90
ATOM     90  C   UNL A   1      45.417  32.770  28.915  1.00  0.00     0.023 A 
ATOM     91  C   UNL A   1      46.152  32.999  30.095  1.00  0.00     0.012 A 
ATOM     92  C   UNL A   1      45.306  33.796  27.956  1.00  0.00     0.148 A 
ATOM     93  C   UNL A   1      46.746  34.238  30.329  1.00  0.00     0.002 A 
ATOM     94  C   UNL A   1      45.938  35.014  28.177  1.00  0.00     0.091 A 
ATOM     95  F   UNL A   1      44.585  33.562  26.850  1.00  0.00    -0.205 F 
ATOM     96  C   UNL A   1      46.650  35.240  29.366  1.00  0.00     0.022 A 
BRANCH  94  97
ATOM     97  S   UNL A   1      45.941  36.329  26.952  1.00  0.00     0.127 S 
ATOM     98  O   UNL A   1      46.978  37.218  27.473  1.00  0.00    -0.237 OA
ATOM     99  O   UNL A   1      46.309  35.616  25.728  1.00  0.00    -0.237 OA
ATOM    100  O   UNL A   1      44.590  36.875  26.948  1.00  0.00    -0.744 OA
ENDBRANCH  94  97
ENDBRANCH  67  90
ENDBRANCH  41  42
ENDBRANCH  33  36
ENDBRANCH  31  32
ENDBRANCH  30  31
ENDBRANCH   1  30
TORSDOF 19
ENDMDL
MODEL 2
REMARK VINA RESULT:     -12.4      0.833      7.330
REMARK SMILES Cc1nn(C)c(C)c1C[C@@H](C)C(=O)N[C@@H](C(=O)NCCCCNC(=O)c1ccc(-c2c3nc(c(-c4cccc(S(=O)(=O)[O-])c4F)c4ccc([nH]4)c(-c4cccc(S(=O)(=O)[O-])c4F)c4nc(c(-c5cccc(S(=O)(=O)[O-])c5F)c5ccc2[nH]5)C=C4)C=C3)cc1)c1ccccc1Cl
REMARK SMILES IDX 20 1 19 2 18 3 16 4 17 5 15 7 14 8 12 9 13 10 10 12 11 13
REMARK SMILES IDX 9 14 8 15 1 16 2 17 3 18 4 19 6 20 5 21 7 22 89 23 90 24
REMARK SMILES IDX 94 25 91 26 93 27 95 28 92 29 21 30 22 31 23 32 24 33 25 35
REMARK SMILES IDX 26 36 27 37 88 38 28 39 87 40 29 41 30 42 31 43 81 44 32 45
REMARK SMILES IDX 86 46 80 47 82 48 33 49 85 50 79 51 78 52 34 54 66 55 46 56
REMARK SMILES IDX 65 57 47 58 50 59 64 60 83 61 48 62 49 63 63 65 84 66 51 67
REMARK SMILES IDX 35 68 36 69 44 70 37 71 39 72 45 73 38 74 40 75 41 76 42 77
REMARK SMILES IDX 43 78 67 79 68 80 76 81 69 82 71 83 77 84 70 85 72 86 73 87
REMARK SMILES IDX 74 88 75 89 52 90 53 91 61 92 54 93 56 94 62 95 55 96 57 97
REMARK SMILES IDX 58 98 59 99 60 100
REMARK H PARENT 18 6 14 11 23 34 82 53 50 64
REMARK Flexibility Score: inf
ROOT
ATOM      1  C   UNL A   1      36.516  19.975  24.740  1.00  0.00     0.023 C 
ENDROOT
BRANCH   1   2
ATOM      2  C   UNL A   1      36.115  21.416  25.013  1.00  0.00     0.116 C 
BRANCH   2   3
ATOM      3  N   UNL A   1      35.618  21.665  26.346  1.00  0.00    -0.354 N 
ATOM      4  C   UNL A   1      34.328  21.740  26.802  1.00  0.00     0.247 C 
ATOM      5  O   UNL A   1      34.176  21.572  28.019  1.00  0.00    -0.272 OA
ATOM      6  H   UNL A   1      36.311  21.802  27.030  1.00  0.00     0.163 HD
BRANCH   4   7
ATOM      7  C   UNL A   1      33.088  21.841  25.837  1.00  0.00     0.203 C 
BRANCH   7   8
ATOM      8  N   UNL A   1      31.835  22.281  26.459  1.00  0.00    -0.340 N 
ATOM      9  C   UNL A   1      31.175  23.468  26.503  1.00  0.00     0.224 C 
ATOM     10  O   UNL A   1      30.172  23.520  27.223  1.00  0.00    -0.275 OA
ATOM     11  H   UNL A   1      31.373  21.563  26.950  1.00  0.00     0.164 HD
BRANCH   9  12
ATOM     12  C   UNL A   1      31.596  24.709  25.708  1.00  0.00     0.080 C 
ATOM     13  C   UNL A   1      33.016  25.084  26.104  1.00  0.00     0.018 C 
BRANCH  12  14
ATOM     14  C   UNL A   1      30.532  25.819  25.714  1.00  0.00     0.052 C 
BRANCH  14  15
ATOM     15  C   UNL A   1      30.965  27.220  25.416  1.00  0.00    -0.003 A 
ATOM     16  C   UNL A   1      30.146  27.505  22.921  1.00  0.00     0.069 C 
ATOM     17  C   UNL A   1      30.807  27.928  24.186  1.00  0.00     0.063 A 
ATOM     18  N   UNL A   1      31.280  29.175  24.273  1.00  0.00    -0.178 NA
ATOM     19  N   UNL A   1      31.654  29.304  25.552  1.00  0.00    -0.272 N 
ATOM     20  C   UNL A   1      31.404  28.189  26.308  1.00  0.00     0.038 A 
ATOM     21  C   UNL A   1      32.188  30.575  25.982  1.00  0.00     0.174 C 
ATOM     22  C   UNL A   1      31.558  28.170  27.786  1.00  0.00     0.066 C 
ENDBRANCH  14  15
ENDBRANCH  12  14
ENDBRANCH   9  12
ENDBRANCH   7   8
BRANCH   7  23
ATOM     23  C   UNL A   1      32.861  20.531  25.084  1.00  0.00     0.002 A 
ATOM     24  C   UNL A   1      32.960  19.315  25.791  1.00  0.00     0.008 A 
ATOM     25  C   UNL A   1      32.524  20.476  23.721  1.00  0.00     0.046 A 
ATOM     26  C   UNL A   1      32.743  18.089  25.158  1.00  0.00     0.000 A 
ATOM     27  C   UNL A   1      32.293  19.247  23.093  1.00  0.00     0.021 A 
ATOM     28  Cl  UNL A   1      32.390  21.900  22.749  1.00  0.00    -0.084 Cl
ATOM     29  C   UNL A   1      32.406  18.056  23.809  1.00  0.00     0.002 A 
ENDBRANCH   7  23
ENDBRANCH   4   7
ENDBRANCH   2   3
ENDBRANCH   1   2
BRANCH   1  30
ATOM     30  C   UNL A   1      38.017  19.727  24.675  1.00  0.00     0.023 C 
BRANCH  30  31
ATOM     31  C   UNL A   1      38.789  19.994  25.964  1.00  0.00     0.116 C 
BRANCH  31  32
ATOM     32  N   UNL A   1      40.079  19.318  26.036  1.00  0.00    -0.352 N 
ATOM     33  C   UNL A   1      41.305  19.847  26.376  1.00  0.00     0.251 C 
ATOM     34  H   UNL A   1      40.074  18.359  25.814  1.00  0.00     0.163 HD
ATOM     35  O   UNL A   1      42.317  19.154  26.330  1.00  0.00    -0.269 OA
BRANCH  33  36
ATOM     36  C   UNL A   1      41.389  21.273  26.753  1.00  0.00     0.039 A 
ATOM     37  C   UNL A   1      41.858  21.611  28.025  1.00  0.00     0.014 A 
ATOM     38  C   UNL A   1      41.100  22.268  25.815  1.00  0.00     0.014 A 
ATOM     39  C   UNL A   1      42.132  22.949  28.323  1.00  0.00     0.010 A 
ATOM     40  C   UNL A   1      41.448  23.586  26.088  1.00  0.00     0.010 A 
ATOM     41  C   UNL A   1      41.979  23.940  27.338  1.00  0.00    -0.014 A 
BRANCH  41  42
ATOM     42  C   UNL A   1      42.397  25.346  27.575  1.00  0.00     0.031 A 
ATOM     43  C   UNL A   1      43.781  25.795  27.195  1.00  0.00     0.074 A 
ATOM     44  C   UNL A   1      41.573  26.187  28.235  1.00  0.00     0.049 A 
ATOM     45  N   UNL A   1      44.367  26.942  27.418  1.00  0.00    -0.248 NA
ATOM     46  C   UNL A   1      44.630  24.814  26.499  1.00  0.00     0.031 C 
ATOM     47  C   UNL A   1      40.237  25.850  28.733  1.00  0.00     0.029 A 
ATOM     48  N   UNL A   1      41.751  27.491  28.628  1.00  0.00    -0.354 N 
ATOM     49  C   UNL A   1      45.658  26.812  26.922  1.00  0.00     0.074 A 
ATOM     50  C   UNL A   1      45.784  25.460  26.421  1.00  0.00     0.031 C 
ATOM     51  C   UNL A   1      39.721  26.916  29.367  1.00  0.00     0.029 A 
ATOM     52  C   UNL A   1      40.692  28.003  29.344  1.00  0.00     0.049 A 
ATOM     53  H   UNL A   1      42.560  28.011  28.418  1.00  0.00     0.167 HD
ATOM     54  C   UNL A   1      46.640  27.742  26.852  1.00  0.00     0.034 A 
ATOM     55  C   UNL A   1      40.528  29.209  29.923  1.00  0.00     0.034 A 
ATOM     56  C   UNL A   1      46.497  29.100  27.301  1.00  0.00     0.049 A 
ATOM     57  C   UNL A   1      41.617  30.240  29.788  1.00  0.00     0.074 A 
ATOM     58  C   UNL A   1      47.408  30.137  27.210  1.00  0.00     0.029 A 
ATOM     59  N   UNL A   1      45.368  29.613  27.920  1.00  0.00    -0.354 N 
ATOM     60  N   UNL A   1      42.774  30.142  29.179  1.00  0.00    -0.248 NA
ATOM     61  C   UNL A   1      41.364  31.559  30.387  1.00  0.00     0.031 C 
ATOM     62  C   UNL A   1      46.831  31.278  27.775  1.00  0.00     0.029 A 
ATOM     63  C   UNL A   1      45.556  30.953  28.211  1.00  0.00     0.049 A 
ATOM     64  H   UNL A   1      44.553  29.100  28.122  1.00  0.00     0.167 HD
ATOM     65  C   UNL A   1      43.371  31.393  29.292  1.00  0.00     0.074 A 
ATOM     66  C   UNL A   1      42.437  32.239  30.007  1.00  0.00     0.031 C 
ATOM     67  C   UNL A   1      44.590  31.799  28.861  1.00  0.00     0.034 A 
BRANCH  54  68
ATOM     68  C   UNL A   1      47.931  27.342  26.190  1.00  0.00     0.023 A 
ATOM     69  C   UNL A   1      48.935  26.728  26.965  1.00  0.00     0.012 A 
ATOM     70  C   UNL A   1      48.134  27.519  24.807  1.00  0.00     0.148 A 
ATOM     71  C   UNL A   1      50.135  26.323  26.382  1.00  0.00     0.002 A 
ATOM     72  C   UNL A   1      49.318  27.076  24.227  1.00  0.00     0.091 A 
ATOM     73  F   UNL A   1      47.177  28.126  24.092  1.00  0.00    -0.205 F 
ATOM     74  C   UNL A   1      50.322  26.488  25.013  1.00  0.00     0.022 A 
BRANCH  72  75
ATOM     75  S   UNL A   1      49.626  27.177  22.459  1.00  0.00     0.127 S 
ATOM     76  O   UNL A   1      48.655  26.218  21.936  1.00  0.00    -0.237 OA
ATOM     77  O   UNL A   1      49.316  28.578  22.171  1.00  0.00    -0.237 OA
ATOM     78  O   UNL A   1      51.025  26.817  22.275  1.00  0.00    -0.744 OA
ENDBRANCH  72  75
ENDBRANCH  54  68
BRANCH  55  79
ATOM     79  C   UNL A   1      39.251  29.538  30.621  1.00  0.00     0.023 A 
ATOM     80  C   UNL A   1      39.024  29.030  31.915  1.00  0.00     0.012 A 
ATOM     81  C   UNL A   1      38.273  30.357  30.026  1.00  0.00     0.148 A 
ATOM     82  C   UNL A   1      37.832  29.300  32.588  1.00  0.00     0.002 A 
ATOM     83  C   UNL A   1      37.111  30.667  30.723  1.00  0.00     0.091 A 
ATOM     84  F   UNL A   1      38.496  30.819  28.786  1.00  0.00    -0.205 F 
ATOM     85  C   UNL A   1      36.880  30.126  31.998  1.00  0.00     0.022 A 
BRANCH  83  86
ATOM     86  S   UNL A   1      35.900  31.829  30.082  1.00  0.00     0.127 S 
ATOM     87  O   UNL A   1      35.031  32.027  31.237  1.00  0.00    -0.237 OA
ATOM     88  O   UNL A   1      36.732  32.982  29.730  1.00  0.00    -0.237 OA
ATOM     89  O   UNL A   1      35.301  31.160  28.934  1.00  0.00    -0.744 OA
ENDBRANCH  83  86
ENDBRANCH  55  79
BRANCH  67  90
ATOM     90  C   UNL A   1      44.981  33.230  29.117  1.00  0.00     0.023 A 
ATOM     91  C   UNL A   1      45.635  33.568  30.319  1.00  0.00     0.012 A 
ATOM     92  C   UNL A   1      44.779  34.220  28.135  1.00  0.00     0.148 A 
ATOM     93  C   UNL A   1      46.058  34.875  30.551  1.00  0.00     0.002 A 
ATOM     94  C   UNL A   1      45.242  35.512  28.356  1.00  0.00     0.091 A 
ATOM     95  F   UNL A   1      44.137  33.881  27.008  1.00  0.00    -0.205 F 
ATOM     96  C   UNL A   1      45.874  35.843  29.566  1.00  0.00     0.022 A 
BRANCH  94  97
ATOM     97  S   UNL A   1      45.128  36.799  27.108  1.00  0.00     0.127 S 
ATOM     98  O   UNL A   1      45.696  37.947  27.811  1.00  0.00    -0.237 OA
ATOM     99  O   UNL A   1      45.966  36.267  26.032  1.00  0.00    -0.237 OA
ATOM    100  O   UNL A   1      43.714  36.906  26.773  1.00  0.00    -0.744 OA
ENDBRANCH  94  97
ENDBRANCH  67  90
ENDBRANCH  41  42
ENDBRANCH  33  36
ENDBRANCH  31  32
ENDBRANCH  30  31
ENDBRANCH   1  30
TORSDOF 19
ENDMDL
MODEL 3
REMARK VINA RESULT:     -12.1      5.303      8.753
REMARK SMILES Cc1nn(C)c(C)c1C[C@@H](C)C(=O)N[C@@H](C(=O)NCCCCNC(=O)c1ccc(-c2c3nc(c(-c4cccc(S(=O)(=O)[O-])c4F)c4ccc([nH]4)c(-c4cccc(S(=O)(=O)[O-])c4F)c4nc(c(-c5cccc(S(=O)(=O)[O-])c5F)c5ccc2[nH]5)C=C4)C=C3)cc1)c1ccccc1Cl
REMARK SMILES IDX 20 1 19 2 18 3 16 4 17 5 15 7 14 8 12 9 13 10 10 12 11 13
REMARK SMILES IDX 9 14 8 15 1 16 2 17 3 18 4 19 6 20 5 21 7 22 89 23 90 24
REMARK SMILES IDX 94 25 91 26 93 27 95 28 92 29 21 30 22 31 23 32 24 33 25 35
REMARK SMILES IDX 26 36 27 37 88 38 28 39 87 40 29 41 30 42 31 43 81 44 32 45
REMARK SMILES IDX 86 46 80 47 82 48 33 49 85 50 79 51 78 52 34 54 66 55 46 56
REMARK SMILES IDX 65 57 47 58 50 59 64 60 83 61 48 62 49 63 63 65 84 66 51 67
REMARK SMILES IDX 35 68 36 69 44 70 37 71 39 72 45 73 38 74 40 75 41 76 42 77
REMARK SMILES IDX 43 78 67 79 68 80 76 81 69 82 71 83 77 84 70 85 72 86 73 87
REMARK SMILES IDX 74 88 75 89 52 90 53 91 61 92 54 93 56 94 62 95 55 96 57 97
REMARK SMILES IDX 58 98 59 99 60 100
REMARK H PARENT 18 6 14 11 23 34 82 53 50 64
REMARK Flexibility Score: inf
ROOT
ATOM      1  C   UNL A   1      32.087  29.163  27.169  1.00  0.00     0.023 C 
ENDROOT
BRANCH   1   2
ATOM      2  C   UNL A   1      31.778  28.555  25.811  1.00  0.00     0.116 C 
BRANCH   2   3
ATOM      3  N   UNL A   1      32.801  28.756  24.811  1.00  0.00    -0.354 N 
ATOM      4  C   UNL A   1      32.783  28.478  23.469  1.00  0.00     0.247 C 
ATOM      5  O   UNL A   1      33.609  29.091  22.781  1.00  0.00    -0.272 OA
ATOM      6  H   UNL A   1      33.638  29.152  25.143  1.00  0.00     0.163 HD
BRANCH   4   7
ATOM      7  C   UNL A   1      31.671  27.587  22.799  1.00  0.00     0.203 C 
BRANCH   7   8
ATOM      8  N   UNL A   1      32.042  26.964  21.523  1.00  0.00    -0.340 N 
ATOM      9  C   UNL A   1      32.627  25.784  21.190  1.00  0.00     0.224 C 
ATOM     10  O   UNL A   1      32.897  25.616  19.996  1.00  0.00    -0.275 OA
ATOM     11  H   UNL A   1      31.818  27.519  20.742  1.00  0.00     0.164 HD
BRANCH   9  12
ATOM     12  C   UNL A   1      32.945  24.673  22.198  1.00  0.00     0.080 C 
ATOM     13  C   UNL A   1      31.641  24.184  22.811  1.00  0.00     0.018 C 
BRANCH  12  14
ATOM     14  C   UNL A   1      34.096  25.034  23.151  1.00  0.00     0.052 C 
BRANCH  14  15
ATOM     15  C   UNL A   1      34.405  24.100  24.277  1.00  0.00    -0.003 A 
ATOM     16  C   UNL A   1      36.530  22.838  23.347  1.00  0.00     0.069 C 
ATOM     17  C   UNL A   1      35.457  23.135  24.334  1.00  0.00     0.063 A 
ATOM     18  N   UNL A   1      35.466  22.487  25.503  1.00  0.00    -0.178 NA
ATOM     19  N   UNL A   1      34.503  23.076  26.222  1.00  0.00    -0.272 N 
ATOM     20  C   UNL A   1      33.892  24.113  25.567  1.00  0.00     0.038 A 
ATOM     21  C   UNL A   1      34.281  22.615  27.572  1.00  0.00     0.174 C 
ATOM     22  C   UNL A   1      32.932  25.030  26.236  1.00  0.00     0.066 C 
ENDBRANCH  14  15
ENDBRANCH  12  14
ENDBRANCH   9  12
ENDBRANCH   7   8
BRANCH   7  23
ATOM     23  C   UNL A   1      30.363  28.357  22.638  1.00  0.00     0.002 A 
ATOM     24  C   UNL A   1      30.373  29.575  21.927  1.00  0.00     0.008 A 
ATOM     25  C   UNL A   1      29.133  27.897  23.139  1.00  0.00     0.046 A 
ATOM     26  C   UNL A   1      29.203  30.312  21.733  1.00  0.00     0.000 A 
ATOM     27  C   UNL A   1      27.959  28.631  22.930  1.00  0.00     0.021 A 
ATOM     28  Cl  UNL A   1      28.999  26.428  24.040  1.00  0.00    -0.084 Cl
ATOM     29  C   UNL A   1      27.994  29.837  22.232  1.00  0.00     0.002 A 
ENDBRANCH   7  23
ENDBRANCH   4   7
ENDBRANCH   2   3
ENDBRANCH   1   2
BRANCH   1  30
ATOM     30  C   UNL A   1      33.555  29.122  27.574  1.00  0.00     0.023 C 
BRANCH  30  31
ATOM     31  C   UNL A   1      34.325  30.428  27.406  1.00  0.00     0.116 C 
BRANCH  31  32
ATOM     32  N   UNL A   1      34.205  31.340  28.538  1.00  0.00    -0.352 N 
ATOM     33  C   UNL A   1      35.091  31.540  29.574  1.00  0.00     0.251 C 
ATOM     34  H   UNL A   1      33.384  31.883  28.566  1.00  0.00     0.163 HD
ATOM     35  O   UNL A   1      34.813  32.306  30.493  1.00  0.00    -0.269 OA
BRANCH  33  36
ATOM     36  C   UNL A   1      36.360  30.783  29.587  1.00  0.00     0.039 A 
ATOM     37  C   UNL A   1      37.459  31.292  28.891  1.00  0.00     0.014 A 
ATOM     38  C   UNL A   1      36.484  29.630  30.365  1.00  0.00     0.014 A 
ATOM     39  C   UNL A   1      38.713  30.698  29.058  1.00  0.00     0.010 A 
ATOM     40  C   UNL A   1      37.746  29.089  30.590  1.00  0.00     0.010 A 
ATOM     41  C   UNL A   1      38.875  29.624  29.950  1.00  0.00    -0.014 A 
BRANCH  41  42
ATOM     42  C   UNL A   1      40.216  29.063  30.259  1.00  0.00     0.031 A 
ATOM     43  C   UNL A   1      41.075  29.701  31.316  1.00  0.00     0.074 A 
ATOM     44  C   UNL A   1      40.706  28.051  29.513  1.00  0.00     0.049 A 
ATOM     45  N   UNL A   1      42.308  29.428  31.653  1.00  0.00    -0.248 NA
ATOM     46  C   UNL A   1      40.478  30.815  32.073  1.00  0.00     0.031 C 
ATOM     47  C   UNL A   1      40.007  27.400  28.401  1.00  0.00     0.029 A 
ATOM     48  N   UNL A   1      41.922  27.414  29.555  1.00  0.00    -0.354 N 
ATOM     49  C   UNL A   1      42.646  30.352  32.634  1.00  0.00     0.074 A 
ATOM     50  C   UNL A   1      41.502  31.220  32.811  1.00  0.00     0.031 C 
ATOM     51  C   UNL A   1      40.806  26.461  27.868  1.00  0.00     0.029 A 
ATOM     52  C   UNL A   1      42.080  26.457  28.578  1.00  0.00     0.049 A 
ATOM     53  H   UNL A   1      42.616  27.622  30.222  1.00  0.00     0.167 HD
ATOM     54  C   UNL A   1      43.790  30.449  33.353  1.00  0.00     0.034 A 
ATOM     55  C   UNL A   1      43.136  25.672  28.283  1.00  0.00     0.034 A 
ATOM     56  C   UNL A   1      44.906  29.553  33.215  1.00  0.00     0.049 A 
ATOM     57  C   UNL A   1      44.377  25.767  29.130  1.00  0.00     0.074 A 
ATOM     58  C   UNL A   1      46.081  29.524  33.945  1.00  0.00     0.029 A 
ATOM     59  N   UNL A   1      44.984  28.524  32.290  1.00  0.00    -0.354 N 
ATOM     60  N   UNL A   1      44.618  26.549  30.154  1.00  0.00    -0.248 NA
ATOM     61  C   UNL A   1      45.478  24.849  28.803  1.00  0.00     0.031 C 
ATOM     62  C   UNL A   1      46.871  28.477  33.460  1.00  0.00     0.029 A 
ATOM     63  C   UNL A   1      46.184  27.849  32.433  1.00  0.00     0.049 A 
ATOM     64  H   UNL A   1      44.288  28.305  31.629  1.00  0.00     0.167 HD
ATOM     65  C   UNL A   1      45.881  26.193  30.616  1.00  0.00     0.074 A 
ATOM     66  C   UNL A   1      46.344  25.110  29.773  1.00  0.00     0.031 C 
ATOM     67  C   UNL A   1      46.601  26.729  31.632  1.00  0.00     0.034 A 
BRANCH  54  68
ATOM     68  C   UNL A   1      43.857  31.513  34.415  1.00  0.00     0.023 A 
ATOM     69  C   UNL A   1      44.247  32.818  34.051  1.00  0.00     0.012 A 
ATOM     70  C   UNL A   1      43.487  31.247  35.747  1.00  0.00     0.148 A 
ATOM     71  C   UNL A   1      44.299  33.836  35.002  1.00  0.00     0.002 A 
ATOM     72  C   UNL A   1      43.503  32.277  36.682  1.00  0.00     0.091 A 
ATOM     73  F   UNL A   1      43.141  29.995  36.078  1.00  0.00    -0.205 F 
ATOM     74  C   UNL A   1      43.918  33.568  36.313  1.00  0.00     0.022 A 
BRANCH  72  75
ATOM     75  S   UNL A   1      42.963  32.053  38.380  1.00  0.00     0.127 S 
ATOM     76  O   UNL A   1      43.132  33.399  38.924  1.00  0.00    -0.237 OA
ATOM     77  O   UNL A   1      41.570  31.635  38.208  1.00  0.00    -0.237 OA
ATOM     78  O   UNL A   1      43.834  31.034  38.947  1.00  0.00    -0.744 OA
ENDBRANCH  72  75
ENDBRANCH  54  68
BRANCH  55  79
ATOM     79  C   UNL A   1      43.041  24.672  27.181  1.00  0.00     0.023 A 
ATOM     80  C   UNL A   1      43.634  24.962  25.936  1.00  0.00     0.012 A 
ATOM     81  C   UNL A   1      42.389  23.437  27.357  1.00  0.00     0.148 A 
ATOM     82  C   UNL A   1      43.546  24.058  24.877  1.00  0.00     0.002 A 
ATOM     83  C   UNL A   1      42.351  22.518  26.314  1.00  0.00     0.091 A 
ATOM     84  F   UNL A   1      41.814  23.182  28.542  1.00  0.00    -0.205 F 
ATOM     85  C   UNL A   1      42.915  22.832  25.068  1.00  0.00     0.022 A 
BRANCH  83  86
ATOM     86  S   UNL A   1      41.672  20.868  26.527  1.00  0.00     0.127 S 
ATOM     87  O   UNL A   1      40.239  21.115  26.405  1.00  0.00    -0.237 OA
ATOM     88  O   UNL A   1      42.270  20.139  25.406  1.00  0.00    -0.237 OA
ATOM     89  O   UNL A   1      42.139  20.430  27.835  1.00  0.00    -0.744 OA
ENDBRANCH  83  86
ENDBRANCH  55  79
BRANCH  67  90
ATOM     90  C   UNL A   1      47.955  26.135  31.918  1.00  0.00     0.023 A 
ATOM     91  C   UNL A   1      49.079  26.591  31.201  1.00  0.00     0.012 A 
ATOM     92  C   UNL A   1      48.126  25.194  32.951  1.00  0.00     0.148 A 
ATOM     93  C   UNL A   1      50.350  26.098  31.491  1.00  0.00     0.002 A 
ATOM     94  C   UNL A   1      49.401  24.739  33.263  1.00  0.00     0.091 A 
ATOM     95  F   UNL A   1      47.039  24.759  33.607  1.00  0.00    -0.205 F 
ATOM     96  C   UNL A   1      50.513  25.183  32.529  1.00  0.00     0.022 A 
BRANCH  94  97
ATOM     97  S   UNL A   1      49.716  23.629  34.641  1.00  0.00     0.127 S 
ATOM     98  O   UNL A   1      48.852  24.190  35.678  1.00  0.00    -0.237 OA
ATOM     99  O   UNL A   1      49.273  22.339  34.109  1.00  0.00    -0.237 OA
ATOM    100  O   UNL A   1      51.147  23.713  34.903  1.00  0.00    -0.744 OA
ENDBRANCH  94  97
ENDBRANCH  67  90
ENDBRANCH  41  42
ENDBRANCH  33  36
ENDBRANCH  31  32
ENDBRANCH  30  31
ENDBRANCH   1  30
TORSDOF 19
ENDMDL
