MODEL 1
REMARK VINA RESULT:     -12.9      0.000      0.000
REMARK SMILES C[C@@H](Oc1ccc(-c2ccccc2)cc1)C(=O)N1CCC[C@H](C(=O)NCCCCNC(=O)c2ccc(-c3c4nc(c(-c5cccc(S(=O)(=O)[O-])c5F)c5ccc([nH]5)c(-c5cccc(S(=O)(=O)[O-])c5F)c5nc(c(-c6cccc(S(=O)(=O)[O-])c6F)c6ccc3[nH]6)C=C5)C=C4)cc2)C1
REMARK SMILES IDX 26 1 25 2 23 3 24 4 22 6 18 7 19 8 96 9 20 10 21 11 16 12
REMARK SMILES IDX 17 13 2 14 1 15 3 16 4 17 5 18 15 19 6 20 14 21 7 22 8 23
REMARK SMILES IDX 9 24 13 25 10 26 12 27 11 28 27 29 28 30 29 31 30 32 31 33
REMARK SMILES IDX 32 35 33 36 34 37 95 38 35 39 94 40 36 41 37 42 38 43 88 44
REMARK SMILES IDX 39 45 93 46 87 47 89 48 40 49 92 50 86 51 85 52 41 54 73 55
REMARK SMILES IDX 53 56 72 57 54 58 57 59 71 60 90 61 55 62 56 63 70 65 91 66
REMARK SMILES IDX 58 67 42 68 43 69 51 70 44 71 46 72 52 73 45 74 47 75 48 76
REMARK SMILES IDX 49 77 50 78 74 79 75 80 83 81 76 82 78 83 84 84 77 85 79 86
REMARK SMILES IDX 80 87 81 88 82 89 59 90 60 91 68 92 61 93 63 94 69 95 62 96
REMARK SMILES IDX 64 97 65 98 66 99 67 100
REMARK H PARENT 25 5 30 34 89 53 57 64
REMARK Flexibility Score: inf
ROOT
ATOM      1  C   UNL A   1      34.895  24.291  23.773  1.00  0.00     0.116 C 
ENDROOT
BRANCH   1   2
ATOM      2  N   UNL A   1      34.167  24.889  22.678  1.00  0.00    -0.356 N 
ATOM      3  C   UNL A   1      33.782  26.168  22.439  1.00  0.00     0.224 C 
ATOM      4  O   UNL A   1      33.331  26.401  21.310  1.00  0.00    -0.275 OA
ATOM      5  H   UNL A   1      33.900  24.252  21.975  1.00  0.00     0.163 HD
BRANCH   3   6
ATOM      6  C   UNL A   1      33.855  27.315  23.456  1.00  0.00     0.098 C 
ATOM      7  N   UNL A   1      32.103  27.183  25.228  1.00  0.00    -0.339 N 
ATOM      8  C   UNL A   1      31.602  28.521  24.916  1.00  0.00     0.119 C 
ATOM      9  C   UNL A   1      33.500  26.939  24.897  1.00  0.00     0.133 C 
ATOM     10  C   UNL A   1      31.858  28.950  23.477  1.00  0.00     0.022 C 
ATOM     11  C   UNL A   1      33.266  28.644  22.981  1.00  0.00     0.017 C 
BRANCH   7  12
ATOM     12  C   UNL A   1      31.249  26.281  25.859  1.00  0.00     0.263 C 
ATOM     13  O   UNL A   1      31.272  26.157  27.091  1.00  0.00    -0.271 OA
BRANCH  12  14
ATOM     14  C   UNL A   1      30.330  25.359  25.030  1.00  0.00     0.259 C 
ATOM     15  C   UNL A   1      29.026  25.973  24.537  1.00  0.00     0.064 C 
BRANCH  14  16
ATOM     16  O   UNL A   1      31.140  24.912  23.934  1.00  0.00    -0.481 OA
BRANCH  16  17
ATOM     17  C   UNL A   1      31.366  23.566  23.952  1.00  0.00     0.120 A 
ATOM     18  C   UNL A   1      31.612  22.892  25.146  1.00  0.00     0.047 A 
ATOM     19  C   UNL A   1      31.505  22.919  22.733  1.00  0.00     0.047 A 
ATOM     20  C   UNL A   1      32.034  21.555  25.109  1.00  0.00     0.012 A 
ATOM     21  C   UNL A   1      31.915  21.589  22.701  1.00  0.00     0.012 A 
ATOM     22  C   UNL A   1      32.224  20.894  23.884  1.00  0.00    -0.018 A 
BRANCH  22  23
ATOM     23  C   UNL A   1      32.808  19.545  23.804  1.00  0.00    -0.018 A 
ATOM     24  C   UNL A   1      33.736  19.072  24.742  1.00  0.00     0.009 A 
ATOM     25  C   UNL A   1      32.420  18.677  22.764  1.00  0.00     0.009 A 
ATOM     26  C   UNL A   1      34.241  17.770  24.655  1.00  0.00     0.001 A 
ATOM     27  C   UNL A   1      32.922  17.378  22.676  1.00  0.00     0.001 A 
ATOM     28  C   UNL A   1      33.831  16.923  23.625  1.00  0.00     0.000 A 
ENDBRANCH  22  23
ENDBRANCH  16  17
ENDBRANCH  14  16
ENDBRANCH  12  14
ENDBRANCH   7  12
ENDBRANCH   3   6
ENDBRANCH   1   2
BRANCH   1  29
ATOM     29  C   UNL A   1      35.486  22.924  23.443  1.00  0.00     0.023 C 
BRANCH  29  30
ATOM     30  C   UNL A   1      35.678  22.002  24.642  1.00  0.00     0.023 C 
BRANCH  30  31
ATOM     31  C   UNL A   1      36.855  22.343  25.552  1.00  0.00     0.116 C 
BRANCH  31  32
ATOM     32  N   UNL A   1      37.863  21.298  25.661  1.00  0.00    -0.352 N 
ATOM     33  C   UNL A   1      39.150  21.408  26.155  1.00  0.00     0.251 C 
ATOM     34  H   UNL A   1      37.596  20.404  25.345  1.00  0.00     0.163 HD
ATOM     35  O   UNL A   1      39.925  20.472  26.109  1.00  0.00    -0.269 OA
BRANCH  33  36
ATOM     36  C   UNL A   1      39.580  22.714  26.712  1.00  0.00     0.039 A 
ATOM     37  C   UNL A   1      40.586  22.740  27.679  1.00  0.00     0.014 A 
ATOM     38  C   UNL A   1      39.040  23.903  26.220  1.00  0.00     0.014 A 
ATOM     39  C   UNL A   1      41.107  23.968  28.094  1.00  0.00     0.010 A 
ATOM     40  C   UNL A   1      39.622  25.117  26.565  1.00  0.00     0.010 A 
ATOM     41  C   UNL A   1      40.658  25.165  27.509  1.00  0.00    -0.014 A 
BRANCH  41  42
ATOM     42  C   UNL A   1      41.262  26.474  27.870  1.00  0.00     0.031 A 
ATOM     43  C   UNL A   1      42.683  26.785  27.482  1.00  0.00     0.074 A 
ATOM     44  C   UNL A   1      40.564  27.347  28.625  1.00  0.00     0.049 A 
ATOM     45  N   UNL A   1      43.389  27.858  27.730  1.00  0.00    -0.248 NA
ATOM     46  C   UNL A   1      43.421  25.741  26.752  1.00  0.00     0.031 C 
ATOM     47  C   UNL A   1      39.221  27.119  29.163  1.00  0.00     0.029 A 
ATOM     48  N   UNL A   1      40.898  28.594  29.092  1.00  0.00    -0.354 N 
ATOM     49  C   UNL A   1      44.657  27.603  27.224  1.00  0.00     0.074 A 
ATOM     50  C   UNL A   1      44.640  26.257  26.698  1.00  0.00     0.031 C 
ATOM     51  C   UNL A   1      38.840  28.197  29.870  1.00  0.00     0.029 A 
ATOM     52  C   UNL A   1      39.914  29.184  29.850  1.00  0.00     0.049 A 
ATOM     53  H   UNL A   1      41.763  29.026  28.901  1.00  0.00     0.167 HD
ATOM     54  C   UNL A   1      45.731  28.427  27.162  1.00  0.00     0.034 A 
ATOM     55  C   UNL A   1      39.877  30.391  30.449  1.00  0.00     0.034 A 
ATOM     56  C   UNL A   1      45.725  29.788  27.623  1.00  0.00     0.049 A 
ATOM     57  C   UNL A   1      41.047  31.323  30.284  1.00  0.00     0.074 A 
ATOM     58  C   UNL A   1      46.722  30.741  27.510  1.00  0.00     0.029 A 
ATOM     59  N   UNL A   1      44.666  30.393  28.281  1.00  0.00    -0.354 N 
ATOM     60  N   UNL A   1      42.173  31.130  29.639  1.00  0.00    -0.248 NA
ATOM     61  C   UNL A   1      40.925  32.657  30.890  1.00  0.00     0.031 C 
ATOM     62  C   UNL A   1      46.267  31.921  28.107  1.00  0.00     0.029 A 
ATOM     63  C   UNL A   1      44.983  31.707  28.582  1.00  0.00     0.049 A 
ATOM     64  H   UNL A   1      43.813  29.954  28.503  1.00  0.00     0.167 HD
ATOM     65  C   UNL A   1      42.878  32.325  29.734  1.00  0.00     0.074 A 
ATOM     66  C   UNL A   1      42.038  33.245  30.474  1.00  0.00     0.031 C 
ATOM     67  C   UNL A   1      44.115  32.627  29.270  1.00  0.00     0.034 A 
BRANCH  54  68
ATOM     68  C   UNL A   1      46.975  27.897  26.498  1.00  0.00     0.023 A 
ATOM     69  C   UNL A   1      47.945  27.237  27.280  1.00  0.00     0.012 A 
ATOM     70  C   UNL A   1      47.169  28.013  25.109  1.00  0.00     0.148 A 
ATOM     71  C   UNL A   1      49.108  26.735  26.697  1.00  0.00     0.002 A 
ATOM     72  C   UNL A   1      48.311  27.471  24.527  1.00  0.00     0.091 A 
ATOM     73  F   UNL A   1      46.248  28.664  24.384  1.00  0.00    -0.205 F 
ATOM     74  C   UNL A   1      49.286  26.843  25.322  1.00  0.00     0.022 A 
BRANCH  72  75
ATOM     75  S   UNL A   1      48.597  27.491  22.755  1.00  0.00     0.127 S 
ATOM     76  O   UNL A   1      48.600  26.063  22.440  1.00  0.00    -0.237 OA
ATOM     77  O   UNL A   1      47.431  28.222  22.261  1.00  0.00    -0.237 OA
ATOM     78  O   UNL A   1      49.868  28.177  22.563  1.00  0.00    -0.744 OA
ENDBRANCH  72  75
ENDBRANCH  54  68
BRANCH  55  79
ATOM     79  C   UNL A   1      38.649  30.827  31.173  1.00  0.00     0.023 A 
ATOM     80  C   UNL A   1      38.582  30.661  32.571  1.00  0.00     0.012 A 
ATOM     81  C   UNL A   1      37.565  31.423  30.500  1.00  0.00     0.148 A 
ATOM     82  C   UNL A   1      37.445  31.049  33.280  1.00  0.00     0.002 A 
ATOM     83  C   UNL A   1      36.458  31.855  31.221  1.00  0.00     0.091 A 
ATOM     84  F   UNL A   1      37.642  31.561  29.169  1.00  0.00    -0.205 F 
ATOM     85  C   UNL A   1      36.388  31.654  32.608  1.00  0.00     0.022 A 
BRANCH  83  86
ATOM     86  S   UNL A   1      35.107  32.760  30.454  1.00  0.00     0.127 S 
ATOM     87  O   UNL A   1      34.188  32.933  31.575  1.00  0.00    -0.237 OA
ATOM     88  O   UNL A   1      35.775  33.985  30.009  1.00  0.00    -0.237 OA
ATOM     89  O   UNL A   1      34.636  31.910  29.369  1.00  0.00    -0.744 OA
ENDBRANCH  83  86
ENDBRANCH  55  79
BRANCH  67  90
ATOM     90  C   UNL A   1      44.633  34.017  29.527  1.00  0.00     0.023 A 
ATOM     91  C   UNL A   1      45.266  34.307  30.753  1.00  0.00     0.012 A 
ATOM     92  C   UNL A   1      44.552  35.015  28.538  1.00  0.00     0.148 A 
ATOM     93  C   UNL A   1      45.778  35.580  31.002  1.00  0.00     0.002 A 
ATOM     94  C   UNL A   1      45.108  36.268  28.775  1.00  0.00     0.091 A 
ATOM     95  F   UNL A   1      43.929  34.729  27.386  1.00  0.00    -0.205 F 
ATOM     96  C   UNL A   1      45.710  36.556  30.011  1.00  0.00     0.022 A 
BRANCH  94  97
ATOM     97  S   UNL A   1      45.145  37.547  27.515  1.00  0.00     0.127 S 
ATOM     98  O   UNL A   1      45.786  38.651  28.227  1.00  0.00    -0.237 OA
ATOM     99  O   UNL A   1      45.968  36.938  26.470  1.00  0.00    -0.237 OA
ATOM    100  O   UNL A   1      43.756  37.764  27.132  1.00  0.00    -0.744 OA
ENDBRANCH  94  97
ENDBRANCH  67  90
ENDBRANCH  41  42
ENDBRANCH  33  36
ENDBRANCH  31  32
ENDBRANCH  30  31
ENDBRANCH  29  30
ENDBRANCH   1  29
TORSDOF 19
ENDMDL
MODEL 2
REMARK VINA RESULT:     -12.7      0.949      7.321
REMARK SMILES C[C@@H](Oc1ccc(-c2ccccc2)cc1)C(=O)N1CCC[C@H](C(=O)NCCCCNC(=O)c2ccc(-c3c4nc(c(-c5cccc(S(=O)(=O)[O-])c5F)c5ccc([nH]5)c(-c5cccc(S(=O)(=O)[O-])c5F)c5nc(c(-c6cccc(S(=O)(=O)[O-])c6F)c6ccc3[nH]6)C=C5)C=C4)cc2)C1
REMARK SMILES IDX 26 1 25 2 23 3 24 4 22 6 18 7 19 8 96 9 20 10 21 11 16 12
REMARK SMILES IDX 17 13 2 14 1 15 3 16 4 17 5 18 15 19 6 20 14 21 7 22 8 23
REMARK SMILES IDX 9 24 13 25 10 26 12 27 11 28 27 29 28 30 29 31 30 32 31 33
REMARK SMILES IDX 32 35 33 36 34 37 95 38 35 39 94 40 36 41 37 42 38 43 88 44
REMARK SMILES IDX 39 45 93 46 87 47 89 48 40 49 92 50 86 51 85 52 41 54 73 55
REMARK SMILES IDX 53 56 72 57 54 58 57 59 71 60 90 61 55 62 56 63 70 65 91 66
REMARK SMILES IDX 58 67 42 68 43 69 51 70 44 71 46 72 52 73 45 74 47 75 48 76
REMARK SMILES IDX 49 77 50 78 74 79 75 80 83 81 76 82 78 83 84 84 77 85 79 86
REMARK SMILES IDX 80 87 81 88 82 89 59 90 60 91 68 92 61 93 63 94 69 95 62 96
REMARK SMILES IDX 64 97 65 98 66 99 67 100
REMARK H PARENT 25 5 30 34 89 53 57 64
REMARK Flexibility Score: inf
ROOT
ATOM      1  C   UNL A   1      34.883  24.419  23.892  1.00  0.00     0.116 C 
ENDROOT
BRANCH   1   2
ATOM      2  N   UNL A   1      34.257  25.027  22.740  1.00  0.00    -0.356 N 
ATOM      3  C   UNL A   1      33.897  26.309  22.478  1.00  0.00     0.224 C 
ATOM      4  O   UNL A   1      33.550  26.553  21.316  1.00  0.00    -0.275 OA
ATOM      5  H   UNL A   1      34.054  24.396  22.011  1.00  0.00     0.163 HD
BRANCH   3   6
ATOM      6  C   UNL A   1      33.880  27.448  23.508  1.00  0.00     0.098 C 
ATOM      7  N   UNL A   1      32.100  27.193  25.239  1.00  0.00    -0.339 N 
ATOM      8  C   UNL A   1      31.528  28.501  24.929  1.00  0.00     0.119 C 
ATOM      9  C   UNL A   1      33.516  27.035  24.937  1.00  0.00     0.133 C 
ATOM     10  C   UNL A   1      31.789  28.960  23.500  1.00  0.00     0.022 C 
ATOM     11  C   UNL A   1      33.223  28.744  23.033  1.00  0.00     0.017 C 
BRANCH   7  12
ATOM     12  C   UNL A   1      31.288  26.234  25.843  1.00  0.00     0.263 C 
ATOM     13  O   UNL A   1      31.258  26.130  27.076  1.00  0.00    -0.271 OA
BRANCH  12  14
ATOM     14  C   UNL A   1      30.488  25.231  24.984  1.00  0.00     0.259 C 
ATOM     15  C   UNL A   1      29.277  25.790  24.248  1.00  0.00     0.064 C 
BRANCH  14  16
ATOM     16  O   UNL A   1      31.443  24.678  24.068  1.00  0.00    -0.481 OA
BRANCH  16  17
ATOM     17  C   UNL A   1      31.525  23.318  24.142  1.00  0.00     0.120 A 
ATOM     18  C   UNL A   1      31.545  22.662  25.371  1.00  0.00     0.047 A 
ATOM     19  C   UNL A   1      31.754  22.621  22.964  1.00  0.00     0.047 A 
ATOM     20  C   UNL A   1      31.828  21.289  25.415  1.00  0.00     0.012 A 
ATOM     21  C   UNL A   1      32.026  21.257  23.012  1.00  0.00     0.012 A 
ATOM     22  C   UNL A   1      32.107  20.573  24.238  1.00  0.00    -0.018 A 
BRANCH  22  23
ATOM     23  C   UNL A   1      32.556  19.171  24.262  1.00  0.00    -0.018 A 
ATOM     24  C   UNL A   1      32.894  18.471  23.096  1.00  0.00     0.009 A 
ATOM     25  C   UNL A   1      32.672  18.497  25.494  1.00  0.00     0.009 A 
ATOM     26  C   UNL A   1      33.353  17.150  23.162  1.00  0.00     0.001 A 
ATOM     27  C   UNL A   1      33.130  17.181  25.562  1.00  0.00     0.001 A 
ATOM     28  C   UNL A   1      33.474  16.509  24.395  1.00  0.00     0.000 A 
ENDBRANCH  22  23
ENDBRANCH  16  17
ENDBRANCH  14  16
ENDBRANCH  12  14
ENDBRANCH   7  12
ENDBRANCH   3   6
ENDBRANCH   1   2
BRANCH   1  29
ATOM     29  C   UNL A   1      35.776  23.230  23.547  1.00  0.00     0.023 C 
BRANCH  29  30
ATOM     30  C   UNL A   1      35.527  21.979  24.381  1.00  0.00     0.023 C 
BRANCH  30  31
ATOM     31  C   UNL A   1      36.417  21.819  25.611  1.00  0.00     0.116 C 
BRANCH  31  32
ATOM     32  N   UNL A   1      37.382  20.732  25.527  1.00  0.00    -0.352 N 
ATOM     33  C   UNL A   1      38.726  20.763  25.852  1.00  0.00     0.251 C 
ATOM     34  H   UNL A   1      37.036  19.870  25.199  1.00  0.00     0.163 HD
ATOM     35  O   UNL A   1      39.445  19.802  25.651  1.00  0.00    -0.269 OA
BRANCH  33  36
ATOM     36  C   UNL A   1      39.285  22.014  26.419  1.00  0.00     0.039 A 
ATOM     37  C   UNL A   1      40.369  21.937  27.294  1.00  0.00     0.014 A 
ATOM     38  C   UNL A   1      38.781  23.254  26.022  1.00  0.00     0.014 A 
ATOM     39  C   UNL A   1      41.001  23.112  27.708  1.00  0.00     0.010 A 
ATOM     40  C   UNL A   1      39.466  24.414  26.362  1.00  0.00     0.010 A 
ATOM     41  C   UNL A   1      40.580  24.358  27.213  1.00  0.00    -0.014 A 
BRANCH  41  42
ATOM     42  C   UNL A   1      41.294  25.612  27.569  1.00  0.00     0.031 A 
ATOM     43  C   UNL A   1      40.591  26.686  28.356  1.00  0.00     0.074 A 
ATOM     44  C   UNL A   1      42.544  25.824  27.109  1.00  0.00     0.049 A 
ATOM     45  N   UNL A   1      41.038  27.855  28.737  1.00  0.00    -0.248 NA
ATOM     46  C   UNL A   1      39.190  26.431  28.732  1.00  0.00     0.031 C 
ATOM     47  C   UNL A   1      43.296  24.913  26.242  1.00  0.00     0.029 A 
ATOM     48  N   UNL A   1      43.395  26.886  27.288  1.00  0.00    -0.354 N 
ATOM     49  C   UNL A   1      39.968  28.486  29.359  1.00  0.00     0.074 A 
ATOM     50  C   UNL A   1      38.835  27.592  29.263  1.00  0.00     0.031 C 
ATOM     51  C   UNL A   1      44.500  25.447  25.981  1.00  0.00     0.029 A 
ATOM     52  C   UNL A   1      44.602  26.742  26.644  1.00  0.00     0.049 A 
ATOM     53  H   UNL A   1      43.163  27.677  27.827  1.00  0.00     0.167 HD
ATOM     54  C   UNL A   1      39.937  29.683  29.993  1.00  0.00     0.034 A 
ATOM     55  C   UNL A   1      45.676  27.557  26.606  1.00  0.00     0.034 A 
ATOM     56  C   UNL A   1      41.081  30.538  30.148  1.00  0.00     0.049 A 
ATOM     57  C   UNL A   1      45.648  28.837  27.397  1.00  0.00     0.074 A 
ATOM     58  C   UNL A   1      41.184  31.718  30.863  1.00  0.00     0.029 A 
ATOM     59  N   UNL A   1      42.324  30.303  29.583  1.00  0.00    -0.354 N 
ATOM     60  N   UNL A   1      44.683  29.331  28.136  1.00  0.00    -0.248 NA
ATOM     61  C   UNL A   1      46.871  29.652  27.387  1.00  0.00     0.031 C 
ATOM     62  C   UNL A   1      42.489  32.200  30.723  1.00  0.00     0.029 A 
ATOM     63  C   UNL A   1      43.202  31.314  29.931  1.00  0.00     0.049 A 
ATOM     64  H   UNL A   1      42.550  29.530  29.016  1.00  0.00     0.167 HD
ATOM     65  C   UNL A   1      45.192  30.494  28.703  1.00  0.00     0.074 A 
ATOM     66  C   UNL A   1      46.562  30.615  28.244  1.00  0.00     0.031 C 
ATOM     67  C   UNL A   1      44.578  31.392  29.512  1.00  0.00     0.034 A 
BRANCH  54  68
ATOM     68  C   UNL A   1      38.637  30.094  30.635  1.00  0.00     0.023 A 
ATOM     69  C   UNL A   1      38.354  29.672  31.950  1.00  0.00     0.012 A 
ATOM     70  C   UNL A   1      37.721  30.925  29.964  1.00  0.00     0.148 A 
ATOM     71  C   UNL A   1      37.161  30.035  32.573  1.00  0.00     0.002 A 
ATOM     72  C   UNL A   1      36.552  31.320  30.608  1.00  0.00     0.091 A 
ATOM     73  F   UNL A   1      37.994  31.298  28.706  1.00  0.00    -0.205 F 
ATOM     74  C   UNL A   1      36.266  30.865  31.906  1.00  0.00     0.022 A 
BRANCH  72  75
ATOM     75  S   UNL A   1      35.370  32.449  29.864  1.00  0.00     0.127 S 
ATOM     76  O   UNL A   1      36.200  33.628  29.622  1.00  0.00    -0.237 OA
ATOM     77  O   UNL A   1      34.970  31.727  28.656  1.00  0.00    -0.237 OA
ATOM     78  O   UNL A   1      34.309  32.621  30.847  1.00  0.00    -0.744 OA
ENDBRANCH  72  75
ENDBRANCH  54  68
BRANCH  55  79
ATOM     79  C   UNL A   1      46.906  27.137  25.875  1.00  0.00     0.023 A 
ATOM     80  C   UNL A   1      47.812  26.262  26.506  1.00  0.00     0.012 A 
ATOM     81  C   UNL A   1      47.171  27.571  24.563  1.00  0.00     0.148 A 
ATOM     82  C   UNL A   1      48.977  25.854  25.856  1.00  0.00     0.002 A 
ATOM     83  C   UNL A   1      48.308  27.119  23.902  1.00  0.00     0.091 A 
ATOM     84  F   UNL A   1      46.303  28.413  23.984  1.00  0.00    -0.205 F 
ATOM     85  C   UNL A   1      49.221  26.274  24.552  1.00  0.00     0.022 A 
BRANCH  83  86
ATOM     86  S   UNL A   1      48.633  27.507  22.177  1.00  0.00     0.127 S 
ATOM     87  O   UNL A   1      49.944  28.144  22.256  1.00  0.00    -0.237 OA
ATOM     88  O   UNL A   1      48.628  26.178  21.561  1.00  0.00    -0.237 OA
ATOM     89  O   UNL A   1      47.533  28.363  21.757  1.00  0.00    -0.744 OA
ENDBRANCH  83  86
ENDBRANCH  55  79
BRANCH  67  90
ATOM     90  C   UNL A   1      45.384  32.576  29.974  1.00  0.00     0.023 A 
ATOM     91  C   UNL A   1      46.127  32.488  31.168  1.00  0.00     0.012 A 
ATOM     92  C   UNL A   1      45.456  33.750  29.200  1.00  0.00     0.148 A 
ATOM     93  C   UNL A   1      46.902  33.563  31.602  1.00  0.00     0.002 A 
ATOM     94  C   UNL A   1      46.269  34.800  29.615  1.00  0.00     0.091 A 
ATOM     95  F   UNL A   1      44.727  33.826  28.078  1.00  0.00    -0.205 F 
ATOM     96  C   UNL A   1      46.982  34.713  30.821  1.00  0.00     0.022 A 
BRANCH  94  97
ATOM     97  S   UNL A   1      46.500  36.276  28.617  1.00  0.00     0.127 S 
ATOM     98  O   UNL A   1      45.213  36.950  28.778  1.00  0.00    -0.237 OA
ATOM     99  O   UNL A   1      47.621  36.937  29.284  1.00  0.00    -0.237 OA
ATOM    100  O   UNL A   1      46.800  35.799  27.273  1.00  0.00    -0.744 OA
ENDBRANCH  94  97
ENDBRANCH  67  90
ENDBRANCH  41  42
ENDBRANCH  33  36
ENDBRANCH  31  32
ENDBRANCH  30  31
ENDBRANCH  29  30
ENDBRANCH   1  29
TORSDOF 19
ENDMDL
MODEL 3
REMARK VINA RESULT:     -12.3      1.497      2.085
REMARK SMILES C[C@@H](Oc1ccc(-c2ccccc2)cc1)C(=O)N1CCC[C@H](C(=O)NCCCCNC(=O)c2ccc(-c3c4nc(c(-c5cccc(S(=O)(=O)[O-])c5F)c5ccc([nH]5)c(-c5cccc(S(=O)(=O)[O-])c5F)c5nc(c(-c6cccc(S(=O)(=O)[O-])c6F)c6ccc3[nH]6)C=C5)C=C4)cc2)C1
REMARK SMILES IDX 26 1 25 2 23 3 24 4 22 6 18 7 19 8 96 9 20 10 21 11 16 12
REMARK SMILES IDX 17 13 2 14 1 15 3 16 4 17 5 18 15 19 6 20 14 21 7 22 8 23
REMARK SMILES IDX 9 24 13 25 10 26 12 27 11 28 27 29 28 30 29 31 30 32 31 33
REMARK SMILES IDX 32 35 33 36 34 37 95 38 35 39 94 40 36 41 37 42 38 43 88 44
REMARK SMILES IDX 39 45 93 46 87 47 89 48 40 49 92 50 86 51 85 52 41 54 73 55
REMARK SMILES IDX 53 56 72 57 54 58 57 59 71 60 90 61 55 62 56 63 70 65 91 66
REMARK SMILES IDX 58 67 42 68 43 69 51 70 44 71 46 72 52 73 45 74 47 75 48 76
REMARK SMILES IDX 49 77 50 78 74 79 75 80 83 81 76 82 78 83 84 84 77 85 79 86
REMARK SMILES IDX 80 87 81 88 82 89 59 90 60 91 68 92 61 93 63 94 69 95 62 96
REMARK SMILES IDX 64 97 65 98 66 99 67 100
REMARK H PARENT 25 5 30 34 89 53 57 64
REMARK Flexibility Score: inf
ROOT
ATOM      1  C   UNL A   1      35.921  23.389  23.878  1.00  0.00     0.116 C 
ENDROOT
BRANCH   1   2
ATOM      2  N   UNL A   1      34.616  22.977  23.414  1.00  0.00    -0.356 N 
ATOM      3  C   UNL A   1      33.664  23.628  22.698  1.00  0.00     0.224 C 
ATOM      4  O   UNL A   1      32.721  22.939  22.290  1.00  0.00    -0.275 OA
ATOM      5  H   UNL A   1      34.372  22.056  23.662  1.00  0.00     0.163 HD
BRANCH   3   6
ATOM      6  C   UNL A   1      33.674  25.129  22.378  1.00  0.00     0.098 C 
ATOM      7  N   UNL A   1      32.064  26.448  23.757  1.00  0.00    -0.339 N 
ATOM      8  C   UNL A   1      31.398  26.986  22.572  1.00  0.00     0.119 C 
ATOM      9  C   UNL A   1      33.456  26.057  23.576  1.00  0.00     0.133 C 
ATOM     10  C   UNL A   1      31.512  26.089  21.346  1.00  0.00     0.022 C 
ATOM     11  C   UNL A   1      32.911  25.530  21.116  1.00  0.00     0.017 C 
BRANCH   7  12
ATOM     12  C   UNL A   1      31.359  26.404  24.957  1.00  0.00     0.263 C 
ATOM     13  O   UNL A   1      30.140  26.622  24.972  1.00  0.00    -0.271 OA
BRANCH  12  14
ATOM     14  C   UNL A   1      32.097  26.177  26.294  1.00  0.00     0.259 C 
ATOM     15  C   UNL A   1      32.310  27.409  27.165  1.00  0.00     0.064 C 
BRANCH  14  16
ATOM     16  O   UNL A   1      31.326  25.182  26.982  1.00  0.00    -0.481 OA
BRANCH  16  17
ATOM     17  C   UNL A   1      31.677  23.908  26.643  1.00  0.00     0.120 A 
ATOM     18  C   UNL A   1      32.973  23.437  26.847  1.00  0.00     0.047 A 
ATOM     19  C   UNL A   1      30.753  23.149  25.939  1.00  0.00     0.047 A 
ATOM     20  C   UNL A   1      33.351  22.199  26.309  1.00  0.00     0.012 A 
ATOM     21  C   UNL A   1      31.129  21.916  25.414  1.00  0.00     0.012 A 
ATOM     22  C   UNL A   1      32.443  21.435  25.555  1.00  0.00    -0.018 A 
BRANCH  22  23
ATOM     23  C   UNL A   1      32.849  20.207  24.851  1.00  0.00    -0.018 A 
ATOM     24  C   UNL A   1      32.091  19.654  23.809  1.00  0.00     0.009 A 
ATOM     25  C   UNL A   1      34.047  19.560  25.212  1.00  0.00     0.009 A 
ATOM     26  C   UNL A   1      32.529  18.506  23.138  1.00  0.00     0.001 A 
ATOM     27  C   UNL A   1      34.485  18.416  24.543  1.00  0.00     0.001 A 
ATOM     28  C   UNL A   1      33.726  17.891  23.503  1.00  0.00     0.000 A 
ENDBRANCH  22  23
ENDBRANCH  16  17
ENDBRANCH  14  16
ENDBRANCH  12  14
ENDBRANCH   7  12
ENDBRANCH   3   6
ENDBRANCH   1   2
BRANCH   1  29
ATOM     29  C   UNL A   1      37.011  22.346  23.646  1.00  0.00     0.023 C 
BRANCH  29  30
ATOM     30  C   UNL A   1      37.209  21.362  24.794  1.00  0.00     0.023 C 
BRANCH  30  31
ATOM     31  C   UNL A   1      38.440  21.605  25.663  1.00  0.00     0.116 C 
BRANCH  31  32
ATOM     32  N   UNL A   1      39.303  20.445  25.836  1.00  0.00    -0.352 N 
ATOM     33  C   UNL A   1      40.613  20.420  26.276  1.00  0.00     0.251 C 
ATOM     34  H   UNL A   1      38.904  19.572  25.614  1.00  0.00     0.163 HD
ATOM     35  O   UNL A   1      41.253  19.385  26.292  1.00  0.00    -0.269 OA
BRANCH  33  36
ATOM     36  C   UNL A   1      41.240  21.697  26.695  1.00  0.00     0.039 A 
ATOM     37  C   UNL A   1      41.735  22.562  25.718  1.00  0.00     0.014 A 
ATOM     38  C   UNL A   1      41.263  22.062  28.042  1.00  0.00     0.014 A 
ATOM     39  C   UNL A   1      42.183  23.832  26.090  1.00  0.00     0.010 A 
ATOM     40  C   UNL A   1      41.622  23.357  28.397  1.00  0.00     0.010 A 
ATOM     41  C   UNL A   1      42.091  24.256  27.427  1.00  0.00    -0.014 A 
BRANCH  41  42
ATOM     42  C   UNL A   1      42.476  25.633  27.829  1.00  0.00     0.031 A 
ATOM     43  C   UNL A   1      43.916  26.068  27.757  1.00  0.00     0.074 A 
ATOM     44  C   UNL A   1      41.548  26.464  28.346  1.00  0.00     0.049 A 
ATOM     45  N   UNL A   1      44.447  27.216  28.089  1.00  0.00    -0.248 NA
ATOM     46  C   UNL A   1      44.893  25.072  27.286  1.00  0.00     0.031 C 
ATOM     47  C   UNL A   1      40.141  26.127  28.575  1.00  0.00     0.029 A 
ATOM     48  N   UNL A   1      41.653  27.758  28.792  1.00  0.00    -0.354 N 
ATOM     49  C   UNL A   1      45.817  27.067  27.905  1.00  0.00     0.074 A 
ATOM     50  C   UNL A   1      46.041  25.704  27.479  1.00  0.00     0.031 C 
ATOM     51  C   UNL A   1      39.513  27.191  29.103  1.00  0.00     0.029 A 
ATOM     52  C   UNL A   1      40.471  28.279  29.265  1.00  0.00     0.049 A 
ATOM     53  H   UNL A   1      42.498  28.265  28.776  1.00  0.00     0.167 HD
ATOM     54  C   UNL A   1      46.799  27.992  28.036  1.00  0.00     0.034 A 
ATOM     55  C   UNL A   1      40.189  29.501  29.759  1.00  0.00     0.034 A 
ATOM     56  C   UNL A   1      46.566  29.364  28.392  1.00  0.00     0.049 A 
ATOM     57  C   UNL A   1      41.280  30.538  29.804  1.00  0.00     0.074 A 
ATOM     58  C   UNL A   1      47.475  30.406  28.448  1.00  0.00     0.029 A 
ATOM     59  N   UNL A   1      45.334  29.888  28.749  1.00  0.00    -0.354 N 
ATOM     60  N   UNL A   1      42.538  30.430  29.449  1.00  0.00    -0.248 NA
ATOM     61  C   UNL A   1      40.903  31.878  30.277  1.00  0.00     0.031 C 
ATOM     62  C   UNL A   1      46.792  31.559  28.846  1.00  0.00     0.029 A 
ATOM     63  C   UNL A   1      45.456  31.239  29.027  1.00  0.00     0.049 A 
ATOM     64  H   UNL A   1      44.494  29.376  28.798  1.00  0.00     0.167 HD
ATOM     65  C   UNL A   1      43.094  31.693  29.623  1.00  0.00     0.074 A 
ATOM     66  C   UNL A   1      42.027  32.556  30.089  1.00  0.00     0.031 C 
ATOM     67  C   UNL A   1      44.374  32.097  29.436  1.00  0.00     0.034 A 
BRANCH  54  68
ATOM     68  C   UNL A   1      48.205  27.560  27.711  1.00  0.00     0.023 A 
ATOM     69  C   UNL A   1      48.996  26.973  28.720  1.00  0.00     0.012 A 
ATOM     70  C   UNL A   1      48.730  27.695  26.412  1.00  0.00     0.148 A 
ATOM     71  C   UNL A   1      50.301  26.563  28.453  1.00  0.00     0.002 A 
ATOM     72  C   UNL A   1      50.018  27.244  26.141  1.00  0.00     0.091 A 
ATOM     73  F   UNL A   1      47.974  28.277  25.471  1.00  0.00    -0.205 F 
ATOM     74  C   UNL A   1      50.808  26.689  27.163  1.00  0.00     0.022 A 
BRANCH  72  75
ATOM     75  S   UNL A   1      50.736  27.292  24.496  1.00  0.00     0.127 S 
ATOM     76  O   UNL A   1      49.716  26.599  23.709  1.00  0.00    -0.237 OA
ATOM     77  O   UNL A   1      50.831  28.729  24.242  1.00  0.00    -0.237 OA
ATOM     78  O   UNL A   1      52.018  26.609  24.599  1.00  0.00    -0.744 OA
ENDBRANCH  72  75
ENDBRANCH  54  68
BRANCH  55  79
ATOM     79  C   UNL A   1      38.792  29.843  30.151  1.00  0.00     0.023 A 
ATOM     80  C   UNL A   1      38.363  29.568  31.465  1.00  0.00     0.012 A 
ATOM     81  C   UNL A   1      37.900  30.457  29.252  1.00  0.00     0.148 A 
ATOM     82  C   UNL A   1      37.061  29.866  31.866  1.00  0.00     0.002 A 
ATOM     83  C   UNL A   1      36.621  30.800  29.675  1.00  0.00     0.091 A 
ATOM     84  F   UNL A   1      38.323  30.701  28.004  1.00  0.00    -0.205 F 
ATOM     85  C   UNL A   1      36.193  30.490  30.975  1.00  0.00     0.022 A 
BRANCH  83  86
ATOM     86  S   UNL A   1      35.481  31.722  28.634  1.00  0.00     0.127 S 
ATOM     87  O   UNL A   1      35.105  30.720  27.641  1.00  0.00    -0.237 OA
ATOM     88  O   UNL A   1      34.423  32.078  29.582  1.00  0.00    -0.237 OA
ATOM     89  O   UNL A   1      36.243  32.858  28.136  1.00  0.00    -0.744 OA
ENDBRANCH  83  86
ENDBRANCH  55  79
BRANCH  67  90
ATOM     90  C   UNL A   1      44.694  33.541  29.713  1.00  0.00     0.023 A 
ATOM     91  C   UNL A   1      45.146  33.921  30.992  1.00  0.00     0.012 A 
ATOM     92  C   UNL A   1      44.610  34.511  28.694  1.00  0.00     0.148 A 
ATOM     93  C   UNL A   1      45.475  35.248  31.264  1.00  0.00     0.002 A 
ATOM     94  C   UNL A   1      44.985  35.824  28.959  1.00  0.00     0.091 A 
ATOM     95  F   UNL A   1      44.158  34.137  27.488  1.00  0.00    -0.205 F 
ATOM     96  C   UNL A   1      45.406  36.196  30.246  1.00  0.00     0.022 A 
BRANCH  94  97
ATOM     97  S   UNL A   1      45.015  37.082  27.678  1.00  0.00     0.127 S 
ATOM     98  O   UNL A   1      45.969  36.516  26.726  1.00  0.00    -0.237 OA
ATOM     99  O   UNL A   1      43.627  37.094  27.214  1.00  0.00    -0.237 OA
ATOM    100  O   UNL A   1      45.435  38.309  28.341  1.00  0.00    -0.744 OA
ENDBRANCH  94  97
ENDBRANCH  67  90
ENDBRANCH  41  42
ENDBRANCH  33  36
ENDBRANCH  31  32
ENDBRANCH  30  31
ENDBRANCH  29  30
ENDBRANCH   1  29
TORSDOF 19
ENDMDL
