MODEL 1
REMARK VINA RESULT:     -10.6      0.000      0.000
REMARK SMILES O=C(/C=C\N1[C@@H]2CC[C@H]1C[C@H](O)C2)NCCCCNC(=O)c1ccc(-c2c3nc(c(-c4cccc(S(=O)(=O)[O-])c4F)c4ccc([nH]4)c(-c4cccc(S(=O)(=O)[O-])c4F)c4nc(c(-c5cccc(S(=O)(=O)[O-])c5F)c5ccc2[nH]5)C=C4)C=C3)cc1
REMARK SMILES IDX 17 1 16 2 15 3 14 4 1 5 2 6 3 8 4 9 5 10 6 11 9 12 7 13
REMARK SMILES IDX 13 14 8 15 10 16 11 17 12 18 18 20 19 21 20 22 21 24 22 25
REMARK SMILES IDX 23 26 84 27 24 28 83 29 25 30 26 31 27 32 77 33 28 34 82 35
REMARK SMILES IDX 76 36 78 37 29 38 81 39 75 40 74 41 30 43 62 44 42 45 61 46
REMARK SMILES IDX 43 47 46 48 60 49 79 50 44 51 45 52 59 54 80 55 47 56 31 57
REMARK SMILES IDX 32 58 40 59 33 60 35 61 41 62 34 63 36 64 37 65 38 66 39 67
REMARK SMILES IDX 63 68 64 69 72 70 65 71 67 72 73 73 66 74 68 75 69 76 70 77
REMARK SMILES IDX 71 78 48 79 49 80 57 81 50 82 52 83 58 84 51 85 53 86 54 87
REMARK SMILES IDX 55 88 56 89
REMARK H PARENT 14 7 12 19 19 23 78 42 46 53
REMARK Flexibility Score: inf
ROOT
ATOM      1  C   UNL A   1      34.830  34.114  27.982  1.00  0.00     0.023 C 
ENDROOT
BRANCH   1   2
ATOM      2  C   UNL A   1      34.333  35.523  28.347  1.00  0.00     0.023 C 
BRANCH   2   3
ATOM      3  C   UNL A   1      33.327  35.700  29.497  1.00  0.00     0.116 C 
BRANCH   3   4
ATOM      4  N   UNL A   1      33.884  35.966  30.811  1.00  0.00    -0.353 N 
ATOM      5  O   UNL A   1      32.233  35.014  32.086  1.00  0.00    -0.270 OA
ATOM      6  C   UNL A   1      33.305  35.597  31.996  1.00  0.00     0.245 C 
ATOM      7  H   UNL A   1      34.741  36.448  30.854  1.00  0.00     0.163 HD
BRANCH   6   8
ATOM      8  C   UNL A   1      34.144  35.794  33.219  1.00  0.00     0.088 C 
ATOM      9  C   UNL A   1      35.244  35.179  33.681  1.00  0.00     0.087 C 
BRANCH   9  10
ATOM     10  N   UNL A   1      36.075  34.193  33.199  1.00  0.00    -0.371 N 
ATOM     11  C   UNL A   1      36.768  34.181  31.898  1.00  0.00     0.084 C 
ATOM     12  C   UNL A   1      36.359  32.886  33.777  1.00  0.00     0.084 C 
ATOM     13  C   UNL A   1      36.657  32.710  31.421  1.00  0.00     0.027 C 
ATOM     14  C   UNL A   1      38.238  34.541  32.194  1.00  0.00     0.056 C 
ATOM     15  C   UNL A   1      36.054  31.961  32.604  1.00  0.00     0.027 C 
ATOM     16  C   UNL A   1      37.863  32.846  34.106  1.00  0.00     0.056 C 
ATOM     17  C   UNL A   1      38.673  34.039  33.581  1.00  0.00     0.118 C 
BRANCH  17  18
ATOM     18  O   UNL A   1      38.538  35.107  34.541  1.00  0.00    -0.393 OA
ATOM     19  H   UNL A   1      38.513  34.736  35.436  1.00  0.00     0.210 HD
ENDBRANCH  17  18
ENDBRANCH   9  10
ENDBRANCH   6   8
ENDBRANCH   3   4
ENDBRANCH   2   3
ENDBRANCH   1   2
BRANCH   1  20
ATOM     20  C   UNL A   1      34.266  32.910  28.747  1.00  0.00     0.116 C 
BRANCH  20  21
ATOM     21  N   UNL A   1      33.719  31.840  27.949  1.00  0.00    -0.352 N 
ATOM     22  C   UNL A   1      34.265  30.607  27.657  1.00  0.00     0.251 C 
ATOM     23  H   UNL A   1      32.832  32.014  27.559  1.00  0.00     0.163 HD
ATOM     24  O   UNL A   1      33.593  29.809  27.005  1.00  0.00    -0.269 OA
BRANCH  22  25
ATOM     25  C   UNL A   1      35.657  30.225  28.047  1.00  0.00     0.039 A 
ATOM     26  C   UNL A   1      35.832  29.671  29.322  1.00  0.00     0.014 A 
ATOM     27  C   UNL A   1      36.789  30.444  27.252  1.00  0.00     0.014 A 
ATOM     28  C   UNL A   1      37.105  29.300  29.777  1.00  0.00     0.010 A 
ATOM     29  C   UNL A   1      38.062  30.026  27.692  1.00  0.00     0.010 A 
ATOM     30  C   UNL A   1      38.238  29.447  28.961  1.00  0.00    -0.014 A 
BRANCH  30  31
ATOM     31  C   UNL A   1      39.574  28.968  29.440  1.00  0.00     0.031 A 
ATOM     32  C   UNL A   1      40.304  29.654  30.568  1.00  0.00     0.074 A 
ATOM     33  C   UNL A   1      40.153  27.896  28.855  1.00  0.00     0.049 A 
ATOM     34  N   UNL A   1      41.447  29.334  31.127  1.00  0.00    -0.248 NA
ATOM     35  C   UNL A   1      39.681  30.857  31.136  1.00  0.00     0.031 C 
ATOM     36  C   UNL A   1      39.599  27.156  27.721  1.00  0.00     0.029 A 
ATOM     37  N   UNL A   1      41.337  27.250  29.123  1.00  0.00    -0.354 N 
ATOM     38  C   UNL A   1      41.689  30.301  32.098  1.00  0.00     0.074 A 
ATOM     39  C   UNL A   1      40.586  31.238  32.029  1.00  0.00     0.031 C 
ATOM     40  C   UNL A   1      40.436  26.159  27.395  1.00  0.00     0.029 A 
ATOM     41  C   UNL A   1      41.603  26.202  28.272  1.00  0.00     0.049 A 
ATOM     42  H   UNL A   1      41.940  27.514  29.856  1.00  0.00     0.167 HD
ATOM     43  C   UNL A   1      42.715  30.395  32.981  1.00  0.00     0.034 A 
ATOM     44  C   UNL A   1      42.663  25.369  28.190  1.00  0.00     0.034 A 
ATOM     45  C   UNL A   1      43.807  29.459  33.074  1.00  0.00     0.049 A 
ATOM     46  C   UNL A   1      43.787  25.492  29.184  1.00  0.00     0.074 A 
ATOM     47  C   UNL A   1      44.850  29.444  33.987  1.00  0.00     0.029 A 
ATOM     48  N   UNL A   1      44.013  28.385  32.225  1.00  0.00    -0.354 N 
ATOM     49  N   UNL A   1      43.917  26.326  30.184  1.00  0.00    -0.248 NA
ATOM     50  C   UNL A   1      44.896  24.531  29.059  1.00  0.00     0.031 C 
ATOM     51  C   UNL A   1      45.705  28.384  33.665  1.00  0.00     0.029 A 
ATOM     52  C   UNL A   1      45.172  27.712  32.579  1.00  0.00     0.049 A 
ATOM     53  H   UNL A   1      43.421  28.135  31.478  1.00  0.00     0.167 HD
ATOM     54  C   UNL A   1      45.098  25.970  30.828  1.00  0.00     0.074 A 
ATOM     55  C   UNL A   1      45.635  24.830  30.118  1.00  0.00     0.031 C 
ATOM     56  C   UNL A   1      45.688  26.547  31.904  1.00  0.00     0.034 A 
BRANCH  43  57
ATOM     57  C   UNL A   1      42.694  31.542  33.963  1.00  0.00     0.023 A 
ATOM     58  C   UNL A   1      43.237  32.788  33.591  1.00  0.00     0.012 A 
ATOM     59  C   UNL A   1      42.068  31.411  35.219  1.00  0.00     0.148 A 
ATOM     60  C   UNL A   1      43.193  33.874  34.464  1.00  0.00     0.002 A 
ATOM     61  C   UNL A   1      41.988  32.511  36.067  1.00  0.00     0.091 A 
ATOM     62  F   UNL A   1      41.566  30.217  35.563  1.00  0.00    -0.205 F 
ATOM     63  C   UNL A   1      42.560  33.739  35.697  1.00  0.00     0.022 A 
BRANCH  61  64
ATOM     64  S   UNL A   1      41.122  32.463  37.642  1.00  0.00     0.127 S 
ATOM     65  O   UNL A   1      41.129  33.875  38.024  1.00  0.00    -0.237 OA
ATOM     66  O   UNL A   1      39.810  31.943  37.256  1.00  0.00    -0.237 OA
ATOM     67  O   UNL A   1      41.899  31.580  38.501  1.00  0.00    -0.744 OA
ENDBRANCH  61  64
ENDBRANCH  43  57
BRANCH  44  68
ATOM     68  C   UNL A   1      42.700  24.315  27.136  1.00  0.00     0.023 A 
ATOM     69  C   UNL A   1      43.425  24.533  25.948  1.00  0.00     0.012 A 
ATOM     70  C   UNL A   1      42.024  23.092  27.313  1.00  0.00     0.148 A 
ATOM     71  C   UNL A   1      43.448  23.566  24.942  1.00  0.00     0.002 A 
ATOM     72  C   UNL A   1      42.102  22.109  26.334  1.00  0.00     0.091 A 
ATOM     73  F   UNL A   1      41.327  22.911  28.444  1.00  0.00    -0.205 F 
ATOM     74  C   UNL A   1      42.796  22.350  25.139  1.00  0.00     0.022 A 
BRANCH  72  75
ATOM     75  S   UNL A   1      41.407  20.469  26.563  1.00  0.00     0.127 S 
ATOM     76  O   UNL A   1      41.928  20.104  27.877  1.00  0.00    -0.237 OA
ATOM     77  O   UNL A   1      39.970  20.744  26.522  1.00  0.00    -0.237 OA
ATOM     78  O   UNL A   1      41.897  19.674  25.445  1.00  0.00    -0.744 OA
ENDBRANCH  72  75
ENDBRANCH  44  68
BRANCH  56  79
ATOM     79  C   UNL A   1      46.968  25.937  32.421  1.00  0.00     0.023 A 
ATOM     80  C   UNL A   1      48.213  26.406  31.956  1.00  0.00     0.012 A 
ATOM     81  C   UNL A   1      46.938  24.943  33.420  1.00  0.00     0.148 A 
ATOM     82  C   UNL A   1      49.404  25.870  32.447  1.00  0.00     0.002 A 
ATOM     83  C   UNL A   1      48.128  24.451  33.942  1.00  0.00     0.091 A 
ATOM     84  F   UNL A   1      45.745  24.495  33.840  1.00  0.00    -0.205 F 
ATOM     85  C   UNL A   1      49.362  24.902  33.448  1.00  0.00     0.022 A 
BRANCH  83  86
ATOM     86  S   UNL A   1      48.175  23.272  35.299  1.00  0.00     0.127 S 
ATOM     87  O   UNL A   1      47.580  24.046  36.387  1.00  0.00    -0.237 OA
ATOM     88  O   UNL A   1      47.337  22.185  34.794  1.00  0.00    -0.237 OA
ATOM     89  O   UNL A   1      49.577  22.921  35.479  1.00  0.00    -0.744 OA
ENDBRANCH  83  86
ENDBRANCH  56  79
ENDBRANCH  30  31
ENDBRANCH  22  25
ENDBRANCH  20  21
ENDBRANCH   1  20
TORSDOF 16
ENDMDL
MODEL 2
REMARK VINA RESULT:     -10.5      4.855     12.207
REMARK SMILES O=C(/C=C\N1[C@@H]2CC[C@H]1C[C@H](O)C2)NCCCCNC(=O)c1ccc(-c2c3nc(c(-c4cccc(S(=O)(=O)[O-])c4F)c4ccc([nH]4)c(-c4cccc(S(=O)(=O)[O-])c4F)c4nc(c(-c5cccc(S(=O)(=O)[O-])c5F)c5ccc2[nH]5)C=C4)C=C3)cc1
REMARK SMILES IDX 17 1 16 2 15 3 14 4 1 5 2 6 3 8 4 9 5 10 6 11 9 12 7 13
REMARK SMILES IDX 13 14 8 15 10 16 11 17 12 18 18 20 19 21 20 22 21 24 22 25
REMARK SMILES IDX 23 26 84 27 24 28 83 29 25 30 26 31 27 32 77 33 28 34 82 35
REMARK SMILES IDX 76 36 78 37 29 38 81 39 75 40 74 41 30 43 62 44 42 45 61 46
REMARK SMILES IDX 43 47 46 48 60 49 79 50 44 51 45 52 59 54 80 55 47 56 31 57
REMARK SMILES IDX 32 58 40 59 33 60 35 61 41 62 34 63 36 64 37 65 38 66 39 67
REMARK SMILES IDX 63 68 64 69 72 70 65 71 67 72 73 73 66 74 68 75 69 76 70 77
REMARK SMILES IDX 71 78 48 79 49 80 57 81 50 82 52 83 58 84 51 85 53 86 54 87
REMARK SMILES IDX 55 88 56 89
REMARK H PARENT 14 7 12 19 19 23 78 42 46 53
REMARK Flexibility Score: inf
ROOT
ATOM      1  C   UNL A   1      41.606  20.534  27.466  1.00  0.00     0.023 C 
ENDROOT
BRANCH   1   2
ATOM      2  C   UNL A   1      42.214  19.141  27.224  1.00  0.00     0.023 C 
BRANCH   2   3
ATOM      3  C   UNL A   1      42.951  18.853  25.905  1.00  0.00     0.116 C 
BRANCH   3   4
ATOM      4  N   UNL A   1      44.264  19.453  25.751  1.00  0.00    -0.353 N 
ATOM      5  O   UNL A   1      44.320  19.579  23.462  1.00  0.00    -0.270 OA
ATOM      6  C   UNL A   1      44.840  19.778  24.552  1.00  0.00     0.245 C 
ATOM      7  H   UNL A   1      44.779  19.641  26.569  1.00  0.00     0.163 HD
BRANCH   6   8
ATOM      8  C   UNL A   1      46.108  20.567  24.632  1.00  0.00     0.088 C 
ATOM      9  C   UNL A   1      46.374  21.836  24.983  1.00  0.00     0.087 C 
BRANCH   9  10
ATOM     10  N   UNL A   1      45.625  22.881  25.472  1.00  0.00    -0.371 N 
ATOM     11  C   UNL A   1      44.928  22.936  26.771  1.00  0.00     0.084 C 
ATOM     12  C   UNL A   1      45.226  24.105  24.790  1.00  0.00     0.084 C 
ATOM     13  C   UNL A   1      43.584  23.640  26.451  1.00  0.00     0.027 C 
ATOM     14  C   UNL A   1      45.796  23.824  27.684  1.00  0.00     0.056 C 
ATOM     15  C   UNL A   1      43.716  24.094  25.001  1.00  0.00     0.027 C 
ATOM     16  C   UNL A   1      45.859  25.284  25.554  1.00  0.00     0.056 C 
ATOM     17  C   UNL A   1      46.534  24.908  26.880  1.00  0.00     0.118 C 
BRANCH  17  18
ATOM     18  O   UNL A   1      47.867  24.453  26.570  1.00  0.00    -0.393 OA
ATOM     19  H   UNL A   1      48.421  24.513  27.363  1.00  0.00     0.210 HD
ENDBRANCH  17  18
ENDBRANCH   9  10
ENDBRANCH   6   8
ENDBRANCH   3   4
ENDBRANCH   2   3
ENDBRANCH   1   2
BRANCH   1  20
ATOM     20  C   UNL A   1      41.117  21.346  26.260  1.00  0.00     0.116 C 
BRANCH  20  21
ATOM     21  N   UNL A   1      39.689  21.414  26.068  1.00  0.00    -0.352 N 
ATOM     22  C   UNL A   1      38.852  22.509  26.147  1.00  0.00     0.251 C 
ATOM     23  H   UNL A   1      39.250  20.560  25.849  1.00  0.00     0.163 HD
ATOM     24  O   UNL A   1      37.661  22.355  25.879  1.00  0.00    -0.269 OA
BRANCH  22  25
ATOM     25  C   UNL A   1      39.319  23.854  26.603  1.00  0.00     0.039 A 
ATOM     26  C   UNL A   1      39.034  24.212  27.927  1.00  0.00     0.014 A 
ATOM     27  C   UNL A   1      39.959  24.789  25.781  1.00  0.00     0.014 A 
ATOM     28  C   UNL A   1      39.420  25.461  28.434  1.00  0.00     0.010 A 
ATOM     29  C   UNL A   1      40.389  26.025  26.305  1.00  0.00     0.010 A 
ATOM     30  C   UNL A   1      40.126  26.379  27.640  1.00  0.00    -0.014 A 
BRANCH  30  31
ATOM     31  C   UNL A   1      40.598  27.672  28.230  1.00  0.00     0.031 A 
ATOM     32  C   UNL A   1      42.066  27.988  28.376  1.00  0.00     0.074 A 
ATOM     33  C   UNL A   1      39.697  28.588  28.648  1.00  0.00     0.049 A 
ATOM     34  N   UNL A   1      42.635  29.081  28.827  1.00  0.00    -0.248 NA
ATOM     35  C   UNL A   1      43.019  26.943  27.977  1.00  0.00     0.031 C 
ATOM     36  C   UNL A   1      38.244  28.412  28.621  1.00  0.00     0.029 A 
ATOM     37  N   UNL A   1      39.867  29.842  29.187  1.00  0.00    -0.354 N 
ATOM     38  C   UNL A   1      44.007  28.852  28.782  1.00  0.00     0.074 A 
ATOM     39  C   UNL A   1      44.182  27.502  28.288  1.00  0.00     0.031 C 
ATOM     40  C   UNL A   1      37.658  29.514  29.116  1.00  0.00     0.029 A 
ATOM     41  C   UNL A   1      38.687  30.466  29.524  1.00  0.00     0.049 A 
ATOM     42  H   UNL A   1      40.751  30.255  29.321  1.00  0.00     0.167 HD
ATOM     43  C   UNL A   1      45.028  29.688  29.097  1.00  0.00     0.034 A 
ATOM     44  C   UNL A   1      38.448  31.662  30.104  1.00  0.00     0.034 A 
ATOM     45  C   UNL A   1      44.868  31.040  29.569  1.00  0.00     0.049 A 
ATOM     46  C   UNL A   1      39.599  32.573  30.441  1.00  0.00     0.074 A 
ATOM     47  C   UNL A   1      45.852  31.977  29.844  1.00  0.00     0.029 A 
ATOM     48  N   UNL A   1      43.656  31.649  29.851  1.00  0.00    -0.354 N 
ATOM     49  N   UNL A   1      40.881  32.387  30.251  1.00  0.00    -0.248 NA
ATOM     50  C   UNL A   1      39.266  33.876  31.040  1.00  0.00     0.031 C 
ATOM     51  C   UNL A   1      45.238  33.136  30.328  1.00  0.00     0.029 A 
ATOM     52  C   UNL A   1      43.868  32.939  30.313  1.00  0.00     0.049 A 
ATOM     53  H   UNL A   1      42.774  31.227  29.738  1.00  0.00     0.167 HD
ATOM     54  C   UNL A   1      41.503  33.559  30.671  1.00  0.00     0.074 A 
ATOM     55  C   UNL A   1      40.455  34.457  31.105  1.00  0.00     0.031 C 
ATOM     56  C   UNL A   1      42.826  33.855  30.704  1.00  0.00     0.034 A 
BRANCH  43  57
ATOM     57  C   UNL A   1      46.437  29.179  28.904  1.00  0.00     0.023 A 
ATOM     58  C   UNL A   1      47.185  28.759  30.023  1.00  0.00     0.012 A 
ATOM     59  C   UNL A   1      46.990  29.040  27.615  1.00  0.00     0.148 A 
ATOM     60  C   UNL A   1      48.473  28.248  29.867  1.00  0.00     0.002 A 
ATOM     61  C   UNL A   1      48.257  28.487  27.464  1.00  0.00     0.091 A 
ATOM     62  F   UNL A   1      46.270  29.454  26.562  1.00  0.00    -0.205 F 
ATOM     63  C   UNL A   1      49.005  28.102  28.589  1.00  0.00     0.022 A 
BRANCH  61  64
ATOM     64  S   UNL A   1      48.998  28.181  25.855  1.00  0.00     0.127 S 
ATOM     65  O   UNL A   1      49.943  29.294  25.751  1.00  0.00    -0.237 OA
ATOM     66  O   UNL A   1      49.619  26.870  26.046  1.00  0.00    -0.237 OA
ATOM     67  O   UNL A   1      47.902  28.203  24.896  1.00  0.00    -0.744 OA
ENDBRANCH  61  64
ENDBRANCH  43  57
BRANCH  44  68
ATOM     68  C   UNL A   1      37.045  32.087  30.379  1.00  0.00     0.023 A 
ATOM     69  C   UNL A   1      36.513  31.958  31.678  1.00  0.00     0.012 A 
ATOM     70  C   UNL A   1      36.240  32.626  29.358  1.00  0.00     0.148 A 
ATOM     71  C   UNL A   1      35.194  32.327  31.944  1.00  0.00     0.002 A 
ATOM     72  C   UNL A   1      34.948  33.049  29.644  1.00  0.00     0.091 A 
ATOM     73  F   UNL A   1      36.760  32.725  28.126  1.00  0.00    -0.205 F 
ATOM     74  C   UNL A   1      34.415  32.883  30.931  1.00  0.00     0.022 A 
BRANCH  72  75
ATOM     75  S   UNL A   1      33.925  33.896  28.436  1.00  0.00     0.127 S 
ATOM     76  O   UNL A   1      33.438  32.785  27.624  1.00  0.00    -0.237 OA
ATOM     77  O   UNL A   1      32.917  34.528  29.287  1.00  0.00    -0.237 OA
ATOM     78  O   UNL A   1      34.811  34.834  27.758  1.00  0.00    -0.744 OA
ENDBRANCH  72  75
ENDBRANCH  44  68
BRANCH  56  79
ATOM     79  C   UNL A   1      43.232  35.226  31.188  1.00  0.00     0.023 A 
ATOM     80  C   UNL A   1      43.508  35.441  32.553  1.00  0.00     0.012 A 
ATOM     81  C   UNL A   1      43.404  36.287  30.276  1.00  0.00     0.148 A 
ATOM     82  C   UNL A   1      43.913  36.697  33.008  1.00  0.00     0.002 A 
ATOM     83  C   UNL A   1      43.856  37.521  30.729  1.00  0.00     0.091 A 
ATOM     84  F   UNL A   1      43.119  36.072  28.983  1.00  0.00    -0.205 F 
ATOM     85  C   UNL A   1      44.098  37.732  32.096  1.00  0.00     0.022 A 
BRANCH  83  86
ATOM     86  S   UNL A   1      44.215  38.888  29.617  1.00  0.00     0.127 S 
ATOM     87  O   UNL A   1      45.198  38.288  28.717  1.00  0.00    -0.237 OA
ATOM     88  O   UNL A   1      42.909  39.144  29.010  1.00  0.00    -0.237 OA
ATOM     89  O   UNL A   1      44.715  39.968  30.456  1.00  0.00    -0.744 OA
ENDBRANCH  83  86
ENDBRANCH  56  79
ENDBRANCH  30  31
ENDBRANCH  22  25
ENDBRANCH  20  21
ENDBRANCH   1  20
TORSDOF 16
ENDMDL
MODEL 3
REMARK VINA RESULT:     -10.1      3.665      6.420
REMARK SMILES O=C(/C=C\N1[C@@H]2CC[C@H]1C[C@H](O)C2)NCCCCNC(=O)c1ccc(-c2c3nc(c(-c4cccc(S(=O)(=O)[O-])c4F)c4ccc([nH]4)c(-c4cccc(S(=O)(=O)[O-])c4F)c4nc(c(-c5cccc(S(=O)(=O)[O-])c5F)c5ccc2[nH]5)C=C4)C=C3)cc1
REMARK SMILES IDX 17 1 16 2 15 3 14 4 1 5 2 6 3 8 4 9 5 10 6 11 9 12 7 13
REMARK SMILES IDX 13 14 8 15 10 16 11 17 12 18 18 20 19 21 20 22 21 24 22 25
REMARK SMILES IDX 23 26 84 27 24 28 83 29 25 30 26 31 27 32 77 33 28 34 82 35
REMARK SMILES IDX 76 36 78 37 29 38 81 39 75 40 74 41 30 43 62 44 42 45 61 46
REMARK SMILES IDX 43 47 46 48 60 49 79 50 44 51 45 52 59 54 80 55 47 56 31 57
REMARK SMILES IDX 32 58 40 59 33 60 35 61 41 62 34 63 36 64 37 65 38 66 39 67
REMARK SMILES IDX 63 68 64 69 72 70 65 71 67 72 73 73 66 74 68 75 69 76 70 77
REMARK SMILES IDX 71 78 48 79 49 80 57 81 50 82 52 83 58 84 51 85 53 86 54 87
REMARK SMILES IDX 55 88 56 89
REMARK H PARENT 14 7 12 19 19 23 78 42 46 53
REMARK Flexibility Score: inf
ROOT
ATOM      1  C   UNL A   1      32.130  29.118  24.358  1.00  0.00     0.023 C 
ENDROOT
BRANCH   1   2
ATOM      2  C   UNL A   1      31.069  28.129  23.849  1.00  0.00     0.023 C 
BRANCH   2   3
ATOM      3  C   UNL A   1      31.172  27.573  22.419  1.00  0.00     0.116 C 
BRANCH   3   4
ATOM      4  N   UNL A   1      31.502  26.165  22.291  1.00  0.00    -0.353 N 
ATOM      5  O   UNL A   1      33.675  26.381  21.591  1.00  0.00    -0.270 OA
ATOM      6  C   UNL A   1      32.721  25.679  21.900  1.00  0.00     0.245 C 
ATOM      7  H   UNL A   1      30.797  25.511  22.501  1.00  0.00     0.163 HD
BRANCH   6   8
ATOM      8  C   UNL A   1      32.904  24.200  22.030  1.00  0.00     0.088 C 
ATOM      9  C   UNL A   1      33.399  23.423  23.006  1.00  0.00     0.087 C 
BRANCH   9  10
ATOM     10  N   UNL A   1      33.859  23.649  24.282  1.00  0.00    -0.371 N 
ATOM     11  C   UNL A   1      34.749  24.742  24.720  1.00  0.00     0.084 C 
ATOM     12  C   UNL A   1      33.704  22.809  25.463  1.00  0.00     0.084 C 
ATOM     13  C   UNL A   1      35.707  24.069  25.736  1.00  0.00     0.027 C 
ATOM     14  C   UNL A   1      33.845  25.769  25.431  1.00  0.00     0.056 C 
ATOM     15  C   UNL A   1      35.149  22.662  25.926  1.00  0.00     0.027 C 
ATOM     16  C   UNL A   1      32.897  23.617  26.498  1.00  0.00     0.056 C 
ATOM     17  C   UNL A   1      32.656  25.086  26.127  1.00  0.00     0.118 C 
BRANCH  17  18
ATOM     18  O   UNL A   1      31.503  25.130  25.262  1.00  0.00    -0.393 OA
ATOM     19  H   UNL A   1      30.788  24.601  25.649  1.00  0.00     0.210 HD
ENDBRANCH  17  18
ENDBRANCH   9  10
ENDBRANCH   6   8
ENDBRANCH   3   4
ENDBRANCH   2   3
ENDBRANCH   1   2
BRANCH   1  20
ATOM     20  C   UNL A   1      32.216  29.400  25.863  1.00  0.00     0.116 C 
BRANCH  20  21
ATOM     21  N   UNL A   1      32.008  30.766  26.275  1.00  0.00    -0.352 N 
ATOM     22  C   UNL A   1      32.824  31.578  27.038  1.00  0.00     0.251 C 
ATOM     23  H   UNL A   1      31.167  31.177  25.971  1.00  0.00     0.163 HD
ATOM     24  O   UNL A   1      32.482  32.746  27.218  1.00  0.00    -0.269 OA
BRANCH  22  25
ATOM     25  C   UNL A   1      34.069  31.082  27.700  1.00  0.00     0.039 A 
ATOM     26  C   UNL A   1      34.931  32.046  28.238  1.00  0.00     0.014 A 
ATOM     27  C   UNL A   1      34.451  29.737  27.757  1.00  0.00     0.014 A 
ATOM     28  C   UNL A   1      36.130  31.672  28.863  1.00  0.00     0.010 A 
ATOM     29  C   UNL A   1      35.633  29.358  28.428  1.00  0.00     0.010 A 
ATOM     30  C   UNL A   1      36.489  30.320  28.991  1.00  0.00    -0.014 A 
BRANCH  30  31
ATOM     31  C   UNL A   1      37.734  29.944  29.733  1.00  0.00     0.031 A 
ATOM     32  C   UNL A   1      38.025  30.477  31.115  1.00  0.00     0.074 A 
ATOM     33  C   UNL A   1      38.629  29.107  29.164  1.00  0.00     0.049 A 
ATOM     34  N   UNL A   1      39.037  30.211  31.906  1.00  0.00    -0.248 NA
ATOM     35  C   UNL A   1      37.067  31.438  31.678  1.00  0.00     0.031 C 
ATOM     36  C   UNL A   1      38.517  28.547  27.816  1.00  0.00     0.029 A 
ATOM     37  N   UNL A   1      39.813  28.592  29.637  1.00  0.00    -0.354 N 
ATOM     38  C   UNL A   1      38.848  30.981  33.050  1.00  0.00     0.074 A 
ATOM     39  C   UNL A   1      37.639  31.748  32.834  1.00  0.00     0.031 C 
ATOM     40  C   UNL A   1      39.582  27.766  27.574  1.00  0.00     0.029 A 
ATOM     41  C   UNL A   1      40.471  27.789  28.733  1.00  0.00     0.049 A 
ATOM     42  H   UNL A   1      40.159  28.780  30.540  1.00  0.00     0.167 HD
ATOM     43  C   UNL A   1      39.592  31.032  34.183  1.00  0.00     0.034 A 
ATOM     44  C   UNL A   1      41.656  27.148  28.811  1.00  0.00     0.034 A 
ATOM     45  C   UNL A   1      40.785  30.259  34.419  1.00  0.00     0.049 A 
ATOM     46  C   UNL A   1      42.462  27.218  30.081  1.00  0.00     0.074 A 
ATOM     47  C   UNL A   1      41.559  30.200  35.568  1.00  0.00     0.029 A 
ATOM     48  N   UNL A   1      41.390  29.422  33.496  1.00  0.00    -0.354 N 
ATOM     49  N   UNL A   1      42.184  27.837  31.201  1.00  0.00    -0.248 NA
ATOM     50  C   UNL A   1      43.728  26.467  30.111  1.00  0.00     0.031 C 
ATOM     51  C   UNL A   1      42.650  29.360  35.326  1.00  0.00     0.029 A 
ATOM     52  C   UNL A   1      42.534  28.859  34.041  1.00  0.00     0.049 A 
ATOM     53  H   UNL A   1      41.056  29.252  32.585  1.00  0.00     0.167 HD
ATOM     54  C   UNL A   1      43.219  27.524  32.077  1.00  0.00     0.074 A 
ATOM     55  C   UNL A   1      44.118  26.641  31.367  1.00  0.00     0.031 C 
ATOM     56  C   UNL A   1      43.409  27.943  33.353  1.00  0.00     0.034 A 
BRANCH  43  57
ATOM     57  C   UNL A   1      39.117  31.937  35.295  1.00  0.00     0.023 A 
ATOM     58  C   UNL A   1      39.252  33.333  35.163  1.00  0.00     0.012 A 
ATOM     59  C   UNL A   1      38.465  31.413  36.430  1.00  0.00     0.148 A 
ATOM     60  C   UNL A   1      38.784  34.192  36.157  1.00  0.00     0.002 A 
ATOM     61  C   UNL A   1      37.960  32.277  37.396  1.00  0.00     0.091 A 
ATOM     62  F   UNL A   1      38.353  30.082  36.547  1.00  0.00    -0.205 F 
ATOM     63  C   UNL A   1      38.130  33.665  37.268  1.00  0.00     0.022 A 
BRANCH  61  64
ATOM     64  S   UNL A   1      37.030  31.703  38.823  1.00  0.00     0.127 S 
ATOM     65  O   UNL A   1      35.888  32.617  38.816  1.00  0.00    -0.237 OA
ATOM     66  O   UNL A   1      36.711  30.325  38.448  1.00  0.00    -0.237 OA
ATOM     67  O   UNL A   1      37.925  31.833  39.965  1.00  0.00    -0.744 OA
ENDBRANCH  61  64
ENDBRANCH  43  57
BRANCH  44  68
ATOM     68  C   UNL A   1      42.147  26.349  27.651  1.00  0.00     0.023 A 
ATOM     69  C   UNL A   1      42.987  26.947  26.691  1.00  0.00     0.012 A 
ATOM     70  C   UNL A   1      41.789  24.996  27.502  1.00  0.00     0.148 A 
ATOM     71  C   UNL A   1      43.433  26.220  25.586  1.00  0.00     0.002 A 
ATOM     72  C   UNL A   1      42.287  24.261  26.433  1.00  0.00     0.091 A 
ATOM     73  F   UNL A   1      40.976  24.451  28.417  1.00  0.00    -0.205 F 
ATOM     74  C   UNL A   1      43.093  24.875  25.463  1.00  0.00     0.022 A 
BRANCH  72  75
ATOM     75  S   UNL A   1      42.009  22.494  26.270  1.00  0.00     0.127 S 
ATOM     76  O   UNL A   1      42.688  22.199  25.012  1.00  0.00    -0.237 OA
ATOM     77  O   UNL A   1      42.671  21.975  27.468  1.00  0.00    -0.237 OA
ATOM     78  O   UNL A   1      40.561  22.322  26.264  1.00  0.00    -0.744 OA
ENDBRANCH  72  75
ENDBRANCH  44  68
BRANCH  56  79
ATOM     79  C   UNL A   1      44.616  27.424  34.095  1.00  0.00     0.023 A 
ATOM     80  C   UNL A   1      45.829  28.141  34.061  1.00  0.00     0.012 A 
ATOM     81  C   UNL A   1      44.530  26.258  34.882  1.00  0.00     0.148 A 
ATOM     82  C   UNL A   1      46.945  27.687  34.767  1.00  0.00     0.002 A 
ATOM     83  C   UNL A   1      45.629  25.839  35.623  1.00  0.00     0.091 A 
ATOM     84  F   UNL A   1      43.374  25.576  34.890  1.00  0.00    -0.205 F 
ATOM     85  C   UNL A   1      46.841  26.544  35.556  1.00  0.00     0.022 A 
BRANCH  83  86
ATOM     86  S   UNL A   1      45.564  24.434  36.741  1.00  0.00     0.127 S 
ATOM     87  O   UNL A   1      44.487  24.826  37.649  1.00  0.00    -0.237 OA
ATOM     88  O   UNL A   1      45.228  23.334  35.837  1.00  0.00    -0.237 OA
ATOM     89  O   UNL A   1      46.885  24.339  37.346  1.00  0.00    -0.744 OA
ENDBRANCH  83  86
ENDBRANCH  56  79
ENDBRANCH  30  31
ENDBRANCH  22  25
ENDBRANCH  20  21
ENDBRANCH   1  20
TORSDOF 16
ENDMDL
