MODEL 1
REMARK VINA RESULT:     -12.2      0.000      0.000
REMARK SMILES CC[C@H](C)[C@H](NC(=O)[C@H](C)Oc1ccc2c(C)c(C)c(=O)oc2c1C)C(=O)NCCCCNC(=O)c1ccc(-c2c3nc(c(-c4cccc(S(=O)(=O)[O-])c4F)c4ccc([nH]4)c(-c4cccc(S(=O)(=O)[O-])c4F)c4nc(c(-c5cccc(S(=O)(=O)[O-])c5F)c5ccc2[nH]5)C=C4)C=C3)cc1
REMARK SMILES IDX 30 1 29 2 28 3 26 4 27 5 5 7 3 8 4 9 2 10 1 11 6 12 7 13
REMARK SMILES IDX 8 15 9 16 10 17 11 18 12 19 13 20 24 21 14 22 23 23 25 24
REMARK SMILES IDX 15 25 22 26 16 27 20 28 17 29 18 30 21 31 19 32 31 33 32 34
REMARK SMILES IDX 33 35 34 36 35 38 36 39 37 40 98 41 38 42 97 43 39 44 40 45
REMARK SMILES IDX 41 46 91 47 42 48 96 49 90 50 92 51 43 52 95 53 89 54 88 55
REMARK SMILES IDX 44 57 76 58 56 59 75 60 57 61 60 62 74 63 93 64 58 65 59 66
REMARK SMILES IDX 73 68 94 69 61 70 45 71 46 72 54 73 47 74 49 75 55 76 48 77
REMARK SMILES IDX 50 78 51 79 52 80 53 81 77 82 78 83 86 84 79 85 81 86 87 87
REMARK SMILES IDX 80 88 82 89 83 90 84 91 85 92 62 93 63 94 71 95 64 96 66 97
REMARK SMILES IDX 72 98 65 99 67 100 68 101 69 102 70 103
REMARK H PARENT 28 6 6 14 33 37 92 56 60 67
REMARK Flexibility Score: inf
ROOT
ATOM      1  C   UNL A   1      31.347  30.490  25.606  1.00  0.00     0.023 C 
ENDROOT
BRANCH   1   2
ATOM      2  C   UNL A   1      31.734  29.717  24.346  1.00  0.00     0.116 C 
BRANCH   2   3
ATOM      3  N   UNL A   1      30.682  28.877  23.803  1.00  0.00    -0.354 N 
ATOM      4  C   UNL A   1      30.745  27.673  23.184  1.00  0.00     0.242 C 
ATOM      5  O   UNL A   1      29.708  27.006  23.129  1.00  0.00    -0.273 OA
ATOM      6  H   UNL A   1      29.774  29.243  23.902  1.00  0.00     0.163 HD
BRANCH   4   7
ATOM      7  C   UNL A   1      32.067  27.078  22.682  1.00  0.00     0.174 C 
BRANCH   7   8
ATOM      8  C   UNL A   1      31.843  25.713  21.944  1.00  0.00     0.018 C 
ATOM      9  C   UNL A   1      32.638  25.559  20.636  1.00  0.00     0.010 C 
BRANCH   8  10
ATOM     10  C   UNL A   1      32.172  24.482  22.823  1.00  0.00     0.002 C 
ATOM     11  C   UNL A   1      33.283  23.585  22.308  1.00  0.00     0.004 C 
ENDBRANCH   8  10
ENDBRANCH   7   8
BRANCH   7  12
ATOM     12  N   UNL A   1      33.087  26.918  23.731  1.00  0.00    -0.341 N 
ATOM     13  C   UNL A   1      32.980  26.680  25.072  1.00  0.00     0.261 C 
ATOM     14  H   UNL A   1      34.013  26.998  23.408  1.00  0.00     0.164 HD
ATOM     15  O   UNL A   1      33.916  27.133  25.741  1.00  0.00    -0.271 OA
BRANCH  13  16
ATOM     16  C   UNL A   1      31.910  25.723  25.680  1.00  0.00     0.258 C 
ATOM     17  C   UNL A   1      30.554  26.281  26.103  1.00  0.00     0.064 C 
BRANCH  16  18
ATOM     18  O   UNL A   1      32.415  24.780  26.635  1.00  0.00    -0.480 OA
BRANCH  18  19
ATOM     19  C   UNL A   1      33.051  23.652  26.194  1.00  0.00     0.127 A 
ATOM     20  C   UNL A   1      34.430  23.581  25.992  1.00  0.00     0.047 A 
ATOM     21  C   UNL A   1      32.263  22.510  25.979  1.00  0.00     0.035 A 
ATOM     22  C   UNL A   1      35.038  22.392  25.594  1.00  0.00     0.016 A 
ATOM     23  C   UNL A   1      32.900  21.338  25.526  1.00  0.00     0.145 A 
ATOM     24  C   UNL A   1      30.771  22.520  26.175  1.00  0.00     0.052 C 
ATOM     25  C   UNL A   1      34.280  21.247  25.351  1.00  0.00     0.021 A 
ATOM     26  O   UNL A   1      32.080  20.237  25.206  1.00  0.00    -0.422 OA
ATOM     27  C   UNL A   1      34.882  19.978  24.917  1.00  0.00    -0.030 A 
ATOM     28  C   UNL A   1      32.589  19.094  24.612  1.00  0.00     0.339 A 
ATOM     29  C   UNL A   1      36.387  19.881  24.930  1.00  0.00     0.045 C 
ATOM     30  C   UNL A   1      34.071  18.968  24.541  1.00  0.00     0.038 A 
ATOM     31  O   UNL A   1      31.844  18.218  24.185  1.00  0.00    -0.246 OA
ATOM     32  C   UNL A   1      34.591  17.660  24.015  1.00  0.00     0.052 C 
ENDBRANCH  18  19
ENDBRANCH  16  18
ENDBRANCH  13  16
ENDBRANCH   7  12
ENDBRANCH   4   7
ENDBRANCH   2   3
ENDBRANCH   1   2
BRANCH   1  33
ATOM     33  C   UNL A   1      32.079  30.097  26.889  1.00  0.00     0.023 C 
BRANCH  33  34
ATOM     34  C   UNL A   1      33.386  30.824  27.148  1.00  0.00     0.116 C 
BRANCH  34  35
ATOM     35  N   UNL A   1      33.208  32.250  27.344  1.00  0.00    -0.352 N 
ATOM     36  C   UNL A   1      33.994  33.086  28.096  1.00  0.00     0.251 C 
ATOM     37  H   UNL A   1      32.439  32.662  26.889  1.00  0.00     0.163 HD
ATOM     38  O   UNL A   1      33.682  34.259  28.271  1.00  0.00    -0.269 OA
BRANCH  36  39
ATOM     39  C   UNL A   1      35.207  32.524  28.715  1.00  0.00     0.039 A 
ATOM     40  C   UNL A   1      35.084  31.406  29.541  1.00  0.00     0.014 A 
ATOM     41  C   UNL A   1      36.464  33.046  28.388  1.00  0.00     0.014 A 
ATOM     42  C   UNL A   1      36.236  30.790  30.027  1.00  0.00     0.010 A 
ATOM     43  C   UNL A   1      37.610  32.389  28.820  1.00  0.00     0.010 A 
ATOM     44  C   UNL A   1      37.505  31.273  29.662  1.00  0.00    -0.014 A 
BRANCH  44  45
ATOM     45  C   UNL A   1      38.728  30.662  30.230  1.00  0.00     0.031 A 
ATOM     46  C   UNL A   1      39.217  31.122  31.575  1.00  0.00     0.074 A 
ATOM     47  C   UNL A   1      39.409  29.732  29.535  1.00  0.00     0.049 A 
ATOM     48  N   UNL A   1      40.233  30.685  32.270  1.00  0.00    -0.248 NA
ATOM     49  C   UNL A   1      38.484  32.229  32.218  1.00  0.00     0.031 C 
ATOM     50  C   UNL A   1      39.084  29.273  28.183  1.00  0.00     0.029 A 
ATOM     51  N   UNL A   1      40.530  29.013  29.868  1.00  0.00    -0.354 N 
ATOM     52  C   UNL A   1      40.275  31.476  33.410  1.00  0.00     0.074 A 
ATOM     53  C   UNL A   1      39.211  32.445  33.304  1.00  0.00     0.031 C 
ATOM     54  C   UNL A   1      39.982  28.347  27.805  1.00  0.00     0.029 A 
ATOM     55  C   UNL A   1      40.943  28.145  28.886  1.00  0.00     0.049 A 
ATOM     56  H   UNL A   1      40.995  29.110  30.731  1.00  0.00     0.167 HD
ATOM     57  C   UNL A   1      41.099  31.370  34.476  1.00  0.00     0.034 A 
ATOM     58  C   UNL A   1      41.972  27.273  28.870  1.00  0.00     0.034 A 
ATOM     59  C   UNL A   1      42.095  30.351  34.618  1.00  0.00     0.049 A 
ATOM     60  C   UNL A   1      42.833  27.131  30.096  1.00  0.00     0.074 A 
ATOM     61  C   UNL A   1      42.885  30.076  35.718  1.00  0.00     0.029 A 
ATOM     62  N   UNL A   1      42.434  29.439  33.633  1.00  0.00    -0.354 N 
ATOM     63  N   UNL A   1      42.736  27.758  31.243  1.00  0.00    -0.248 NA
ATOM     64  C   UNL A   1      43.920  26.141  30.044  1.00  0.00     0.031 C 
ATOM     65  C   UNL A   1      43.709  28.995  35.396  1.00  0.00     0.029 A 
ATOM     66  C   UNL A   1      43.433  28.606  34.094  1.00  0.00     0.049 A 
ATOM     67  H   UNL A   1      42.026  29.394  32.738  1.00  0.00     0.167 HD
ATOM     68  C   UNL A   1      43.733  27.230  32.053  1.00  0.00     0.074 A 
ATOM     69  C   UNL A   1      44.415  26.217  31.275  1.00  0.00     0.031 C 
ATOM     70  C   UNL A   1      44.062  27.567  33.322  1.00  0.00     0.034 A 
BRANCH  57  71
ATOM     71  C   UNL A   1      40.894  32.317  35.621  1.00  0.00     0.023 A 
ATOM     72  C   UNL A   1      41.724  33.451  35.721  1.00  0.00     0.012 A 
ATOM     73  C   UNL A   1      39.835  32.141  36.529  1.00  0.00     0.148 A 
ATOM     74  C   UNL A   1      41.505  34.399  36.718  1.00  0.00     0.002 A 
ATOM     75  C   UNL A   1      39.607  33.104  37.504  1.00  0.00     0.091 A 
ATOM     76  F   UNL A   1      39.069  31.047  36.414  1.00  0.00    -0.205 F 
ATOM     77  C   UNL A   1      40.442  34.231  37.602  1.00  0.00     0.022 A 
BRANCH  75  78
ATOM     78  S   UNL A   1      38.243  33.010  38.668  1.00  0.00     0.127 S 
ATOM     79  O   UNL A   1      38.726  31.998  39.609  1.00  0.00    -0.237 OA
ATOM     80  O   UNL A   1      38.205  34.371  39.201  1.00  0.00    -0.237 OA
ATOM     81  O   UNL A   1      37.074  32.615  37.894  1.00  0.00    -0.744 OA
ENDBRANCH  75  78
ENDBRANCH  57  71
BRANCH  58  82
ATOM     82  C   UNL A   1      42.188  26.410  27.676  1.00  0.00     0.023 A 
ATOM     83  C   UNL A   1      42.886  26.930  26.568  1.00  0.00     0.012 A 
ATOM     84  C   UNL A   1      41.750  25.073  27.650  1.00  0.00     0.148 A 
ATOM     85  C   UNL A   1      43.131  26.136  25.448  1.00  0.00     0.002 A 
ATOM     86  C   UNL A   1      42.027  24.277  26.544  1.00  0.00     0.091 A 
ATOM     87  F   UNL A   1      41.080  24.606  28.713  1.00  0.00    -0.205 F 
ATOM     88  C   UNL A   1      42.709  24.809  25.438  1.00  0.00     0.022 A 
BRANCH  86  89
ATOM     89  S   UNL A   1      41.602  22.533  26.477  1.00  0.00     0.127 S 
ATOM     90  O   UNL A   1      40.149  22.584  26.340  1.00  0.00    -0.237 OA
ATOM     91  O   UNL A   1      42.318  22.093  25.278  1.00  0.00    -0.237 OA
ATOM     92  O   UNL A   1      42.099  21.958  27.719  1.00  0.00    -0.744 OA
ENDBRANCH  86  89
ENDBRANCH  58  82
BRANCH  70  93
ATOM     93  C   UNL A   1      45.214  26.861  33.979  1.00  0.00     0.023 A 
ATOM     94  C   UNL A   1      46.485  27.465  33.947  1.00  0.00     0.012 A 
ATOM     95  C   UNL A   1      44.996  25.725  34.783  1.00  0.00     0.148 A 
ATOM     96  C   UNL A   1      47.527  26.952  34.716  1.00  0.00     0.002 A 
ATOM     97  C   UNL A   1      46.031  25.240  35.572  1.00  0.00     0.091 A 
ATOM     98  F   UNL A   1      43.773  25.177  34.795  1.00  0.00    -0.205 F 
ATOM     99  C   UNL A   1      47.296  25.850  35.538  1.00  0.00     0.022 A 
BRANCH  97 100
ATOM    100  S   UNL A   1      45.816  23.884  36.731  1.00  0.00     0.127 S 
ATOM    101  O   UNL A   1      47.171  23.718  37.252  1.00  0.00    -0.237 OA
ATOM    102  O   UNL A   1      44.858  24.444  37.684  1.00  0.00    -0.237 OA
ATOM    103  O   UNL A   1      45.316  22.759  35.950  1.00  0.00    -0.744 OA
ENDBRANCH  97 100
ENDBRANCH  70  93
ENDBRANCH  44  45
ENDBRANCH  36  39
ENDBRANCH  34  35
ENDBRANCH  33  34
ENDBRANCH   1  33
TORSDOF 20
ENDMDL
MODEL 2
REMARK VINA RESULT:     -12.1      5.005     10.326
REMARK SMILES CC[C@H](C)[C@H](NC(=O)[C@H](C)Oc1ccc2c(C)c(C)c(=O)oc2c1C)C(=O)NCCCCNC(=O)c1ccc(-c2c3nc(c(-c4cccc(S(=O)(=O)[O-])c4F)c4ccc([nH]4)c(-c4cccc(S(=O)(=O)[O-])c4F)c4nc(c(-c5cccc(S(=O)(=O)[O-])c5F)c5ccc2[nH]5)C=C4)C=C3)cc1
REMARK SMILES IDX 30 1 29 2 28 3 26 4 27 5 5 7 3 8 4 9 2 10 1 11 6 12 7 13
REMARK SMILES IDX 8 15 9 16 10 17 11 18 12 19 13 20 24 21 14 22 23 23 25 24
REMARK SMILES IDX 15 25 22 26 16 27 20 28 17 29 18 30 21 31 19 32 31 33 32 34
REMARK SMILES IDX 33 35 34 36 35 38 36 39 37 40 98 41 38 42 97 43 39 44 40 45
REMARK SMILES IDX 41 46 91 47 42 48 96 49 90 50 92 51 43 52 95 53 89 54 88 55
REMARK SMILES IDX 44 57 76 58 56 59 75 60 57 61 60 62 74 63 93 64 58 65 59 66
REMARK SMILES IDX 73 68 94 69 61 70 45 71 46 72 54 73 47 74 49 75 55 76 48 77
REMARK SMILES IDX 50 78 51 79 52 80 53 81 77 82 78 83 86 84 79 85 81 86 87 87
REMARK SMILES IDX 80 88 82 89 83 90 84 91 85 92 62 93 63 94 71 95 64 96 66 97
REMARK SMILES IDX 72 98 65 99 67 100 68 101 69 102 70 103
REMARK H PARENT 28 6 6 14 33 37 92 56 60 67
REMARK Flexibility Score: inf
ROOT
ATOM      1  C   UNL A   1      36.202  20.146  24.989  1.00  0.00     0.023 C 
ENDROOT
BRANCH   1   2
ATOM      2  C   UNL A   1      35.056  20.812  25.748  1.00  0.00     0.116 C 
BRANCH   2   3
ATOM      3  N   UNL A   1      33.748  20.638  25.147  1.00  0.00    -0.354 N 
ATOM      4  C   UNL A   1      32.659  21.446  25.152  1.00  0.00     0.242 C 
ATOM      5  O   UNL A   1      31.798  21.246  24.290  1.00  0.00    -0.273 OA
ATOM      6  H   UNL A   1      33.632  19.794  24.653  1.00  0.00     0.163 HD
BRANCH   4   7
ATOM      7  C   UNL A   1      32.538  22.652  26.092  1.00  0.00     0.174 C 
BRANCH   7   8
ATOM      8  C   UNL A   1      31.169  23.394  25.906  1.00  0.00     0.018 C 
ATOM      9  C   UNL A   1      30.079  22.976  26.908  1.00  0.00     0.010 C 
BRANCH   8  10
ATOM     10  C   UNL A   1      31.295  24.935  25.988  1.00  0.00     0.002 C 
ATOM     11  C   UNL A   1      29.983  25.701  25.995  1.00  0.00     0.004 C 
ENDBRANCH   8  10
ENDBRANCH   7   8
BRANCH   7  12
ATOM     12  N   UNL A   1      33.648  23.613  25.976  1.00  0.00    -0.341 N 
ATOM     13  C   UNL A   1      34.376  24.034  24.899  1.00  0.00     0.261 C 
ATOM     14  H   UNL A   1      33.914  24.026  26.829  1.00  0.00     0.164 HD
ATOM     15  O   UNL A   1      35.529  24.384  25.175  1.00  0.00    -0.271 OA
BRANCH  13  16
ATOM     16  C   UNL A   1      33.746  24.280  23.494  1.00  0.00     0.258 C 
ATOM     17  C   UNL A   1      33.830  23.190  22.429  1.00  0.00     0.064 C 
BRANCH  16  18
ATOM     18  O   UNL A   1      33.991  25.579  22.941  1.00  0.00    -0.480 OA
BRANCH  18  19
ATOM     19  C   UNL A   1      33.195  26.628  23.311  1.00  0.00     0.127 A 
ATOM     20  C   UNL A   1      33.416  27.388  24.461  1.00  0.00     0.047 A 
ATOM     21  C   UNL A   1      32.134  26.966  22.456  1.00  0.00     0.035 A 
ATOM     22  C   UNL A   1      32.609  28.482  24.766  1.00  0.00     0.016 A 
ATOM     23  C   UNL A   1      31.303  28.044  22.820  1.00  0.00     0.145 A 
ATOM     24  C   UNL A   1      31.839  26.186  21.203  1.00  0.00     0.052 C 
ATOM     25  C   UNL A   1      31.533  28.828  23.950  1.00  0.00     0.021 A 
ATOM     26  O   UNL A   1      30.176  28.296  22.011  1.00  0.00    -0.422 OA
ATOM     27  C   UNL A   1      30.650  29.966  24.244  1.00  0.00    -0.030 A 
ATOM     28  C   UNL A   1      29.218  29.231  22.362  1.00  0.00     0.339 A 
ATOM     29  C   UNL A   1      31.057  30.890  25.364  1.00  0.00     0.045 C 
ATOM     30  C   UNL A   1      29.537  30.134  23.502  1.00  0.00     0.038 A 
ATOM     31  O   UNL A   1      28.163  29.319  21.742  1.00  0.00    -0.246 OA
ATOM     32  C   UNL A   1      28.537  31.224  23.772  1.00  0.00     0.052 C 
ENDBRANCH  18  19
ENDBRANCH  16  18
ENDBRANCH  13  16
ENDBRANCH   7  12
ENDBRANCH   4   7
ENDBRANCH   2   3
ENDBRANCH   1   2
BRANCH   1  33
ATOM     33  C   UNL A   1      37.392  21.042  24.644  1.00  0.00     0.023 C 
BRANCH  33  34
ATOM     34  C   UNL A   1      38.312  21.385  25.801  1.00  0.00     0.116 C 
BRANCH  34  35
ATOM     35  N   UNL A   1      39.374  20.415  25.985  1.00  0.00    -0.352 N 
ATOM     36  C   UNL A   1      40.647  20.656  26.437  1.00  0.00     0.251 C 
ATOM     37  H   UNL A   1      39.158  19.481  25.760  1.00  0.00     0.163 HD
ATOM     38  O   UNL A   1      41.492  19.767  26.451  1.00  0.00    -0.269 OA
BRANCH  36  39
ATOM     39  C   UNL A   1      40.978  22.025  26.872  1.00  0.00     0.039 A 
ATOM     40  C   UNL A   1      41.440  22.223  28.173  1.00  0.00     0.014 A 
ATOM     41  C   UNL A   1      40.926  23.081  25.954  1.00  0.00     0.014 A 
ATOM     42  C   UNL A   1      41.877  23.491  28.553  1.00  0.00     0.010 A 
ATOM     43  C   UNL A   1      41.426  24.326  26.317  1.00  0.00     0.010 A 
ATOM     44  C   UNL A   1      41.880  24.547  27.626  1.00  0.00    -0.014 A 
BRANCH  44  45
ATOM     45  C   UNL A   1      42.280  25.909  28.045  1.00  0.00     0.031 A 
ATOM     46  C   UNL A   1      43.720  26.320  27.914  1.00  0.00     0.074 A 
ATOM     47  C   UNL A   1      41.371  26.755  28.565  1.00  0.00     0.049 A 
ATOM     48  N   UNL A   1      44.268  27.476  28.176  1.00  0.00    -0.248 NA
ATOM     49  C   UNL A   1      44.675  25.296  27.449  1.00  0.00     0.031 C 
ATOM     50  C   UNL A   1      39.965  26.437  28.825  1.00  0.00     0.029 A 
ATOM     51  N   UNL A   1      41.500  28.056  28.982  1.00  0.00    -0.354 N 
ATOM     52  C   UNL A   1      45.626  27.311  27.933  1.00  0.00     0.074 A 
ATOM     53  C   UNL A   1      45.830  25.938  27.540  1.00  0.00     0.031 C 
ATOM     54  C   UNL A   1      39.362  27.517  29.353  1.00  0.00     0.029 A 
ATOM     55  C   UNL A   1      40.334  28.601  29.466  1.00  0.00     0.049 A 
ATOM     56  H   UNL A   1      42.349  28.554  28.939  1.00  0.00     0.167 HD
ATOM     57  C   UNL A   1      46.607  28.238  27.985  1.00  0.00     0.034 A 
ATOM     58  C   UNL A   1      40.079  29.840  29.932  1.00  0.00     0.034 A 
ATOM     59  C   UNL A   1      46.386  29.620  28.289  1.00  0.00     0.049 A 
ATOM     60  C   UNL A   1      41.176  30.870  29.918  1.00  0.00     0.074 A 
ATOM     61  C   UNL A   1      47.291  30.662  28.232  1.00  0.00     0.029 A 
ATOM     62  N   UNL A   1      45.176  30.151  28.700  1.00  0.00    -0.354 N 
ATOM     63  N   UNL A   1      42.412  30.744  29.500  1.00  0.00    -0.248 NA
ATOM     64  C   UNL A   1      40.839  32.218  30.400  1.00  0.00     0.031 C 
ATOM     65  C   UNL A   1      46.627  31.830  28.615  1.00  0.00     0.029 A 
ATOM     66  C   UNL A   1      45.312  31.508  28.914  1.00  0.00     0.049 A 
ATOM     67  H   UNL A   1      44.344  29.638  28.822  1.00  0.00     0.167 HD
ATOM     68  C   UNL A   1      42.996  31.996  29.654  1.00  0.00     0.074 A 
ATOM     69  C   UNL A   1      41.975  32.874  30.185  1.00  0.00     0.031 C 
ATOM     70  C   UNL A   1      44.268  32.376  29.392  1.00  0.00     0.034 A 
BRANCH  57  71
ATOM     71  C   UNL A   1      47.996  27.814  27.610  1.00  0.00     0.023 A 
ATOM     72  C   UNL A   1      48.844  27.303  28.611  1.00  0.00     0.012 A 
ATOM     73  C   UNL A   1      48.423  27.830  26.270  1.00  0.00     0.148 A 
ATOM     74  C   UNL A   1      50.108  26.816  28.284  1.00  0.00     0.002 A 
ATOM     75  C   UNL A   1      49.674  27.318  25.948  1.00  0.00     0.091 A 
ATOM     76  F   UNL A   1      47.597  28.332  25.341  1.00  0.00    -0.205 F 
ATOM     77  C   UNL A   1      50.518  26.815  26.954  1.00  0.00     0.022 A 
BRANCH  75  78
ATOM     78  S   UNL A   1      50.288  27.229  24.263  1.00  0.00     0.127 S 
ATOM     79  O   UNL A   1      51.548  26.507  24.445  1.00  0.00    -0.237 OA
ATOM     80  O   UNL A   1      49.236  26.464  23.597  1.00  0.00    -0.237 OA
ATOM     81  O   UNL A   1      50.434  28.606  23.811  1.00  0.00    -0.744 OA
ENDBRANCH  75  78
ENDBRANCH  57  71
BRANCH  58  82
ATOM     82  C   UNL A   1      38.701  30.192  30.373  1.00  0.00     0.023 A 
ATOM     83  C   UNL A   1      38.349  30.027  31.727  1.00  0.00     0.012 A 
ATOM     84  C   UNL A   1      37.759  30.729  29.475  1.00  0.00     0.148 A 
ATOM     85  C   UNL A   1      37.076  30.377  32.177  1.00  0.00     0.002 A 
ATOM     86  C   UNL A   1      36.503  31.106  29.937  1.00  0.00     0.091 A 
ATOM     87  F   UNL A   1      38.116  30.866  28.191  1.00  0.00    -0.205 F 
ATOM     88  C   UNL A   1      36.156  30.924  31.285  1.00  0.00     0.022 A 
BRANCH  86  89
ATOM     89  S   UNL A   1      35.284  31.901  28.883  1.00  0.00     0.127 S 
ATOM     90  O   UNL A   1      36.061  32.992  28.300  1.00  0.00    -0.237 OA
ATOM     91  O   UNL A   1      34.941  30.824  27.953  1.00  0.00    -0.237 OA
ATOM     92  O   UNL A   1      34.199  32.302  29.767  1.00  0.00    -0.744 OA
ENDBRANCH  86  89
ENDBRANCH  58  82
BRANCH  70  93
ATOM     93  C   UNL A   1      44.668  33.797  29.673  1.00  0.00     0.023 A 
ATOM     94  C   UNL A   1      45.330  34.086  30.881  1.00  0.00     0.012 A 
ATOM     95  C   UNL A   1      44.568  34.783  28.674  1.00  0.00     0.148 A 
ATOM     96  C   UNL A   1      45.900  35.340  31.088  1.00  0.00     0.002 A 
ATOM     97  C   UNL A   1      45.168  36.020  28.874  1.00  0.00     0.091 A 
ATOM     98  F   UNL A   1      43.935  34.474  27.533  1.00  0.00    -0.205 F 
ATOM     99  C   UNL A   1      45.831  36.301  30.080  1.00  0.00     0.022 A 
BRANCH  97 100
ATOM    100  S   UNL A   1      45.213  37.294  27.607  1.00  0.00     0.127 S 
ATOM    101  O   UNL A   1      46.093  36.689  26.608  1.00  0.00    -0.237 OA
ATOM    102  O   UNL A   1      43.808  37.384  27.212  1.00  0.00    -0.237 OA
ATOM    103  O   UNL A   1      45.746  38.488  28.252  1.00  0.00    -0.744 OA
ENDBRANCH  97 100
ENDBRANCH  70  93
ENDBRANCH  44  45
ENDBRANCH  36  39
ENDBRANCH  34  35
ENDBRANCH  33  34
ENDBRANCH   1  33
TORSDOF 20
ENDMDL
MODEL 3
REMARK VINA RESULT:     -11.6      5.684      8.955
REMARK SMILES CC[C@H](C)[C@H](NC(=O)[C@H](C)Oc1ccc2c(C)c(C)c(=O)oc2c1C)C(=O)NCCCCNC(=O)c1ccc(-c2c3nc(c(-c4cccc(S(=O)(=O)[O-])c4F)c4ccc([nH]4)c(-c4cccc(S(=O)(=O)[O-])c4F)c4nc(c(-c5cccc(S(=O)(=O)[O-])c5F)c5ccc2[nH]5)C=C4)C=C3)cc1
REMARK SMILES IDX 30 1 29 2 28 3 26 4 27 5 5 7 3 8 4 9 2 10 1 11 6 12 7 13
REMARK SMILES IDX 8 15 9 16 10 17 11 18 12 19 13 20 24 21 14 22 23 23 25 24
REMARK SMILES IDX 15 25 22 26 16 27 20 28 17 29 18 30 21 31 19 32 31 33 32 34
REMARK SMILES IDX 33 35 34 36 35 38 36 39 37 40 98 41 38 42 97 43 39 44 40 45
REMARK SMILES IDX 41 46 91 47 42 48 96 49 90 50 92 51 43 52 95 53 89 54 88 55
REMARK SMILES IDX 44 57 76 58 56 59 75 60 57 61 60 62 74 63 93 64 58 65 59 66
REMARK SMILES IDX 73 68 94 69 61 70 45 71 46 72 54 73 47 74 49 75 55 76 48 77
REMARK SMILES IDX 50 78 51 79 52 80 53 81 77 82 78 83 86 84 79 85 81 86 87 87
REMARK SMILES IDX 80 88 82 89 83 90 84 91 85 92 62 93 63 94 71 95 64 96 66 97
REMARK SMILES IDX 72 98 65 99 67 100 68 101 69 102 70 103
REMARK H PARENT 28 6 6 14 33 37 92 56 60 67
REMARK Flexibility Score: inf
ROOT
ATOM      1  C   UNL A   1      36.968  20.822  24.839  1.00  0.00     0.023 C 
ENDROOT
BRANCH   1   2
ATOM      2  C   UNL A   1      35.872  21.003  25.888  1.00  0.00     0.116 C 
BRANCH   2   3
ATOM      3  N   UNL A   1      34.553  20.566  25.469  1.00  0.00    -0.354 N 
ATOM      4  C   UNL A   1      33.367  21.222  25.462  1.00  0.00     0.242 C 
ATOM      5  O   UNL A   1      32.471  20.770  24.743  1.00  0.00    -0.273 OA
ATOM      6  H   UNL A   1      34.515  19.641  25.134  1.00  0.00     0.163 HD
BRANCH   4   7
ATOM      7  C   UNL A   1      33.160  22.550  26.201  1.00  0.00     0.174 C 
BRANCH   7   8
ATOM      8  C   UNL A   1      31.739  23.152  25.922  1.00  0.00     0.018 C 
ATOM      9  C   UNL A   1      30.591  22.436  26.655  1.00  0.00     0.010 C 
BRANCH   8  10
ATOM     10  C   UNL A   1      31.634  24.656  26.272  1.00  0.00     0.002 C 
ATOM     11  C   UNL A   1      30.570  25.433  25.516  1.00  0.00     0.004 C 
ENDBRANCH   8  10
ENDBRANCH   7   8
BRANCH   7  12
ATOM     12  N   UNL A   1      34.195  23.559  25.918  1.00  0.00    -0.341 N 
ATOM     13  C   UNL A   1      34.755  23.980  24.745  1.00  0.00     0.261 C 
ATOM     14  H   UNL A   1      34.547  24.010  26.718  1.00  0.00     0.164 HD
ATOM     15  O   UNL A   1      35.915  24.393  24.860  1.00  0.00    -0.271 OA
BRANCH  13  16
ATOM     16  C   UNL A   1      33.937  24.151  23.428  1.00  0.00     0.258 C 
ATOM     17  C   UNL A   1      33.900  23.014  22.411  1.00  0.00     0.064 C 
BRANCH  16  18
ATOM     18  O   UNL A   1      34.079  25.427  22.791  1.00  0.00    -0.480 OA
BRANCH  18  19
ATOM     19  C   UNL A   1      33.303  26.475  23.203  1.00  0.00     0.127 A 
ATOM     20  C   UNL A   1      33.541  27.188  24.378  1.00  0.00     0.047 A 
ATOM     21  C   UNL A   1      32.244  26.861  22.365  1.00  0.00     0.035 A 
ATOM     22  C   UNL A   1      32.754  28.283  24.727  1.00  0.00     0.016 A 
ATOM     23  C   UNL A   1      31.433  27.939  22.772  1.00  0.00     0.145 A 
ATOM     24  C   UNL A   1      31.930  26.132  21.086  1.00  0.00     0.052 C 
ATOM     25  C   UNL A   1      31.681  28.677  23.929  1.00  0.00     0.021 A 
ATOM     26  O   UNL A   1      30.307  28.239  21.979  1.00  0.00    -0.422 OA
ATOM     27  C   UNL A   1      30.819  29.818  24.269  1.00  0.00    -0.030 A 
ATOM     28  C   UNL A   1      29.366  29.176  22.369  1.00  0.00     0.339 A 
ATOM     29  C   UNL A   1      31.245  30.694  25.420  1.00  0.00     0.045 C 
ATOM     30  C   UNL A   1      29.705  30.032  23.539  1.00  0.00     0.038 A 
ATOM     31  O   UNL A   1      28.309  29.304  21.758  1.00  0.00    -0.246 OA
ATOM     32  C   UNL A   1      28.725  31.127  23.854  1.00  0.00     0.052 C 
ENDBRANCH  18  19
ENDBRANCH  16  18
ENDBRANCH  13  16
ENDBRANCH   7  12
ENDBRANCH   4   7
ENDBRANCH   2   3
ENDBRANCH   1   2
BRANCH   1  33
ATOM     33  C   UNL A   1      38.245  21.634  25.053  1.00  0.00     0.023 C 
BRANCH  33  34
ATOM     34  C   UNL A   1      39.050  21.278  26.289  1.00  0.00     0.116 C 
BRANCH  34  35
ATOM     35  N   UNL A   1      39.907  20.125  26.092  1.00  0.00    -0.352 N 
ATOM     36  C   UNL A   1      41.279  20.102  26.100  1.00  0.00     0.251 C 
ATOM     37  H   UNL A   1      39.454  19.265  25.934  1.00  0.00     0.163 HD
ATOM     38  O   UNL A   1      41.895  19.080  25.817  1.00  0.00    -0.269 OA
BRANCH  36  39
ATOM     39  C   UNL A   1      41.989  21.351  26.426  1.00  0.00     0.039 A 
ATOM     40  C   UNL A   1      42.234  22.271  25.407  1.00  0.00     0.014 A 
ATOM     41  C   UNL A   1      42.312  21.642  27.757  1.00  0.00     0.014 A 
ATOM     42  C   UNL A   1      42.789  23.509  25.728  1.00  0.00     0.010 A 
ATOM     43  C   UNL A   1      42.802  22.902  28.081  1.00  0.00     0.010 A 
ATOM     44  C   UNL A   1      43.068  23.834  27.067  1.00  0.00    -0.014 A 
BRANCH  44  45
ATOM     45  C   UNL A   1      43.719  25.120  27.403  1.00  0.00     0.031 A 
ATOM     46  C   UNL A   1      42.893  26.219  28.013  1.00  0.00     0.074 A 
ATOM     47  C   UNL A   1      45.025  25.312  27.137  1.00  0.00     0.049 A 
ATOM     48  N   UNL A   1      43.276  27.398  28.425  1.00  0.00    -0.248 NA
ATOM     49  C   UNL A   1      41.447  25.973  28.161  1.00  0.00     0.031 C 
ATOM     50  C   UNL A   1      45.905  24.354  26.464  1.00  0.00     0.029 A 
ATOM     51  N   UNL A   1      45.837  26.389  27.388  1.00  0.00    -0.354 N 
ATOM     52  C   UNL A   1      42.121  28.038  28.855  1.00  0.00     0.074 A 
ATOM     53  C   UNL A   1      41.016  27.139  28.622  1.00  0.00     0.031 C 
ATOM     54  C   UNL A   1      47.136  24.886  26.363  1.00  0.00     0.029 A 
ATOM     55  C   UNL A   1      47.133  26.217  26.962  1.00  0.00     0.049 A 
ATOM     56  H   UNL A   1      45.522  27.209  27.834  1.00  0.00     0.167 HD
ATOM     57  C   UNL A   1      42.000  29.250  29.439  1.00  0.00     0.034 A 
ATOM     58  C   UNL A   1      48.199  27.037  27.061  1.00  0.00     0.034 A 
ATOM     59  C   UNL A   1      43.109  30.101  29.750  1.00  0.00     0.049 A 
ATOM     60  C   UNL A   1      48.049  28.353  27.775  1.00  0.00     0.074 A 
ATOM     61  C   UNL A   1      43.103  31.284  30.464  1.00  0.00     0.029 A 
ATOM     62  N   UNL A   1      44.418  29.858  29.371  1.00  0.00    -0.354 N 
ATOM     63  N   UNL A   1      46.983  28.859  28.347  1.00  0.00    -0.248 NA
ATOM     64  C   UNL A   1      49.249  29.196  27.891  1.00  0.00     0.031 C 
ATOM     65  C   UNL A   1      44.415  31.762  30.514  1.00  0.00     0.029 A 
ATOM     66  C   UNL A   1      45.231  30.878  29.826  1.00  0.00     0.049 A 
ATOM     67  H   UNL A   1      44.722  29.078  28.855  1.00  0.00     0.167 HD
ATOM     68  C   UNL A   1      47.385  30.066  28.904  1.00  0.00     0.074 A 
ATOM     69  C   UNL A   1      48.797  30.212  28.617  1.00  0.00     0.031 C 
ATOM     70  C   UNL A   1      46.644  30.978  29.577  1.00  0.00     0.034 A 
BRANCH  57  71
ATOM     71  C   UNL A   1      40.634  29.689  29.874  1.00  0.00     0.023 A 
ATOM     72  C   UNL A   1      39.864  30.482  29.001  1.00  0.00     0.012 A 
ATOM     73  C   UNL A   1      40.079  29.242  31.087  1.00  0.00     0.148 A 
ATOM     74  C   UNL A   1      38.558  30.832  29.332  1.00  0.00     0.002 A 
ATOM     75  C   UNL A   1      38.766  29.574  31.398  1.00  0.00     0.091 A 
ATOM     76  F   UNL A   1      40.839  28.497  31.901  1.00  0.00    -0.205 F 
ATOM     77  C   UNL A   1      38.006  30.371  30.524  1.00  0.00     0.022 A 
BRANCH  75  78
ATOM     78  S   UNL A   1      37.941  29.000  32.886  1.00  0.00     0.127 S 
ATOM     79  O   UNL A   1      38.705  29.684  33.930  1.00  0.00    -0.237 OA
ATOM     80  O   UNL A   1      36.583  29.504  32.693  1.00  0.00    -0.237 OA
ATOM     81  O   UNL A   1      38.069  27.549  32.888  1.00  0.00    -0.744 OA
ENDBRANCH  75  78
ENDBRANCH  57  71
BRANCH  58  82
ATOM     82  C   UNL A   1      49.521  26.593  26.540  1.00  0.00     0.023 A 
ATOM     83  C   UNL A   1      50.262  25.641  27.268  1.00  0.00     0.012 A 
ATOM     84  C   UNL A   1      50.023  27.069  25.314  1.00  0.00     0.148 A 
ATOM     85  C   UNL A   1      51.490  25.183  26.790  1.00  0.00     0.002 A 
ATOM     86  C   UNL A   1      51.232  26.583  24.828  1.00  0.00     0.091 A 
ATOM     87  F   UNL A   1      49.303  27.982  24.647  1.00  0.00    -0.205 F 
ATOM     88  C   UNL A   1      51.971  25.646  25.568  1.00  0.00     0.022 A 
BRANCH  86  89
ATOM     89  S   UNL A   1      51.888  27.054  23.223  1.00  0.00     0.127 S 
ATOM     90  O   UNL A   1      52.223  28.459  23.439  1.00  0.00    -0.237 OA
ATOM     91  O   UNL A   1      53.038  26.159  23.093  1.00  0.00    -0.237 OA
ATOM     92  O   UNL A   1      50.817  26.800  22.270  1.00  0.00    -0.744 OA
ENDBRANCH  86  89
ENDBRANCH  58  82
BRANCH  70  93
ATOM     93  C   UNL A   1      47.312  32.234  30.059  1.00  0.00     0.023 A 
ATOM     94  C   UNL A   1      47.897  32.241  31.340  1.00  0.00     0.012 A 
ATOM     95  C   UNL A   1      47.531  33.314  29.182  1.00  0.00     0.148 A 
ATOM     96  C   UNL A   1      48.702  33.305  31.739  1.00  0.00     0.002 A 
ATOM     97  C   UNL A   1      48.361  34.355  29.576  1.00  0.00     0.091 A 
ATOM     98  F   UNL A   1      46.963  33.274  27.968  1.00  0.00    -0.205 F 
ATOM     99  C   UNL A   1      48.945  34.354  30.853  1.00  0.00     0.022 A 
BRANCH  97 100
ATOM    100  S   UNL A   1      48.810  35.707  28.480  1.00  0.00     0.127 S 
ATOM    101  O   UNL A   1      49.435  34.995  27.368  1.00  0.00    -0.237 OA
ATOM    102  O   UNL A   1      47.508  36.298  28.174  1.00  0.00    -0.237 OA
ATOM    103  O   UNL A   1      49.708  36.565  29.243  1.00  0.00    -0.744 OA
ENDBRANCH  97 100
ENDBRANCH  70  93
ENDBRANCH  44  45
ENDBRANCH  36  39
ENDBRANCH  34  35
ENDBRANCH  33  34
ENDBRANCH   1  33
TORSDOF 20
ENDMDL
