MODEL 1
REMARK VINA RESULT:     -12.1      0.000      0.000
REMARK SMILES O=C(NCCCCNC(=O)c1cc(-c2ccn(C(F)F)c(=O)c2)ccc1O)c1ccc(-c2c3nc(c(-c4cccc(S(=O)(=O)[O-])c4F)c4ccc([nH]4)c(-c4cccc(S(=O)(=O)[O-])c4F)c4nc(c(-c5cccc(S(=O)(=O)[O-])c5F)c5ccc2[nH]5)C=C4)C=C3)cc1
REMARK SMILES IDX 5 1 4 2 3 3 1 4 2 5 28 7 29 8 90 9 30 10 89 11 31 12 32 13
REMARK SMILES IDX 33 14 83 15 34 16 88 17 82 18 84 19 35 20 87 21 81 22 80 23
REMARK SMILES IDX 36 25 68 26 48 27 67 28 49 29 52 30 66 31 85 32 50 33 51 34
REMARK SMILES IDX 65 36 86 37 53 38 37 39 38 40 46 41 39 42 41 43 47 44 40 45
REMARK SMILES IDX 42 46 43 47 44 48 45 49 69 50 70 51 78 52 71 53 73 54 79 55
REMARK SMILES IDX 72 56 74 57 75 58 76 59 77 60 54 61 55 62 63 63 56 64 58 65
REMARK SMILES IDX 64 66 57 67 59 68 60 69 61 70 62 71 6 72 7 73 8 74 9 75
REMARK SMILES IDX 10 77 11 78 12 79 26 80 13 81 25 82 24 83 27 84 14 86 15 87
REMARK SMILES IDX 23 88 16 89 21 90 17 91 22 92 18 93 19 94 20 95
REMARK H PARENT 3 6 84 24 52 35 8 76 27 85
REMARK Flexibility Score: inf
ROOT
ATOM      1  C   UNL A   1      31.311  32.080  26.711  1.00  0.00     0.023 C 
ENDROOT
BRANCH   1   2
ATOM      2  C   UNL A   1      32.630  32.698  27.162  1.00  0.00     0.116 C 
BRANCH   2   3
ATOM      3  N   UNL A   1      32.476  34.058  27.654  1.00  0.00    -0.352 N 
ATOM      4  O   UNL A   1      32.746  35.819  29.021  1.00  0.00    -0.269 OA
ATOM      5  C   UNL A   1      33.135  34.709  28.667  1.00  0.00     0.251 C 
ATOM      6  H   UNL A   1      31.793  34.595  27.188  1.00  0.00     0.163 HD
BRANCH   5   7
ATOM      7  C   UNL A   1      34.296  34.084  29.342  1.00  0.00     0.039 A 
ATOM      8  C   UNL A   1      34.062  33.196  30.396  1.00  0.00     0.014 A 
ATOM      9  C   UNL A   1      35.608  34.402  28.978  1.00  0.00     0.014 A 
ATOM     10  C   UNL A   1      35.139  32.601  31.060  1.00  0.00     0.010 A 
ATOM     11  C   UNL A   1      36.678  33.755  29.593  1.00  0.00     0.010 A 
ATOM     12  C   UNL A   1      36.456  32.866  30.656  1.00  0.00    -0.014 A 
BRANCH  12  13
ATOM     13  C   UNL A   1      37.617  32.271  31.368  1.00  0.00     0.031 A 
ATOM     14  C   UNL A   1      38.378  31.134  30.739  1.00  0.00     0.074 A 
ATOM     15  C   UNL A   1      37.959  32.711  32.594  1.00  0.00     0.049 A 
ATOM     16  N   UNL A   1      39.374  30.440  31.225  1.00  0.00    -0.248 NA
ATOM     17  C   UNL A   1      37.952  30.705  29.395  1.00  0.00     0.031 C 
ATOM     18  C   UNL A   1      37.271  33.769  33.338  1.00  0.00     0.029 A 
ATOM     19  N   UNL A   1      38.966  32.312  33.438  1.00  0.00    -0.354 N 
ATOM     20  C   UNL A   1      39.661  29.471  30.273  1.00  0.00     0.074 A 
ATOM     21  C   UNL A   1      38.724  29.648  29.188  1.00  0.00     0.031 C 
ATOM     22  C   UNL A   1      37.887  33.946  34.519  1.00  0.00     0.029 A 
ATOM     23  C   UNL A   1      38.996  33.001  34.628  1.00  0.00     0.049 A 
ATOM     24  H   UNL A   1      39.607  31.599  33.212  1.00  0.00     0.167 HD
ATOM     25  C   UNL A   1      40.642  28.539  30.282  1.00  0.00     0.034 A 
ATOM     26  C   UNL A   1      39.825  32.889  35.685  1.00  0.00     0.034 A 
ATOM     27  C   UNL A   1      41.629  28.413  31.318  1.00  0.00     0.049 A 
ATOM     28  C   UNL A   1      40.940  31.881  35.647  1.00  0.00     0.074 A 
ATOM     29  C   UNL A   1      42.712  27.555  31.369  1.00  0.00     0.029 A 
ATOM     30  N   UNL A   1      41.662  29.174  32.474  1.00  0.00    -0.354 N 
ATOM     31  N   UNL A   1      41.261  31.047  34.689  1.00  0.00    -0.248 NA
ATOM     32  C   UNL A   1      41.821  31.814  36.823  1.00  0.00     0.031 C 
ATOM     33  C   UNL A   1      43.404  27.800  32.558  1.00  0.00     0.029 A 
ATOM     34  C   UNL A   1      42.751  28.811  33.244  1.00  0.00     0.049 A 
ATOM     35  H   UNL A   1      41.008  29.871  32.711  1.00  0.00     0.167 HD
ATOM     36  C   UNL A   1      42.390  30.369  35.135  1.00  0.00     0.074 A 
ATOM     37  C   UNL A   1      42.709  30.901  36.443  1.00  0.00     0.031 C 
ATOM     38  C   UNL A   1      43.087  29.385  34.521  1.00  0.00     0.034 A 
BRANCH  25  39
ATOM     39  C   UNL A   1      40.756  27.628  29.092  1.00  0.00     0.023 A 
ATOM     40  C   UNL A   1      39.901  26.512  29.002  1.00  0.00     0.012 A 
ATOM     41  C   UNL A   1      41.639  27.918  28.035  1.00  0.00     0.148 A 
ATOM     42  C   UNL A   1      39.930  25.688  27.879  1.00  0.00     0.002 A 
ATOM     43  C   UNL A   1      41.641  27.108  26.905  1.00  0.00     0.091 A 
ATOM     44  F   UNL A   1      42.452  28.977  28.153  1.00  0.00    -0.205 F 
ATOM     45  C   UNL A   1      40.792  25.991  26.829  1.00  0.00     0.022 A 
BRANCH  43  46
ATOM     46  S   UNL A   1      42.673  27.436  25.471  1.00  0.00     0.127 S 
ATOM     47  O   UNL A   1      42.513  26.198  24.706  1.00  0.00    -0.237 OA
ATOM     48  O   UNL A   1      42.018  28.605  24.884  1.00  0.00    -0.237 OA
ATOM     49  O   UNL A   1      44.013  27.676  25.985  1.00  0.00    -0.744 OA
ENDBRANCH  43  46
ENDBRANCH  25  39
BRANCH  26  50
ATOM     50  C   UNL A   1      39.674  33.823  36.832  1.00  0.00     0.023 A 
ATOM     51  C   UNL A   1      40.035  35.173  36.663  1.00  0.00     0.012 A 
ATOM     52  C   UNL A   1      39.118  33.405  38.056  1.00  0.00     0.148 A 
ATOM     53  C   UNL A   1      39.854  36.091  37.697  1.00  0.00     0.002 A 
ATOM     54  C   UNL A   1      38.905  34.333  39.069  1.00  0.00     0.091 A 
ATOM     55  F   UNL A   1      38.787  32.113  38.192  1.00  0.00    -0.205 F 
ATOM     56  C   UNL A   1      39.281  35.674  38.895  1.00  0.00     0.022 A 
BRANCH  54  57
ATOM     57  S   UNL A   1      38.082  33.916  40.611  1.00  0.00     0.127 S 
ATOM     58  O   UNL A   1      39.078  33.068  41.261  1.00  0.00    -0.237 OA
ATOM     59  O   UNL A   1      37.905  35.236  41.220  1.00  0.00    -0.237 OA
ATOM     60  O   UNL A   1      36.843  33.251  40.233  1.00  0.00    -0.744 OA
ENDBRANCH  54  57
ENDBRANCH  26  50
BRANCH  38  61
ATOM     61  C   UNL A   1      44.275  28.802  35.233  1.00  0.00     0.023 A 
ATOM     62  C   UNL A   1      45.545  29.370  35.021  1.00  0.00     0.012 A 
ATOM     63  C   UNL A   1      44.112  27.799  36.208  1.00  0.00     0.148 A 
ATOM     64  C   UNL A   1      46.641  28.945  35.771  1.00  0.00     0.002 A 
ATOM     65  C   UNL A   1      45.202  27.403  36.973  1.00  0.00     0.091 A 
ATOM     66  F   UNL A   1      42.892  27.272  36.382  1.00  0.00    -0.205 F 
ATOM     67  C   UNL A   1      46.468  27.972  36.752  1.00  0.00     0.022 A 
BRANCH  65  68
ATOM     68  S   UNL A   1      45.065  26.216  38.314  1.00  0.00     0.127 S 
ATOM     69  O   UNL A   1      44.624  25.016  37.606  1.00  0.00    -0.237 OA
ATOM     70  O   UNL A   1      46.438  26.158  38.817  1.00  0.00    -0.237 OA
ATOM     71  O   UNL A   1      44.099  26.774  39.251  1.00  0.00    -0.744 OA
ENDBRANCH  65  68
ENDBRANCH  38  61
ENDBRANCH  12  13
ENDBRANCH   5   7
ENDBRANCH   2   3
ENDBRANCH   1   2
BRANCH   1  72
ATOM     72  C   UNL A   1      31.419  30.712  26.039  1.00  0.00     0.023 C 
BRANCH  72  73
ATOM     73  C   UNL A   1      31.767  29.552  26.964  1.00  0.00     0.116 C 
BRANCH  73  74
ATOM     74  N   UNL A   1      33.165  29.547  27.357  1.00  0.00    -0.352 N 
ATOM     75  C   UNL A   1      34.205  28.849  26.797  1.00  0.00     0.255 C 
ATOM     76  H   UNL A   1      33.396  30.119  28.124  1.00  0.00     0.163 HD
ATOM     77  O   UNL A   1      35.334  28.907  27.279  1.00  0.00    -0.269 OA
BRANCH  75  78
ATOM     78  C   UNL A   1      33.959  27.949  25.654  1.00  0.00     0.082 A 
ATOM     79  C   UNL A   1      34.042  26.569  25.895  1.00  0.00     0.026 A 
ATOM     80  C   UNL A   1      33.673  28.425  24.370  1.00  0.00     0.128 A 
ATOM     81  C   UNL A   1      33.783  25.665  24.861  1.00  0.00    -0.017 A 
ATOM     82  C   UNL A   1      33.401  27.529  23.339  1.00  0.00     0.047 A 
ATOM     83  C   UNL A   1      33.449  26.156  23.589  1.00  0.00     0.012 A 
BRANCH  80  84
ATOM     84  O   UNL A   1      33.646  29.767  24.117  1.00  0.00    -0.507 OA
ATOM     85  H   UNL A   1      34.341  30.167  23.632  1.00  0.00     0.293 HD
ENDBRANCH  80  84
BRANCH  81  86
ATOM     86  C   UNL A   1      33.862  24.207  25.061  1.00  0.00    -0.011 A 
ATOM     87  C   UNL A   1      34.106  23.294  23.960  1.00  0.00     0.027 A 
ATOM     88  C   UNL A   1      33.625  23.706  26.286  1.00  0.00     0.080 A 
ATOM     89  C   UNL A   1      34.022  21.973  24.140  1.00  0.00     0.095 A 
ATOM     90  C   UNL A   1      33.548  22.233  26.506  1.00  0.00     0.255 A 
ATOM     91  N   UNL A   1      33.728  21.442  25.382  1.00  0.00    -0.258 N 
ATOM     92  O   UNL A   1      33.305  21.818  27.636  1.00  0.00    -0.269 OA
BRANCH  91  93
ATOM     93  C   UNL A   1      33.565  20.021  25.547  1.00  0.00     0.451 C 
ATOM     94  F   UNL A   1      32.269  19.648  25.416  1.00  0.00    -0.185 F 
ATOM     95  F   UNL A   1      34.295  19.340  24.629  1.00  0.00    -0.185 F 
ENDBRANCH  91  93
ENDBRANCH  81  86
ENDBRANCH  75  78
ENDBRANCH  73  74
ENDBRANCH  72  73
ENDBRANCH   1  72
TORSDOF 17
ENDMDL
MODEL 2
REMARK VINA RESULT:     -11.9      5.966     10.708
REMARK SMILES O=C(NCCCCNC(=O)c1cc(-c2ccn(C(F)F)c(=O)c2)ccc1O)c1ccc(-c2c3nc(c(-c4cccc(S(=O)(=O)[O-])c4F)c4ccc([nH]4)c(-c4cccc(S(=O)(=O)[O-])c4F)c4nc(c(-c5cccc(S(=O)(=O)[O-])c5F)c5ccc2[nH]5)C=C4)C=C3)cc1
REMARK SMILES IDX 5 1 4 2 3 3 1 4 2 5 28 7 29 8 90 9 30 10 89 11 31 12 32 13
REMARK SMILES IDX 33 14 83 15 34 16 88 17 82 18 84 19 35 20 87 21 81 22 80 23
REMARK SMILES IDX 36 25 68 26 48 27 67 28 49 29 52 30 66 31 85 32 50 33 51 34
REMARK SMILES IDX 65 36 86 37 53 38 37 39 38 40 46 41 39 42 41 43 47 44 40 45
REMARK SMILES IDX 42 46 43 47 44 48 45 49 69 50 70 51 78 52 71 53 73 54 79 55
REMARK SMILES IDX 72 56 74 57 75 58 76 59 77 60 54 61 55 62 63 63 56 64 58 65
REMARK SMILES IDX 64 66 57 67 59 68 60 69 61 70 62 71 6 72 7 73 8 74 9 75
REMARK SMILES IDX 10 77 11 78 12 79 26 80 13 81 25 82 24 83 27 84 14 86 15 87
REMARK SMILES IDX 23 88 16 89 21 90 17 91 22 92 18 93 19 94 20 95
REMARK H PARENT 3 6 84 24 52 35 8 76 27 85
REMARK Flexibility Score: inf
ROOT
ATOM      1  C   UNL A   1      35.080  21.843  26.379  1.00  0.00     0.023 C 
ENDROOT
BRANCH   1   2
ATOM      2  C   UNL A   1      36.389  22.177  25.671  1.00  0.00     0.116 C 
BRANCH   2   3
ATOM      3  N   UNL A   1      37.345  21.082  25.707  1.00  0.00    -0.352 N 
ATOM      4  O   UNL A   1      39.349  20.071  25.771  1.00  0.00    -0.269 OA
ATOM      5  C   UNL A   1      38.698  21.101  25.931  1.00  0.00     0.251 C 
ATOM      6  H   UNL A   1      36.961  20.189  25.545  1.00  0.00     0.163 HD
BRANCH   5   7
ATOM      7  C   UNL A   1      39.381  22.347  26.350  1.00  0.00     0.039 A 
ATOM      8  C   UNL A   1      38.957  23.562  25.804  1.00  0.00     0.014 A 
ATOM      9  C   UNL A   1      40.464  22.322  27.235  1.00  0.00     0.014 A 
ATOM     10  C   UNL A   1      39.592  24.752  26.171  1.00  0.00     0.010 A 
ATOM     11  C   UNL A   1      41.049  23.516  27.655  1.00  0.00     0.010 A 
ATOM     12  C   UNL A   1      40.635  24.740  27.110  1.00  0.00    -0.014 A 
BRANCH  12  13
ATOM     13  C   UNL A   1      41.346  25.989  27.490  1.00  0.00     0.031 A 
ATOM     14  C   UNL A   1      40.639  27.029  28.319  1.00  0.00     0.074 A 
ATOM     15  C   UNL A   1      42.601  26.215  27.056  1.00  0.00     0.049 A 
ATOM     16  N   UNL A   1      41.062  28.207  28.698  1.00  0.00    -0.248 NA
ATOM     17  C   UNL A   1      39.270  26.715  28.763  1.00  0.00     0.031 C 
ATOM     18  C   UNL A   1      43.378  25.313  26.203  1.00  0.00     0.029 A 
ATOM     19  N   UNL A   1      43.438  27.282  27.262  1.00  0.00    -0.354 N 
ATOM     20  C   UNL A   1      40.002  28.789  29.381  1.00  0.00     0.074 A 
ATOM     21  C   UNL A   1      38.907  27.847  29.349  1.00  0.00     0.031 C 
ATOM     22  C   UNL A   1      44.584  25.858  25.973  1.00  0.00     0.029 A 
ATOM     23  C   UNL A   1      44.659  27.155  26.640  1.00  0.00     0.049 A 
ATOM     24  H   UNL A   1      43.190  28.066  27.803  1.00  0.00     0.167 HD
ATOM     25  C   UNL A   1      39.955  29.984  30.013  1.00  0.00     0.034 A 
ATOM     26  C   UNL A   1      45.720  27.986  26.614  1.00  0.00     0.034 A 
ATOM     27  C   UNL A   1      41.067  30.886  30.120  1.00  0.00     0.049 A 
ATOM     28  C   UNL A   1      45.661  29.286  27.369  1.00  0.00     0.074 A 
ATOM     29  C   UNL A   1      41.137  32.080  30.815  1.00  0.00     0.029 A 
ATOM     30  N   UNL A   1      42.305  30.688  29.532  1.00  0.00    -0.354 N 
ATOM     31  N   UNL A   1      44.686  29.767  28.099  1.00  0.00    -0.248 NA
ATOM     32  C   UNL A   1      46.854  30.145  27.316  1.00  0.00     0.031 C 
ATOM     33  C   UNL A   1      42.422  32.604  30.649  1.00  0.00     0.029 A 
ATOM     34  C   UNL A   1      43.149  31.736  29.852  1.00  0.00     0.049 A 
ATOM     35  H   UNL A   1      42.547  29.916  28.971  1.00  0.00     0.167 HD
ATOM     36  C   UNL A   1      45.152  30.974  28.609  1.00  0.00     0.074 A 
ATOM     37  C   UNL A   1      46.503  31.143  28.117  1.00  0.00     0.031 C 
ATOM     38  C   UNL A   1      44.509  31.866  29.398  1.00  0.00     0.034 A 
BRANCH  25  39
ATOM     39  C   UNL A   1      38.680  30.356  30.716  1.00  0.00     0.023 A 
ATOM     40  C   UNL A   1      38.516  29.994  32.068  1.00  0.00     0.012 A 
ATOM     41  C   UNL A   1      37.693  31.128  30.075  1.00  0.00     0.148 A 
ATOM     42  C   UNL A   1      37.378  30.385  32.771  1.00  0.00     0.002 A 
ATOM     43  C   UNL A   1      36.575  31.538  30.792  1.00  0.00     0.091 A 
ATOM     44  F   UNL A   1      37.868  31.446  28.785  1.00  0.00    -0.205 F 
ATOM     45  C   UNL A   1      36.414  31.163  32.137  1.00  0.00     0.022 A 
BRANCH  43  46
ATOM     46  S   UNL A   1      35.297  32.587  30.089  1.00  0.00     0.127 S 
ATOM     47  O   UNL A   1      34.781  31.741  29.013  1.00  0.00    -0.237 OA
ATOM     48  O   UNL A   1      34.386  32.758  31.221  1.00  0.00    -0.237 OA
ATOM     49  O   UNL A   1      35.968  33.803  29.652  1.00  0.00    -0.744 OA
ENDBRANCH  43  46
ENDBRANCH  25  39
BRANCH  26  50
ATOM     50  C   UNL A   1      46.961  27.563  25.912  1.00  0.00     0.023 A 
ATOM     51  C   UNL A   1      47.935  26.841  26.626  1.00  0.00     0.012 A 
ATOM     52  C   UNL A   1      47.151  27.809  24.539  1.00  0.00     0.148 A 
ATOM     53  C   UNL A   1      49.085  26.376  25.987  1.00  0.00     0.002 A 
ATOM     54  C   UNL A   1      48.281  27.310  23.900  1.00  0.00     0.091 A 
ATOM     55  F   UNL A   1      46.211  28.503  23.883  1.00  0.00    -0.205 F 
ATOM     56  C   UNL A   1      49.254  26.602  24.624  1.00  0.00     0.022 A 
BRANCH  54  57
ATOM     57  S   UNL A   1      48.542  27.462  22.128  1.00  0.00     0.127 S 
ATOM     58  O   UNL A   1      49.790  28.220  22.075  1.00  0.00    -0.237 OA
ATOM     59  O   UNL A   1      48.655  26.060  21.723  1.00  0.00    -0.237 OA
ATOM     60  O   UNL A   1      47.368  28.150  21.612  1.00  0.00    -0.744 OA
ENDBRANCH  54  57
ENDBRANCH  26  50
BRANCH  38  61
ATOM     61  C   UNL A   1      45.239  33.116  29.802  1.00  0.00     0.023 A 
ATOM     62  C   UNL A   1      46.066  33.088  30.941  1.00  0.00     0.012 A 
ATOM     63  C   UNL A   1      45.220  34.261  28.982  1.00  0.00     0.148 A 
ATOM     64  C   UNL A   1      46.863  34.186  31.261  1.00  0.00     0.002 A 
ATOM     65  C   UNL A   1      46.041  35.338  29.289  1.00  0.00     0.091 A 
ATOM     66  F   UNL A   1      44.417  34.261  27.908  1.00  0.00    -0.205 F 
ATOM     67  C   UNL A   1      46.860  35.303  30.430  1.00  0.00     0.022 A 
BRANCH  65  68
ATOM     68  S   UNL A   1      46.167  36.791  28.239  1.00  0.00     0.127 S 
ATOM     69  O   UNL A   1      44.819  37.349  28.338  1.00  0.00    -0.237 OA
ATOM     70  O   UNL A   1      47.202  37.572  28.916  1.00  0.00    -0.237 OA
ATOM     71  O   UNL A   1      46.541  36.304  26.918  1.00  0.00    -0.744 OA
ENDBRANCH  65  68
ENDBRANCH  38  61
ENDBRANCH  12  13
ENDBRANCH   5   7
ENDBRANCH   2   3
ENDBRANCH   1   2
BRANCH   1  72
ATOM     72  C   UNL A   1      34.488  22.963  27.235  1.00  0.00     0.023 C 
BRANCH  72  73
ATOM     73  C   UNL A   1      33.880  24.128  26.462  1.00  0.00     0.116 C 
BRANCH  73  74
ATOM     74  N   UNL A   1      32.456  24.279  26.704  1.00  0.00    -0.352 N 
ATOM     75  C   UNL A   1      31.411  23.722  26.010  1.00  0.00     0.255 C 
ATOM     76  H   UNL A   1      32.208  24.855  27.462  1.00  0.00     0.163 HD
ATOM     77  O   UNL A   1      30.248  23.988  26.304  1.00  0.00    -0.269 OA
BRANCH  75  78
ATOM     78  C   UNL A   1      31.676  22.856  24.844  1.00  0.00     0.082 A 
ATOM     79  C   UNL A   1      32.010  21.519  25.102  1.00  0.00     0.026 A 
ATOM     80  C   UNL A   1      31.622  23.330  23.529  1.00  0.00     0.128 A 
ATOM     81  C   UNL A   1      32.237  20.641  24.039  1.00  0.00    -0.017 A 
ATOM     82  C   UNL A   1      31.835  22.457  22.465  1.00  0.00     0.047 A 
ATOM     83  C   UNL A   1      32.133  21.117  22.722  1.00  0.00     0.012 A 
BRANCH  80  84
ATOM     84  O   UNL A   1      31.351  24.645  23.275  1.00  0.00    -0.507 OA
ATOM     85  H   UNL A   1      32.026  25.289  23.370  1.00  0.00     0.293 HD
ENDBRANCH  80  84
BRANCH  81  86
ATOM     86  C   UNL A   1      32.596  19.227  24.256  1.00  0.00    -0.011 A 
ATOM     87  C   UNL A   1      32.527  18.611  25.567  1.00  0.00     0.027 A 
ATOM     88  C   UNL A   1      33.072  18.513  23.221  1.00  0.00     0.080 A 
ATOM     89  C   UNL A   1      33.000  17.377  25.765  1.00  0.00     0.095 A 
ATOM     90  C   UNL A   1      33.585  17.127  23.423  1.00  0.00     0.255 A 
ATOM     91  N   UNL A   1      33.541  16.648  24.722  1.00  0.00    -0.258 N 
ATOM     92  O   UNL A   1      34.034  16.520  22.455  1.00  0.00    -0.269 OA
BRANCH  91  93
ATOM     93  C   UNL A   1      34.117  15.351  24.962  1.00  0.00     0.451 C 
ATOM     94  F   UNL A   1      35.313  15.443  25.591  1.00  0.00    -0.185 F 
ATOM     95  F   UNL A   1      33.295  14.590  25.728  1.00  0.00    -0.185 F 
ENDBRANCH  91  93
ENDBRANCH  81  86
ENDBRANCH  75  78
ENDBRANCH  73  74
ENDBRANCH  72  73
ENDBRANCH   1  72
TORSDOF 17
ENDMDL
MODEL 3
REMARK VINA RESULT:     -11.9      5.885      8.665
REMARK SMILES O=C(NCCCCNC(=O)c1cc(-c2ccn(C(F)F)c(=O)c2)ccc1O)c1ccc(-c2c3nc(c(-c4cccc(S(=O)(=O)[O-])c4F)c4ccc([nH]4)c(-c4cccc(S(=O)(=O)[O-])c4F)c4nc(c(-c5cccc(S(=O)(=O)[O-])c5F)c5ccc2[nH]5)C=C4)C=C3)cc1
REMARK SMILES IDX 5 1 4 2 3 3 1 4 2 5 28 7 29 8 90 9 30 10 89 11 31 12 32 13
REMARK SMILES IDX 33 14 83 15 34 16 88 17 82 18 84 19 35 20 87 21 81 22 80 23
REMARK SMILES IDX 36 25 68 26 48 27 67 28 49 29 52 30 66 31 85 32 50 33 51 34
REMARK SMILES IDX 65 36 86 37 53 38 37 39 38 40 46 41 39 42 41 43 47 44 40 45
REMARK SMILES IDX 42 46 43 47 44 48 45 49 69 50 70 51 78 52 71 53 73 54 79 55
REMARK SMILES IDX 72 56 74 57 75 58 76 59 77 60 54 61 55 62 63 63 56 64 58 65
REMARK SMILES IDX 64 66 57 67 59 68 60 69 61 70 62 71 6 72 7 73 8 74 9 75
REMARK SMILES IDX 10 77 11 78 12 79 26 80 13 81 25 82 24 83 27 84 14 86 15 87
REMARK SMILES IDX 23 88 16 89 21 90 17 91 22 92 18 93 19 94 20 95
REMARK H PARENT 3 6 84 24 52 35 8 76 27 85
REMARK Flexibility Score: inf
ROOT
ATOM      1  C   UNL A   1      35.910  22.284  25.457  1.00  0.00     0.023 C 
ENDROOT
BRANCH   1   2
ATOM      2  C   UNL A   1      37.255  22.005  24.792  1.00  0.00     0.116 C 
BRANCH   2   3
ATOM      3  N   UNL A   1      38.008  20.957  25.464  1.00  0.00    -0.352 N 
ATOM      4  O   UNL A   1      39.718  20.002  26.562  1.00  0.00    -0.269 OA
ATOM      5  C   UNL A   1      39.161  21.037  26.203  1.00  0.00     0.251 C 
ATOM      6  H   UNL A   1      37.632  20.051  25.373  1.00  0.00     0.163 HD
BRANCH   5   7
ATOM      7  C   UNL A   1      39.745  22.351  26.559  1.00  0.00     0.039 A 
ATOM      8  C   UNL A   1      40.783  22.393  27.496  1.00  0.00     0.014 A 
ATOM      9  C   UNL A   1      39.248  23.540  26.019  1.00  0.00     0.014 A 
ATOM     10  C   UNL A   1      41.344  23.620  27.861  1.00  0.00     0.010 A 
ATOM     11  C   UNL A   1      39.856  24.755  26.330  1.00  0.00     0.010 A 
ATOM     12  C   UNL A   1      40.894  24.811  27.272  1.00  0.00    -0.014 A 
BRANCH  12  13
ATOM     13  C   UNL A   1      41.453  26.129  27.668  1.00  0.00     0.031 A 
ATOM     14  C   UNL A   1      42.861  26.493  27.277  1.00  0.00     0.074 A 
ATOM     15  C   UNL A   1      40.724  26.978  28.419  1.00  0.00     0.049 A 
ATOM     16  N   UNL A   1      43.550  27.562  27.581  1.00  0.00    -0.248 NA
ATOM     17  C   UNL A   1      43.600  25.520  26.454  1.00  0.00     0.031 C 
ATOM     18  C   UNL A   1      39.368  26.724  28.910  1.00  0.00     0.029 A 
ATOM     19  N   UNL A   1      41.029  28.222  28.911  1.00  0.00    -0.354 N 
ATOM     20  C   UNL A   1      44.810  27.370  27.028  1.00  0.00     0.074 A 
ATOM     21  C   UNL A   1      44.802  26.075  26.388  1.00  0.00     0.031 C 
ATOM     22  C   UNL A   1      38.952  27.787  29.619  1.00  0.00     0.029 A 
ATOM     23  C   UNL A   1      40.017  28.786  29.653  1.00  0.00     0.049 A 
ATOM     24  H   UNL A   1      41.891  28.669  28.748  1.00  0.00     0.167 HD
ATOM     25  C   UNL A   1      45.869  28.212  27.020  1.00  0.00     0.034 A 
ATOM     26  C   UNL A   1      39.952  29.975  30.286  1.00  0.00     0.034 A 
ATOM     27  C   UNL A   1      45.856  29.534  27.581  1.00  0.00     0.049 A 
ATOM     28  C   UNL A   1      41.124  30.915  30.217  1.00  0.00     0.074 A 
ATOM     29  C   UNL A   1      46.854  30.491  27.544  1.00  0.00     0.029 A 
ATOM     30  N   UNL A   1      44.789  30.090  28.266  1.00  0.00    -0.354 N 
ATOM     31  N   UNL A   1      42.267  30.758  29.597  1.00  0.00    -0.248 NA
ATOM     32  C   UNL A   1      40.990  32.203  30.914  1.00  0.00     0.031 C 
ATOM     33  C   UNL A   1      46.388  31.630  28.205  1.00  0.00     0.029 A 
ATOM     34  C   UNL A   1      45.101  31.380  28.653  1.00  0.00     0.049 A 
ATOM     35  H   UNL A   1      43.935  29.635  28.449  1.00  0.00     0.167 HD
ATOM     36  C   UNL A   1      42.981  31.932  29.810  1.00  0.00     0.074 A 
ATOM     37  C   UNL A   1      42.136  32.798  30.604  1.00  0.00     0.031 C 
ATOM     38  C   UNL A   1      44.230  32.252  29.398  1.00  0.00     0.034 A 
BRANCH  25  39
ATOM     39  C   UNL A   1      47.115  27.767  26.308  1.00  0.00     0.023 A 
ATOM     40  C   UNL A   1      48.100  27.064  27.030  1.00  0.00     0.012 A 
ATOM     41  C   UNL A   1      47.273  27.965  24.924  1.00  0.00     0.148 A 
ATOM     42  C   UNL A   1      49.234  26.574  26.386  1.00  0.00     0.002 A 
ATOM     43  C   UNL A   1      48.393  27.448  24.283  1.00  0.00     0.091 A 
ATOM     44  F   UNL A   1      46.328  28.649  24.264  1.00  0.00    -0.205 F 
ATOM     45  C   UNL A   1      49.376  26.757  25.013  1.00  0.00     0.022 A 
BRANCH  43  46
ATOM     46  S   UNL A   1      48.650  27.580  22.510  1.00  0.00     0.127 S 
ATOM     47  O   UNL A   1      49.915  28.313  22.451  1.00  0.00    -0.237 OA
ATOM     48  O   UNL A   1      48.740  26.176  22.109  1.00  0.00    -0.237 OA
ATOM     49  O   UNL A   1      47.497  28.296  21.986  1.00  0.00    -0.744 OA
ENDBRANCH  43  46
ENDBRANCH  25  39
BRANCH  26  50
ATOM     50  C   UNL A   1      38.690  30.370  30.967  1.00  0.00     0.023 A 
ATOM     51  C   UNL A   1      38.541  30.092  32.338  1.00  0.00     0.012 A 
ATOM     52  C   UNL A   1      37.676  31.072  30.289  1.00  0.00     0.148 A 
ATOM     53  C   UNL A   1      37.397  30.498  33.025  1.00  0.00     0.002 A 
ATOM     54  C   UNL A   1      36.555  31.508  30.988  1.00  0.00     0.091 A 
ATOM     55  F   UNL A   1      37.841  31.320  28.983  1.00  0.00    -0.205 F 
ATOM     56  C   UNL A   1      36.409  31.214  32.353  1.00  0.00     0.022 A 
BRANCH  54  57
ATOM     57  S   UNL A   1      35.275  32.522  30.237  1.00  0.00     0.127 S 
ATOM     58  O   UNL A   1      34.320  32.656  31.334  1.00  0.00    -0.237 OA
ATOM     59  O   UNL A   1      36.015  33.742  29.912  1.00  0.00    -0.237 OA
ATOM     60  O   UNL A   1      34.802  31.772  29.083  1.00  0.00    -0.744 OA
ENDBRANCH  54  57
ENDBRANCH  26  50
BRANCH  38  61
ATOM     61  C   UNL A   1      44.783  33.595  29.780  1.00  0.00     0.023 A 
ATOM     62  C   UNL A   1      45.456  33.735  31.008  1.00  0.00     0.012 A 
ATOM     63  C   UNL A   1      44.763  34.671  28.870  1.00  0.00     0.148 A 
ATOM     64  C   UNL A   1      46.100  34.929  31.328  1.00  0.00     0.002 A 
ATOM     65  C   UNL A   1      45.434  35.846  29.182  1.00  0.00     0.091 A 
ATOM     66  F   UNL A   1      44.108  34.511  27.711  1.00  0.00    -0.205 F 
ATOM     67  C   UNL A   1      46.099  35.978  30.412  1.00  0.00     0.022 A 
BRANCH  65  68
ATOM     68  S   UNL A   1      45.558  37.225  28.037  1.00  0.00     0.127 S 
ATOM     69  O   UNL A   1      45.914  36.546  26.791  1.00  0.00    -0.237 OA
ATOM     70  O   UNL A   1      44.203  37.775  28.066  1.00  0.00    -0.237 OA
ATOM     71  O   UNL A   1      46.584  38.108  28.576  1.00  0.00    -0.744 OA
ENDBRANCH  65  68
ENDBRANCH  38  61
ENDBRANCH  12  13
ENDBRANCH   5   7
ENDBRANCH   2   3
ENDBRANCH   1   2
BRANCH   1  72
ATOM     72  C   UNL A   1      35.757  23.672  26.079  1.00  0.00     0.023 C 
BRANCH  72  73
ATOM     73  C   UNL A   1      34.680  24.554  25.459  1.00  0.00     0.116 C 
BRANCH  73  74
ATOM     74  N   UNL A   1      33.434  24.527  26.204  1.00  0.00    -0.352 N 
ATOM     75  C   UNL A   1      32.316  23.768  25.967  1.00  0.00     0.255 C 
ATOM     76  H   UNL A   1      33.385  25.131  26.980  1.00  0.00     0.163 HD
ATOM     77  O   UNL A   1      31.309  23.896  26.660  1.00  0.00    -0.269 OA
BRANCH  75  78
ATOM     78  C   UNL A   1      32.282  22.844  24.816  1.00  0.00     0.082 A 
ATOM     79  C   UNL A   1      32.504  21.485  25.080  1.00  0.00     0.026 A 
ATOM     80  C   UNL A   1      32.058  23.282  23.506  1.00  0.00     0.128 A 
ATOM     81  C   UNL A   1      32.448  20.556  24.037  1.00  0.00    -0.017 A 
ATOM     82  C   UNL A   1      31.988  22.360  22.466  1.00  0.00     0.047 A 
ATOM     83  C   UNL A   1      32.175  21.003  22.734  1.00  0.00     0.012 A 
BRANCH  80  84
ATOM     84  O   UNL A   1      31.895  24.612  23.237  1.00  0.00    -0.507 OA
ATOM     85  H   UNL A   1      32.175  24.961  22.414  1.00  0.00     0.293 HD
ENDBRANCH  80  84
BRANCH  81  86
ATOM     86  C   UNL A   1      32.680  19.117  24.259  1.00  0.00    -0.011 A 
ATOM     87  C   UNL A   1      32.424  18.488  25.541  1.00  0.00     0.027 A 
ATOM     88  C   UNL A   1      33.214  18.385  23.266  1.00  0.00     0.080 A 
ATOM     89  C   UNL A   1      32.784  17.220  25.761  1.00  0.00     0.095 A 
ATOM     90  C   UNL A   1      33.602  16.962  23.491  1.00  0.00     0.255 A 
ATOM     91  N   UNL A   1      33.382  16.468  24.767  1.00  0.00    -0.258 N 
ATOM     92  O   UNL A   1      34.109  16.337  22.564  1.00  0.00    -0.269 OA
BRANCH  91  93
ATOM     93  C   UNL A   1      33.834  15.129  25.038  1.00  0.00     0.451 C 
ATOM     94  F   UNL A   1      35.106  15.115  25.503  1.00  0.00    -0.185 F 
ATOM     95  F   UNL A   1      33.041  14.528  25.960  1.00  0.00    -0.185 F 
ENDBRANCH  91  93
ENDBRANCH  81  86
ENDBRANCH  75  78
ENDBRANCH  73  74
ENDBRANCH  72  73
ENDBRANCH   1  72
TORSDOF 17
ENDMDL
