MODEL 1
REMARK VINA RESULT:     -11.6      0.000      0.000
REMARK SMILES O=C(NCCCCNC(=O)c1ccccc1/C=N\NC(=S)NCc1ccccc1)c1ccc(-c2c3nc(c(-c4cccc(S(=O)(=O)[O-])c4F)c4ccc([nH]4)c(-c4cccc(S(=O)(=O)[O-])c4F)c4nc(c(-c5cccc(S(=O)(=O)[O-])c5F)c5ccc2[nH]5)C=C4)C=C3)cc1
REMARK SMILES IDX 7 1 6 2 5 3 4 4 3 5 1 6 2 7 30 9 31 10 92 11 32 12 91 13
REMARK SMILES IDX 33 14 34 15 35 16 85 17 36 18 90 19 84 20 86 21 37 22 89 23
REMARK SMILES IDX 83 24 82 25 38 27 70 28 50 29 69 30 51 31 54 32 68 33 87 34
REMARK SMILES IDX 52 35 53 36 67 38 88 39 55 40 39 41 40 42 48 43 41 44 43 45
REMARK SMILES IDX 49 46 42 47 44 48 45 49 46 50 47 51 71 52 72 53 80 54 73 55
REMARK SMILES IDX 75 56 81 57 74 58 76 59 77 60 78 61 79 62 56 63 57 64 65 65
REMARK SMILES IDX 58 66 60 67 66 68 59 69 61 70 62 71 63 72 64 73 8 74 9 75
REMARK SMILES IDX 10 77 11 78 12 79 16 80 13 81 15 82 14 83 17 84 18 85 19 86
REMARK SMILES IDX 20 88 21 89 22 90 23 92 24 93 25 94 29 95 26 96 28 97 27 98
REMARK H PARENT 3 8 86 26 54 37 8 76 19 87 22 91
REMARK Flexibility Score: inf
ROOT
ATOM      1  C   UNL A   1      37.767  22.518  25.252  1.00  0.00     0.116 C 
ENDROOT
BRANCH   1   2
ATOM      2  C   UNL A   1      38.661  21.378  25.753  1.00  0.00     0.023 C 
BRANCH   2   3
ATOM      3  C   UNL A   1      39.960  21.782  26.439  1.00  0.00     0.023 C 
BRANCH   3   4
ATOM      4  C   UNL A   1      40.655  20.687  27.224  1.00  0.00     0.116 C 
BRANCH   4   5
ATOM      5  N   UNL A   1      41.381  19.701  26.431  1.00  0.00    -0.352 N 
ATOM      6  O   UNL A   1      43.064  19.042  25.050  1.00  0.00    -0.269 OA
ATOM      7  C   UNL A   1      42.567  19.916  25.747  1.00  0.00     0.251 C 
ATOM      8  H   UNL A   1      40.991  18.799  26.376  1.00  0.00     0.163 HD
BRANCH   7   9
ATOM      9  C   UNL A   1      43.176  21.261  25.852  1.00  0.00     0.039 A 
ATOM     10  C   UNL A   1      43.675  21.674  27.085  1.00  0.00     0.014 A 
ATOM     11  C   UNL A   1      43.076  22.163  24.790  1.00  0.00     0.014 A 
ATOM     12  C   UNL A   1      43.835  23.026  27.329  1.00  0.00     0.010 A 
ATOM     13  C   UNL A   1      43.394  23.512  25.001  1.00  0.00     0.010 A 
ATOM     14  C   UNL A   1      43.725  23.965  26.287  1.00  0.00    -0.014 A 
BRANCH  14  15
ATOM     15  C   UNL A   1      44.050  25.386  26.593  1.00  0.00     0.031 A 
ATOM     16  C   UNL A   1      43.065  26.320  27.245  1.00  0.00     0.074 A 
ATOM     17  C   UNL A   1      45.302  25.809  26.320  1.00  0.00     0.049 A 
ATOM     18  N   UNL A   1      43.246  27.559  27.626  1.00  0.00    -0.248 NA
ATOM     19  C   UNL A   1      41.706  25.815  27.495  1.00  0.00     0.031 C 
ATOM     20  C   UNL A   1      46.326  25.008  25.640  1.00  0.00     0.029 A 
ATOM     21  N   UNL A   1      45.941  26.987  26.600  1.00  0.00    -0.354 N 
ATOM     22  C   UNL A   1      42.023  27.998  28.122  1.00  0.00     0.074 A 
ATOM     23  C   UNL A   1      41.100  26.889  27.987  1.00  0.00     0.031 C 
ATOM     24  C   UNL A   1      47.477  25.689  25.614  1.00  0.00     0.029 A 
ATOM     25  C   UNL A   1      47.254  27.008  26.187  1.00  0.00     0.049 A 
ATOM     26  H   UNL A   1      45.504  27.746  27.050  1.00  0.00     0.167 HD
ATOM     27  C   UNL A   1      41.703  29.205  28.651  1.00  0.00     0.034 A 
ATOM     28  C   UNL A   1      48.176  27.985  26.233  1.00  0.00     0.034 A 
ATOM     29  C   UNL A   1      42.639  30.291  28.805  1.00  0.00     0.049 A 
ATOM     30  C   UNL A   1      47.801  29.294  26.857  1.00  0.00     0.074 A 
ATOM     31  C   UNL A   1      42.420  31.542  29.358  1.00  0.00     0.029 A 
ATOM     32  N   UNL A   1      43.967  30.262  28.408  1.00  0.00    -0.354 N 
ATOM     33  N   UNL A   1      46.664  29.650  27.402  1.00  0.00    -0.248 NA
ATOM     34  C   UNL A   1      48.841  30.329  26.893  1.00  0.00     0.031 C 
ATOM     35  C   UNL A   1      43.610  32.274  29.278  1.00  0.00     0.029 A 
ATOM     36  C   UNL A   1      44.580  31.469  28.703  1.00  0.00     0.049 A 
ATOM     37  H   UNL A   1      44.411  29.494  27.980  1.00  0.00     0.167 HD
ATOM     38  C   UNL A   1      46.852  30.947  27.856  1.00  0.00     0.074 A 
ATOM     39  C   UNL A   1      48.229  31.294  27.564  1.00  0.00     0.031 C 
ATOM     40  C   UNL A   1      45.960  31.785  28.437  1.00  0.00     0.034 A 
BRANCH  27  41
ATOM     41  C   UNL A   1      40.293  29.414  29.147  1.00  0.00     0.023 A 
ATOM     42  C   UNL A   1      39.282  29.776  28.233  1.00  0.00     0.012 A 
ATOM     43  C   UNL A   1      39.947  29.166  30.492  1.00  0.00     0.148 A 
ATOM     44  C   UNL A   1      37.958  29.912  28.652  1.00  0.00     0.002 A 
ATOM     45  C   UNL A   1      38.619  29.264  30.893  1.00  0.00     0.091 A 
ATOM     46  F   UNL A   1      40.922  28.836  31.351  1.00  0.00    -0.205 F 
ATOM     47  C   UNL A   1      37.625  29.646  29.977  1.00  0.00     0.022 A 
BRANCH  45  48
ATOM     48  S   UNL A   1      38.070  28.868  32.559  1.00  0.00     0.127 S 
ATOM     49  O   UNL A   1      38.909  29.754  33.363  1.00  0.00    -0.237 OA
ATOM     50  O   UNL A   1      36.657  29.243  32.514  1.00  0.00    -0.237 OA
ATOM     51  O   UNL A   1      38.318  27.444  32.736  1.00  0.00    -0.744 OA
ENDBRANCH  45  48
ENDBRANCH  27  41
BRANCH  28  52
ATOM     52  C   UNL A   1      49.533  27.745  25.670  1.00  0.00     0.023 A 
ATOM     53  C   UNL A   1      49.768  27.925  24.295  1.00  0.00     0.012 A 
ATOM     54  C   UNL A   1      50.607  27.391  26.511  1.00  0.00     0.148 A 
ATOM     55  C   UNL A   1      51.043  27.726  23.763  1.00  0.00     0.002 A 
ATOM     56  C   UNL A   1      51.887  27.267  25.987  1.00  0.00     0.091 A 
ATOM     57  F   UNL A   1      50.361  27.207  27.816  1.00  0.00    -0.205 F 
ATOM     58  C   UNL A   1      52.104  27.413  24.610  1.00  0.00     0.022 A 
BRANCH  56  59
ATOM     59  S   UNL A   1      53.322  27.035  27.041  1.00  0.00     0.127 S 
ATOM     60  O   UNL A   1      53.235  28.192  27.925  1.00  0.00    -0.237 OA
ATOM     61  O   UNL A   1      53.032  25.749  27.675  1.00  0.00    -0.237 OA
ATOM     62  O   UNL A   1      54.464  27.005  26.135  1.00  0.00    -0.744 OA
ENDBRANCH  56  59
ENDBRANCH  28  52
BRANCH  40  63
ATOM     63  C   UNL A   1      46.461  33.156  28.809  1.00  0.00     0.023 A 
ATOM     64  C   UNL A   1      46.970  33.387  30.102  1.00  0.00     0.012 A 
ATOM     65  C   UNL A   1      46.445  34.208  27.873  1.00  0.00     0.148 A 
ATOM     66  C   UNL A   1      47.411  34.656  30.474  1.00  0.00     0.002 A 
ATOM     67  C   UNL A   1      46.935  35.456  28.234  1.00  0.00     0.091 A 
ATOM     68  F   UNL A   1      45.937  33.974  26.654  1.00  0.00    -0.205 F 
ATOM     69  C   UNL A   1      47.402  35.687  29.538  1.00  0.00     0.022 A 
BRANCH  67  70
ATOM     70  S   UNL A   1      47.044  36.817  27.067  1.00  0.00     0.127 S 
ATOM     71  O   UNL A   1      47.859  36.232  26.004  1.00  0.00    -0.237 OA
ATOM     72  O   UNL A   1      45.641  37.035  26.713  1.00  0.00    -0.237 OA
ATOM     73  O   UNL A   1      47.659  37.919  27.796  1.00  0.00    -0.744 OA
ENDBRANCH  67  70
ENDBRANCH  40  63
ENDBRANCH  14  15
ENDBRANCH   7   9
ENDBRANCH   4   5
ENDBRANCH   3   4
ENDBRANCH   2   3
ENDBRANCH   1   2
BRANCH   1  74
ATOM     74  N   UNL A   1      36.624  22.857  26.095  1.00  0.00    -0.352 N 
ATOM     75  C   UNL A   1      35.281  22.535  26.037  1.00  0.00     0.251 C 
ATOM     76  H   UNL A   1      36.856  23.431  26.860  1.00  0.00     0.163 HD
ATOM     77  O   UNL A   1      34.525  22.903  26.931  1.00  0.00    -0.269 OA
BRANCH  75  78
ATOM     78  C   UNL A   1      34.678  21.963  24.811  1.00  0.00     0.048 A 
ATOM     79  C   UNL A   1      34.368  20.176  24.938  1.00  0.00     0.014 A 
ATOM     80  C   UNL A   1      33.636  22.956  23.723  1.00  0.00     0.007 A 
ATOM     81  C   UNL A   1      33.060  19.392  23.950  1.00  0.00     0.001 A 
ATOM     82  C   UNL A   1      32.325  22.178  22.701  1.00  0.00     0.010 A 
ATOM     83  C   UNL A   1      32.055  20.396  22.826  1.00  0.00     0.001 A 
BRANCH  80  84
ATOM     84  C   UNL A   1      34.262  24.102  23.132  1.00  0.00     0.142 C 
ATOM     85  N   UNL A   1      33.854  25.263  23.498  1.00  0.00    -0.181 NA
BRANCH  85  86
ATOM     86  N   UNL A   1      32.743  25.321  24.305  1.00  0.00    -0.254 N 
ATOM     87  H   UNL A   1      32.502  24.452  24.702  1.00  0.00     0.193 HD
BRANCH  86  88
ATOM     88  C   UNL A   1      31.907  26.333  24.667  1.00  0.00     0.187 C 
ATOM     89  S   UNL A   1      31.225  26.179  26.206  1.00  0.00    -0.039 S 
BRANCH  88  90
ATOM     90  N   UNL A   1      31.505  27.469  23.925  1.00  0.00    -0.357 N 
ATOM     91  H   UNL A   1      31.648  27.198  22.990  1.00  0.00     0.163 HD
BRANCH  90  92
ATOM     92  C   UNL A   1      30.771  29.411  23.770  1.00  0.00     0.151 C 
BRANCH  92  93
ATOM     93  C   UNL A   1      29.357  30.165  23.284  1.00  0.00    -0.029 A 
ATOM     94  C   UNL A   1      28.898  29.878  21.983  1.00  0.00     0.005 A 
ATOM     95  C   UNL A   1      29.040  31.426  23.850  1.00  0.00     0.005 A 
ATOM     96  C   UNL A   1      28.249  30.864  21.236  1.00  0.00     0.000 A 
ATOM     97  C   UNL A   1      28.389  32.400  23.094  1.00  0.00     0.000 A 
ATOM     98  C   UNL A   1      28.026  32.129  21.779  1.00  0.00     0.000 A 
ENDBRANCH  92  93
ENDBRANCH  90  92
ENDBRANCH  88  90
ENDBRANCH  86  88
ENDBRANCH  85  86
ENDBRANCH  80  84
ENDBRANCH  75  78
ENDBRANCH   1  74
TORSDOF 20
ENDMDL
MODEL 2
REMARK VINA RESULT:     -11.3      5.803     10.976
REMARK SMILES O=C(NCCCCNC(=O)c1ccccc1/C=N\NC(=S)NCc1ccccc1)c1ccc(-c2c3nc(c(-c4cccc(S(=O)(=O)[O-])c4F)c4ccc([nH]4)c(-c4cccc(S(=O)(=O)[O-])c4F)c4nc(c(-c5cccc(S(=O)(=O)[O-])c5F)c5ccc2[nH]5)C=C4)C=C3)cc1
REMARK SMILES IDX 7 1 6 2 5 3 4 4 3 5 1 6 2 7 30 9 31 10 92 11 32 12 91 13
REMARK SMILES IDX 33 14 34 15 35 16 85 17 36 18 90 19 84 20 86 21 37 22 89 23
REMARK SMILES IDX 83 24 82 25 38 27 70 28 50 29 69 30 51 31 54 32 68 33 87 34
REMARK SMILES IDX 52 35 53 36 67 38 88 39 55 40 39 41 40 42 48 43 41 44 43 45
REMARK SMILES IDX 49 46 42 47 44 48 45 49 46 50 47 51 71 52 72 53 80 54 73 55
REMARK SMILES IDX 75 56 81 57 74 58 76 59 77 60 78 61 79 62 56 63 57 64 65 65
REMARK SMILES IDX 58 66 60 67 66 68 59 69 61 70 62 71 63 72 64 73 8 74 9 75
REMARK SMILES IDX 10 77 11 78 12 79 16 80 13 81 15 82 14 83 17 84 18 85 19 86
REMARK SMILES IDX 20 88 21 89 22 90 23 92 24 93 25 94 29 95 26 96 28 97 27 98
REMARK H PARENT 3 8 86 26 54 37 8 76 19 87 22 91
REMARK Flexibility Score: inf
ROOT
ATOM      1  C   UNL A   1      30.657  26.841  24.820  1.00  0.00     0.116 C 
ENDROOT
BRANCH   1   2
ATOM      2  C   UNL A   1      30.970  28.278  25.250  1.00  0.00     0.023 C 
BRANCH   2   3
ATOM      3  C   UNL A   1      32.233  28.483  26.077  1.00  0.00     0.023 C 
BRANCH   3   4
ATOM      4  C   UNL A   1      33.064  29.699  25.714  1.00  0.00     0.116 C 
BRANCH   4   5
ATOM      5  N   UNL A   1      32.598  30.970  26.256  1.00  0.00    -0.352 N 
ATOM      6  O   UNL A   1      32.766  32.785  27.617  1.00  0.00    -0.269 OA
ATOM      7  C   UNL A   1      33.273  31.766  27.168  1.00  0.00     0.251 C 
ATOM      8  H   UNL A   1      31.722  31.293  25.946  1.00  0.00     0.163 HD
BRANCH   7   9
ATOM      9  C   UNL A   1      34.607  31.303  27.616  1.00  0.00     0.039 A 
ATOM     10  C   UNL A   1      34.758  29.971  27.992  1.00  0.00     0.014 A 
ATOM     11  C   UNL A   1      35.633  32.224  27.838  1.00  0.00     0.014 A 
ATOM     12  C   UNL A   1      35.819  29.618  28.807  1.00  0.00     0.010 A 
ATOM     13  C   UNL A   1      36.782  31.819  28.530  1.00  0.00     0.010 A 
ATOM     14  C   UNL A   1      36.862  30.525  29.068  1.00  0.00    -0.014 A 
BRANCH  14  15
ATOM     15  C   UNL A   1      38.039  30.032  29.835  1.00  0.00     0.031 A 
ATOM     16  C   UNL A   1      39.053  29.088  29.245  1.00  0.00     0.074 A 
ATOM     17  C   UNL A   1      38.213  30.515  31.083  1.00  0.00     0.049 A 
ATOM     18  N   UNL A   1      40.158  28.637  29.784  1.00  0.00    -0.248 NA
ATOM     19  C   UNL A   1      38.800  28.571  27.891  1.00  0.00     0.031 C 
ATOM     20  C   UNL A   1      37.267  31.394  31.779  1.00  0.00     0.029 A 
ATOM     21  N   UNL A   1      39.241  30.369  31.976  1.00  0.00    -0.354 N 
ATOM     22  C   UNL A   1      40.713  27.758  28.860  1.00  0.00     0.074 A 
ATOM     23  C   UNL A   1      39.815  27.732  27.723  1.00  0.00     0.031 C 
ATOM     24  C   UNL A   1      37.785  31.761  32.956  1.00  0.00     0.029 A 
ATOM     25  C   UNL A   1      39.053  31.071  33.144  1.00  0.00     0.049 A 
ATOM     26  H   UNL A   1      40.035  29.814  31.801  1.00  0.00     0.167 HD
ATOM     27  C   UNL A   1      41.866  27.051  28.946  1.00  0.00     0.034 A 
ATOM     28  C   UNL A   1      39.798  31.137  34.262  1.00  0.00     0.034 A 
ATOM     29  C   UNL A   1      42.765  27.107  30.072  1.00  0.00     0.049 A 
ATOM     30  C   UNL A   1      41.084  30.372  34.310  1.00  0.00     0.074 A 
ATOM     31  C   UNL A   1      43.974  26.452  30.241  1.00  0.00     0.029 A 
ATOM     32  N   UNL A   1      42.559  27.857  31.221  1.00  0.00    -0.354 N 
ATOM     33  N   UNL A   1      41.631  29.622  33.385  1.00  0.00    -0.248 NA
ATOM     34  C   UNL A   1      41.869  30.479  35.545  1.00  0.00     0.031 C 
ATOM     35  C   UNL A   1      44.487  26.792  31.498  1.00  0.00     0.029 A 
ATOM     36  C   UNL A   1      43.614  27.682  32.101  1.00  0.00     0.049 A 
ATOM     37  H   UNL A   1      41.776  28.431  31.386  1.00  0.00     0.167 HD
ATOM     38  C   UNL A   1      42.829  29.173  33.921  1.00  0.00     0.074 A 
ATOM     39  C   UNL A   1      42.950  29.777  35.233  1.00  0.00     0.031 C 
ATOM     40  C   UNL A   1      43.735  28.318  33.388  1.00  0.00     0.034 A 
BRANCH  27  41
ATOM     41  C   UNL A   1      42.257  26.180  27.776  1.00  0.00     0.023 A 
ATOM     42  C   UNL A   1      43.126  26.690  26.790  1.00  0.00     0.012 A 
ATOM     43  C   UNL A   1      41.841  24.834  27.697  1.00  0.00     0.148 A 
ATOM     44  C   UNL A   1      43.554  25.885  25.734  1.00  0.00     0.002 A 
ATOM     45  C   UNL A   1      42.305  24.028  26.664  1.00  0.00     0.091 A 
ATOM     46  F   UNL A   1      41.004  24.368  28.635  1.00  0.00    -0.205 F 
ATOM     47  C   UNL A   1      43.154  24.554  25.676  1.00  0.00     0.022 A 
BRANCH  45  48
ATOM     48  S   UNL A   1      41.912  22.277  26.539  1.00  0.00     0.127 S 
ATOM     49  O   UNL A   1      42.434  21.768  27.805  1.00  0.00    -0.237 OA
ATOM     50  O   UNL A   1      40.452  22.296  26.444  1.00  0.00    -0.237 OA
ATOM     51  O   UNL A   1      42.594  21.797  25.345  1.00  0.00    -0.744 OA
ENDBRANCH  45  48
ENDBRANCH  27  41
BRANCH  28  52
ATOM     52  C   UNL A   1      39.332  31.961  35.411  1.00  0.00     0.023 A 
ATOM     53  C   UNL A   1      38.430  31.421  36.346  1.00  0.00     0.012 A 
ATOM     54  C   UNL A   1      39.829  33.264  35.608  1.00  0.00     0.148 A 
ATOM     55  C   UNL A   1      38.007  32.177  37.440  1.00  0.00     0.002 A 
ATOM     56  C   UNL A   1      39.461  33.984  36.737  1.00  0.00     0.091 A 
ATOM     57  F   UNL A   1      40.674  33.769  34.698  1.00  0.00    -0.205 F 
ATOM     58  C   UNL A   1      38.534  33.451  37.644  1.00  0.00     0.022 A 
BRANCH  56  59
ATOM     59  S   UNL A   1      40.228  35.554  37.151  1.00  0.00     0.127 S 
ATOM     60  O   UNL A   1      39.650  36.442  36.148  1.00  0.00    -0.237 OA
ATOM     61  O   UNL A   1      39.757  35.774  38.518  1.00  0.00    -0.237 OA
ATOM     62  O   UNL A   1      41.663  35.320  37.048  1.00  0.00    -0.744 OA
ENDBRANCH  56  59
ENDBRANCH  28  52
BRANCH  40  63
ATOM     63  C   UNL A   1      44.945  28.004  34.227  1.00  0.00     0.023 A 
ATOM     64  C   UNL A   1      46.017  28.917  34.277  1.00  0.00     0.012 A 
ATOM     65  C   UNL A   1      45.012  26.814  34.979  1.00  0.00     0.148 A 
ATOM     66  C   UNL A   1      47.158  28.629  35.025  1.00  0.00     0.002 A 
ATOM     67  C   UNL A   1      46.130  26.560  35.763  1.00  0.00     0.091 A 
ATOM     68  F   UNL A   1      43.991  25.949  34.900  1.00  0.00    -0.205 F 
ATOM     69  C   UNL A   1      47.210  27.456  35.774  1.00  0.00     0.022 A 
BRANCH  67  70
ATOM     70  S   UNL A   1      46.244  25.119  36.829  1.00  0.00     0.127 S 
ATOM     71  O   UNL A   1      46.352  24.035  35.854  1.00  0.00    -0.237 OA
ATOM     72  O   UNL A   1      47.470  25.387  37.582  1.00  0.00    -0.237 OA
ATOM     73  O   UNL A   1      45.030  25.121  37.634  1.00  0.00    -0.744 OA
ENDBRANCH  67  70
ENDBRANCH  40  63
ENDBRANCH  14  15
ENDBRANCH   7   9
ENDBRANCH   4   5
ENDBRANCH   3   4
ENDBRANCH   2   3
ENDBRANCH   1   2
BRANCH   1  74
ATOM     74  N   UNL A   1      30.507  25.866  25.897  1.00  0.00    -0.352 N 
ATOM     75  C   UNL A   1      31.198  24.715  26.230  1.00  0.00     0.251 C 
ATOM     76  H   UNL A   1      29.764  26.068  26.509  1.00  0.00     0.163 HD
ATOM     77  O   UNL A   1      30.903  24.099  27.249  1.00  0.00    -0.269 OA
BRANCH  75  78
ATOM     78  C   UNL A   1      32.124  24.069  25.271  1.00  0.00     0.048 A 
ATOM     79  C   UNL A   1      31.386  22.642  24.422  1.00  0.00     0.014 A 
ATOM     80  C   UNL A   1      33.422  25.006  24.439  1.00  0.00     0.007 A 
ATOM     81  C   UNL A   1      31.977  22.136  22.779  1.00  0.00     0.001 A 
ATOM     82  C   UNL A   1      34.047  24.497  22.791  1.00  0.00     0.010 A 
ATOM     83  C   UNL A   1      33.315  23.059  21.979  1.00  0.00     0.001 A 
BRANCH  80  84
ATOM     84  C   UNL A   1      34.399  25.616  25.293  1.00  0.00     0.142 C 
ATOM     85  N   UNL A   1      35.382  24.892  25.691  1.00  0.00    -0.181 NA
BRANCH  85  86
ATOM     86  N   UNL A   1      35.340  23.549  25.403  1.00  0.00    -0.254 N 
ATOM     87  H   UNL A   1      35.544  23.344  24.462  1.00  0.00     0.193 HD
BRANCH  86  88
ATOM     88  C   UNL A   1      35.073  22.444  26.153  1.00  0.00     0.187 C 
ATOM     89  S   UNL A   1      34.439  22.760  27.689  1.00  0.00    -0.039 S 
BRANCH  88  90
ATOM     90  N   UNL A   1      35.286  21.080  25.842  1.00  0.00    -0.357 N 
ATOM     91  H   UNL A   1      35.833  20.753  26.592  1.00  0.00     0.163 HD
BRANCH  90  92
ATOM     92  C   UNL A   1      35.052  19.402  24.633  1.00  0.00     0.151 C 
BRANCH  92  93
ATOM     93  C   UNL A   1      33.929  18.178  24.417  1.00  0.00    -0.029 A 
ATOM     94  C   UNL A   1      32.904  18.078  25.379  1.00  0.00     0.005 A 
ATOM     95  C   UNL A   1      34.340  17.001  23.743  1.00  0.00     0.005 A 
ATOM     96  C   UNL A   1      32.398  16.827  25.736  1.00  0.00     0.000 A 
ATOM     97  C   UNL A   1      33.824  15.757  24.106  1.00  0.00     0.000 A 
ATOM     98  C   UNL A   1      32.879  15.670  25.124  1.00  0.00     0.000 A 
ENDBRANCH  92  93
ENDBRANCH  90  92
ENDBRANCH  88  90
ENDBRANCH  86  88
ENDBRANCH  85  86
ENDBRANCH  80  84
ENDBRANCH  75  78
ENDBRANCH   1  74
TORSDOF 20
ENDMDL
MODEL 3
REMARK VINA RESULT:     -11.2      2.075      7.712
REMARK SMILES O=C(NCCCCNC(=O)c1ccccc1/C=N\NC(=S)NCc1ccccc1)c1ccc(-c2c3nc(c(-c4cccc(S(=O)(=O)[O-])c4F)c4ccc([nH]4)c(-c4cccc(S(=O)(=O)[O-])c4F)c4nc(c(-c5cccc(S(=O)(=O)[O-])c5F)c5ccc2[nH]5)C=C4)C=C3)cc1
REMARK SMILES IDX 7 1 6 2 5 3 4 4 3 5 1 6 2 7 30 9 31 10 92 11 32 12 91 13
REMARK SMILES IDX 33 14 34 15 35 16 85 17 36 18 90 19 84 20 86 21 37 22 89 23
REMARK SMILES IDX 83 24 82 25 38 27 70 28 50 29 69 30 51 31 54 32 68 33 87 34
REMARK SMILES IDX 52 35 53 36 67 38 88 39 55 40 39 41 40 42 48 43 41 44 43 45
REMARK SMILES IDX 49 46 42 47 44 48 45 49 46 50 47 51 71 52 72 53 80 54 73 55
REMARK SMILES IDX 75 56 81 57 74 58 76 59 77 60 78 61 79 62 56 63 57 64 65 65
REMARK SMILES IDX 58 66 60 67 66 68 59 69 61 70 62 71 63 72 64 73 8 74 9 75
REMARK SMILES IDX 10 77 11 78 12 79 16 80 13 81 15 82 14 83 17 84 18 85 19 86
REMARK SMILES IDX 20 88 21 89 22 90 23 92 24 93 25 94 29 95 26 96 28 97 27 98
REMARK H PARENT 3 8 86 26 54 37 8 76 19 87 22 91
REMARK Flexibility Score: inf
ROOT
ATOM      1  C   UNL A   1      36.789  23.564  26.129  1.00  0.00     0.116 C 
ENDROOT
BRANCH   1   2
ATOM      2  C   UNL A   1      38.302  23.322  26.157  1.00  0.00     0.023 C 
BRANCH   2   3
ATOM      3  C   UNL A   1      38.781  21.951  25.699  1.00  0.00     0.023 C 
BRANCH   3   4
ATOM      4  C   UNL A   1      39.621  21.182  26.701  1.00  0.00     0.116 C 
BRANCH   4   5
ATOM      5  N   UNL A   1      40.504  20.165  26.141  1.00  0.00    -0.352 N 
ATOM      6  O   UNL A   1      42.503  19.415  25.357  1.00  0.00    -0.269 OA
ATOM      7  C   UNL A   1      41.860  20.306  25.896  1.00  0.00     0.251 C 
ATOM      8  H   UNL A   1      40.097  19.298  25.915  1.00  0.00     0.163 HD
BRANCH   7   9
ATOM      9  C   UNL A   1      42.486  21.597  26.263  1.00  0.00     0.039 A 
ATOM     10  C   UNL A   1      42.773  21.841  27.604  1.00  0.00     0.014 A 
ATOM     11  C   UNL A   1      42.604  22.616  25.316  1.00  0.00     0.014 A 
ATOM     12  C   UNL A   1      42.932  23.147  28.031  1.00  0.00     0.010 A 
ATOM     13  C   UNL A   1      42.924  23.913  25.738  1.00  0.00     0.010 A 
ATOM     14  C   UNL A   1      43.039  24.201  27.107  1.00  0.00    -0.014 A 
BRANCH  14  15
ATOM     15  C   UNL A   1      43.351  25.560  27.631  1.00  0.00     0.031 A 
ATOM     16  C   UNL A   1      44.735  26.151  27.577  1.00  0.00     0.074 A 
ATOM     17  C   UNL A   1      42.323  26.291  28.111  1.00  0.00     0.049 A 
ATOM     18  N   UNL A   1      45.125  27.347  27.936  1.00  0.00    -0.248 NA
ATOM     19  C   UNL A   1      45.823  25.299  27.069  1.00  0.00     0.031 C 
ATOM     20  C   UNL A   1      40.948  25.804  28.261  1.00  0.00     0.029 A 
ATOM     21  N   UNL A   1      42.256  27.594  28.529  1.00  0.00    -0.354 N 
ATOM     22  C   UNL A   1      46.502  27.385  27.740  1.00  0.00     0.074 A 
ATOM     23  C   UNL A   1      46.883  26.082  27.233  1.00  0.00     0.031 C 
ATOM     24  C   UNL A   1      40.165  26.806  28.673  1.00  0.00     0.029 A 
ATOM     25  C   UNL A   1      40.991  27.981  28.908  1.00  0.00     0.049 A 
ATOM     26  H   UNL A   1      43.037  28.194  28.558  1.00  0.00     0.167 HD
ATOM     27  C   UNL A   1      47.363  28.411  27.949  1.00  0.00     0.034 A 
ATOM     28  C   UNL A   1      40.541  29.140  29.418  1.00  0.00     0.034 A 
ATOM     29  C   UNL A   1      46.967  29.712  28.428  1.00  0.00     0.049 A 
ATOM     30  C   UNL A   1      41.512  30.265  29.602  1.00  0.00     0.074 A 
ATOM     31  C   UNL A   1      47.759  30.827  28.643  1.00  0.00     0.029 A 
ATOM     32  N   UNL A   1      45.672  30.077  28.766  1.00  0.00    -0.354 N 
ATOM     33  N   UNL A   1      42.791  30.303  29.320  1.00  0.00    -0.248 NA
ATOM     34  C   UNL A   1      40.976  31.515  30.153  1.00  0.00     0.031 C 
ATOM     35  C   UNL A   1      46.947  31.858  29.128  1.00  0.00     0.029 A 
ATOM     36  C   UNL A   1      45.643  31.396  29.188  1.00  0.00     0.049 A 
ATOM     37  H   UNL A   1      44.887  29.484  28.714  1.00  0.00     0.167 HD
ATOM     38  C   UNL A   1      43.213  31.582  29.650  1.00  0.00     0.074 A 
ATOM     39  C   UNL A   1      42.041  32.303  30.107  1.00  0.00     0.031 C 
ATOM     40  C   UNL A   1      44.462  32.107  29.606  1.00  0.00     0.034 A 
BRANCH  27  41
ATOM     41  C   UNL A   1      48.822  28.194  27.624  1.00  0.00     0.023 A 
ATOM     42  C   UNL A   1      49.291  28.461  26.322  1.00  0.00     0.012 A 
ATOM     43  C   UNL A   1      49.743  27.816  28.624  1.00  0.00     0.148 A 
ATOM     44  C   UNL A   1      50.645  28.332  26.013  1.00  0.00     0.002 A 
ATOM     45  C   UNL A   1      51.097  27.729  28.317  1.00  0.00     0.091 A 
ATOM     46  F   UNL A   1      49.279  27.553  29.854  1.00  0.00    -0.205 F 
ATOM     47  C   UNL A   1      51.548  27.977  27.010  1.00  0.00     0.022 A 
BRANCH  45  48
ATOM     48  S   UNL A   1      52.355  27.355  29.546  1.00  0.00     0.127 S 
ATOM     49  O   UNL A   1      52.205  28.477  30.471  1.00  0.00    -0.237 OA
ATOM     50  O   UNL A   1      51.898  26.068  30.072  1.00  0.00    -0.237 OA
ATOM     51  O   UNL A   1      53.619  27.306  28.825  1.00  0.00    -0.744 OA
ENDBRANCH  45  48
ENDBRANCH  27  41
BRANCH  28  52
ATOM     52  C   UNL A   1      39.104  29.278  29.781  1.00  0.00     0.023 A 
ATOM     53  C   UNL A   1      38.665  28.924  31.070  1.00  0.00     0.012 A 
ATOM     54  C   UNL A   1      38.179  29.813  28.863  1.00  0.00     0.148 A 
ATOM     55  C   UNL A   1      37.325  29.072  31.427  1.00  0.00     0.002 A 
ATOM     56  C   UNL A   1      36.862  30.026  29.248  1.00  0.00     0.091 A 
ATOM     57  F   UNL A   1      38.611  30.128  27.633  1.00  0.00    -0.205 F 
ATOM     58  C   UNL A   1      36.427  29.637  30.523  1.00  0.00     0.022 A 
BRANCH  56  59
ATOM     59  S   UNL A   1      35.699  30.903  28.199  1.00  0.00     0.127 S 
ATOM     60  O   UNL A   1      35.387  29.895  27.191  1.00  0.00    -0.237 OA
ATOM     61  O   UNL A   1      34.612  31.204  29.131  1.00  0.00    -0.237 OA
ATOM     62  O   UNL A   1      36.418  32.080  27.726  1.00  0.00    -0.744 OA
ENDBRANCH  56  59
ENDBRANCH  28  52
BRANCH  40  63
ATOM     63  C   UNL A   1      44.612  33.538  30.049  1.00  0.00     0.023 A 
ATOM     64  C   UNL A   1      44.986  33.823  31.378  1.00  0.00     0.012 A 
ATOM     65  C   UNL A   1      44.401  34.598  29.146  1.00  0.00     0.148 A 
ATOM     66  C   UNL A   1      45.101  35.142  31.814  1.00  0.00     0.002 A 
ATOM     67  C   UNL A   1      44.569  35.909  29.575  1.00  0.00     0.091 A 
ATOM     68  F   UNL A   1      44.025  34.307  27.893  1.00  0.00    -0.205 F 
ATOM     69  C   UNL A   1      44.902  36.184  30.911  1.00  0.00     0.022 A 
BRANCH  67  70
ATOM     70  S   UNL A   1      44.422  37.308  28.459  1.00  0.00     0.127 S 
ATOM     71  O   UNL A   1      42.985  37.324  28.190  1.00  0.00    -0.237 OA
ATOM     72  O   UNL A   1      44.901  38.416  29.286  1.00  0.00    -0.237 OA
ATOM     73  O   UNL A   1      45.271  36.998  27.317  1.00  0.00    -0.744 OA
ENDBRANCH  67  70
ENDBRANCH  40  63
ENDBRANCH  14  15
ENDBRANCH   7   9
ENDBRANCH   4   5
ENDBRANCH   3   4
ENDBRANCH   2   3
ENDBRANCH   1   2
BRANCH   1  74
ATOM     74  N   UNL A   1      35.945  22.386  26.312  1.00  0.00    -0.352 N 
ATOM     75  C   UNL A   1      34.718  22.016  25.795  1.00  0.00     0.251 C 
ATOM     76  H   UNL A   1      36.329  21.721  26.927  1.00  0.00     0.163 HD
ATOM     77  O   UNL A   1      34.249  20.914  26.065  1.00  0.00    -0.269 OA
BRANCH  75  78
ATOM     78  C   UNL A   1      33.839  22.999  25.120  1.00  0.00     0.048 A 
ATOM     79  C   UNL A   1      34.399  23.417  23.442  1.00  0.00     0.014 A 
ATOM     80  C   UNL A   1      32.080  23.111  25.508  1.00  0.00     0.007 A 
ATOM     81  C   UNL A   1      33.215  23.986  22.187  1.00  0.00     0.001 A 
ATOM     82  C   UNL A   1      30.873  23.705  24.260  1.00  0.00     0.010 A 
ATOM     83  C   UNL A   1      31.460  24.141  22.608  1.00  0.00     0.001 A 
BRANCH  80  84
ATOM     84  C   UNL A   1      31.759  23.444  26.864  1.00  0.00     0.142 C 
ATOM     85  N   UNL A   1      31.875  24.671  27.224  1.00  0.00    -0.181 NA
BRANCH  85  86
ATOM     86  N   UNL A   1      32.451  25.543  26.331  1.00  0.00    -0.254 N 
ATOM     87  H   UNL A   1      33.262  25.184  25.901  1.00  0.00     0.193 HD
BRANCH  86  88
ATOM     88  C   UNL A   1      32.131  26.801  25.920  1.00  0.00     0.187 C 
ATOM     89  S   UNL A   1      31.670  27.860  27.155  1.00  0.00    -0.039 S 
BRANCH  88  90
ATOM     90  N   UNL A   1      32.095  27.330  24.608  1.00  0.00    -0.357 N 
ATOM     91  H   UNL A   1      33.038  27.530  24.412  1.00  0.00     0.163 HD
BRANCH  90  92
ATOM     92  C   UNL A   1      31.098  27.907  22.874  1.00  0.00     0.151 C 
BRANCH  92  93
ATOM     93  C   UNL A   1      29.677  28.694  22.466  1.00  0.00    -0.029 A 
ATOM     94  C   UNL A   1      29.771  30.073  22.187  1.00  0.00     0.005 A 
ATOM     95  C   UNL A   1      28.457  28.192  22.988  1.00  0.00     0.005 A 
ATOM     96  C   UNL A   1      28.724  30.930  22.530  1.00  0.00     0.000 A 
ATOM     97  C   UNL A   1      27.418  29.059  23.323  1.00  0.00     0.000 A 
ATOM     98  C   UNL A   1      27.566  30.429  23.125  1.00  0.00     0.000 A 
ENDBRANCH  92  93
ENDBRANCH  90  92
ENDBRANCH  88  90
ENDBRANCH  86  88
ENDBRANCH  85  86
ENDBRANCH  80  84
ENDBRANCH  75  78
ENDBRANCH   1  74
TORSDOF 20
ENDMDL
