MODEL 1
REMARK VINA RESULT:     -10.6      0.000      0.000
REMARK SMILES C/C=C/C=C/C(=O)N[C@@](C)(C(=O)NCCCCNC(=O)c1ccc(-c2c3nc(c(-c4cccc(S(=O)(=O)[O-])c4F)c4ccc([nH]4)c(-c4cccc(S(=O)(=O)[O-])c4F)c4nc(c(-c5cccc(S(=O)(=O)[O-])c5F)c5ccc2[nH]5)C=C4)C=C3)cc1)C(F)(F)F
REMARK SMILES IDX 15 1 14 2 13 3 11 4 12 5 9 7 10 8 8 9 6 10 7 11 5 13 4 14
REMARK SMILES IDX 3 15 1 16 2 17 84 18 85 19 86 20 87 21 16 22 17 23 18 24
REMARK SMILES IDX 19 25 20 27 21 28 22 29 83 30 23 31 82 32 24 33 25 34 26 35
REMARK SMILES IDX 76 36 27 37 81 38 75 39 77 40 28 41 80 42 74 43 73 44 29 46
REMARK SMILES IDX 61 47 41 48 60 49 42 50 45 51 59 52 78 53 43 54 44 55 58 57
REMARK SMILES IDX 79 58 46 59 30 60 31 61 39 62 32 63 34 64 40 65 33 66 35 67
REMARK SMILES IDX 36 68 37 69 38 70 62 71 63 72 71 73 64 74 66 75 72 76 65 77
REMARK SMILES IDX 67 78 68 79 69 80 70 81 47 82 48 83 56 84 49 85 51 86 57 87
REMARK SMILES IDX 50 88 52 89 53 90 54 91 55 92
REMARK H PARENT 13 6 8 12 18 26 77 45 45 56
REMARK Flexibility Score: inf
ROOT
ATOM      1  C   UNL A   1      32.745  26.671  24.937  1.00  0.00     0.023 C 
ENDROOT
BRANCH   1   2
ATOM      2  C   UNL A   1      33.037  25.174  24.875  1.00  0.00     0.116 C 
BRANCH   2   3
ATOM      3  N   UNL A   1      34.461  24.927  24.802  1.00  0.00    -0.354 N 
ATOM      4  C   UNL A   1      35.244  23.846  25.054  1.00  0.00     0.254 C 
ATOM      5  O   UNL A   1      36.453  24.092  25.072  1.00  0.00    -0.272 OA
ATOM      6  H   UNL A   1      34.974  25.713  24.505  1.00  0.00     0.163 HD
BRANCH   4   7
ATOM      7  C   UNL A   1      34.684  22.441  25.358  1.00  0.00     0.212 C 
ATOM      8  C   UNL A   1      35.773  21.347  25.384  1.00  0.00     0.056 C 
BRANCH   7   9
ATOM      9  N   UNL A   1      33.744  22.087  24.223  1.00  0.00    -0.331 N 
ATOM     10  C   UNL A   1      32.774  21.213  23.881  1.00  0.00     0.245 C 
ATOM     11  O   UNL A   1      32.136  21.468  22.856  1.00  0.00    -0.270 OA
ATOM     12  H   UNL A   1      33.893  22.711  23.478  1.00  0.00     0.165 HD
BRANCH  10  13
ATOM     13  C   UNL A   1      32.405  20.013  24.642  1.00  0.00     0.071 C 
ATOM     14  C   UNL A   1      33.017  18.838  24.489  1.00  0.00     0.005 C 
BRANCH  14  15
ATOM     15  C   UNL A   1      32.783  17.669  25.302  1.00  0.00    -0.004 C 
ATOM     16  C   UNL A   1      32.714  15.144  25.430  1.00  0.00     0.035 C 
ATOM     17  C   UNL A   1      32.923  16.452  24.752  1.00  0.00    -0.030 C 
ENDBRANCH  14  15
ENDBRANCH  10  13
ENDBRANCH   7   9
BRANCH   7  18
ATOM     18  C   UNL A   1      34.221  22.575  26.834  1.00  0.00     0.420 C 
ATOM     19  F   UNL A   1      34.816  23.568  27.519  1.00  0.00    -0.168 F 
ATOM     20  F   UNL A   1      32.875  22.768  26.903  1.00  0.00    -0.168 F 
ATOM     21  F   UNL A   1      34.422  21.420  27.524  1.00  0.00    -0.168 F 
ENDBRANCH   7  18
ENDBRANCH   4   7
ENDBRANCH   2   3
ENDBRANCH   1   2
BRANCH   1  22
ATOM     22  C   UNL A   1      33.898  27.530  25.457  1.00  0.00     0.023 C 
BRANCH  22  23
ATOM     23  C   UNL A   1      33.740  28.025  26.889  1.00  0.00     0.116 C 
BRANCH  23  24
ATOM     24  N   UNL A   1      33.542  29.464  26.960  1.00  0.00    -0.352 N 
ATOM     25  C   UNL A   1      34.345  30.422  27.532  1.00  0.00     0.251 C 
ATOM     26  H   UNL A   1      32.717  29.800  26.540  1.00  0.00     0.163 HD
ATOM     27  O   UNL A   1      33.940  31.571  27.640  1.00  0.00    -0.269 OA
BRANCH  25  28
ATOM     28  C   UNL A   1      35.686  30.046  28.030  1.00  0.00     0.039 A 
ATOM     29  C   UNL A   1      35.809  29.571  29.336  1.00  0.00     0.014 A 
ATOM     30  C   UNL A   1      36.812  30.153  27.209  1.00  0.00     0.014 A 
ATOM     31  C   UNL A   1      37.058  29.161  29.805  1.00  0.00     0.010 A 
ATOM     32  C   UNL A   1      38.035  29.659  27.647  1.00  0.00     0.010 A 
ATOM     33  C   UNL A   1      38.178  29.178  28.957  1.00  0.00    -0.014 A 
BRANCH  33  34
ATOM     34  C   UNL A   1      39.507  28.720  29.436  1.00  0.00     0.031 A 
ATOM     35  C   UNL A   1      40.206  29.457  30.548  1.00  0.00     0.074 A 
ATOM     36  C   UNL A   1      40.111  27.676  28.834  1.00  0.00     0.049 A 
ATOM     37  N   UNL A   1      41.369  29.211  31.096  1.00  0.00    -0.248 NA
ATOM     38  C   UNL A   1      39.527  30.641  31.100  1.00  0.00     0.031 C 
ATOM     39  C   UNL A   1      39.577  26.931  27.692  1.00  0.00     0.029 A 
ATOM     40  N   UNL A   1      41.316  27.070  29.089  1.00  0.00    -0.354 N 
ATOM     41  C   UNL A   1      41.572  30.223  32.026  1.00  0.00     0.074 A 
ATOM     42  C   UNL A   1      40.437  31.113  31.938  1.00  0.00     0.031 C 
ATOM     43  C   UNL A   1      40.440  25.960  27.355  1.00  0.00     0.029 A 
ATOM     44  C   UNL A   1      41.601  26.030  28.236  1.00  0.00     0.049 A 
ATOM     45  H   UNL A   1      41.918  27.353  29.814  1.00  0.00     0.167 HD
ATOM     46  C   UNL A   1      42.595  30.383  32.899  1.00  0.00     0.034 A 
ATOM     47  C   UNL A   1      42.680  25.223  28.170  1.00  0.00     0.034 A 
ATOM     48  C   UNL A   1      43.704  29.475  33.010  1.00  0.00     0.049 A 
ATOM     49  C   UNL A   1      43.783  25.396  29.179  1.00  0.00     0.074 A 
ATOM     50  C   UNL A   1      44.749  29.499  33.918  1.00  0.00     0.029 A 
ATOM     51  N   UNL A   1      43.921  28.386  32.180  1.00  0.00    -0.354 N 
ATOM     52  N   UNL A   1      43.881  26.265  30.156  1.00  0.00    -0.248 NA
ATOM     53  C   UNL A   1      44.904  24.449  29.105  1.00  0.00     0.031 C 
ATOM     54  C   UNL A   1      45.614  28.444  33.615  1.00  0.00     0.029 A 
ATOM     55  C   UNL A   1      45.087  27.736  32.547  1.00  0.00     0.049 A 
ATOM     56  H   UNL A   1      43.333  28.116  31.439  1.00  0.00     0.167 HD
ATOM     57  C   UNL A   1      45.050  25.945  30.837  1.00  0.00     0.074 A 
ATOM     58  C   UNL A   1      45.614  24.787  30.172  1.00  0.00     0.031 C 
ATOM     59  C   UNL A   1      45.611  26.557  31.908  1.00  0.00     0.034 A 
BRANCH  46  60
ATOM     60  C   UNL A   1      42.537  31.562  33.837  1.00  0.00     0.023 A 
ATOM     61  C   UNL A   1      43.032  32.815  33.418  1.00  0.00     0.012 A 
ATOM     62  C   UNL A   1      41.949  31.445  35.111  1.00  0.00     0.148 A 
ATOM     63  C   UNL A   1      42.980  33.921  34.265  1.00  0.00     0.002 A 
ATOM     64  C   UNL A   1      41.855  32.563  35.931  1.00  0.00     0.091 A 
ATOM     65  F   UNL A   1      41.502  30.243  35.502  1.00  0.00    -0.205 F 
ATOM     66  C   UNL A   1      42.382  33.798  35.516  1.00  0.00     0.022 A 
BRANCH  64  67
ATOM     67  S   UNL A   1      41.028  32.532  37.525  1.00  0.00     0.127 S 
ATOM     68  O   UNL A   1      41.902  31.645  38.292  1.00  0.00    -0.237 OA
ATOM     69  O   UNL A   1      41.081  33.937  37.926  1.00  0.00    -0.237 OA
ATOM     70  O   UNL A   1      39.688  32.021  37.274  1.00  0.00    -0.744 OA
ENDBRANCH  64  67
ENDBRANCH  46  60
BRANCH  47  71
ATOM     71  C   UNL A   1      42.739  24.137  27.151  1.00  0.00     0.023 A 
ATOM     72  C   UNL A   1      43.483  24.331  25.970  1.00  0.00     0.012 A 
ATOM     73  C   UNL A   1      42.077  22.911  27.351  1.00  0.00     0.148 A 
ATOM     74  C   UNL A   1      43.533  23.340  24.989  1.00  0.00     0.002 A 
ATOM     75  C   UNL A   1      42.178  21.906  26.397  1.00  0.00     0.091 A 
ATOM     76  F   UNL A   1      41.369  22.749  28.478  1.00  0.00    -0.205 F 
ATOM     77  C   UNL A   1      42.888  22.125  25.206  1.00  0.00     0.022 A 
BRANCH  75  78
ATOM     78  S   UNL A   1      41.491  20.266  26.647  1.00  0.00     0.127 S 
ATOM     79  O   UNL A   1      42.158  19.847  27.878  1.00  0.00    -0.237 OA
ATOM     80  O   UNL A   1      40.064  20.557  26.786  1.00  0.00    -0.237 OA
ATOM     81  O   UNL A   1      41.836  19.508  25.453  1.00  0.00    -0.744 OA
ENDBRANCH  75  78
ENDBRANCH  47  71
BRANCH  59  82
ATOM     82  C   UNL A   1      46.877  25.961  32.469  1.00  0.00     0.023 A 
ATOM     83  C   UNL A   1      48.133  26.417  32.024  1.00  0.00     0.012 A 
ATOM     84  C   UNL A   1      46.815  24.986  33.485  1.00  0.00     0.148 A 
ATOM     85  C   UNL A   1      49.308  25.881  32.551  1.00  0.00     0.002 A 
ATOM     86  C   UNL A   1      47.989  24.498  34.044  1.00  0.00     0.091 A 
ATOM     87  F   UNL A   1      45.611  24.552  33.884  1.00  0.00    -0.205 F 
ATOM     88  C   UNL A   1      49.237  24.932  33.568  1.00  0.00     0.022 A 
BRANCH  86  89
ATOM     89  S   UNL A   1      47.990  23.351  35.427  1.00  0.00     0.127 S 
ATOM     90  O   UNL A   1      47.223  24.091  36.428  1.00  0.00    -0.237 OA
ATOM     91  O   UNL A   1      47.300  22.189  34.865  1.00  0.00    -0.237 OA
ATOM     92  O   UNL A   1      49.390  23.121  35.756  1.00  0.00    -0.744 OA
ENDBRANCH  86  89
ENDBRANCH  59  82
ENDBRANCH  33  34
ENDBRANCH  25  28
ENDBRANCH  23  24
ENDBRANCH  22  23
ENDBRANCH   1  22
TORSDOF 18
ENDMDL
MODEL 2
REMARK VINA RESULT:     -10.5      3.441      8.785
REMARK SMILES C/C=C/C=C/C(=O)N[C@@](C)(C(=O)NCCCCNC(=O)c1ccc(-c2c3nc(c(-c4cccc(S(=O)(=O)[O-])c4F)c4ccc([nH]4)c(-c4cccc(S(=O)(=O)[O-])c4F)c4nc(c(-c5cccc(S(=O)(=O)[O-])c5F)c5ccc2[nH]5)C=C4)C=C3)cc1)C(F)(F)F
REMARK SMILES IDX 15 1 14 2 13 3 11 4 12 5 9 7 10 8 8 9 6 10 7 11 5 13 4 14
REMARK SMILES IDX 3 15 1 16 2 17 84 18 85 19 86 20 87 21 16 22 17 23 18 24
REMARK SMILES IDX 19 25 20 27 21 28 22 29 83 30 23 31 82 32 24 33 25 34 26 35
REMARK SMILES IDX 76 36 27 37 81 38 75 39 77 40 28 41 80 42 74 43 73 44 29 46
REMARK SMILES IDX 61 47 41 48 60 49 42 50 45 51 59 52 78 53 43 54 44 55 58 57
REMARK SMILES IDX 79 58 46 59 30 60 31 61 39 62 32 63 34 64 40 65 33 66 35 67
REMARK SMILES IDX 36 68 37 69 38 70 62 71 63 72 71 73 64 74 66 75 72 76 65 77
REMARK SMILES IDX 67 78 68 79 69 80 70 81 47 82 48 83 56 84 49 85 51 86 57 87
REMARK SMILES IDX 50 88 52 89 53 90 54 91 55 92
REMARK H PARENT 13 6 8 12 18 26 77 45 45 56
REMARK Flexibility Score: inf
ROOT
ATOM      1  C   UNL A   1      31.391  30.327  26.429  1.00  0.00     0.023 C 
ENDROOT
BRANCH   1   2
ATOM      2  C   UNL A   1      32.223  29.712  25.307  1.00  0.00     0.116 C 
BRANCH   2   3
ATOM      3  N   UNL A   1      31.449  29.605  24.088  1.00  0.00    -0.354 N 
ATOM      4  C   UNL A   1      31.360  28.670  23.107  1.00  0.00     0.254 C 
ATOM      5  O   UNL A   1      30.728  29.039  22.114  1.00  0.00    -0.272 OA
ATOM      6  H   UNL A   1      30.858  30.377  23.937  1.00  0.00     0.163 HD
BRANCH   4   7
ATOM      7  C   UNL A   1      32.040  27.287  23.186  1.00  0.00     0.212 C 
ATOM      8  C   UNL A   1      31.542  26.305  22.102  1.00  0.00     0.056 C 
BRANCH   7   9
ATOM      9  N   UNL A   1      31.656  26.683  24.522  1.00  0.00    -0.331 N 
ATOM     10  C   UNL A   1      32.047  25.753  25.419  1.00  0.00     0.245 C 
ATOM     11  O   UNL A   1      31.480  25.768  26.514  1.00  0.00    -0.270 OA
ATOM     12  H   UNL A   1      30.839  27.122  24.849  1.00  0.00     0.165 HD
BRANCH  10  13
ATOM     13  C   UNL A   1      33.104  24.757  25.204  1.00  0.00     0.071 C 
ATOM     14  C   UNL A   1      34.396  25.009  25.417  1.00  0.00     0.005 C 
BRANCH  14  15
ATOM     15  C   UNL A   1      35.454  24.031  25.349  1.00  0.00    -0.004 C 
ATOM     16  C   UNL A   1      36.290  21.865  24.345  1.00  0.00     0.035 C 
ATOM     17  C   UNL A   1      35.314  22.972  24.535  1.00  0.00    -0.030 C 
ENDBRANCH  14  15
ENDBRANCH  10  13
ENDBRANCH   7   9
BRANCH   7  18
ATOM     18  C   UNL A   1      33.505  27.608  22.788  1.00  0.00     0.420 C 
ATOM     19  F   UNL A   1      34.340  27.785  23.826  1.00  0.00    -0.168 F 
ATOM     20  F   UNL A   1      34.019  26.623  22.001  1.00  0.00    -0.168 F 
ATOM     21  F   UNL A   1      33.575  28.719  22.007  1.00  0.00    -0.168 F 
ENDBRANCH   7  18
ENDBRANCH   4   7
ENDBRANCH   2   3
ENDBRANCH   1   2
BRANCH   1  22
ATOM     22  C   UNL A   1      31.404  31.855  26.477  1.00  0.00     0.023 C 
BRANCH  22  23
ATOM     23  C   UNL A   1      32.701  32.474  26.982  1.00  0.00     0.116 C 
BRANCH  23  24
ATOM     24  N   UNL A   1      32.533  33.861  27.387  1.00  0.00    -0.352 N 
ATOM     25  C   UNL A   1      33.168  34.554  28.390  1.00  0.00     0.251 C 
ATOM     26  H   UNL A   1      31.872  34.376  26.870  1.00  0.00     0.163 HD
ATOM     27  O   UNL A   1      32.782  35.673  28.696  1.00  0.00    -0.269 OA
BRANCH  25  28
ATOM     28  C   UNL A   1      34.299  33.927  29.106  1.00  0.00     0.039 A 
ATOM     29  C   UNL A   1      34.027  33.004  30.117  1.00  0.00     0.014 A 
ATOM     30  C   UNL A   1      35.620  34.241  28.773  1.00  0.00     0.014 A 
ATOM     31  C   UNL A   1      35.084  32.363  30.766  1.00  0.00     0.010 A 
ATOM     32  C   UNL A   1      36.666  33.534  29.357  1.00  0.00     0.010 A 
ATOM     33  C   UNL A   1      36.412  32.604  30.375  1.00  0.00    -0.014 A 
BRANCH  33  34
ATOM     34  C   UNL A   1      37.543  31.908  31.040  1.00  0.00     0.031 A 
ATOM     35  C   UNL A   1      38.342  30.874  30.291  1.00  0.00     0.074 A 
ATOM     36  C   UNL A   1      37.816  32.163  32.335  1.00  0.00     0.049 A 
ATOM     37  N   UNL A   1      39.358  30.159  30.704  1.00  0.00    -0.248 NA
ATOM     38  C   UNL A   1      37.932  30.582  28.907  1.00  0.00     0.031 C 
ATOM     39  C   UNL A   1      37.064  33.080  33.195  1.00  0.00     0.029 A 
ATOM     40  N   UNL A   1      38.793  31.663  33.160  1.00  0.00    -0.354 N 
ATOM     41  C   UNL A   1      39.683  29.316  29.648  1.00  0.00     0.074 A 
ATOM     42  C   UNL A   1      38.730  29.573  28.593  1.00  0.00     0.031 C 
ATOM     43  C   UNL A   1      37.615  33.089  34.420  1.00  0.00     0.029 A 
ATOM     44  C   UNL A   1      38.739  32.159  34.442  1.00  0.00     0.049 A 
ATOM     45  H   UNL A   1      39.467  31.011  32.863  1.00  0.00     0.167 HD
ATOM     46  C   UNL A   1      40.702  28.430  29.551  1.00  0.00     0.034 A 
ATOM     47  C   UNL A   1      39.510  31.892  35.516  1.00  0.00     0.034 A 
ATOM     48  C   UNL A   1      41.671  28.204  30.588  1.00  0.00     0.049 A 
ATOM     49  C   UNL A   1      40.661  30.935  35.368  1.00  0.00     0.074 A 
ATOM     50  C   UNL A   1      42.791  27.391  30.558  1.00  0.00     0.029 A 
ATOM     51  N   UNL A   1      41.631  28.783  31.847  1.00  0.00    -0.354 N 
ATOM     52  N   UNL A   1      41.048  30.264  34.309  1.00  0.00    -0.248 NA
ATOM     53  C   UNL A   1      41.509  30.730  36.551  1.00  0.00     0.031 C 
ATOM     54  C   UNL A   1      43.408  27.453  31.811  1.00  0.00     0.029 A 
ATOM     55  C   UNL A   1      42.700  28.339  32.606  1.00  0.00     0.049 A 
ATOM     56  H   UNL A   1      40.944  29.416  32.155  1.00  0.00     0.167 HD
ATOM     57  C   UNL A   1      42.205  29.592  34.686  1.00  0.00     0.074 A 
ATOM     58  C   UNL A   1      42.467  29.954  36.064  1.00  0.00     0.031 C 
ATOM     59  C   UNL A   1      42.977  28.745  33.960  1.00  0.00     0.034 A 
BRANCH  46  60
ATOM     60  C   UNL A   1      40.847  27.670  28.256  1.00  0.00     0.023 A 
ATOM     61  C   UNL A   1      41.482  28.279  27.154  1.00  0.00     0.012 A 
ATOM     62  C   UNL A   1      40.403  26.339  28.146  1.00  0.00     0.148 A 
ATOM     63  C   UNL A   1      41.636  27.592  25.951  1.00  0.00     0.002 A 
ATOM     64  C   UNL A   1      40.605  25.642  26.961  1.00  0.00     0.091 A 
ATOM     65  F   UNL A   1      39.783  25.781  29.196  1.00  0.00    -0.205 F 
ATOM     66  C   UNL A   1      41.208  26.271  25.858  1.00  0.00     0.022 A 
BRANCH  64  67
ATOM     67  S   UNL A   1      40.167  23.911  26.764  1.00  0.00     0.127 S 
ATOM     68  O   UNL A   1      38.783  24.008  26.302  1.00  0.00    -0.237 OA
ATOM     69  O   UNL A   1      41.120  23.467  25.748  1.00  0.00    -0.237 OA
ATOM     70  O   UNL A   1      40.345  23.299  28.073  1.00  0.00    -0.744 OA
ENDBRANCH  64  67
ENDBRANCH  46  60
BRANCH  47  71
ATOM     71  C   UNL A   1      39.257  32.590  36.808  1.00  0.00     0.023 A 
ATOM     72  C   UNL A   1      39.981  33.758  37.122  1.00  0.00     0.012 A 
ATOM     73  C   UNL A   1      38.296  32.113  37.720  1.00  0.00     0.148 A 
ATOM     74  C   UNL A   1      39.782  34.415  38.336  1.00  0.00     0.002 A 
ATOM     75  C   UNL A   1      38.061  32.805  38.903  1.00  0.00     0.091 A 
ATOM     76  F   UNL A   1      37.623  30.997  37.408  1.00  0.00    -0.205 F 
ATOM     77  C   UNL A   1      38.816  33.944  39.222  1.00  0.00     0.022 A 
BRANCH  75  78
ATOM     78  S   UNL A   1      36.751  32.348  40.042  1.00  0.00     0.127 S 
ATOM     79  O   UNL A   1      37.212  31.048  40.523  1.00  0.00    -0.237 OA
ATOM     80  O   UNL A   1      36.818  33.429  41.026  1.00  0.00    -0.237 OA
ATOM     81  O   UNL A   1      35.529  32.331  39.251  1.00  0.00    -0.744 OA
ENDBRANCH  75  78
ENDBRANCH  47  71
BRANCH  59  82
ATOM     82  C   UNL A   1      44.211  28.186  34.620  1.00  0.00     0.023 A 
ATOM     83  C   UNL A   1      45.432  28.886  34.549  1.00  0.00     0.012 A 
ATOM     84  C   UNL A   1      44.141  26.990  35.363  1.00  0.00     0.148 A 
ATOM     85  C   UNL A   1      46.574  28.381  35.171  1.00  0.00     0.002 A 
ATOM     86  C   UNL A   1      45.268  26.524  36.026  1.00  0.00     0.091 A 
ATOM     87  F   UNL A   1      42.976  26.330  35.405  1.00  0.00    -0.205 F 
ATOM     88  C   UNL A   1      46.490  27.209  35.918  1.00  0.00     0.022 A 
BRANCH  86  89
ATOM     89  S   UNL A   1      45.227  25.080  37.094  1.00  0.00     0.127 S 
ATOM     90  O   UNL A   1      44.201  25.458  38.065  1.00  0.00    -0.237 OA
ATOM     91  O   UNL A   1      44.828  24.021  36.166  1.00  0.00    -0.237 OA
ATOM     92  O   UNL A   1      46.574  24.939  37.630  1.00  0.00    -0.744 OA
ENDBRANCH  86  89
ENDBRANCH  59  82
ENDBRANCH  33  34
ENDBRANCH  25  28
ENDBRANCH  23  24
ENDBRANCH  22  23
ENDBRANCH   1  22
TORSDOF 18
ENDMDL
MODEL 3
REMARK VINA RESULT:     -10.5      5.166     10.929
REMARK SMILES C/C=C/C=C/C(=O)N[C@@](C)(C(=O)NCCCCNC(=O)c1ccc(-c2c3nc(c(-c4cccc(S(=O)(=O)[O-])c4F)c4ccc([nH]4)c(-c4cccc(S(=O)(=O)[O-])c4F)c4nc(c(-c5cccc(S(=O)(=O)[O-])c5F)c5ccc2[nH]5)C=C4)C=C3)cc1)C(F)(F)F
REMARK SMILES IDX 15 1 14 2 13 3 11 4 12 5 9 7 10 8 8 9 6 10 7 11 5 13 4 14
REMARK SMILES IDX 3 15 1 16 2 17 84 18 85 19 86 20 87 21 16 22 17 23 18 24
REMARK SMILES IDX 19 25 20 27 21 28 22 29 83 30 23 31 82 32 24 33 25 34 26 35
REMARK SMILES IDX 76 36 27 37 81 38 75 39 77 40 28 41 80 42 74 43 73 44 29 46
REMARK SMILES IDX 61 47 41 48 60 49 42 50 45 51 59 52 78 53 43 54 44 55 58 57
REMARK SMILES IDX 79 58 46 59 30 60 31 61 39 62 32 63 34 64 40 65 33 66 35 67
REMARK SMILES IDX 36 68 37 69 38 70 62 71 63 72 71 73 64 74 66 75 72 76 65 77
REMARK SMILES IDX 67 78 68 79 69 80 70 81 47 82 48 83 56 84 49 85 51 86 57 87
REMARK SMILES IDX 50 88 52 89 53 90 54 91 55 92
REMARK H PARENT 13 6 8 12 18 26 77 45 45 56
REMARK Flexibility Score: inf
ROOT
ATOM      1  C   UNL A   1      42.683  19.678  26.861  1.00  0.00     0.023 C 
ENDROOT
BRANCH   1   2
ATOM      2  C   UNL A   1      43.031  20.373  25.548  1.00  0.00     0.116 C 
BRANCH   2   3
ATOM      3  N   UNL A   1      44.465  20.498  25.392  1.00  0.00    -0.354 N 
ATOM      4  C   UNL A   1      45.352  21.504  25.605  1.00  0.00     0.254 C 
ATOM      5  O   UNL A   1      46.480  21.286  25.155  1.00  0.00    -0.272 OA
ATOM      6  H   UNL A   1      44.890  19.674  25.061  1.00  0.00     0.163 HD
BRANCH   4   7
ATOM      7  C   UNL A   1      44.980  22.836  26.290  1.00  0.00     0.212 C 
ATOM      8  C   UNL A   1      46.206  23.730  26.580  1.00  0.00     0.056 C 
BRANCH   7   9
ATOM      9  N   UNL A   1      44.374  22.486  27.634  1.00  0.00    -0.331 N 
ATOM     10  C   UNL A   1      44.106  23.012  28.848  1.00  0.00     0.245 C 
ATOM     11  O   UNL A   1      43.381  22.347  29.591  1.00  0.00    -0.270 OA
ATOM     12  H   UNL A   1      44.071  21.551  27.615  1.00  0.00     0.165 HD
BRANCH  10  13
ATOM     13  C   UNL A   1      44.582  24.314  29.333  1.00  0.00     0.071 C 
ATOM     14  C   UNL A   1      44.074  24.918  30.408  1.00  0.00     0.005 C 
BRANCH  14  15
ATOM     15  C   UNL A   1      44.593  26.127  31.002  1.00  0.00    -0.004 C 
ATOM     16  C   UNL A   1      44.085  28.317  32.161  1.00  0.00     0.035 C 
ATOM     17  C   UNL A   1      43.734  27.019  31.523  1.00  0.00    -0.030 C 
ENDBRANCH  14  15
ENDBRANCH  10  13
ENDBRANCH   7   9
BRANCH   7  18
ATOM     18  C   UNL A   1      44.201  23.582  25.175  1.00  0.00     0.420 C 
ATOM     19  F   UNL A   1      44.350  23.062  23.944  1.00  0.00    -0.168 F 
ATOM     20  F   UNL A   1      42.869  23.615  25.455  1.00  0.00    -0.168 F 
ATOM     21  F   UNL A   1      44.554  24.894  25.115  1.00  0.00    -0.168 F 
ENDBRANCH   7  18
ENDBRANCH   4   7
ENDBRANCH   2   3
ENDBRANCH   1   2
BRANCH   1  22
ATOM     22  C   UNL A   1      41.401  20.172  27.532  1.00  0.00     0.023 C 
BRANCH  22  23
ATOM     23  C   UNL A   1      41.007  21.605  27.196  1.00  0.00     0.116 C 
BRANCH  23  24
ATOM     24  N   UNL A   1      39.771  21.676  26.434  1.00  0.00    -0.352 N 
ATOM     25  C   UNL A   1      38.928  22.747  26.249  1.00  0.00     0.251 C 
ATOM     26  H   UNL A   1      39.498  20.842  25.990  1.00  0.00     0.163 HD
ATOM     27  O   UNL A   1      37.843  22.580  25.709  1.00  0.00    -0.269 OA
BRANCH  25  28
ATOM     28  C   UNL A   1      39.336  24.086  26.724  1.00  0.00     0.039 A 
ATOM     29  C   UNL A   1      39.062  24.442  28.045  1.00  0.00     0.014 A 
ATOM     30  C   UNL A   1      39.992  24.979  25.873  1.00  0.00     0.014 A 
ATOM     31  C   UNL A   1      39.487  25.682  28.525  1.00  0.00     0.010 A 
ATOM     32  C   UNL A   1      40.494  26.173  26.380  1.00  0.00     0.010 A 
ATOM     33  C   UNL A   1      40.228  26.549  27.704  1.00  0.00    -0.014 A 
BRANCH  33  34
ATOM     34  C   UNL A   1      40.709  27.859  28.212  1.00  0.00     0.031 A 
ATOM     35  C   UNL A   1      42.178  28.187  28.190  1.00  0.00     0.074 A 
ATOM     36  C   UNL A   1      39.831  28.732  28.746  1.00  0.00     0.049 A 
ATOM     37  N   UNL A   1      42.787  29.273  28.594  1.00  0.00    -0.248 NA
ATOM     38  C   UNL A   1      43.090  27.152  27.674  1.00  0.00     0.031 C 
ATOM     39  C   UNL A   1      38.393  28.498  28.903  1.00  0.00     0.029 A 
ATOM     40  N   UNL A   1      40.021  29.986  29.271  1.00  0.00    -0.354 N 
ATOM     41  C   UNL A   1      44.144  29.038  28.412  1.00  0.00     0.074 A 
ATOM     42  C   UNL A   1      44.276  27.692  27.905  1.00  0.00     0.031 C 
ATOM     43  C   UNL A   1      37.830  29.578  29.469  1.00  0.00     0.029 A 
ATOM     44  C   UNL A   1      38.867  30.567  29.742  1.00  0.00     0.049 A 
ATOM     45  H   UNL A   1      40.900  30.426  29.307  1.00  0.00     0.167 HD
ATOM     46  C   UNL A   1      45.187  29.878  28.616  1.00  0.00     0.034 A 
ATOM     47  C   UNL A   1      38.668  31.764  30.330  1.00  0.00     0.034 A 
ATOM     48  C   UNL A   1      45.049  31.230  29.084  1.00  0.00     0.049 A 
ATOM     49  C   UNL A   1      39.838  32.694  30.507  1.00  0.00     0.074 A 
ATOM     50  C   UNL A   1      46.033  32.190  29.243  1.00  0.00     0.029 A 
ATOM     51  N   UNL A   1      43.855  31.812  29.478  1.00  0.00    -0.354 N 
ATOM     52  N   UNL A   1      41.096  32.512  30.181  1.00  0.00    -0.248 NA
ATOM     53  C   UNL A   1      39.555  34.012  31.093  1.00  0.00     0.031 C 
ATOM     54  C   UNL A   1      45.438  33.342  29.767  1.00  0.00     0.029 A 
ATOM     55  C   UNL A   1      44.077  33.115  29.890  1.00  0.00     0.049 A 
ATOM     56  H   UNL A   1      42.978  31.365  29.466  1.00  0.00     0.167 HD
ATOM     57  C   UNL A   1      41.744  33.704  30.483  1.00  0.00     0.074 A 
ATOM     58  C   UNL A   1      40.735  34.607  30.998  1.00  0.00     0.031 C 
ATOM     59  C   UNL A   1      43.056  34.020  30.354  1.00  0.00     0.034 A 
BRANCH  46  60
ATOM     60  C   UNL A   1      46.569  29.370  28.289  1.00  0.00     0.023 A 
ATOM     61  C   UNL A   1      47.081  29.523  26.984  1.00  0.00     0.012 A 
ATOM     62  C   UNL A   1      47.378  28.788  29.284  1.00  0.00     0.148 A 
ATOM     63  C   UNL A   1      48.360  29.069  26.663  1.00  0.00     0.002 A 
ATOM     64  C   UNL A   1      48.671  28.384  28.969  1.00  0.00     0.091 A 
ATOM     65  F   UNL A   1      46.869  28.631  30.514  1.00  0.00    -0.205 F 
ATOM     66  C   UNL A   1      49.158  28.510  27.657  1.00  0.00     0.022 A 
BRANCH  64  67
ATOM     67  S   UNL A   1      49.809  27.729  30.195  1.00  0.00     0.127 S 
ATOM     68  O   UNL A   1      49.974  28.877  31.086  1.00  0.00    -0.237 OA
ATOM     69  O   UNL A   1      49.043  26.621  30.764  1.00  0.00    -0.237 OA
ATOM     70  O   UNL A   1      51.004  27.332  29.464  1.00  0.00    -0.744 OA
ENDBRANCH  64  67
ENDBRANCH  46  60
BRANCH  47  71
ATOM     71  C   UNL A   1      37.295  32.178  30.736  1.00  0.00     0.023 A 
ATOM     72  C   UNL A   1      36.873  31.981  32.066  1.00  0.00     0.012 A 
ATOM     73  C   UNL A   1      36.412  32.776  29.818  1.00  0.00     0.148 A 
ATOM     74  C   UNL A   1      35.584  32.335  32.464  1.00  0.00     0.002 A 
ATOM     75  C   UNL A   1      35.149  33.181  30.236  1.00  0.00     0.091 A 
ATOM     76  F   UNL A   1      36.829  32.949  28.556  1.00  0.00    -0.205 F 
ATOM     77  C   UNL A   1      34.726  32.943  31.552  1.00  0.00     0.022 A 
BRANCH  75  78
ATOM     78  S   UNL A   1      34.025  34.086  29.167  1.00  0.00     0.127 S 
ATOM     79  O   UNL A   1      33.533  33.030  28.286  1.00  0.00    -0.237 OA
ATOM     80  O   UNL A   1      33.045  34.596  30.127  1.00  0.00    -0.237 OA
ATOM     81  O   UNL A   1      34.832  35.116  28.529  1.00  0.00    -0.744 OA
ENDBRANCH  75  78
ENDBRANCH  47  71
BRANCH  59  82
ATOM     82  C   UNL A   1      43.478  35.418  30.727  1.00  0.00     0.023 A 
ATOM     83  C   UNL A   1      43.946  35.695  32.027  1.00  0.00     0.012 A 
ATOM     84  C   UNL A   1      43.464  36.446  29.763  1.00  0.00     0.148 A 
ATOM     85  C   UNL A   1      44.353  36.983  32.373  1.00  0.00     0.002 A 
ATOM     86  C   UNL A   1      43.924  37.712  30.099  1.00  0.00     0.091 A 
ATOM     87  F   UNL A   1      43.000  36.168  28.537  1.00  0.00    -0.205 F 
ATOM     88  C   UNL A   1      44.353  37.988  31.408  1.00  0.00     0.022 A 
BRANCH  86  89
ATOM     89  S   UNL A   1      44.056  39.038  28.895  1.00  0.00     0.127 S 
ATOM     90  O   UNL A   1      44.350  40.188  29.749  1.00  0.00    -0.237 OA
ATOM     91  O   UNL A   1      45.177  38.592  28.066  1.00  0.00    -0.237 OA
ATOM     92  O   UNL A   1      42.775  39.082  28.204  1.00  0.00    -0.744 OA
ENDBRANCH  86  89
ENDBRANCH  59  82
ENDBRANCH  33  34
ENDBRANCH  25  28
ENDBRANCH  23  24
ENDBRANCH  22  23
ENDBRANCH   1  22
TORSDOF 18
ENDMDL
