MODEL 1
REMARK VINA RESULT:     -11.4      0.000      0.000
REMARK SMILES CC[C@@H]1CCC[C@@](CC[NH+]2CCOCC2)(C(=O)NCCCCNC(=O)c2ccc(-c3c4nc(c(-c5cccc(S(=O)(=O)[O-])c5F)c5ccc([nH]5)c(-c5cccc(S(=O)(=O)[O-])c5F)c5nc(c(-c6cccc(S(=O)(=O)[O-])c6F)c6ccc3[nH]6)C=C5)C=C4)cc2)C1
REMARK SMILES IDX 20 1 19 2 18 3 16 4 17 5 7 7 3 8 4 9 89 10 5 11 6 12 2 13
REMARK SMILES IDX 1 14 8 15 9 16 10 17 11 18 15 19 12 21 14 22 13 23 21 24
REMARK SMILES IDX 22 25 23 26 24 27 25 29 26 30 27 31 88 32 28 33 87 34 29 35
REMARK SMILES IDX 30 36 31 37 81 38 32 39 86 40 80 41 82 42 33 43 85 44 79 45
REMARK SMILES IDX 78 46 34 48 66 49 46 50 65 51 47 52 50 53 64 54 83 55 48 56
REMARK SMILES IDX 49 57 63 59 84 60 51 61 35 62 36 63 44 64 37 65 39 66 45 67
REMARK SMILES IDX 38 68 40 69 41 70 42 71 43 72 67 73 68 74 76 75 69 76 71 77
REMARK SMILES IDX 77 78 70 79 72 80 73 81 74 82 75 83 52 84 53 85 61 86 54 87
REMARK SMILES IDX 56 88 62 89 55 90 57 91 58 92 59 93 60 94
REMARK H PARENT 18 6 10 20 23 28 82 47 50 58
REMARK Flexibility Score: inf
ROOT
ATOM      1  C   UNL A   1      32.151  30.862  26.792  1.00  0.00     0.023 C 
ENDROOT
BRANCH   1   2
ATOM      2  C   UNL A   1      31.565  30.063  25.620  1.00  0.00     0.116 C 
BRANCH   2   3
ATOM      3  N   UNL A   1      32.493  29.709  24.558  1.00  0.00    -0.356 N 
ATOM      4  C   UNL A   1      32.473  28.791  23.548  1.00  0.00     0.226 C 
ATOM      5  O   UNL A   1      33.397  28.899  22.731  1.00  0.00    -0.274 OA
ATOM      6  H   UNL A   1      33.317  30.249  24.571  1.00  0.00     0.163 HD
BRANCH   4   7
ATOM      7  C   UNL A   1      31.410  27.669  23.363  1.00  0.00     0.055 C 
ATOM      8  C   UNL A   1      33.201  25.741  23.394  1.00  0.00    -0.010 C 
ATOM      9  C   UNL A   1      32.697  25.308  24.778  1.00  0.00     0.003 C 
ATOM     10  C   UNL A   1      32.097  26.469  22.604  1.00  0.00     0.020 C 
ATOM     11  C   UNL A   1      31.965  26.424  25.517  1.00  0.00     0.001 C 
ATOM     12  C   UNL A   1      30.858  27.054  24.662  1.00  0.00     0.017 C 
BRANCH   8  13
ATOM     13  C   UNL A   1      33.692  24.522  22.581  1.00  0.00     0.000 C 
ATOM     14  C   UNL A   1      34.420  23.490  23.430  1.00  0.00     0.004 C 
ENDBRANCH   8  13
BRANCH   7  15
ATOM     15  C   UNL A   1      30.271  28.120  22.389  1.00  0.00     0.078 C 
BRANCH  15  16
ATOM     16  C   UNL A   1      29.848  29.594  22.324  1.00  0.00     0.263 C 
BRANCH  16  17
ATOM     17  N   UNL A   1      28.395  29.726  22.127  1.00  0.00    -0.331 N 
ATOM     18  C   UNL A   1      28.039  30.547  20.957  1.00  0.00     0.291 C 
ATOM     19  C   UNL A   1      27.702  30.342  23.285  1.00  0.00     0.291 C 
ATOM     20  H   UNL A   1      28.092  28.761  21.996  1.00  0.00     0.348 HD
ATOM     21  C   UNL A   1      28.382  32.033  21.133  1.00  0.00     0.221 C 
ATOM     22  C   UNL A   1      27.969  31.852  23.446  1.00  0.00     0.221 C 
ATOM     23  O   UNL A   1      27.683  32.585  22.250  1.00  0.00    -0.370 OA
ENDBRANCH  16  17
ENDBRANCH  15  16
ENDBRANCH   7  15
ENDBRANCH   4   7
ENDBRANCH   2   3
ENDBRANCH   1   2
BRANCH   1  24
ATOM     24  C   UNL A   1      31.628  32.263  27.121  1.00  0.00     0.023 C 
BRANCH  24  25
ATOM     25  C   UNL A   1      32.503  33.479  26.833  1.00  0.00     0.116 C 
BRANCH  25  26
ATOM     26  N   UNL A   1      32.487  34.513  27.854  1.00  0.00    -0.352 N 
ATOM     27  C   UNL A   1      33.384  34.749  28.876  1.00  0.00     0.251 C 
ATOM     28  H   UNL A   1      31.725  35.136  27.811  1.00  0.00     0.163 HD
ATOM     29  O   UNL A   1      33.210  35.716  29.617  1.00  0.00    -0.269 OA
BRANCH  27  30
ATOM     30  C   UNL A   1      34.500  33.809  29.140  1.00  0.00     0.039 A 
ATOM     31  C   UNL A   1      35.802  34.252  28.875  1.00  0.00     0.014 A 
ATOM     32  C   UNL A   1      34.296  32.542  29.693  1.00  0.00     0.014 A 
ATOM     33  C   UNL A   1      36.896  33.484  29.282  1.00  0.00     0.010 A 
ATOM     34  C   UNL A   1      35.390  31.800  30.147  1.00  0.00     0.010 A 
ATOM     35  C   UNL A   1      36.697  32.283  29.982  1.00  0.00    -0.014 A 
BRANCH  35  36
ATOM     36  C   UNL A   1      37.840  31.603  30.646  1.00  0.00     0.031 A 
ATOM     37  C   UNL A   1      38.634  30.540  29.944  1.00  0.00     0.074 A 
ATOM     38  C   UNL A   1      38.109  31.901  31.935  1.00  0.00     0.049 A 
ATOM     39  N   UNL A   1      39.668  29.866  30.380  1.00  0.00    -0.248 NA
ATOM     40  C   UNL A   1      38.205  30.172  28.587  1.00  0.00     0.031 C 
ATOM     41  C   UNL A   1      37.350  32.848  32.756  1.00  0.00     0.029 A 
ATOM     42  N   UNL A   1      39.075  31.427  32.787  1.00  0.00    -0.354 N 
ATOM     43  C   UNL A   1      40.001  28.981  29.365  1.00  0.00     0.074 A 
ATOM     44  C   UNL A   1      39.043  29.185  28.298  1.00  0.00     0.031 C 
ATOM     45  C   UNL A   1      37.881  32.887  33.989  1.00  0.00     0.029 A 
ATOM     46  C   UNL A   1      39.006  31.961  34.053  1.00  0.00     0.049 A 
ATOM     47  H   UNL A   1      39.753  30.765  32.518  1.00  0.00     0.167 HD
ATOM     48  C   UNL A   1      41.029  28.099  29.312  1.00  0.00     0.034 A 
ATOM     49  C   UNL A   1      39.765  31.738  35.144  1.00  0.00     0.034 A 
ATOM     50  C   UNL A   1      41.999  27.922  30.361  1.00  0.00     0.049 A 
ATOM     51  C   UNL A   1      40.932  30.793  35.040  1.00  0.00     0.074 A 
ATOM     52  C   UNL A   1      43.126  27.119  30.364  1.00  0.00     0.029 A 
ATOM     53  N   UNL A   1      41.953  28.550  31.596  1.00  0.00    -0.354 N 
ATOM     54  N   UNL A   1      41.345  30.106  34.003  1.00  0.00    -0.248 NA
ATOM     55  C   UNL A   1      41.762  30.623  36.242  1.00  0.00     0.031 C 
ATOM     56  C   UNL A   1      43.756  27.252  31.607  1.00  0.00     0.029 A 
ATOM     57  C   UNL A   1      43.026  28.147  32.373  1.00  0.00     0.049 A 
ATOM     58  H   UNL A   1      41.259  29.188  31.879  1.00  0.00     0.167 HD
ATOM     59  C   UNL A   1      42.497  29.448  34.415  1.00  0.00     0.074 A 
ATOM     60  C   UNL A   1      42.730  29.836  35.792  1.00  0.00     0.031 C 
ATOM     61  C   UNL A   1      43.280  28.585  33.722  1.00  0.00     0.034 A 
BRANCH  48  62
ATOM     62  C   UNL A   1      41.199  27.302  28.045  1.00  0.00     0.023 A 
ATOM     63  C   UNL A   1      41.748  27.930  26.908  1.00  0.00     0.012 A 
ATOM     64  C   UNL A   1      40.878  25.933  27.991  1.00  0.00     0.148 A 
ATOM     65  C   UNL A   1      41.945  27.215  25.727  1.00  0.00     0.002 A 
ATOM     66  C   UNL A   1      41.111  25.218  26.822  1.00  0.00     0.091 A 
ATOM     67  F   UNL A   1      40.338  25.357  29.076  1.00  0.00    -0.205 F 
ATOM     68  C   UNL A   1      41.636  25.859  25.687  1.00  0.00     0.022 A 
BRANCH  66  69
ATOM     69  S   UNL A   1      40.809  23.451  26.692  1.00  0.00     0.127 S 
ATOM     70  O   UNL A   1      41.737  23.071  25.627  1.00  0.00    -0.237 OA
ATOM     71  O   UNL A   1      41.182  22.972  28.023  1.00  0.00    -0.237 OA
ATOM     72  O   UNL A   1      39.395  23.310  26.374  1.00  0.00    -0.744 OA
ENDBRANCH  66  69
ENDBRANCH  48  62
BRANCH  49  73
ATOM     73  C   UNL A   1      39.499  32.493  36.402  1.00  0.00     0.023 A 
ATOM     74  C   UNL A   1      40.199  33.690  36.647  1.00  0.00     0.012 A 
ATOM     75  C   UNL A   1      38.532  32.061  37.330  1.00  0.00     0.148 A 
ATOM     76  C   UNL A   1      39.961  34.429  37.806  1.00  0.00     0.002 A 
ATOM     77  C   UNL A   1      38.263  32.830  38.458  1.00  0.00     0.091 A 
ATOM     78  F   UNL A   1      37.886  30.910  37.089  1.00  0.00    -0.205 F 
ATOM     79  C   UNL A   1      38.986  34.006  38.706  1.00  0.00     0.022 A 
BRANCH  77  80
ATOM     80  S   UNL A   1      36.928  32.427  39.593  1.00  0.00     0.127 S 
ATOM     81  O   UNL A   1      37.315  31.095  40.050  1.00  0.00    -0.237 OA
ATOM     82  O   UNL A   1      37.051  33.483  40.598  1.00  0.00    -0.237 OA
ATOM     83  O   UNL A   1      35.710  32.502  38.797  1.00  0.00    -0.744 OA
ENDBRANCH  77  80
ENDBRANCH  49  73
BRANCH  61  84
ATOM     84  C   UNL A   1      44.479  28.009  34.428  1.00  0.00     0.023 A 
ATOM     85  C   UNL A   1      45.711  28.689  34.370  1.00  0.00     0.012 A 
ATOM     86  C   UNL A   1      44.367  26.844  35.212  1.00  0.00     0.148 A 
ATOM     87  C   UNL A   1      46.821  28.206  35.061  1.00  0.00     0.002 A 
ATOM     88  C   UNL A   1      45.466  26.392  35.933  1.00  0.00     0.091 A 
ATOM     89  F   UNL A   1      43.193  26.197  35.235  1.00  0.00    -0.205 F 
ATOM     90  C   UNL A   1      46.696  27.065  35.852  1.00  0.00     0.022 A 
BRANCH  88  91
ATOM     91  S   UNL A   1      45.368  24.984  37.045  1.00  0.00     0.127 S 
ATOM     92  O   UNL A   1      46.545  25.185  37.887  1.00  0.00    -0.237 OA
ATOM     93  O   UNL A   1      44.090  25.207  37.723  1.00  0.00    -0.237 OA
ATOM     94  O   UNL A   1      45.397  23.802  36.194  1.00  0.00    -0.744 OA
ENDBRANCH  88  91
ENDBRANCH  61  84
ENDBRANCH  35  36
ENDBRANCH  27  30
ENDBRANCH  25  26
ENDBRANCH  24  25
ENDBRANCH   1  24
TORSDOF 18
ENDMDL
MODEL 2
REMARK VINA RESULT:     -11.3      2.214      8.084
REMARK SMILES CC[C@@H]1CCC[C@@](CC[NH+]2CCOCC2)(C(=O)NCCCCNC(=O)c2ccc(-c3c4nc(c(-c5cccc(S(=O)(=O)[O-])c5F)c5ccc([nH]5)c(-c5cccc(S(=O)(=O)[O-])c5F)c5nc(c(-c6cccc(S(=O)(=O)[O-])c6F)c6ccc3[nH]6)C=C5)C=C4)cc2)C1
REMARK SMILES IDX 20 1 19 2 18 3 16 4 17 5 7 7 3 8 4 9 89 10 5 11 6 12 2 13
REMARK SMILES IDX 1 14 8 15 9 16 10 17 11 18 15 19 12 21 14 22 13 23 21 24
REMARK SMILES IDX 22 25 23 26 24 27 25 29 26 30 27 31 88 32 28 33 87 34 29 35
REMARK SMILES IDX 30 36 31 37 81 38 32 39 86 40 80 41 82 42 33 43 85 44 79 45
REMARK SMILES IDX 78 46 34 48 66 49 46 50 65 51 47 52 50 53 64 54 83 55 48 56
REMARK SMILES IDX 49 57 63 59 84 60 51 61 35 62 36 63 44 64 37 65 39 66 45 67
REMARK SMILES IDX 38 68 40 69 41 70 42 71 43 72 67 73 68 74 76 75 69 76 71 77
REMARK SMILES IDX 77 78 70 79 72 80 73 81 74 82 75 83 52 84 53 85 61 86 54 87
REMARK SMILES IDX 56 88 62 89 55 90 57 91 58 92 59 93 60 94
REMARK H PARENT 18 6 10 20 23 28 82 47 50 58
REMARK Flexibility Score: inf
ROOT
ATOM      1  C   UNL A   1      32.022  27.751  27.313  1.00  0.00     0.023 C 
ENDROOT
BRANCH   1   2
ATOM      2  C   UNL A   1      32.146  26.630  26.272  1.00  0.00     0.116 C 
BRANCH   2   3
ATOM      3  N   UNL A   1      33.474  26.067  26.091  1.00  0.00    -0.356 N 
ATOM      4  C   UNL A   1      33.961  24.983  25.420  1.00  0.00     0.226 C 
ATOM      5  O   UNL A   1      35.197  24.919  25.367  1.00  0.00    -0.274 OA
ATOM      6  H   UNL A   1      34.176  26.580  26.555  1.00  0.00     0.163 HD
BRANCH   4   7
ATOM      7  C   UNL A   1      33.103  23.872  24.747  1.00  0.00     0.055 C 
ATOM      8  C   UNL A   1      34.630  21.923  25.637  1.00  0.00    -0.010 C 
ATOM      9  C   UNL A   1      33.516  21.506  26.608  1.00  0.00     0.003 C 
ATOM     10  C   UNL A   1      34.054  22.658  24.413  1.00  0.00     0.020 C 
ATOM     11  C   UNL A   1      32.534  22.636  26.902  1.00  0.00     0.001 C 
ATOM     12  C   UNL A   1      31.985  23.273  25.618  1.00  0.00     0.017 C 
BRANCH   8  13
ATOM     13  C   UNL A   1      35.435  20.692  25.162  1.00  0.00     0.000 C 
ATOM     14  C   UNL A   1      36.923  20.972  25.011  1.00  0.00     0.004 C 
ENDBRANCH   8  13
BRANCH   7  15
ATOM     15  C   UNL A   1      32.581  24.330  23.344  1.00  0.00     0.078 C 
BRANCH  15  16
ATOM     16  C   UNL A   1      31.413  25.321  23.240  1.00  0.00     0.263 C 
BRANCH  16  17
ATOM     17  N   UNL A   1      31.552  26.190  22.060  1.00  0.00    -0.331 N 
ATOM     18  C   UNL A   1      32.948  26.565  21.775  1.00  0.00     0.291 C 
ATOM     19  C   UNL A   1      30.803  27.464  22.181  1.00  0.00     0.291 C 
ATOM     20  H   UNL A   1      31.173  25.618  21.306  1.00  0.00     0.348 HD
ATOM     21  C   UNL A   1      33.547  27.509  22.827  1.00  0.00     0.221 C 
ATOM     22  C   UNL A   1      31.421  28.464  23.178  1.00  0.00     0.221 C 
ATOM     23  O   UNL A   1      32.801  28.726  22.899  1.00  0.00    -0.370 OA
ENDBRANCH  16  17
ENDBRANCH  15  16
ENDBRANCH   7  15
ENDBRANCH   4   7
ENDBRANCH   2   3
ENDBRANCH   1   2
BRANCH   1  24
ATOM     24  C   UNL A   1      31.503  29.135  26.912  1.00  0.00     0.023 C 
BRANCH  24  25
ATOM     25  C   UNL A   1      32.465  30.150  26.301  1.00  0.00     0.116 C 
BRANCH  25  26
ATOM     26  N   UNL A   1      32.389  31.491  26.856  1.00  0.00    -0.352 N 
ATOM     27  C   UNL A   1      33.355  32.221  27.518  1.00  0.00     0.251 C 
ATOM     28  H   UNL A   1      31.522  31.945  26.743  1.00  0.00     0.163 HD
ATOM     29  O   UNL A   1      33.099  33.371  27.875  1.00  0.00    -0.269 OA
BRANCH  27  30
ATOM     30  C   UNL A   1      34.658  31.611  27.876  1.00  0.00     0.039 A 
ATOM     31  C   UNL A   1      35.751  32.466  28.056  1.00  0.00     0.014 A 
ATOM     32  C   UNL A   1      34.806  30.238  28.094  1.00  0.00     0.014 A 
ATOM     33  C   UNL A   1      36.948  31.968  28.577  1.00  0.00     0.010 A 
ATOM     34  C   UNL A   1      35.985  29.751  28.664  1.00  0.00     0.010 A 
ATOM     35  C   UNL A   1      37.051  30.618  28.948  1.00  0.00    -0.014 A 
BRANCH  35  36
ATOM     36  C   UNL A   1      38.215  30.144  29.742  1.00  0.00     0.031 A 
ATOM     37  C   UNL A   1      38.464  30.636  31.138  1.00  0.00     0.074 A 
ATOM     38  C   UNL A   1      39.105  29.316  29.154  1.00  0.00     0.049 A 
ATOM     39  N   UNL A   1      39.424  30.306  31.964  1.00  0.00    -0.248 NA
ATOM     40  C   UNL A   1      37.528  31.637  31.671  1.00  0.00     0.031 C 
ATOM     41  C   UNL A   1      39.025  28.842  27.769  1.00  0.00     0.029 A 
ATOM     42  N   UNL A   1      40.257  28.745  29.631  1.00  0.00    -0.354 N 
ATOM     43  C   UNL A   1      39.223  31.072  33.105  1.00  0.00     0.074 A 
ATOM     44  C   UNL A   1      38.064  31.903  32.855  1.00  0.00     0.031 C 
ATOM     45  C   UNL A   1      40.079  28.050  27.512  1.00  0.00     0.029 A 
ATOM     46  C   UNL A   1      40.916  27.970  28.704  1.00  0.00     0.049 A 
ATOM     47  H   UNL A   1      40.582  28.876  30.551  1.00  0.00     0.167 HD
ATOM     48  C   UNL A   1      39.923  31.063  34.265  1.00  0.00     0.034 A 
ATOM     49  C   UNL A   1      42.064  27.269  28.800  1.00  0.00     0.034 A 
ATOM     50  C   UNL A   1      41.055  30.211  34.523  1.00  0.00     0.049 A 
ATOM     51  C   UNL A   1      42.789  27.235  30.117  1.00  0.00     0.074 A 
ATOM     52  C   UNL A   1      41.773  30.066  35.696  1.00  0.00     0.029 A 
ATOM     53  N   UNL A   1      41.640  29.370  33.590  1.00  0.00    -0.354 N 
ATOM     54  N   UNL A   1      42.473  27.820  31.247  1.00  0.00    -0.248 NA
ATOM     55  C   UNL A   1      44.007  26.413  30.187  1.00  0.00     0.031 C 
ATOM     56  C   UNL A   1      42.801  29.143  35.470  1.00  0.00     0.029 A 
ATOM     57  C   UNL A   1      42.716  28.707  34.158  1.00  0.00     0.049 A 
ATOM     58  H   UNL A   1      41.336  29.259  32.661  1.00  0.00     0.167 HD
ATOM     59  C   UNL A   1      43.431  27.414  32.168  1.00  0.00     0.074 A 
ATOM     60  C   UNL A   1      44.327  26.514  31.471  1.00  0.00     0.031 C 
ATOM     61  C   UNL A   1      43.566  27.770  33.470  1.00  0.00     0.034 A 
BRANCH  48  62
ATOM     62  C   UNL A   1      39.439  31.957  35.377  1.00  0.00     0.023 A 
ATOM     63  C   UNL A   1      38.513  31.449  36.312  1.00  0.00     0.012 A 
ATOM     64  C   UNL A   1      39.936  33.264  35.537  1.00  0.00     0.148 A 
ATOM     65  C   UNL A   1      38.065  32.239  37.370  1.00  0.00     0.002 A 
ATOM     66  C   UNL A   1      39.512  34.034  36.614  1.00  0.00     0.091 A 
ATOM     67  F   UNL A   1      40.800  33.736  34.627  1.00  0.00    -0.205 F 
ATOM     68  C   UNL A   1      38.571  33.527  37.526  1.00  0.00     0.022 A 
BRANCH  66  69
ATOM     69  S   UNL A   1      40.157  35.678  36.941  1.00  0.00     0.127 S 
ATOM     70  O   UNL A   1      39.667  36.423  35.782  1.00  0.00    -0.237 OA
ATOM     71  O   UNL A   1      39.506  36.024  38.206  1.00  0.00    -0.237 OA
ATOM     72  O   UNL A   1      41.603  35.530  37.028  1.00  0.00    -0.744 OA
ENDBRANCH  66  69
ENDBRANCH  48  62
BRANCH  49  73
ATOM     73  C   UNL A   1      42.544  26.468  27.638  1.00  0.00     0.023 A 
ATOM     74  C   UNL A   1      43.431  27.057  26.716  1.00  0.00     0.012 A 
ATOM     75  C   UNL A   1      42.166  25.123  27.463  1.00  0.00     0.148 A 
ATOM     76  C   UNL A   1      43.912  26.330  25.627  1.00  0.00     0.002 A 
ATOM     77  C   UNL A   1      42.690  24.388  26.405  1.00  0.00     0.091 A 
ATOM     78  F   UNL A   1      41.307  24.582  28.341  1.00  0.00    -0.205 F 
ATOM     79  C   UNL A   1      43.552  24.993  25.477  1.00  0.00     0.022 A 
BRANCH  77  80
ATOM     80  S   UNL A   1      42.385  22.626  26.220  1.00  0.00     0.127 S 
ATOM     81  O   UNL A   1      40.927  22.580  26.150  1.00  0.00    -0.237 OA
ATOM     82  O   UNL A   1      43.072  22.325  24.964  1.00  0.00    -0.237 OA
ATOM     83  O   UNL A   1      42.989  22.005  27.392  1.00  0.00    -0.744 OA
ENDBRANCH  77  80
ENDBRANCH  49  73
BRANCH  61  84
ATOM     84  C   UNL A   1      44.715  27.174  34.240  1.00  0.00     0.023 A 
ATOM     85  C   UNL A   1      45.935  27.875  34.319  1.00  0.00     0.012 A 
ATOM     86  C   UNL A   1      44.563  25.967  34.949  1.00  0.00     0.148 A 
ATOM     87  C   UNL A   1      46.994  27.372  35.073  1.00  0.00     0.002 A 
ATOM     88  C   UNL A   1      45.609  25.492  35.732  1.00  0.00     0.091 A 
ATOM     89  F   UNL A   1      43.403  25.302  34.841  1.00  0.00    -0.205 F 
ATOM     90  C   UNL A   1      46.827  26.188  35.788  1.00  0.00     0.022 A 
BRANCH  88  91
ATOM     91  S   UNL A   1      45.448  24.025  36.756  1.00  0.00     0.127 S 
ATOM     92  O   UNL A   1      46.846  23.687  37.016  1.00  0.00    -0.237 OA
ATOM     93  O   UNL A   1      44.718  24.531  37.920  1.00  0.00    -0.237 OA
ATOM     94  O   UNL A   1      44.705  23.061  35.956  1.00  0.00    -0.744 OA
ENDBRANCH  88  91
ENDBRANCH  61  84
ENDBRANCH  35  36
ENDBRANCH  27  30
ENDBRANCH  25  26
ENDBRANCH  24  25
ENDBRANCH   1  24
TORSDOF 18
ENDMDL
MODEL 3
REMARK VINA RESULT:     -11.3      2.500      8.030
REMARK SMILES CC[C@@H]1CCC[C@@](CC[NH+]2CCOCC2)(C(=O)NCCCCNC(=O)c2ccc(-c3c4nc(c(-c5cccc(S(=O)(=O)[O-])c5F)c5ccc([nH]5)c(-c5cccc(S(=O)(=O)[O-])c5F)c5nc(c(-c6cccc(S(=O)(=O)[O-])c6F)c6ccc3[nH]6)C=C5)C=C4)cc2)C1
REMARK SMILES IDX 20 1 19 2 18 3 16 4 17 5 7 7 3 8 4 9 89 10 5 11 6 12 2 13
REMARK SMILES IDX 1 14 8 15 9 16 10 17 11 18 15 19 12 21 14 22 13 23 21 24
REMARK SMILES IDX 22 25 23 26 24 27 25 29 26 30 27 31 88 32 28 33 87 34 29 35
REMARK SMILES IDX 30 36 31 37 81 38 32 39 86 40 80 41 82 42 33 43 85 44 79 45
REMARK SMILES IDX 78 46 34 48 66 49 46 50 65 51 47 52 50 53 64 54 83 55 48 56
REMARK SMILES IDX 49 57 63 59 84 60 51 61 35 62 36 63 44 64 37 65 39 66 45 67
REMARK SMILES IDX 38 68 40 69 41 70 42 71 43 72 67 73 68 74 76 75 69 76 71 77
REMARK SMILES IDX 77 78 70 79 72 80 73 81 74 82 75 83 52 84 53 85 61 86 54 87
REMARK SMILES IDX 56 88 62 89 55 90 57 91 58 92 59 93 60 94
REMARK H PARENT 18 6 10 20 23 28 82 47 50 58
REMARK Flexibility Score: inf
ROOT
ATOM      1  C   UNL A   1      31.910  30.198  26.862  1.00  0.00     0.023 C 
ENDROOT
BRANCH   1   2
ATOM      2  C   UNL A   1      31.407  30.271  25.415  1.00  0.00     0.116 C 
BRANCH   2   3
ATOM      3  N   UNL A   1      32.306  29.752  24.396  1.00  0.00    -0.356 N 
ATOM      4  C   UNL A   1      32.248  28.702  23.526  1.00  0.00     0.226 C 
ATOM      5  O   UNL A   1      33.157  28.675  22.685  1.00  0.00    -0.274 OA
ATOM      6  H   UNL A   1      33.139  30.272  24.318  1.00  0.00     0.163 HD
BRANCH   4   7
ATOM      7  C   UNL A   1      31.163  27.587  23.521  1.00  0.00     0.055 C 
ATOM      8  C   UNL A   1      32.915  25.653  23.185  1.00  0.00    -0.010 C 
ATOM      9  C   UNL A   1      32.673  25.195  24.631  1.00  0.00     0.003 C 
ATOM     10  C   UNL A   1      31.689  26.399  22.627  1.00  0.00     0.020 C 
ATOM     11  C   UNL A   1      32.097  26.299  25.513  1.00  0.00     0.001 C 
ATOM     12  C   UNL A   1      30.856  26.949  24.888  1.00  0.00     0.017 C 
BRANCH   8  13
ATOM     13  C   UNL A   1      33.239  24.448  22.274  1.00  0.00     0.000 C 
ATOM     14  C   UNL A   1      33.910  23.300  23.015  1.00  0.00     0.004 C 
ENDBRANCH   8  13
BRANCH   7  15
ATOM     15  C   UNL A   1      29.866  28.059  22.783  1.00  0.00     0.078 C 
BRANCH  15  16
ATOM     16  C   UNL A   1      29.776  29.483  22.214  1.00  0.00     0.263 C 
BRANCH  16  17
ATOM     17  N   UNL A   1      28.400  29.809  21.802  1.00  0.00    -0.331 N 
ATOM     18  C   UNL A   1      28.310  31.042  21.001  1.00  0.00     0.291 C 
ATOM     19  C   UNL A   1      27.476  29.994  22.946  1.00  0.00     0.291 C 
ATOM     20  H   UNL A   1      28.129  28.998  21.245  1.00  0.00     0.348 HD
ATOM     21  C   UNL A   1      28.614  32.311  21.811  1.00  0.00     0.221 C 
ATOM     22  C   UNL A   1      27.709  31.298  23.736  1.00  0.00     0.221 C 
ATOM     23  O   UNL A   1      27.691  32.454  22.893  1.00  0.00    -0.370 OA
ENDBRANCH  16  17
ENDBRANCH  15  16
ENDBRANCH   7  15
ENDBRANCH   4   7
ENDBRANCH   2   3
ENDBRANCH   1   2
BRANCH   1  24
ATOM     24  C   UNL A   1      33.408  30.101  27.164  1.00  0.00     0.023 C 
BRANCH  24  25
ATOM     25  C   UNL A   1      34.210  31.377  27.405  1.00  0.00     0.116 C 
BRANCH  25  26
ATOM     26  N   UNL A   1      34.039  31.980  28.716  1.00  0.00    -0.352 N 
ATOM     27  C   UNL A   1      34.879  31.951  29.810  1.00  0.00     0.251 C 
ATOM     28  H   UNL A   1      33.201  32.484  28.842  1.00  0.00     0.163 HD
ATOM     29  O   UNL A   1      34.565  32.571  30.826  1.00  0.00    -0.269 OA
BRANCH  27  30
ATOM     30  C   UNL A   1      36.106  31.119  29.805  1.00  0.00     0.039 A 
ATOM     31  C   UNL A   1      37.230  31.619  29.136  1.00  0.00     0.014 A 
ATOM     32  C   UNL A   1      36.188  29.902  30.487  1.00  0.00     0.014 A 
ATOM     33  C   UNL A   1      38.461  30.970  29.260  1.00  0.00     0.010 A 
ATOM     34  C   UNL A   1      37.430  29.284  30.654  1.00  0.00     0.010 A 
ATOM     35  C   UNL A   1      38.584  29.834  30.076  1.00  0.00    -0.014 A 
BRANCH  35  36
ATOM     36  C   UNL A   1      39.927  29.301  30.423  1.00  0.00     0.031 A 
ATOM     37  C   UNL A   1      40.758  29.918  31.509  1.00  0.00     0.074 A 
ATOM     38  C   UNL A   1      40.432  28.289  29.685  1.00  0.00     0.049 A 
ATOM     39  N   UNL A   1      41.941  29.559  31.941  1.00  0.00    -0.248 NA
ATOM     40  C   UNL A   1      40.203  31.099  32.186  1.00  0.00     0.031 C 
ATOM     41  C   UNL A   1      39.761  27.666  28.540  1.00  0.00     0.029 A 
ATOM     42  N   UNL A   1      41.629  27.623  29.766  1.00  0.00    -0.354 N 
ATOM     43  C   UNL A   1      42.282  30.479  32.924  1.00  0.00     0.074 A 
ATOM     44  C   UNL A   1      41.192  31.429  33.006  1.00  0.00     0.031 C 
ATOM     45  C   UNL A   1      40.552  26.708  28.032  1.00  0.00     0.029 A 
ATOM     46  C   UNL A   1      41.791  26.656  28.801  1.00  0.00     0.049 A 
ATOM     47  H   UNL A   1      42.308  27.818  30.452  1.00  0.00     0.167 HD
ATOM     48  C   UNL A   1      43.388  30.513  33.706  1.00  0.00     0.034 A 
ATOM     49  C   UNL A   1      42.818  25.816  28.562  1.00  0.00     0.034 A 
ATOM     50  C   UNL A   1      44.455  29.548  33.643  1.00  0.00     0.049 A 
ATOM     51  C   UNL A   1      44.009  25.841  29.479  1.00  0.00     0.074 A 
ATOM     52  C   UNL A   1      45.572  29.446  34.453  1.00  0.00     0.029 A 
ATOM     53  N   UNL A   1      44.542  28.524  32.713  1.00  0.00    -0.354 N 
ATOM     54  N   UNL A   1      44.226  26.598  30.527  1.00  0.00    -0.248 NA
ATOM     55  C   UNL A   1      45.080  24.869  29.209  1.00  0.00     0.031 C 
ATOM     56  C   UNL A   1      46.342  28.367  34.004  1.00  0.00     0.029 A 
ATOM     57  C   UNL A   1      45.698  27.790  32.922  1.00  0.00     0.049 A 
ATOM     58  H   UNL A   1      43.880  28.345  32.007  1.00  0.00     0.167 HD
ATOM     59  C   UNL A   1      45.438  26.176  31.059  1.00  0.00     0.074 A 
ATOM     60  C   UNL A   1      45.899  25.080  30.231  1.00  0.00     0.031 C 
ATOM     61  C   UNL A   1      46.118  26.665  32.126  1.00  0.00     0.034 A 
BRANCH  48  62
ATOM     62  C   UNL A   1      43.470  31.595  34.750  1.00  0.00     0.023 A 
ATOM     63  C   UNL A   1      44.223  32.755  34.478  1.00  0.00     0.012 A 
ATOM     64  C   UNL A   1      42.763  31.499  35.964  1.00  0.00     0.148 A 
ATOM     65  C   UNL A   1      44.299  33.789  35.410  1.00  0.00     0.002 A 
ATOM     66  C   UNL A   1      42.814  32.549  36.874  1.00  0.00     0.091 A 
ATOM     67  F   UNL A   1      42.068  30.380  36.214  1.00  0.00    -0.205 F 
ATOM     68  C   UNL A   1      43.587  33.690  36.603  1.00  0.00     0.022 A 
BRANCH  66  69
ATOM     69  S   UNL A   1      41.878  32.546  38.407  1.00  0.00     0.127 S 
ATOM     70  O   UNL A   1      42.565  31.505  39.171  1.00  0.00    -0.237 OA
ATOM     71  O   UNL A   1      42.088  33.906  38.905  1.00  0.00    -0.237 OA
ATOM     72  O   UNL A   1      40.502  32.247  38.034  1.00  0.00    -0.744 OA
ENDBRANCH  66  69
ENDBRANCH  48  62
BRANCH  49  73
ATOM     73  C   UNL A   1      42.720  24.819  27.457  1.00  0.00     0.023 A 
ATOM     74  C   UNL A   1      43.295  25.119  26.207  1.00  0.00     0.012 A 
ATOM     75  C   UNL A   1      42.104  23.567  27.646  1.00  0.00     0.148 A 
ATOM     76  C   UNL A   1      43.236  24.201  25.158  1.00  0.00     0.002 A 
ATOM     77  C   UNL A   1      42.094  22.637  26.612  1.00  0.00     0.091 A 
ATOM     78  F   UNL A   1      41.546  23.305  28.838  1.00  0.00    -0.205 F 
ATOM     79  C   UNL A   1      42.646  22.957  25.363  1.00  0.00     0.022 A 
BRANCH  77  80
ATOM     80  S   UNL A   1      41.476  20.964  26.837  1.00  0.00     0.127 S 
ATOM     81  O   UNL A   1      40.064  21.201  27.119  1.00  0.00    -0.237 OA
ATOM     82  O   UNL A   1      41.752  20.357  25.535  1.00  0.00    -0.237 OA
ATOM     83  O   UNL A   1      42.262  20.407  27.931  1.00  0.00    -0.744 OA
ENDBRANCH  77  80
ENDBRANCH  49  73
BRANCH  61  84
ATOM     84  C   UNL A   1      47.427  26.011  32.479  1.00  0.00     0.023 A 
ATOM     85  C   UNL A   1      48.617  26.474  31.881  1.00  0.00     0.012 A 
ATOM     86  C   UNL A   1      47.491  25.000  33.457  1.00  0.00     0.148 A 
ATOM     87  C   UNL A   1      49.848  25.922  32.233  1.00  0.00     0.002 A 
ATOM     88  C   UNL A   1      48.727  24.485  33.834  1.00  0.00     0.091 A 
ATOM     89  F   UNL A   1      46.347  24.556  33.996  1.00  0.00    -0.205 F 
ATOM     90  C   UNL A   1      49.904  24.938  33.217  1.00  0.00     0.022 A 
BRANCH  88  91
ATOM     91  S   UNL A   1      48.898  23.279  35.156  1.00  0.00     0.127 S 
ATOM     92  O   UNL A   1      48.314  23.994  36.289  1.00  0.00    -0.237 OA
ATOM     93  O   UNL A   1      48.095  22.159  34.665  1.00  0.00    -0.237 OA
ATOM     94  O   UNL A   1      50.323  22.998  35.254  1.00  0.00    -0.744 OA
ENDBRANCH  88  91
ENDBRANCH  61  84
ENDBRANCH  35  36
ENDBRANCH  27  30
ENDBRANCH  25  26
ENDBRANCH  24  25
ENDBRANCH   1  24
TORSDOF 18
ENDMDL
