MODEL 1
REMARK VINA RESULT:     -11.3      0.000      0.000
REMARK SMILES C=CC[N@@H+](CC(=O)NCCCCNC(=O)c1ccc(-c2c3nc(c(-c4cccc(S(=O)(=O)[O-])c4F)c4ccc([nH]4)c(-c4cccc(S(=O)(=O)[O-])c4F)c4nc(c(-c5cccc(S(=O)(=O)[O-])c5F)c5ccc2[nH]5)C=C4)C=C3)cc1)C1CCCCC1
REMARK SMILES IDX 10 1 9 2 8 3 6 4 7 5 5 7 4 8 3 10 2 11 1 12 79 13 80 14
REMARK SMILES IDX 84 15 81 16 83 17 82 18 11 19 12 20 13 21 14 22 15 24 16 25
REMARK SMILES IDX 17 26 78 27 18 28 77 29 19 30 20 31 21 32 71 33 22 34 76 35
REMARK SMILES IDX 70 36 72 37 23 38 75 39 69 40 68 41 24 43 56 44 36 45 55 46
REMARK SMILES IDX 37 47 40 48 54 49 73 50 38 51 39 52 53 54 74 55 41 56 25 57
REMARK SMILES IDX 26 58 34 59 27 60 29 61 35 62 28 63 30 64 31 65 32 66 33 67
REMARK SMILES IDX 57 68 58 69 66 70 59 71 61 72 67 73 60 74 62 75 63 76 64 77
REMARK SMILES IDX 65 78 42 79 43 80 51 81 44 82 46 83 52 84 45 85 47 86 48 87
REMARK SMILES IDX 49 88 50 89
REMARK H PARENT 8 6 4 9 13 23 72 42 40 53
REMARK Flexibility Score: inf
ROOT
ATOM      1  C   UNL A   1      31.336  28.862  23.480  1.00  0.00     0.023 C 
ENDROOT
BRANCH   1   2
ATOM      2  C   UNL A   1      30.928  27.478  22.973  1.00  0.00     0.116 C 
BRANCH   2   3
ATOM      3  N   UNL A   1      31.736  27.050  21.853  1.00  0.00    -0.351 N 
ATOM      4  C   UNL A   1      32.838  26.244  21.818  1.00  0.00     0.275 C 
ATOM      5  O   UNL A   1      33.318  25.995  20.707  1.00  0.00    -0.269 OA
ATOM      6  H   UNL A   1      31.447  27.395  20.977  1.00  0.00     0.163 HD
BRANCH   4   7
ATOM      7  C   UNL A   1      33.434  25.623  23.087  1.00  0.00     0.364 C 
BRANCH   7   8
ATOM      8  N   UNL A   1      33.542  24.148  23.131  1.00  0.00    -0.321 N 
ATOM      9  H   UNL A   1      34.062  23.937  22.279  1.00  0.00     0.349 HD
BRANCH   8  10
ATOM     10  C   UNL A   1      32.272  23.466  22.928  1.00  0.00     0.291 C 
BRANCH  10  11
ATOM     11  C   UNL A   1      31.266  23.556  24.038  1.00  0.00     0.025 C 
ATOM     12  C   UNL A   1      31.438  23.003  25.247  1.00  0.00     0.010 C 
ENDBRANCH  10  11
ENDBRANCH   8  10
BRANCH   8  13
ATOM     13  C   UNL A   1      34.562  23.521  23.985  1.00  0.00     0.184 C 
ATOM     14  C   UNL A   1      35.722  22.937  23.151  1.00  0.00     0.065 C 
ATOM     15  C   UNL A   1      35.087  24.357  25.169  1.00  0.00     0.065 C 
ATOM     16  C   UNL A   1      36.704  22.161  24.027  1.00  0.00     0.006 C 
ATOM     17  C   UNL A   1      36.114  23.594  26.009  1.00  0.00     0.006 C 
ATOM     18  C   UNL A   1      37.244  23.030  25.156  1.00  0.00     0.000 C 
ENDBRANCH   8  13
ENDBRANCH   7   8
ENDBRANCH   4   7
ENDBRANCH   2   3
ENDBRANCH   1   2
BRANCH   1  19
ATOM     19  C   UNL A   1      32.797  29.029  23.865  1.00  0.00     0.023 C 
BRANCH  19  20
ATOM     20  C   UNL A   1      33.055  29.142  25.356  1.00  0.00     0.116 C 
BRANCH  20  21
ATOM     21  N   UNL A   1      32.366  30.261  25.995  1.00  0.00    -0.352 N 
ATOM     22  C   UNL A   1      32.855  31.107  26.966  1.00  0.00     0.251 C 
ATOM     23  H   UNL A   1      31.444  30.430  25.695  1.00  0.00     0.163 HD
ATOM     24  O   UNL A   1      32.145  31.972  27.468  1.00  0.00    -0.269 OA
BRANCH  22  25
ATOM     25  C   UNL A   1      34.245  30.911  27.420  1.00  0.00     0.039 A 
ATOM     26  C   UNL A   1      35.050  32.027  27.661  1.00  0.00     0.014 A 
ATOM     27  C   UNL A   1      34.683  29.626  27.744  1.00  0.00     0.014 A 
ATOM     28  C   UNL A   1      36.267  31.859  28.324  1.00  0.00     0.010 A 
ATOM     29  C   UNL A   1      35.844  29.476  28.487  1.00  0.00     0.010 A 
ATOM     30  C   UNL A   1      36.648  30.590  28.788  1.00  0.00    -0.014 A 
BRANCH  30  31
ATOM     31  C   UNL A   1      37.883  30.363  29.578  1.00  0.00     0.031 A 
ATOM     32  C   UNL A   1      38.946  29.461  29.013  1.00  0.00     0.074 A 
ATOM     33  C   UNL A   1      37.986  30.834  30.836  1.00  0.00     0.049 A 
ATOM     34  N   UNL A   1      39.979  28.927  29.606  1.00  0.00    -0.248 NA
ATOM     35  C   UNL A   1      38.792  29.063  27.602  1.00  0.00     0.031 C 
ATOM     36  C   UNL A   1      36.991  31.663  31.522  1.00  0.00     0.029 A 
ATOM     37  N   UNL A   1      38.965  30.649  31.780  1.00  0.00    -0.354 N 
ATOM     38  C   UNL A   1      40.553  28.078  28.668  1.00  0.00     0.074 A 
ATOM     39  C   UNL A   1      39.738  28.146  27.475  1.00  0.00     0.031 C 
ATOM     40  C   UNL A   1      37.415  31.921  32.771  1.00  0.00     0.029 A 
ATOM     41  C   UNL A   1      38.691  31.247  32.990  1.00  0.00     0.049 A 
ATOM     42  H   UNL A   1      39.788  30.137  31.608  1.00  0.00     0.167 HD
ATOM     43  C   UNL A   1      41.677  27.332  28.777  1.00  0.00     0.034 A 
ATOM     44  C   UNL A   1      39.389  31.242  34.143  1.00  0.00     0.034 A 
ATOM     45  C   UNL A   1      42.534  27.348  29.927  1.00  0.00     0.049 A 
ATOM     46  C   UNL A   1      40.691  30.488  34.200  1.00  0.00     0.074 A 
ATOM     47  C   UNL A   1      43.734  26.687  30.117  1.00  0.00     0.029 A 
ATOM     48  N   UNL A   1      42.297  28.091  31.074  1.00  0.00    -0.354 N 
ATOM     49  N   UNL A   1      41.271  29.772  33.266  1.00  0.00    -0.248 NA
ATOM     50  C   UNL A   1      41.454  30.568  35.455  1.00  0.00     0.031 C 
ATOM     51  C   UNL A   1      44.234  27.049  31.373  1.00  0.00     0.029 A 
ATOM     52  C   UNL A   1      43.343  27.931  31.963  1.00  0.00     0.049 A 
ATOM     53  H   UNL A   1      41.501  28.650  31.230  1.00  0.00     0.167 HD
ATOM     54  C   UNL A   1      42.484  29.357  33.803  1.00  0.00     0.074 A 
ATOM     55  C   UNL A   1      42.562  29.908  35.140  1.00  0.00     0.031 C 
ATOM     56  C   UNL A   1      43.440  28.572  33.248  1.00  0.00     0.034 A 
BRANCH  43  57
ATOM     57  C   UNL A   1      42.083  26.509  27.585  1.00  0.00     0.023 A 
ATOM     58  C   UNL A   1      42.763  27.130  26.519  1.00  0.00     0.012 A 
ATOM     59  C   UNL A   1      41.826  25.125  27.530  1.00  0.00     0.148 A 
ATOM     60  C   UNL A   1      43.149  26.398  25.399  1.00  0.00     0.002 A 
ATOM     61  C   UNL A   1      42.253  24.393  26.428  1.00  0.00     0.091 A 
ATOM     62  F   UNL A   1      41.155  24.556  28.541  1.00  0.00    -0.205 F 
ATOM     63  C   UNL A   1      42.903  25.029  25.358  1.00  0.00     0.022 A 
BRANCH  61  64
ATOM     64  S   UNL A   1      42.046  22.611  26.316  1.00  0.00     0.127 S 
ATOM     65  O   UNL A   1      42.619  22.330  25.001  1.00  0.00    -0.237 OA
ATOM     66  O   UNL A   1      42.848  22.134  27.444  1.00  0.00    -0.237 OA
ATOM     67  O   UNL A   1      40.617  22.368  26.448  1.00  0.00    -0.744 OA
ENDBRANCH  61  64
ENDBRANCH  43  57
BRANCH  44  68
ATOM     68  C   UNL A   1      38.926  32.054  35.305  1.00  0.00     0.023 A 
ATOM     69  C   UNL A   1      39.061  33.455  35.249  1.00  0.00     0.012 A 
ATOM     70  C   UNL A   1      38.343  31.468  36.444  1.00  0.00     0.148 A 
ATOM     71  C   UNL A   1      38.657  34.256  36.318  1.00  0.00     0.002 A 
ATOM     72  C   UNL A   1      37.898  32.276  37.487  1.00  0.00     0.091 A 
ATOM     73  F   UNL A   1      38.236  30.133  36.492  1.00  0.00    -0.205 F 
ATOM     74  C   UNL A   1      38.067  33.668  37.433  1.00  0.00     0.022 A 
BRANCH  72  75
ATOM     75  S   UNL A   1      37.015  31.602  38.900  1.00  0.00     0.127 S 
ATOM     76  O   UNL A   1      37.978  31.800  39.978  1.00  0.00    -0.237 OA
ATOM     77  O   UNL A   1      35.831  32.459  38.966  1.00  0.00    -0.237 OA
ATOM     78  O   UNL A   1      36.726  30.219  38.541  1.00  0.00    -0.744 OA
ENDBRANCH  72  75
ENDBRANCH  44  68
BRANCH  56  79
ATOM     79  C   UNL A   1      44.687  28.311  34.045  1.00  0.00     0.023 A 
ATOM     80  C   UNL A   1      45.766  29.211  33.963  1.00  0.00     0.012 A 
ATOM     81  C   UNL A   1      44.739  27.242  34.960  1.00  0.00     0.148 A 
ATOM     82  C   UNL A   1      46.887  29.042  34.772  1.00  0.00     0.002 A 
ATOM     83  C   UNL A   1      45.841  27.103  35.792  1.00  0.00     0.091 A 
ATOM     84  F   UNL A   1      43.706  26.387  35.004  1.00  0.00    -0.205 F 
ATOM     85  C   UNL A   1      46.920  27.998  35.696  1.00  0.00     0.022 A 
BRANCH  83  86
ATOM     86  S   UNL A   1      45.925  25.843  37.070  1.00  0.00     0.127 S 
ATOM     87  O   UNL A   1      44.627  25.997  37.725  1.00  0.00    -0.237 OA
ATOM     88  O   UNL A   1      46.073  24.614  36.290  1.00  0.00    -0.237 OA
ATOM     89  O   UNL A   1      47.084  26.180  37.886  1.00  0.00    -0.744 OA
ENDBRANCH  83  86
ENDBRANCH  56  79
ENDBRANCH  30  31
ENDBRANCH  22  25
ENDBRANCH  20  21
ENDBRANCH  19  20
ENDBRANCH   1  19
TORSDOF 18
ENDMDL
MODEL 2
REMARK VINA RESULT:     -11.2      5.328     10.045
REMARK SMILES C=CC[N@@H+](CC(=O)NCCCCNC(=O)c1ccc(-c2c3nc(c(-c4cccc(S(=O)(=O)[O-])c4F)c4ccc([nH]4)c(-c4cccc(S(=O)(=O)[O-])c4F)c4nc(c(-c5cccc(S(=O)(=O)[O-])c5F)c5ccc2[nH]5)C=C4)C=C3)cc1)C1CCCCC1
REMARK SMILES IDX 10 1 9 2 8 3 6 4 7 5 5 7 4 8 3 10 2 11 1 12 79 13 80 14
REMARK SMILES IDX 84 15 81 16 83 17 82 18 11 19 12 20 13 21 14 22 15 24 16 25
REMARK SMILES IDX 17 26 78 27 18 28 77 29 19 30 20 31 21 32 71 33 22 34 76 35
REMARK SMILES IDX 70 36 72 37 23 38 75 39 69 40 68 41 24 43 56 44 36 45 55 46
REMARK SMILES IDX 37 47 40 48 54 49 73 50 38 51 39 52 53 54 74 55 41 56 25 57
REMARK SMILES IDX 26 58 34 59 27 60 29 61 35 62 28 63 30 64 31 65 32 66 33 67
REMARK SMILES IDX 57 68 58 69 66 70 59 71 61 72 67 73 60 74 62 75 63 76 64 77
REMARK SMILES IDX 65 78 42 79 43 80 51 81 44 82 46 83 52 84 45 85 47 86 48 87
REMARK SMILES IDX 49 88 50 89
REMARK H PARENT 8 6 4 9 13 23 72 42 40 53
REMARK Flexibility Score: inf
ROOT
ATOM      1  C   UNL A   1      33.921  22.132  25.009  1.00  0.00     0.023 C 
ENDROOT
BRANCH   1   2
ATOM      2  C   UNL A   1      32.571  21.421  25.113  1.00  0.00     0.116 C 
BRANCH   2   3
ATOM      3  N   UNL A   1      31.823  21.843  26.276  1.00  0.00    -0.351 N 
ATOM      4  C   UNL A   1      31.097  22.978  26.493  1.00  0.00     0.275 C 
ATOM      5  O   UNL A   1      30.507  23.072  27.575  1.00  0.00    -0.269 OA
ATOM      6  H   UNL A   1      31.841  21.212  27.032  1.00  0.00     0.163 HD
BRANCH   4   7
ATOM      7  C   UNL A   1      30.964  24.076  25.431  1.00  0.00     0.364 C 
BRANCH   7   8
ATOM      8  N   UNL A   1      30.654  25.443  25.906  1.00  0.00    -0.321 N 
ATOM      9  H   UNL A   1      30.304  25.276  26.850  1.00  0.00     0.349 HD
BRANCH   8  10
ATOM     10  C   UNL A   1      29.518  26.050  25.227  1.00  0.00     0.291 C 
BRANCH  10  11
ATOM     11  C   UNL A   1      29.666  26.320  23.759  1.00  0.00     0.025 C 
ATOM     12  C   UNL A   1      30.036  27.505  23.251  1.00  0.00     0.010 C 
ENDBRANCH  10  11
ENDBRANCH   8  10
BRANCH   8  13
ATOM     13  C   UNL A   1      31.741  26.305  26.392  1.00  0.00     0.184 C 
ATOM     14  C   UNL A   1      32.918  26.355  25.395  1.00  0.00     0.065 C 
ATOM     15  C   UNL A   1      31.348  27.718  26.868  1.00  0.00     0.065 C 
ATOM     16  C   UNL A   1      34.102  27.131  25.967  1.00  0.00     0.006 C 
ATOM     17  C   UNL A   1      32.549  28.512  27.386  1.00  0.00     0.006 C 
ATOM     18  C   UNL A   1      33.693  28.540  26.379  1.00  0.00     0.000 C 
ENDBRANCH   8  13
ENDBRANCH   7   8
ENDBRANCH   4   7
ENDBRANCH   2   3
ENDBRANCH   1   2
BRANCH   1  19
ATOM     19  C   UNL A   1      34.977  21.713  26.019  1.00  0.00     0.023 C 
BRANCH  19  20
ATOM     20  C   UNL A   1      36.380  22.204  25.715  1.00  0.00     0.116 C 
BRANCH  20  21
ATOM     21  N   UNL A   1      37.348  21.134  25.485  1.00  0.00    -0.352 N 
ATOM     22  C   UNL A   1      38.686  21.124  25.813  1.00  0.00     0.251 C 
ATOM     23  H   UNL A   1      37.002  20.325  25.045  1.00  0.00     0.163 HD
ATOM     24  O   UNL A   1      39.407  20.181  25.504  1.00  0.00    -0.269 OA
BRANCH  22  25
ATOM     25  C   UNL A   1      39.238  22.304  26.506  1.00  0.00     0.039 A 
ATOM     26  C   UNL A   1      40.257  22.130  27.446  1.00  0.00     0.014 A 
ATOM     27  C   UNL A   1      38.841  23.580  26.105  1.00  0.00     0.014 A 
ATOM     28  C   UNL A   1      40.950  23.249  27.914  1.00  0.00     0.010 A 
ATOM     29  C   UNL A   1      39.595  24.676  26.497  1.00  0.00     0.010 A 
ATOM     30  C   UNL A   1      40.658  24.523  27.403  1.00  0.00    -0.014 A 
BRANCH  30  31
ATOM     31  C   UNL A   1      41.421  25.735  27.791  1.00  0.00     0.031 A 
ATOM     32  C   UNL A   1      40.716  26.814  28.567  1.00  0.00     0.074 A 
ATOM     33  C   UNL A   1      42.673  25.932  27.332  1.00  0.00     0.049 A 
ATOM     34  N   UNL A   1      41.090  28.042  28.803  1.00  0.00    -0.248 NA
ATOM     35  C   UNL A   1      39.383  26.479  29.100  1.00  0.00     0.031 C 
ATOM     36  C   UNL A   1      43.440  24.990  26.513  1.00  0.00     0.029 A 
ATOM     37  N   UNL A   1      43.510  27.013  27.460  1.00  0.00    -0.354 N 
ATOM     38  C   UNL A   1      40.015  28.645  29.445  1.00  0.00     0.074 A 
ATOM     39  C   UNL A   1      38.964  27.656  29.537  1.00  0.00     0.031 C 
ATOM     40  C   UNL A   1      44.635  25.530  26.220  1.00  0.00     0.029 A 
ATOM     41  C   UNL A   1      44.707  26.870  26.795  1.00  0.00     0.049 A 
ATOM     42  H   UNL A   1      43.276  27.815  27.979  1.00  0.00     0.167 HD
ATOM     43  C   UNL A   1      39.922  29.899  29.944  1.00  0.00     0.034 A 
ATOM     44  C   UNL A   1      45.738  27.727  26.662  1.00  0.00     0.034 A 
ATOM     45  C   UNL A   1      41.005  30.840  29.939  1.00  0.00     0.049 A 
ATOM     46  C   UNL A   1      45.648  29.079  27.320  1.00  0.00     0.074 A 
ATOM     47  C   UNL A   1      41.044  32.112  30.479  1.00  0.00     0.029 A 
ATOM     48  N   UNL A   1      42.255  30.596  29.390  1.00  0.00    -0.354 N 
ATOM     49  N   UNL A   1      44.660  29.595  28.012  1.00  0.00    -0.248 NA
ATOM     50  C   UNL A   1      46.823  29.955  27.209  1.00  0.00     0.031 C 
ATOM     51  C   UNL A   1      42.328  32.630  30.276  1.00  0.00     0.029 A 
ATOM     52  C   UNL A   1      43.083  31.680  29.607  1.00  0.00     0.049 A 
ATOM     53  H   UNL A   1      42.513  29.772  28.917  1.00  0.00     0.167 HD
ATOM     54  C   UNL A   1      45.111  30.831  28.458  1.00  0.00     0.074 A 
ATOM     55  C   UNL A   1      46.465  30.985  27.966  1.00  0.00     0.031 C 
ATOM     56  C   UNL A   1      44.459  31.766  29.191  1.00  0.00     0.034 A 
BRANCH  43  57
ATOM     57  C   UNL A   1      38.631  30.287  30.614  1.00  0.00     0.023 A 
ATOM     58  C   UNL A   1      38.432  29.953  31.968  1.00  0.00     0.012 A 
ATOM     59  C   UNL A   1      37.636  31.005  29.924  1.00  0.00     0.148 A 
ATOM     60  C   UNL A   1      37.247  30.294  32.617  1.00  0.00     0.002 A 
ATOM     61  C   UNL A   1      36.474  31.378  30.590  1.00  0.00     0.091 A 
ATOM     62  F   UNL A   1      37.832  31.290  28.628  1.00  0.00    -0.205 F 
ATOM     63  C   UNL A   1      36.273  31.014  31.931  1.00  0.00     0.022 A 
BRANCH  61  64
ATOM     64  S   UNL A   1      35.194  32.370  29.812  1.00  0.00     0.127 S 
ATOM     65  O   UNL A   1      34.293  32.623  30.936  1.00  0.00    -0.237 OA
ATOM     66  O   UNL A   1      35.943  33.543  29.357  1.00  0.00    -0.237 OA
ATOM     67  O   UNL A   1      34.650  31.549  28.740  1.00  0.00    -0.744 OA
ENDBRANCH  61  64
ENDBRANCH  43  57
BRANCH  44  68
ATOM     68  C   UNL A   1      46.985  27.301  25.963  1.00  0.00     0.023 A 
ATOM     69  C   UNL A   1      47.119  27.578  24.589  1.00  0.00     0.012 A 
ATOM     70  C   UNL A   1      48.036  26.651  26.636  1.00  0.00     0.148 A 
ATOM     71  C   UNL A   1      48.260  27.185  23.888  1.00  0.00     0.002 A 
ATOM     72  C   UNL A   1      49.192  26.305  25.942  1.00  0.00     0.091 A 
ATOM     73  F   UNL A   1      47.889  26.380  27.940  1.00  0.00    -0.205 F 
ATOM     74  C   UNL A   1      49.300  26.557  24.566  1.00  0.00     0.022 A 
BRANCH  72  75
ATOM     75  S   UNL A   1      50.626  25.607  26.772  1.00  0.00     0.127 S 
ATOM     76  O   UNL A   1      51.525  25.349  25.653  1.00  0.00    -0.237 OA
ATOM     77  O   UNL A   1      51.038  26.700  27.654  1.00  0.00    -0.237 OA
ATOM     78  O   UNL A   1      50.121  24.435  27.476  1.00  0.00    -0.744 OA
ENDBRANCH  72  75
ENDBRANCH  44  68
BRANCH  56  79
ATOM     79  C   UNL A   1      45.208  33.011  29.572  1.00  0.00     0.023 A 
ATOM     80  C   UNL A   1      45.984  33.025  30.746  1.00  0.00     0.012 A 
ATOM     81  C   UNL A   1      45.235  34.122  28.705  1.00  0.00     0.148 A 
ATOM     82  C   UNL A   1      46.768  34.133  31.059  1.00  0.00     0.002 A 
ATOM     83  C   UNL A   1      46.049  35.206  29.004  1.00  0.00     0.091 A 
ATOM     84  F   UNL A   1      44.470  34.091  27.604  1.00  0.00    -0.205 F 
ATOM     85  C   UNL A   1      46.811  35.217  30.184  1.00  0.00     0.022 A 
BRANCH  83  86
ATOM     86  S   UNL A   1      46.234  36.601  27.888  1.00  0.00     0.127 S 
ATOM     87  O   UNL A   1      47.194  37.435  28.610  1.00  0.00    -0.237 OA
ATOM     88  O   UNL A   1      46.763  35.968  26.679  1.00  0.00    -0.237 OA
ATOM     89  O   UNL A   1      44.901  37.169  27.735  1.00  0.00    -0.744 OA
ENDBRANCH  83  86
ENDBRANCH  56  79
ENDBRANCH  30  31
ENDBRANCH  22  25
ENDBRANCH  20  21
ENDBRANCH  19  20
ENDBRANCH   1  19
TORSDOF 18
ENDMDL
MODEL 3
REMARK VINA RESULT:     -11.0      1.681      7.971
REMARK SMILES C=CC[N@@H+](CC(=O)NCCCCNC(=O)c1ccc(-c2c3nc(c(-c4cccc(S(=O)(=O)[O-])c4F)c4ccc([nH]4)c(-c4cccc(S(=O)(=O)[O-])c4F)c4nc(c(-c5cccc(S(=O)(=O)[O-])c5F)c5ccc2[nH]5)C=C4)C=C3)cc1)C1CCCCC1
REMARK SMILES IDX 10 1 9 2 8 3 6 4 7 5 5 7 4 8 3 10 2 11 1 12 79 13 80 14
REMARK SMILES IDX 84 15 81 16 83 17 82 18 11 19 12 20 13 21 14 22 15 24 16 25
REMARK SMILES IDX 17 26 78 27 18 28 77 29 19 30 20 31 21 32 71 33 22 34 76 35
REMARK SMILES IDX 70 36 72 37 23 38 75 39 69 40 68 41 24 43 56 44 36 45 55 46
REMARK SMILES IDX 37 47 40 48 54 49 73 50 38 51 39 52 53 54 74 55 41 56 25 57
REMARK SMILES IDX 26 58 34 59 27 60 29 61 35 62 28 63 30 64 31 65 32 66 33 67
REMARK SMILES IDX 57 68 58 69 66 70 59 71 61 72 67 73 60 74 62 75 63 76 64 77
REMARK SMILES IDX 65 78 42 79 43 80 51 81 44 82 46 83 52 84 45 85 47 86 48 87
REMARK SMILES IDX 49 88 50 89
REMARK H PARENT 8 6 4 9 13 23 72 42 40 53
REMARK Flexibility Score: inf
ROOT
ATOM      1  C   UNL A   1      32.282  29.096  23.518  1.00  0.00     0.023 C 
ENDROOT
BRANCH   1   2
ATOM      2  C   UNL A   1      33.458  28.167  23.209  1.00  0.00     0.116 C 
BRANCH   2   3
ATOM      3  N   UNL A   1      33.254  27.421  21.988  1.00  0.00    -0.351 N 
ATOM      4  C   UNL A   1      33.282  26.075  21.763  1.00  0.00     0.275 C 
ATOM      5  O   UNL A   1      33.023  25.690  20.617  1.00  0.00    -0.269 OA
ATOM      6  H   UNL A   1      33.064  27.970  21.193  1.00  0.00     0.163 HD
BRANCH   4   7
ATOM      7  C   UNL A   1      33.568  25.066  22.882  1.00  0.00     0.364 C 
BRANCH   7   8
ATOM      8  N   UNL A   1      32.644  23.918  23.011  1.00  0.00    -0.321 N 
ATOM      9  H   UNL A   1      32.480  23.655  22.039  1.00  0.00     0.349 HD
BRANCH   8  10
ATOM     10  C   UNL A   1      31.319  24.290  23.488  1.00  0.00     0.291 C 
BRANCH  10  11
ATOM     11  C   UNL A   1      31.249  25.049  24.779  1.00  0.00     0.025 C 
ATOM     12  C   UNL A   1      30.708  24.559  25.904  1.00  0.00     0.010 C 
ENDBRANCH  10  11
ENDBRANCH   8  10
BRANCH   8  13
ATOM     13  C   UNL A   1      33.179  22.591  23.348  1.00  0.00     0.184 C 
ATOM     14  C   UNL A   1      34.318  22.683  24.385  1.00  0.00     0.065 C 
ATOM     15  C   UNL A   1      32.154  21.506  23.734  1.00  0.00     0.065 C 
ATOM     16  C   UNL A   1      34.968  21.321  24.623  1.00  0.00     0.006 C 
ATOM     17  C   UNL A   1      32.817  20.158  24.028  1.00  0.00     0.006 C 
ATOM     18  C   UNL A   1      33.938  20.284  25.054  1.00  0.00     0.000 C 
ENDBRANCH   8  13
ENDBRANCH   7   8
ENDBRANCH   4   7
ENDBRANCH   2   3
ENDBRANCH   1   2
BRANCH   1  19
ATOM     19  C   UNL A   1      31.803  29.111  24.961  1.00  0.00     0.023 C 
BRANCH  19  20
ATOM     20  C   UNL A   1      32.822  29.616  25.966  1.00  0.00     0.116 C 
BRANCH  20  21
ATOM     21  N   UNL A   1      32.562  30.971  26.447  1.00  0.00    -0.352 N 
ATOM     22  C   UNL A   1      33.365  31.748  27.252  1.00  0.00     0.251 C 
ATOM     23  H   UNL A   1      31.711  31.376  26.161  1.00  0.00     0.163 HD
ATOM     24  O   UNL A   1      32.996  32.852  27.639  1.00  0.00    -0.269 OA
BRANCH  22  25
ATOM     25  C   UNL A   1      34.665  31.192  27.675  1.00  0.00     0.039 A 
ATOM     26  C   UNL A   1      35.710  32.063  27.993  1.00  0.00     0.014 A 
ATOM     27  C   UNL A   1      34.783  29.819  27.895  1.00  0.00     0.014 A 
ATOM     28  C   UNL A   1      36.847  31.560  28.629  1.00  0.00     0.010 A 
ATOM     29  C   UNL A   1      35.869  29.341  28.612  1.00  0.00     0.010 A 
ATOM     30  C   UNL A   1      36.911  30.205  28.989  1.00  0.00    -0.014 A 
BRANCH  30  31
ATOM     31  C   UNL A   1      38.051  29.632  29.747  1.00  0.00     0.031 A 
ATOM     32  C   UNL A   1      38.300  30.114  31.150  1.00  0.00     0.074 A 
ATOM     33  C   UNL A   1      38.929  28.809  29.142  1.00  0.00     0.049 A 
ATOM     34  N   UNL A   1      39.351  29.948  31.907  1.00  0.00    -0.248 NA
ATOM     35  C   UNL A   1      37.245  30.943  31.761  1.00  0.00     0.031 C 
ATOM     36  C   UNL A   1      38.835  28.323  27.763  1.00  0.00     0.029 A 
ATOM     37  N   UNL A   1      40.102  28.263  29.602  1.00  0.00    -0.354 N 
ATOM     38  C   UNL A   1      39.115  30.708  33.047  1.00  0.00     0.074 A 
ATOM     39  C   UNL A   1      37.835  31.356  32.871  1.00  0.00     0.031 C 
ATOM     40  C   UNL A   1      39.898  27.546  27.493  1.00  0.00     0.029 A 
ATOM     41  C   UNL A   1      40.770  27.509  28.664  1.00  0.00     0.049 A 
ATOM     42  H   UNL A   1      40.435  28.398  30.518  1.00  0.00     0.167 HD
ATOM     43  C   UNL A   1      39.880  30.828  34.156  1.00  0.00     0.034 A 
ATOM     44  C   UNL A   1      41.953  26.868  28.741  1.00  0.00     0.034 A 
ATOM     45  C   UNL A   1      41.100  30.102  34.365  1.00  0.00     0.049 A 
ATOM     46  C   UNL A   1      42.732  26.934  30.028  1.00  0.00     0.074 A 
ATOM     47  C   UNL A   1      41.918  30.094  35.480  1.00  0.00     0.029 A 
ATOM     48  N   UNL A   1      41.660  29.227  33.447  1.00  0.00    -0.354 N 
ATOM     49  N   UNL A   1      42.442  27.576  31.134  1.00  0.00    -0.248 NA
ATOM     50  C   UNL A   1      43.982  26.163  30.092  1.00  0.00     0.031 C 
ATOM     51  C   UNL A   1      42.964  29.195  35.244  1.00  0.00     0.029 A 
ATOM     52  C   UNL A   1      42.795  28.648  33.982  1.00  0.00     0.049 A 
ATOM     53  H   UNL A   1      41.301  29.045  32.549  1.00  0.00     0.167 HD
ATOM     54  C   UNL A   1      43.445  27.249  32.039  1.00  0.00     0.074 A 
ATOM     55  C   UNL A   1      44.347  26.344  31.355  1.00  0.00     0.031 C 
ATOM     56  C   UNL A   1      43.619  27.675  33.313  1.00  0.00     0.034 A 
BRANCH  43  57
ATOM     57  C   UNL A   1      39.369  31.714  35.261  1.00  0.00     0.023 A 
ATOM     58  C   UNL A   1      38.421  31.203  36.169  1.00  0.00     0.012 A 
ATOM     59  C   UNL A   1      39.843  33.030  35.422  1.00  0.00     0.148 A 
ATOM     60  C   UNL A   1      37.924  31.997  37.200  1.00  0.00     0.002 A 
ATOM     61  C   UNL A   1      39.374  33.802  36.479  1.00  0.00     0.091 A 
ATOM     62  F   UNL A   1      40.725  33.508  34.532  1.00  0.00    -0.205 F 
ATOM     63  C   UNL A   1      38.407  33.292  37.360  1.00  0.00     0.022 A 
BRANCH  61  64
ATOM     64  S   UNL A   1      39.991  35.457  36.811  1.00  0.00     0.127 S 
ATOM     65  O   UNL A   1      39.555  36.180  35.618  1.00  0.00    -0.237 OA
ATOM     66  O   UNL A   1      39.275  35.815  38.036  1.00  0.00    -0.237 OA
ATOM     67  O   UNL A   1      41.431  35.319  36.974  1.00  0.00    -0.744 OA
ENDBRANCH  61  64
ENDBRANCH  43  57
BRANCH  44  68
ATOM     68  C   UNL A   1      42.427  26.025  27.605  1.00  0.00     0.023 A 
ATOM     69  C   UNL A   1      43.316  26.589  26.669  1.00  0.00     0.012 A 
ATOM     70  C   UNL A   1      42.031  24.684  27.451  1.00  0.00     0.148 A 
ATOM     71  C   UNL A   1      43.775  25.845  25.581  1.00  0.00     0.002 A 
ATOM     72  C   UNL A   1      42.530  23.933  26.390  1.00  0.00     0.091 A 
ATOM     73  F   UNL A   1      41.172  24.165  28.339  1.00  0.00    -0.205 F 
ATOM     74  C   UNL A   1      43.390  24.515  25.446  1.00  0.00     0.022 A 
BRANCH  72  75
ATOM     75  S   UNL A   1      42.179  22.178  26.221  1.00  0.00     0.127 S 
ATOM     76  O   UNL A   1      42.963  21.827  25.042  1.00  0.00    -0.237 OA
ATOM     77  O   UNL A   1      42.687  21.635  27.482  1.00  0.00    -0.237 OA
ATOM     78  O   UNL A   1      40.731  22.093  26.080  1.00  0.00    -0.744 OA
ENDBRANCH  72  75
ENDBRANCH  44  68
BRANCH  56  79
ATOM     79  C   UNL A   1      44.783  27.123  34.088  1.00  0.00     0.023 A 
ATOM     80  C   UNL A   1      46.012  27.807  34.078  1.00  0.00     0.012 A 
ATOM     81  C   UNL A   1      44.618  25.996  34.917  1.00  0.00     0.148 A 
ATOM     82  C   UNL A   1      47.069  27.368  34.873  1.00  0.00     0.002 A 
ATOM     83  C   UNL A   1      45.662  25.588  35.737  1.00  0.00     0.091 A 
ATOM     84  F   UNL A   1      43.442  25.351  34.892  1.00  0.00    -0.205 F 
ATOM     85  C   UNL A   1      46.890  26.269  35.712  1.00  0.00     0.022 A 
BRANCH  83  86
ATOM     86  S   UNL A   1      45.487  24.241  36.912  1.00  0.00     0.127 S 
ATOM     87  O   UNL A   1      44.453  24.758  37.806  1.00  0.00    -0.237 OA
ATOM     88  O   UNL A   1      45.057  23.133  36.057  1.00  0.00    -0.237 OA
ATOM     89  O   UNL A   1      46.803  24.062  37.511  1.00  0.00    -0.744 OA
ENDBRANCH  83  86
ENDBRANCH  56  79
ENDBRANCH  30  31
ENDBRANCH  22  25
ENDBRANCH  20  21
ENDBRANCH  19  20
ENDBRANCH   1  19
TORSDOF 18
ENDMDL
