MODEL 1
REMARK VINA RESULT:     -13.1      0.000      0.000
REMARK SMILES O=C(NCCCCNC(=O)c1cc(N2C(=O)C[C@H](Nc3ccccc3O)C2=O)ccc1O)c1ccc(-c2c3nc(c(-c4cccc(S(=O)(=O)[O-])c4F)c4ccc([nH]4)c(-c4cccc(S(=O)(=O)[O-])c4F)c4nc(c(-c5cccc(S(=O)(=O)[O-])c5F)c5ccc2[nH]5)C=C4)C=C3)cc1
REMARK SMILES IDX 6 1 5 2 4 3 3 4 1 5 2 6 33 8 34 9 95 10 35 11 94 12 36 13
REMARK SMILES IDX 37 14 38 15 88 16 39 17 93 18 87 19 89 20 40 21 92 22 86 23
REMARK SMILES IDX 85 24 41 26 73 27 53 28 72 29 54 30 57 31 71 32 90 33 55 34
REMARK SMILES IDX 56 35 70 37 91 38 58 39 42 40 43 41 51 42 44 43 46 44 52 45
REMARK SMILES IDX 45 46 47 47 48 48 49 49 50 50 74 51 75 52 83 53 76 54 78 55
REMARK SMILES IDX 84 56 77 57 79 58 80 59 81 60 82 61 59 62 60 63 68 64 61 65
REMARK SMILES IDX 63 66 69 67 62 68 64 69 65 70 66 71 67 72 7 73 8 74 9 75
REMARK SMILES IDX 10 77 11 78 12 79 31 80 13 81 30 82 29 83 32 84 14 86 15 87
REMARK SMILES IDX 27 88 16 89 17 90 18 91 28 92 19 93 20 95 21 96 25 97 22 98
REMARK SMILES IDX 24 99 23 100 26 101
REMARK H PARENT 3 7 89 25 57 36 8 76 32 85 19 94 26 102
REMARK Flexibility Score: inf
ROOT
ATOM      1  C   UNL A   1      31.540  28.917  25.040  1.00  0.00     0.023 C 
ENDROOT
BRANCH   1   2
ATOM      2  C   UNL A   1      32.393  30.061  25.582  1.00  0.00     0.023 C 
BRANCH   2   3
ATOM      3  C   UNL A   1      31.978  30.585  26.952  1.00  0.00     0.116 C 
BRANCH   3   4
ATOM      4  N   UNL A   1      31.960  32.039  27.029  1.00  0.00    -0.352 N 
ATOM      5  O   UNL A   1      32.654  34.097  27.634  1.00  0.00    -0.269 OA
ATOM      6  C   UNL A   1      32.905  32.900  27.538  1.00  0.00     0.251 C 
ATOM      7  H   UNL A   1      31.152  32.468  26.663  1.00  0.00     0.163 HD
BRANCH   6   8
ATOM      8  C   UNL A   1      34.202  32.364  28.005  1.00  0.00     0.039 A 
ATOM      9  C   UNL A   1      34.312  31.032  28.407  1.00  0.00     0.014 A 
ATOM     10  C   UNL A   1      35.307  33.215  28.088  1.00  0.00     0.014 A 
ATOM     11  C   UNL A   1      35.456  30.609  29.072  1.00  0.00     0.010 A 
ATOM     12  C   UNL A   1      36.494  32.754  28.665  1.00  0.00     0.010 A 
ATOM     13  C   UNL A   1      36.561  31.465  29.214  1.00  0.00    -0.014 A 
BRANCH  13  14
ATOM     14  C   UNL A   1      37.774  30.969  29.919  1.00  0.00     0.031 A 
ATOM     15  C   UNL A   1      38.074  31.362  31.342  1.00  0.00     0.074 A 
ATOM     16  C   UNL A   1      38.598  30.122  29.268  1.00  0.00     0.049 A 
ATOM     17  N   UNL A   1      39.047  30.957  32.117  1.00  0.00    -0.248 NA
ATOM     18  C   UNL A   1      37.177  32.342  31.977  1.00  0.00     0.031 C 
ATOM     19  C   UNL A   1      38.440  29.703  27.873  1.00  0.00     0.029 A 
ATOM     20  N   UNL A   1      39.717  29.452  29.691  1.00  0.00    -0.354 N 
ATOM     21  C   UNL A   1      38.914  31.663  33.307  1.00  0.00     0.074 A 
ATOM     22  C   UNL A   1      37.765  32.530  33.152  1.00  0.00     0.031 C 
ATOM     23  C   UNL A   1      39.395  28.812  27.571  1.00  0.00     0.029 A 
ATOM     24  C   UNL A   1      40.261  28.634  28.730  1.00  0.00     0.049 A 
ATOM     25  H   UNL A   1      40.093  29.546  30.597  1.00  0.00     0.167 HD
ATOM     26  C   UNL A   1      39.667  31.586  34.430  1.00  0.00     0.034 A 
ATOM     27  C   UNL A   1      41.339  27.827  28.771  1.00  0.00     0.034 A 
ATOM     28  C   UNL A   1      40.772  30.681  34.603  1.00  0.00     0.049 A 
ATOM     29  C   UNL A   1      42.119  27.720  30.050  1.00  0.00     0.074 A 
ATOM     30  C   UNL A   1      41.545  30.472  35.733  1.00  0.00     0.029 A 
ATOM     31  N   UNL A   1      41.265  29.834  33.622  1.00  0.00    -0.354 N 
ATOM     32  N   UNL A   1      41.891  28.296  31.205  1.00  0.00    -0.248 NA
ATOM     33  C   UNL A   1      43.289  26.832  30.040  1.00  0.00     0.031 C 
ATOM     34  C   UNL A   1      42.515  29.510  35.429  1.00  0.00     0.029 A 
ATOM     35  C   UNL A   1      42.335  29.106  34.117  1.00  0.00     0.049 A 
ATOM     36  H   UNL A   1      40.905  29.760  32.708  1.00  0.00     0.167 HD
ATOM     37  C   UNL A   1      42.871  27.820  32.067  1.00  0.00     0.074 A 
ATOM     38  C   UNL A   1      43.678  26.887  31.306  1.00  0.00     0.031 C 
ATOM     39  C   UNL A   1      43.096  28.141  33.365  1.00  0.00     0.034 A 
BRANCH  26  40
ATOM     40  C   UNL A   1      39.298  32.477  35.591  1.00  0.00     0.023 A 
ATOM     41  C   UNL A   1      38.490  31.972  36.629  1.00  0.00     0.012 A 
ATOM     42  C   UNL A   1      39.813  33.787  35.689  1.00  0.00     0.148 A 
ATOM     43  C   UNL A   1      38.177  32.764  37.734  1.00  0.00     0.002 A 
ATOM     44  C   UNL A   1      39.527  34.555  36.814  1.00  0.00     0.091 A 
ATOM     45  F   UNL A   1      40.561  34.258  34.683  1.00  0.00    -0.205 F 
ATOM     46  C   UNL A   1      38.703  34.049  37.832  1.00  0.00     0.022 A 
BRANCH  44  47
ATOM     47  S   UNL A   1      40.223  36.194  37.062  1.00  0.00     0.127 S 
ATOM     48  O   UNL A   1      41.640  35.888  37.253  1.00  0.00    -0.237 OA
ATOM     49  O   UNL A   1      39.908  36.860  35.797  1.00  0.00    -0.237 OA
ATOM     50  O   UNL A   1      39.535  36.746  38.221  1.00  0.00    -0.744 OA
ENDBRANCH  44  47
ENDBRANCH  26  40
BRANCH  27  51
ATOM     51  C   UNL A   1      41.690  27.005  27.581  1.00  0.00     0.023 A 
ATOM     52  C   UNL A   1      42.335  27.615  26.487  1.00  0.00     0.012 A 
ATOM     53  C   UNL A   1      41.443  25.620  27.546  1.00  0.00     0.148 A 
ATOM     54  C   UNL A   1      42.707  26.864  25.373  1.00  0.00     0.002 A 
ATOM     55  C   UNL A   1      41.869  24.867  26.460  1.00  0.00     0.091 A 
ATOM     56  F   UNL A   1      40.811  25.061  28.589  1.00  0.00    -0.205 F 
ATOM     57  C   UNL A   1      42.487  25.489  25.364  1.00  0.00     0.022 A 
BRANCH  55  58
ATOM     58  S   UNL A   1      41.756  23.074  26.438  1.00  0.00     0.127 S 
ATOM     59  O   UNL A   1      42.465  22.715  27.663  1.00  0.00    -0.237 OA
ATOM     60  O   UNL A   1      40.308  22.859  26.478  1.00  0.00    -0.237 OA
ATOM     61  O   UNL A   1      42.384  22.661  25.191  1.00  0.00    -0.744 OA
ENDBRANCH  55  58
ENDBRANCH  27  51
BRANCH  39  62
ATOM     62  C   UNL A   1      44.246  27.460  34.056  1.00  0.00     0.023 A 
ATOM     63  C   UNL A   1      45.533  28.030  33.995  1.00  0.00     0.012 A 
ATOM     64  C   UNL A   1      44.043  26.289  34.812  1.00  0.00     0.148 A 
ATOM     65  C   UNL A   1      46.607  27.426  34.645  1.00  0.00     0.002 A 
ATOM     66  C   UNL A   1      45.110  25.718  35.495  1.00  0.00     0.091 A 
ATOM     67  F   UNL A   1      42.817  25.747  34.840  1.00  0.00    -0.205 F 
ATOM     68  C   UNL A   1      46.394  26.277  35.404  1.00  0.00     0.022 A 
BRANCH  66  69
ATOM     69  S   UNL A   1      44.900  24.292  36.567  1.00  0.00     0.127 S 
ATOM     70  O   UNL A   1      44.088  24.847  37.648  1.00  0.00    -0.237 OA
ATOM     71  O   UNL A   1      44.197  23.345  35.700  1.00  0.00    -0.237 OA
ATOM     72  O   UNL A   1      46.247  23.876  36.939  1.00  0.00    -0.744 OA
ENDBRANCH  66  69
ENDBRANCH  39  62
ENDBRANCH  13  14
ENDBRANCH   6   8
ENDBRANCH   3   4
ENDBRANCH   2   3
ENDBRANCH   1   2
BRANCH   1  73
ATOM     73  C   UNL A   1      31.335  28.925  23.530  1.00  0.00     0.116 C 
BRANCH  73  74
ATOM     74  N   UNL A   1      32.580  29.102  22.807  1.00  0.00    -0.352 N 
ATOM     75  C   UNL A   1      33.414  28.130  22.323  1.00  0.00     0.255 C 
ATOM     76  H   UNL A   1      32.858  30.033  22.645  1.00  0.00     0.163 HD
ATOM     77  O   UNL A   1      34.481  28.420  21.786  1.00  0.00    -0.269 OA
BRANCH  75  78
ATOM     78  C   UNL A   1      33.066  26.711  22.508  1.00  0.00     0.083 A 
ATOM     79  C   UNL A   1      33.935  25.939  23.288  1.00  0.00     0.044 A 
ATOM     80  C   UNL A   1      31.957  26.126  21.896  1.00  0.00     0.128 A 
ATOM     81  C   UNL A   1      33.720  24.564  23.446  1.00  0.00     0.053 A 
ATOM     82  C   UNL A   1      31.715  24.767  22.066  1.00  0.00     0.049 A 
ATOM     83  C   UNL A   1      32.602  23.990  22.822  1.00  0.00     0.031 A 
BRANCH  80  84
ATOM     84  O   UNL A   1      31.107  26.879  21.138  1.00  0.00    -0.507 OA
ATOM     85  H   UNL A   1      30.667  27.614  21.518  1.00  0.00     0.293 HD
ENDBRANCH  80  84
BRANCH  81  86
ATOM     86  N   UNL A   1      34.638  23.781  24.191  1.00  0.00    -0.249 N 
ATOM     87  C   UNL A   1      35.713  23.121  23.655  1.00  0.00     0.236 C 
ATOM     88  C   UNL A   1      34.522  23.561  25.545  1.00  0.00     0.256 C 
ATOM     89  O   UNL A   1      36.047  23.043  22.478  1.00  0.00    -0.274 OA
ATOM     90  C   UNL A   1      36.542  22.541  24.758  1.00  0.00     0.136 C 
ATOM     91  C   UNL A   1      35.716  22.743  26.015  1.00  0.00     0.179 C 
ATOM     92  O   UNL A   1      33.562  23.850  26.252  1.00  0.00    -0.272 OA
BRANCH  91  93
ATOM     93  N   UNL A   1      35.303  21.434  26.547  1.00  0.00    -0.370 N 
ATOM     94  H   UNL A   1      35.549  21.149  27.457  1.00  0.00     0.161 HD
BRANCH  93  95
ATOM     95  C   UNL A   1      34.545  20.609  25.703  1.00  0.00     0.077 A 
ATOM     96  C   UNL A   1      33.157  20.770  25.671  1.00  0.00     0.029 A 
ATOM     97  C   UNL A   1      35.097  19.510  25.021  1.00  0.00     0.138 A 
ATOM     98  C   UNL A   1      32.350  19.892  24.941  1.00  0.00     0.002 A 
ATOM     99  C   UNL A   1      34.300  18.625  24.297  1.00  0.00     0.048 A 
ATOM    100  C   UNL A   1      32.922  18.820  24.255  1.00  0.00     0.004 A 
BRANCH  97 101
ATOM    101  O   UNL A   1      36.448  19.303  25.091  1.00  0.00    -0.506 OA
ATOM    102  H   UNL A   1      36.786  18.582  25.584  1.00  0.00     0.293 HD
ENDBRANCH  97 101
ENDBRANCH  93  95
ENDBRANCH  91  93
ENDBRANCH  81  86
ENDBRANCH  75  78
ENDBRANCH  73  74
ENDBRANCH   1  73
TORSDOF 19
ENDMDL
MODEL 2
REMARK VINA RESULT:     -13.0      2.008      2.625
REMARK SMILES O=C(NCCCCNC(=O)c1cc(N2C(=O)C[C@H](Nc3ccccc3O)C2=O)ccc1O)c1ccc(-c2c3nc(c(-c4cccc(S(=O)(=O)[O-])c4F)c4ccc([nH]4)c(-c4cccc(S(=O)(=O)[O-])c4F)c4nc(c(-c5cccc(S(=O)(=O)[O-])c5F)c5ccc2[nH]5)C=C4)C=C3)cc1
REMARK SMILES IDX 6 1 5 2 4 3 3 4 1 5 2 6 33 8 34 9 95 10 35 11 94 12 36 13
REMARK SMILES IDX 37 14 38 15 88 16 39 17 93 18 87 19 89 20 40 21 92 22 86 23
REMARK SMILES IDX 85 24 41 26 73 27 53 28 72 29 54 30 57 31 71 32 90 33 55 34
REMARK SMILES IDX 56 35 70 37 91 38 58 39 42 40 43 41 51 42 44 43 46 44 52 45
REMARK SMILES IDX 45 46 47 47 48 48 49 49 50 50 74 51 75 52 83 53 76 54 78 55
REMARK SMILES IDX 84 56 77 57 79 58 80 59 81 60 82 61 59 62 60 63 68 64 61 65
REMARK SMILES IDX 63 66 69 67 62 68 64 69 65 70 66 71 67 72 7 73 8 74 9 75
REMARK SMILES IDX 10 77 11 78 12 79 31 80 13 81 30 82 29 83 32 84 14 86 15 87
REMARK SMILES IDX 27 88 16 89 17 90 18 91 28 92 19 93 20 95 21 96 25 97 22 98
REMARK SMILES IDX 24 99 23 100 26 101
REMARK H PARENT 3 7 89 25 57 36 8 76 32 85 19 94 26 102
REMARK Flexibility Score: inf
ROOT
ATOM      1  C   UNL A   1      31.754  29.897  26.691  1.00  0.00     0.023 C 
ENDROOT
BRANCH   1   2
ATOM      2  C   UNL A   1      31.825  31.410  26.501  1.00  0.00     0.023 C 
BRANCH   2   3
ATOM      3  C   UNL A   1      32.974  32.100  27.226  1.00  0.00     0.116 C 
BRANCH   3   4
ATOM      4  N   UNL A   1      32.674  33.475  27.598  1.00  0.00    -0.352 N 
ATOM      5  O   UNL A   1      32.794  35.374  28.808  1.00  0.00    -0.269 OA
ATOM      6  C   UNL A   1      33.271  34.275  28.545  1.00  0.00     0.251 C 
ATOM      7  H   UNL A   1      31.935  33.893  27.099  1.00  0.00     0.163 HD
BRANCH   6   8
ATOM      8  C   UNL A   1      34.464  33.782  29.267  1.00  0.00     0.039 A 
ATOM      9  C   UNL A   1      35.743  34.175  28.871  1.00  0.00     0.014 A 
ATOM     10  C   UNL A   1      34.303  32.876  30.320  1.00  0.00     0.014 A 
ATOM     11  C   UNL A   1      36.853  33.518  29.389  1.00  0.00     0.010 A 
ATOM     12  C   UNL A   1      35.429  32.294  30.910  1.00  0.00     0.010 A 
ATOM     13  C   UNL A   1      36.711  32.566  30.411  1.00  0.00    -0.014 A 
BRANCH  13  14
ATOM     14  C   UNL A   1      37.926  31.896  30.950  1.00  0.00     0.031 A 
ATOM     15  C   UNL A   1      38.449  32.203  32.328  1.00  0.00     0.074 A 
ATOM     16  C   UNL A   1      38.544  30.971  30.187  1.00  0.00     0.049 A 
ATOM     17  N   UNL A   1      39.449  31.652  32.968  1.00  0.00    -0.248 NA
ATOM     18  C   UNL A   1      37.775  33.271  33.086  1.00  0.00     0.031 C 
ATOM     19  C   UNL A   1      38.161  30.619  28.818  1.00  0.00     0.029 A 
ATOM     20  N   UNL A   1      39.609  30.149  30.455  1.00  0.00    -0.354 N 
ATOM     21  C   UNL A   1      39.558  32.332  34.175  1.00  0.00     0.074 A 
ATOM     22  C   UNL A   1      38.524  33.344  34.180  1.00  0.00     0.031 C 
ATOM     23  C   UNL A   1      38.945  29.623  28.384  1.00  0.00     0.029 A 
ATOM     24  C   UNL A   1      39.917  29.298  29.421  1.00  0.00     0.049 A 
ATOM     25  H   UNL A   1      40.103  30.166  31.307  1.00  0.00     0.167 HD
ATOM     26  C   UNL A   1      40.428  32.124  35.193  1.00  0.00     0.034 A 
ATOM     27  C   UNL A   1      40.876  28.358  29.314  1.00  0.00     0.034 A 
ATOM     28  C   UNL A   1      41.417  31.079  35.211  1.00  0.00     0.049 A 
ATOM     29  C   UNL A   1      41.788  28.112  30.481  1.00  0.00     0.074 A 
ATOM     30  C   UNL A   1      42.290  30.737  36.230  1.00  0.00     0.029 A 
ATOM     31  N   UNL A   1      41.668  30.206  34.163  1.00  0.00    -0.354 N 
ATOM     32  N   UNL A   1      41.782  28.676  31.664  1.00  0.00    -0.248 NA
ATOM     33  C   UNL A   1      42.820  27.082  30.310  1.00  0.00     0.031 C 
ATOM     34  C   UNL A   1      43.079  29.668  35.792  1.00  0.00     0.029 A 
ATOM     35  C   UNL A   1      42.686  29.332  34.508  1.00  0.00     0.049 A 
ATOM     36  H   UNL A   1      41.192  30.208  33.301  1.00  0.00     0.167 HD
ATOM     37  C   UNL A   1      42.790  28.052  32.387  1.00  0.00     0.074 A 
ATOM     38  C   UNL A   1      43.367  27.046  31.516  1.00  0.00     0.031 C 
ATOM     39  C   UNL A   1      43.214  28.301  33.651  1.00  0.00     0.034 A 
BRANCH  26  40
ATOM     40  C   UNL A   1      40.327  33.019  36.403  1.00  0.00     0.023 A 
ATOM     41  C   UNL A   1      41.049  34.229  36.439  1.00  0.00     0.012 A 
ATOM     42  C   UNL A   1      39.461  32.699  37.470  1.00  0.00     0.148 A 
ATOM     43  C   UNL A   1      40.933  35.093  37.528  1.00  0.00     0.002 A 
ATOM     44  C   UNL A   1      39.322  33.585  38.533  1.00  0.00     0.091 A 
ATOM     45  F   UNL A   1      38.799  31.534  37.430  1.00  0.00    -0.205 F 
ATOM     46  C   UNL A   1      40.063  34.777  38.568  1.00  0.00     0.022 A 
BRANCH  44  47
ATOM     47  S   UNL A   1      38.167  33.299  39.881  1.00  0.00     0.127 S 
ATOM     48  O   UNL A   1      36.918  33.073  39.157  1.00  0.00    -0.237 OA
ATOM     49  O   UNL A   1      38.725  32.106  40.520  1.00  0.00    -0.237 OA
ATOM     50  O   UNL A   1      38.212  34.500  40.704  1.00  0.00    -0.744 OA
ENDBRANCH  44  47
ENDBRANCH  26  40
BRANCH  27  51
ATOM     51  C   UNL A   1      40.966  27.535  28.076  1.00  0.00     0.023 A 
ATOM     52  C   UNL A   1      41.599  28.069  26.937  1.00  0.00     0.012 A 
ATOM     53  C   UNL A   1      40.481  26.214  28.037  1.00  0.00     0.148 A 
ATOM     54  C   UNL A   1      41.729  27.309  25.775  1.00  0.00     0.002 A 
ATOM     55  C   UNL A   1      40.666  25.443  26.896  1.00  0.00     0.091 A 
ATOM     56  F   UNL A   1      39.865  25.730  29.125  1.00  0.00    -0.205 F 
ATOM     57  C   UNL A   1      41.275  25.993  25.758  1.00  0.00     0.022 A 
BRANCH  55  58
ATOM     58  S   UNL A   1      40.244  23.697  26.847  1.00  0.00     0.127 S 
ATOM     59  O   UNL A   1      38.820  23.743  26.527  1.00  0.00    -0.237 OA
ATOM     60  O   UNL A   1      41.103  23.205  25.769  1.00  0.00    -0.237 OA
ATOM     61  O   UNL A   1      40.587  23.179  28.165  1.00  0.00    -0.744 OA
ENDBRANCH  55  58
ENDBRANCH  27  51
BRANCH  39  62
ATOM     62  C   UNL A   1      44.341  27.456  34.181  1.00  0.00     0.023 A 
ATOM     63  C   UNL A   1      45.674  27.874  33.993  1.00  0.00     0.012 A 
ATOM     64  C   UNL A   1      44.081  26.280  34.912  1.00  0.00     0.148 A 
ATOM     65  C   UNL A   1      46.731  27.116  34.494  1.00  0.00     0.002 A 
ATOM     66  C   UNL A   1      45.139  25.555  35.447  1.00  0.00     0.091 A 
ATOM     67  F   UNL A   1      42.808  25.885  35.060  1.00  0.00    -0.205 F 
ATOM     68  C   UNL A   1      46.464  25.964  35.230  1.00  0.00     0.022 A 
BRANCH  66  69
ATOM     69  S   UNL A   1      44.875  24.111  36.483  1.00  0.00     0.127 S 
ATOM     70  O   UNL A   1      46.245  23.715  36.800  1.00  0.00    -0.237 OA
ATOM     71  O   UNL A   1      44.123  24.664  37.611  1.00  0.00    -0.237 OA
ATOM     72  O   UNL A   1      44.119  23.171  35.664  1.00  0.00    -0.744 OA
ENDBRANCH  66  69
ENDBRANCH  39  62
ENDBRANCH  13  14
ENDBRANCH   6   8
ENDBRANCH   3   4
ENDBRANCH   2   3
ENDBRANCH   1   2
BRANCH   1  73
ATOM     73  C   UNL A   1      33.059  29.152  26.435  1.00  0.00     0.116 C 
BRANCH  73  74
ATOM     74  N   UNL A   1      33.589  29.412  25.110  1.00  0.00    -0.352 N 
ATOM     75  C   UNL A   1      33.084  28.993  23.908  1.00  0.00     0.255 C 
ATOM     76  H   UNL A   1      34.409  29.955  25.070  1.00  0.00     0.163 HD
ATOM     77  O   UNL A   1      33.675  29.226  22.857  1.00  0.00    -0.269 OA
BRANCH  75  78
ATOM     78  C   UNL A   1      31.851  28.188  23.876  1.00  0.00     0.083 A 
ATOM     79  C   UNL A   1      31.942  26.866  24.326  1.00  0.00     0.044 A 
ATOM     80  C   UNL A   1      30.648  28.682  23.368  1.00  0.00     0.128 A 
ATOM     81  C   UNL A   1      30.835  26.010  24.251  1.00  0.00     0.053 A 
ATOM     82  C   UNL A   1      29.533  27.851  23.314  1.00  0.00     0.049 A 
ATOM     83  C   UNL A   1      29.634  26.520  23.736  1.00  0.00     0.031 A 
BRANCH  80  84
ATOM     84  O   UNL A   1      30.558  29.972  22.932  1.00  0.00    -0.507 OA
ATOM     85  H   UNL A   1      29.909  30.544  23.293  1.00  0.00     0.293 HD
ENDBRANCH  80  84
BRANCH  81  86
ATOM     86  N   UNL A   1      30.953  24.656  24.657  1.00  0.00    -0.249 N 
ATOM     87  C   UNL A   1      30.659  24.190  25.912  1.00  0.00     0.236 C 
ATOM     88  C   UNL A   1      31.425  23.658  23.833  1.00  0.00     0.256 C 
ATOM     89  O   UNL A   1      30.300  24.828  26.894  1.00  0.00    -0.274 OA
ATOM     90  C   UNL A   1      30.746  22.695  25.921  1.00  0.00     0.136 C 
ATOM     91  C   UNL A   1      31.343  22.330  24.574  1.00  0.00     0.179 C 
ATOM     92  O   UNL A   1      31.949  23.804  22.735  1.00  0.00    -0.272 OA
BRANCH  91  93
ATOM     93  N   UNL A   1      32.676  21.737  24.773  1.00  0.00    -0.370 N 
ATOM     94  H   UNL A   1      33.439  22.280  25.076  1.00  0.00     0.161 HD
BRANCH  93  95
ATOM     95  C   UNL A   1      32.813  20.365  24.510  1.00  0.00     0.077 A 
ATOM     96  C   UNL A   1      32.527  19.893  23.227  1.00  0.00     0.029 A 
ATOM     97  C   UNL A   1      33.053  19.420  25.524  1.00  0.00     0.138 A 
ATOM     98  C   UNL A   1      32.529  18.522  22.951  1.00  0.00     0.002 A 
ATOM     99  C   UNL A   1      33.051  18.051  25.260  1.00  0.00     0.048 A 
ATOM    100  C   UNL A   1      32.790  17.603  23.967  1.00  0.00     0.004 A 
BRANCH  97 101
ATOM    101  O   UNL A   1      33.277  19.864  26.798  1.00  0.00    -0.506 OA
ATOM    102  H   UNL A   1      33.894  20.551  26.954  1.00  0.00     0.293 HD
ENDBRANCH  97 101
ENDBRANCH  93  95
ENDBRANCH  91  93
ENDBRANCH  81  86
ENDBRANCH  75  78
ENDBRANCH  73  74
ENDBRANCH   1  73
TORSDOF 19
ENDMDL
MODEL 3
REMARK VINA RESULT:     -12.8      2.499      3.226
REMARK SMILES O=C(NCCCCNC(=O)c1cc(N2C(=O)C[C@H](Nc3ccccc3O)C2=O)ccc1O)c1ccc(-c2c3nc(c(-c4cccc(S(=O)(=O)[O-])c4F)c4ccc([nH]4)c(-c4cccc(S(=O)(=O)[O-])c4F)c4nc(c(-c5cccc(S(=O)(=O)[O-])c5F)c5ccc2[nH]5)C=C4)C=C3)cc1
REMARK SMILES IDX 6 1 5 2 4 3 3 4 1 5 2 6 33 8 34 9 95 10 35 11 94 12 36 13
REMARK SMILES IDX 37 14 38 15 88 16 39 17 93 18 87 19 89 20 40 21 92 22 86 23
REMARK SMILES IDX 85 24 41 26 73 27 53 28 72 29 54 30 57 31 71 32 90 33 55 34
REMARK SMILES IDX 56 35 70 37 91 38 58 39 42 40 43 41 51 42 44 43 46 44 52 45
REMARK SMILES IDX 45 46 47 47 48 48 49 49 50 50 74 51 75 52 83 53 76 54 78 55
REMARK SMILES IDX 84 56 77 57 79 58 80 59 81 60 82 61 59 62 60 63 68 64 61 65
REMARK SMILES IDX 63 66 69 67 62 68 64 69 65 70 66 71 67 72 7 73 8 74 9 75
REMARK SMILES IDX 10 77 11 78 12 79 31 80 13 81 30 82 29 83 32 84 14 86 15 87
REMARK SMILES IDX 27 88 16 89 17 90 18 91 28 92 19 93 20 95 21 96 25 97 22 98
REMARK SMILES IDX 24 99 23 100 26 101
REMARK H PARENT 3 7 89 25 57 36 8 76 32 85 19 94 26 102
REMARK Flexibility Score: inf
ROOT
ATOM      1  C   UNL A   1      31.829  30.697  25.940  1.00  0.00     0.023 C 
ENDROOT
BRANCH   1   2
ATOM      2  C   UNL A   1      31.748  31.627  27.149  1.00  0.00     0.023 C 
BRANCH   2   3
ATOM      3  C   UNL A   1      32.957  32.532  27.351  1.00  0.00     0.116 C 
BRANCH   3   4
ATOM      4  N   UNL A   1      32.597  33.909  27.658  1.00  0.00    -0.352 N 
ATOM      5  O   UNL A   1      32.590  35.848  28.810  1.00  0.00    -0.269 OA
ATOM      6  C   UNL A   1      33.112  34.756  28.613  1.00  0.00     0.251 C 
ATOM      7  H   UNL A   1      31.880  34.290  27.101  1.00  0.00     0.163 HD
BRANCH   6   8
ATOM      8  C   UNL A   1      34.271  34.320  29.423  1.00  0.00     0.039 A 
ATOM      9  C   UNL A   1      35.569  34.661  29.041  1.00  0.00     0.014 A 
ATOM     10  C   UNL A   1      34.058  33.518  30.549  1.00  0.00     0.014 A 
ATOM     11  C   UNL A   1      36.650  34.045  29.660  1.00  0.00     0.010 A 
ATOM     12  C   UNL A   1      35.154  32.982  31.233  1.00  0.00     0.010 A 
ATOM     13  C   UNL A   1      36.457  33.193  30.760  1.00  0.00    -0.014 A 
BRANCH  13  14
ATOM     14  C   UNL A   1      37.642  32.565  31.404  1.00  0.00     0.031 A 
ATOM     15  C   UNL A   1      38.128  33.007  32.760  1.00  0.00     0.074 A 
ATOM     16  C   UNL A   1      38.265  31.555  30.763  1.00  0.00     0.049 A 
ATOM     17  N   UNL A   1      39.098  32.510  33.486  1.00  0.00    -0.248 NA
ATOM     18  C   UNL A   1      37.452  34.158  33.380  1.00  0.00     0.031 C 
ATOM     19  C   UNL A   1      37.917  31.067  29.427  1.00  0.00     0.029 A 
ATOM     20  N   UNL A   1      39.305  30.749  31.150  1.00  0.00    -0.354 N 
ATOM     21  C   UNL A   1      39.183  33.311  34.617  1.00  0.00     0.074 A 
ATOM     22  C   UNL A   1      38.169  34.335  34.483  1.00  0.00     0.031 C 
ATOM     23  C   UNL A   1      38.695  30.018  29.124  1.00  0.00     0.029 A 
ATOM     24  C   UNL A   1      39.628  29.789  30.221  1.00  0.00     0.049 A 
ATOM     25  H   UNL A   1      39.774  30.848  32.011  1.00  0.00     0.167 HD
ATOM     26  C   UNL A   1      40.018  33.198  35.679  1.00  0.00     0.034 A 
ATOM     27  C   UNL A   1      40.571  28.828  30.243  1.00  0.00     0.034 A 
ATOM     28  C   UNL A   1      40.985  32.145  35.838  1.00  0.00     0.049 A 
ATOM     29  C   UNL A   1      41.443  28.692  31.459  1.00  0.00     0.074 A 
ATOM     30  C   UNL A   1      41.821  31.898  36.915  1.00  0.00     0.029 A 
ATOM     31  N   UNL A   1      41.252  31.163  34.896  1.00  0.00    -0.354 N 
ATOM     32  N   UNL A   1      41.412  29.377  32.576  1.00  0.00    -0.248 NA
ATOM     33  C   UNL A   1      42.459  27.632  31.429  1.00  0.00     0.031 C 
ATOM     34  C   UNL A   1      42.602  30.776  36.617  1.00  0.00     0.029 A 
ATOM     35  C   UNL A   1      42.242  30.313  35.362  1.00  0.00     0.049 A 
ATOM     36  H   UNL A   1      40.802  31.081  34.024  1.00  0.00     0.167 HD
ATOM     37  C   UNL A   1      42.385  28.816  33.392  1.00  0.00     0.074 A 
ATOM     38  C   UNL A   1      42.969  27.715  32.650  1.00  0.00     0.031 C 
ATOM     39  C   UNL A   1      42.776  29.190  34.636  1.00  0.00     0.034 A 
BRANCH  26  40
ATOM     40  C   UNL A   1      39.897  34.216  36.785  1.00  0.00     0.023 A 
ATOM     41  C   UNL A   1      40.247  35.559  36.539  1.00  0.00     0.012 A 
ATOM     42  C   UNL A   1      39.367  33.860  38.043  1.00  0.00     0.148 A 
ATOM     43  C   UNL A   1      40.099  36.526  37.533  1.00  0.00     0.002 A 
ATOM     44  C   UNL A   1      39.186  34.838  39.016  1.00  0.00     0.091 A 
ATOM     45  F   UNL A   1      39.060  32.575  38.267  1.00  0.00    -0.205 F 
ATOM     46  C   UNL A   1      39.560  36.168  38.766  1.00  0.00     0.022 A 
BRANCH  44  47
ATOM     47  S   UNL A   1      38.427  34.485  40.606  1.00  0.00     0.127 S 
ATOM     48  O   UNL A   1      39.482  33.726  41.276  1.00  0.00    -0.237 OA
ATOM     49  O   UNL A   1      38.204  35.827  41.149  1.00  0.00    -0.237 OA
ATOM     50  O   UNL A   1      37.208  33.746  40.310  1.00  0.00    -0.744 OA
ENDBRANCH  44  47
ENDBRANCH  26  40
BRANCH  27  51
ATOM     51  C   UNL A   1      40.683  27.878  29.102  1.00  0.00     0.023 A 
ATOM     52  C   UNL A   1      39.818  26.768  29.040  1.00  0.00     0.012 A 
ATOM     53  C   UNL A   1      41.598  28.095  28.054  1.00  0.00     0.148 A 
ATOM     54  C   UNL A   1      39.877  25.881  27.966  1.00  0.00     0.002 A 
ATOM     55  C   UNL A   1      41.611  27.241  26.959  1.00  0.00     0.091 A 
ATOM     56  F   UNL A   1      42.426  29.147  28.140  1.00  0.00    -0.205 F 
ATOM     57  C   UNL A   1      40.763  26.124  26.920  1.00  0.00     0.022 A 
BRANCH  55  58
ATOM     58  S   UNL A   1      42.616  27.569  25.506  1.00  0.00     0.127 S 
ATOM     59  O   UNL A   1      43.961  27.593  26.072  1.00  0.00    -0.237 OA
ATOM     60  O   UNL A   1      42.323  26.408  24.663  1.00  0.00    -0.237 OA
ATOM     61  O   UNL A   1      42.124  28.832  24.972  1.00  0.00    -0.744 OA
ENDBRANCH  55  58
ENDBRANCH  27  51
BRANCH  39  62
ATOM     62  C   UNL A   1      43.869  28.387  35.287  1.00  0.00     0.023 A 
ATOM     63  C   UNL A   1      43.537  27.274  36.085  1.00  0.00     0.012 A 
ATOM     64  C   UNL A   1      45.225  28.699  35.066  1.00  0.00     0.148 A 
ATOM     65  C   UNL A   1      44.535  26.506  36.681  1.00  0.00     0.002 A 
ATOM     66  C   UNL A   1      46.215  27.901  35.626  1.00  0.00     0.091 A 
ATOM     67  F   UNL A   1      45.523  29.776  34.324  1.00  0.00    -0.205 F 
ATOM     68  C   UNL A   1      45.873  26.812  36.443  1.00  0.00     0.022 A 
BRANCH  66  69
ATOM     69  S   UNL A   1      47.959  28.173  35.292  1.00  0.00     0.127 S 
ATOM     70  O   UNL A   1      48.043  27.866  33.866  1.00  0.00    -0.237 OA
ATOM     71  O   UNL A   1      48.127  29.589  35.622  1.00  0.00    -0.237 OA
ATOM     72  O   UNL A   1      48.677  27.263  36.177  1.00  0.00    -0.744 OA
ENDBRANCH  66  69
ENDBRANCH  39  62
ENDBRANCH  13  14
ENDBRANCH   6   8
ENDBRANCH   3   4
ENDBRANCH   2   3
ENDBRANCH   1   2
BRANCH   1  73
ATOM     73  C   UNL A   1      32.926  29.641  26.011  1.00  0.00     0.116 C 
BRANCH  73  74
ATOM     74  N   UNL A   1      33.678  29.545  24.775  1.00  0.00    -0.352 N 
ATOM     75  C   UNL A   1      33.386  28.787  23.673  1.00  0.00     0.255 C 
ATOM     76  H   UNL A   1      34.495  30.091  24.722  1.00  0.00     0.163 HD
ATOM     77  O   UNL A   1      34.150  28.744  22.712  1.00  0.00    -0.269 OA
BRANCH  75  78
ATOM     78  C   UNL A   1      32.173  27.951  23.663  1.00  0.00     0.083 A 
ATOM     79  C   UNL A   1      32.291  26.651  24.167  1.00  0.00     0.044 A 
ATOM     80  C   UNL A   1      30.962  28.395  23.126  1.00  0.00     0.128 A 
ATOM     81  C   UNL A   1      31.206  25.766  24.118  1.00  0.00     0.053 A 
ATOM     82  C   UNL A   1      29.868  27.536  23.096  1.00  0.00     0.049 A 
ATOM     83  C   UNL A   1      29.997  26.225  23.573  1.00  0.00     0.031 A 
BRANCH  80  84
ATOM     84  O   UNL A   1      30.846  29.664  22.638  1.00  0.00    -0.507 OA
ATOM     85  H   UNL A   1      31.395  29.947  21.933  1.00  0.00     0.293 HD
ENDBRANCH  80  84
BRANCH  81  86
ATOM     86  N   UNL A   1      31.353  24.433  24.579  1.00  0.00    -0.249 N 
ATOM     87  C   UNL A   1      31.103  24.019  25.862  1.00  0.00     0.236 C 
ATOM     88  C   UNL A   1      31.812  23.404  23.786  1.00  0.00     0.256 C 
ATOM     89  O   UNL A   1      30.766  24.697  26.826  1.00  0.00    -0.274 OA
ATOM     90  C   UNL A   1      31.208  22.528  25.934  1.00  0.00     0.136 C 
ATOM     91  C   UNL A   1      31.769  22.110  24.587  1.00  0.00     0.179 C 
ATOM     92  O   UNL A   1      32.301  23.507  22.667  1.00  0.00    -0.272 OA
BRANCH  91  93
ATOM     93  N   UNL A   1      33.114  21.541  24.770  1.00  0.00    -0.370 N 
ATOM     94  H   UNL A   1      33.834  22.054  25.204  1.00  0.00     0.161 HD
BRANCH  93  95
ATOM     95  C   UNL A   1      33.328  20.236  24.299  1.00  0.00     0.077 A 
ATOM     96  C   UNL A   1      32.329  19.620  23.541  1.00  0.00     0.029 A 
ATOM     97  C   UNL A   1      34.425  19.455  24.704  1.00  0.00     0.138 A 
ATOM     98  C   UNL A   1      32.444  18.281  23.156  1.00  0.00     0.002 A 
ATOM     99  C   UNL A   1      34.545  18.117  24.331  1.00  0.00     0.048 A 
ATOM    100  C   UNL A   1      33.551  17.531  23.552  1.00  0.00     0.004 A 
BRANCH  97 101
ATOM    101  O   UNL A   1      35.384  20.026  25.497  1.00  0.00    -0.506 OA
ATOM    102  H   UNL A   1      36.282  20.008  25.232  1.00  0.00     0.293 HD
ENDBRANCH  97 101
ENDBRANCH  93  95
ENDBRANCH  91  93
ENDBRANCH  81  86
ENDBRANCH  75  78
ENDBRANCH  73  74
ENDBRANCH   1  73
TORSDOF 19
ENDMDL
