MODEL 1
REMARK VINA RESULT:     -12.4      0.000      0.000
REMARK SMILES C[C@@H](C(=O)NCCCCNC(=O)c1ccc(-c2c3nc(c(-c4cccc(S(=O)(=O)[O-])c4F)c4ccc([nH]4)c(-c4cccc(S(=O)(=O)[O-])c4F)c4nc(c(-c5cccc(S(=O)(=O)[O-])c5F)c5ccc2[nH]5)C=C4)C=C3)cc1)c1ccc(-c2cccc(OC(=O)NCCC3CCCCC3)c2)c(F)c1
REMARK SMILES IDX 3 1 4 2 5 3 2 5 1 6 76 7 77 8 100 9 78 10 98 11 79 12 99 13
REMARK SMILES IDX 80 14 81 15 97 16 82 17 84 18 83 19 85 20 86 21 87 22 88 23
REMARK SMILES IDX 89 25 90 26 91 27 92 28 96 29 93 30 95 31 94 32 6 33 7 34
REMARK SMILES IDX 8 35 9 36 10 37 11 38 12 40 13 41 14 42 75 43 15 44 74 45
REMARK SMILES IDX 16 46 17 47 18 48 68 49 19 50 73 51 67 52 69 53 20 54 72 55
REMARK SMILES IDX 66 56 65 57 21 59 53 60 33 61 52 62 34 63 37 64 51 65 70 66
REMARK SMILES IDX 35 67 36 68 50 70 71 71 38 72 22 73 23 74 31 75 24 76 26 77
REMARK SMILES IDX 32 78 25 79 27 80 28 81 29 82 30 83 54 84 55 85 63 86 56 87
REMARK SMILES IDX 58 88 64 89 57 90 59 91 60 92 61 93 62 94 39 95 40 96 48 97
REMARK SMILES IDX 41 98 43 99 49 100 42 101 44 102 45 103 46 104 47 105
REMARK H PARENT 5 4 88 24 10 39 69 58 37 69
REMARK Flexibility Score: inf
ROOT
ATOM      1  C   UNL A   1      28.693  31.456  23.460  1.00  0.00     0.227 C 
ATOM      2  O   UNL A   1      27.552  31.922  23.490  1.00  0.00    -0.274 OA
ATOM      3  N   UNL A   1      29.432  31.617  24.591  1.00  0.00    -0.356 N 
ATOM      4  H   UNL A   1      28.982  32.114  25.312  1.00  0.00     0.163 HD
ENDROOT
BRANCH   1   5
ATOM      5  C   UNL A   1      29.262  30.674  22.260  1.00  0.00     0.105 C 
ATOM      6  C   UNL A   1      28.237  30.423  21.149  1.00  0.00     0.023 C 
BRANCH   5   7
ATOM      7  C   UNL A   1      29.855  29.320  22.645  1.00  0.00    -0.033 A 
ATOM      8  C   UNL A   1      31.223  29.068  22.473  1.00  0.00     0.005 A 
ATOM      9  C   UNL A   1      29.032  28.273  23.080  1.00  0.00     0.044 A 
ATOM     10  C   UNL A   1      31.751  27.793  22.718  1.00  0.00     0.012 A 
ATOM     11  C   UNL A   1      29.565  27.018  23.339  1.00  0.00     0.131 A 
ATOM     12  C   UNL A   1      30.923  26.740  23.140  1.00  0.00     0.018 A 
ATOM     13  F   UNL A   1      28.729  26.052  23.751  1.00  0.00    -0.206 F 
BRANCH  12  14
ATOM     14  C   UNL A   1      31.431  25.366  23.261  1.00  0.00    -0.012 A 
ATOM     15  C   UNL A   1      32.295  24.793  22.319  1.00  0.00     0.009 A 
ATOM     16  C   UNL A   1      31.023  24.585  24.356  1.00  0.00     0.056 A 
ATOM     17  C   UNL A   1      32.745  23.478  22.476  1.00  0.00     0.004 A 
ATOM     18  C   UNL A   1      31.449  23.270  24.502  1.00  0.00     0.133 A 
ATOM     19  C   UNL A   1      32.322  22.715  23.567  1.00  0.00     0.047 A 
BRANCH  18  20
ATOM     20  O   UNL A   1      31.053  22.426  25.570  1.00  0.00    -0.410 OA
BRANCH  20  21
ATOM     21  C   UNL A   1      30.717  22.873  26.847  1.00  0.00     0.412 C 
ATOM     22  O   UNL A   1      29.625  23.289  27.220  1.00  0.00    -0.224 OA
ATOM     23  N   UNL A   1      31.733  22.788  27.750  1.00  0.00    -0.321 N 
ATOM     24  H   UNL A   1      31.527  23.098  28.661  1.00  0.00     0.167 HD
BRANCH  23  25
ATOM     25  C   UNL A   1      33.075  22.299  27.537  1.00  0.00     0.119 C 
BRANCH  25  26
ATOM     26  C   UNL A   1      33.996  23.401  27.010  1.00  0.00     0.025 C 
BRANCH  26  27
ATOM     27  C   UNL A   1      35.273  22.891  26.308  1.00  0.00    -0.009 C 
ATOM     28  C   UNL A   1      35.040  21.555  25.580  1.00  0.00     0.003 C 
ATOM     29  C   UNL A   1      35.790  23.958  25.330  1.00  0.00     0.003 C 
ATOM     30  C   UNL A   1      36.274  21.097  24.805  1.00  0.00     0.000 C 
ATOM     31  C   UNL A   1      37.032  23.486  24.577  1.00  0.00     0.000 C 
ATOM     32  C   UNL A   1      36.773  22.174  23.847  1.00  0.00     0.000 C 
ENDBRANCH  26  27
ENDBRANCH  25  26
ENDBRANCH  23  25
ENDBRANCH  20  21
ENDBRANCH  18  20
ENDBRANCH  12  14
ENDBRANCH   5   7
ENDBRANCH   1   5
BRANCH   3  33
ATOM     33  C   UNL A   1      30.772  31.174  24.909  1.00  0.00     0.116 C 
BRANCH  33  34
ATOM     34  C   UNL A   1      31.195  31.635  26.304  1.00  0.00     0.023 C 
BRANCH  34  35
ATOM     35  C   UNL A   1      32.439  30.935  26.858  1.00  0.00     0.023 C 
BRANCH  35  36
ATOM     36  C   UNL A   1      33.532  31.863  27.373  1.00  0.00     0.116 C 
BRANCH  36  37
ATOM     37  N   UNL A   1      33.050  33.212  27.630  1.00  0.00    -0.352 N 
ATOM     38  C   UNL A   1      33.453  34.108  28.590  1.00  0.00     0.251 C 
ATOM     39  H   UNL A   1      32.333  33.526  27.032  1.00  0.00     0.163 HD
ATOM     40  O   UNL A   1      32.832  35.155  28.755  1.00  0.00    -0.269 OA
BRANCH  38  41
ATOM     41  C   UNL A   1      34.616  33.787  29.444  1.00  0.00     0.039 A 
ATOM     42  C   UNL A   1      34.425  32.966  30.557  1.00  0.00     0.014 A 
ATOM     43  C   UNL A   1      35.894  34.248  29.115  1.00  0.00     0.014 A 
ATOM     44  C   UNL A   1      35.531  32.532  31.289  1.00  0.00     0.010 A 
ATOM     45  C   UNL A   1      37.000  33.759  29.805  1.00  0.00     0.010 A 
ATOM     46  C   UNL A   1      36.832  32.880  30.886  1.00  0.00    -0.014 A 
BRANCH  46  47
ATOM     47  C   UNL A   1      38.024  32.268  31.528  1.00  0.00     0.031 A 
ATOM     48  C   UNL A   1      38.768  31.146  30.861  1.00  0.00     0.074 A 
ATOM     49  C   UNL A   1      38.372  32.662  32.771  1.00  0.00     0.049 A 
ATOM     50  N   UNL A   1      39.781  30.451  31.309  1.00  0.00    -0.248 NA
ATOM     51  C   UNL A   1      38.304  30.734  29.525  1.00  0.00     0.031 C 
ATOM     52  C   UNL A   1      37.680  33.687  33.559  1.00  0.00     0.029 A 
ATOM     53  N   UNL A   1      39.370  32.225  33.608  1.00  0.00    -0.354 N 
ATOM     54  C   UNL A   1      40.055  29.501  30.334  1.00  0.00     0.074 A 
ATOM     55  C   UNL A   1      39.092  29.697  29.272  1.00  0.00     0.031 C 
ATOM     56  C   UNL A   1      38.267  33.793  34.761  1.00  0.00     0.029 A 
ATOM     57  C   UNL A   1      39.348  32.817  34.850  1.00  0.00     0.049 A 
ATOM     58  H   UNL A   1      40.038  31.551  33.344  1.00  0.00     0.167 HD
ATOM     59  C   UNL A   1      41.030  28.562  30.319  1.00  0.00     0.034 A 
ATOM     60  C   UNL A   1      40.092  32.583  35.950  1.00  0.00     0.034 A 
ATOM     61  C   UNL A   1      42.007  28.391  31.361  1.00  0.00     0.049 A 
ATOM     62  C   UNL A   1      41.175  31.540  35.892  1.00  0.00     0.074 A 
ATOM     63  C   UNL A   1      43.098  27.540  31.381  1.00  0.00     0.029 A 
ATOM     64  N   UNL A   1      41.999  29.059  32.575  1.00  0.00    -0.354 N 
ATOM     65  N   UNL A   1      41.539  30.783  34.886  1.00  0.00    -0.248 NA
ATOM     66  C   UNL A   1      41.969  31.336  37.113  1.00  0.00     0.031 C 
ATOM     67  C   UNL A   1      43.723  27.659  32.625  1.00  0.00     0.029 A 
ATOM     68  C   UNL A   1      43.046  28.615  33.364  1.00  0.00     0.049 A 
ATOM     69  H   UNL A   1      41.346  29.747  32.838  1.00  0.00     0.167 HD
ATOM     70  C   UNL A   1      42.617  30.035  35.344  1.00  0.00     0.074 A 
ATOM     71  C   UNL A   1      42.872  30.456  36.705  1.00  0.00     0.031 C 
ATOM     72  C   UNL A   1      43.321  29.071  34.702  1.00  0.00     0.034 A 
BRANCH  59  73
ATOM     73  C   UNL A   1      41.129  27.655  29.122  1.00  0.00     0.023 A 
ATOM     74  C   UNL A   1      40.250  26.561  28.999  1.00  0.00     0.012 A 
ATOM     75  C   UNL A   1      42.011  27.957  28.064  1.00  0.00     0.148 A 
ATOM     76  C   UNL A   1      40.256  25.772  27.849  1.00  0.00     0.002 A 
ATOM     77  C   UNL A   1      41.980  27.194  26.905  1.00  0.00     0.091 A 
ATOM     78  F   UNL A   1      42.849  28.993  28.210  1.00  0.00    -0.205 F 
ATOM     79  C   UNL A   1      41.110  26.097  26.798  1.00  0.00     0.022 A 
BRANCH  77  80
ATOM     80  S   UNL A   1      42.979  27.578  25.461  1.00  0.00     0.127 S 
ATOM     81  O   UNL A   1      43.205  26.248  24.897  1.00  0.00    -0.237 OA
ATOM     82  O   UNL A   1      42.076  28.426  24.682  1.00  0.00    -0.237 OA
ATOM     83  O   UNL A   1      44.171  28.249  25.959  1.00  0.00    -0.744 OA
ENDBRANCH  77  80
ENDBRANCH  59  73
BRANCH  60  84
ATOM     84  C   UNL A   1      39.849  33.353  37.204  1.00  0.00     0.023 A 
ATOM     85  C   UNL A   1      38.733  33.047  38.006  1.00  0.00     0.012 A 
ATOM     86  C   UNL A   1      40.709  34.396  37.596  1.00  0.00     0.148 A 
ATOM     87  C   UNL A   1      38.451  33.796  39.150  1.00  0.00     0.002 A 
ATOM     88  C   UNL A   1      40.459  35.098  38.769  1.00  0.00     0.091 A 
ATOM     89  F   UNL A   1      41.758  34.685  36.813  1.00  0.00    -0.205 F 
ATOM     90  C   UNL A   1      39.318  34.815  39.536  1.00  0.00     0.022 A 
BRANCH  88  91
ATOM     91  S   UNL A   1      41.597  36.330  39.410  1.00  0.00     0.127 S 
ATOM     92  O   UNL A   1      41.503  37.378  38.397  1.00  0.00    -0.237 OA
ATOM     93  O   UNL A   1      40.990  36.661  40.699  1.00  0.00    -0.237 OA
ATOM     94  O   UNL A   1      42.884  35.656  39.512  1.00  0.00    -0.744 OA
ENDBRANCH  88  91
ENDBRANCH  60  84
BRANCH  72  95
ATOM     95  C   UNL A   1      44.450  28.413  35.451  1.00  0.00     0.023 A 
ATOM     96  C   UNL A   1      45.777  28.834  35.229  1.00  0.00     0.012 A 
ATOM     97  C   UNL A   1      44.191  27.429  36.426  1.00  0.00     0.148 A 
ATOM     98  C   UNL A   1      46.830  28.261  35.941  1.00  0.00     0.002 A 
ATOM     99  C   UNL A   1      45.241  26.901  37.168  1.00  0.00     0.091 A 
ATOM    100  F   UNL A   1      42.923  27.033  36.612  1.00  0.00    -0.205 F 
ATOM    101  C   UNL A   1      46.561  27.305  36.917  1.00  0.00     0.022 A 
BRANCH  99 102
ATOM    102  S   UNL A   1      44.986  25.735  38.511  1.00  0.00     0.127 S 
ATOM    103  O   UNL A   1      44.008  26.442  39.337  1.00  0.00    -0.237 OA
ATOM    104  O   UNL A   1      44.460  24.565  37.807  1.00  0.00    -0.237 OA
ATOM    105  O   UNL A   1      46.291  25.537  39.127  1.00  0.00    -0.744 OA
ENDBRANCH  99 102
ENDBRANCH  72  95
ENDBRANCH  46  47
ENDBRANCH  38  41
ENDBRANCH  36  37
ENDBRANCH  35  36
ENDBRANCH  34  35
ENDBRANCH  33  34
ENDBRANCH   3  33
TORSDOF 21
ENDMDL
MODEL 2
REMARK VINA RESULT:     -12.2      5.285     11.643
REMARK SMILES C[C@@H](C(=O)NCCCCNC(=O)c1ccc(-c2c3nc(c(-c4cccc(S(=O)(=O)[O-])c4F)c4ccc([nH]4)c(-c4cccc(S(=O)(=O)[O-])c4F)c4nc(c(-c5cccc(S(=O)(=O)[O-])c5F)c5ccc2[nH]5)C=C4)C=C3)cc1)c1ccc(-c2cccc(OC(=O)NCCC3CCCCC3)c2)c(F)c1
REMARK SMILES IDX 3 1 4 2 5 3 2 5 1 6 76 7 77 8 100 9 78 10 98 11 79 12 99 13
REMARK SMILES IDX 80 14 81 15 97 16 82 17 84 18 83 19 85 20 86 21 87 22 88 23
REMARK SMILES IDX 89 25 90 26 91 27 92 28 96 29 93 30 95 31 94 32 6 33 7 34
REMARK SMILES IDX 8 35 9 36 10 37 11 38 12 40 13 41 14 42 75 43 15 44 74 45
REMARK SMILES IDX 16 46 17 47 18 48 68 49 19 50 73 51 67 52 69 53 20 54 72 55
REMARK SMILES IDX 66 56 65 57 21 59 53 60 33 61 52 62 34 63 37 64 51 65 70 66
REMARK SMILES IDX 35 67 36 68 50 70 71 71 38 72 22 73 23 74 31 75 24 76 26 77
REMARK SMILES IDX 32 78 25 79 27 80 28 81 29 82 30 83 54 84 55 85 63 86 56 87
REMARK SMILES IDX 58 88 64 89 57 90 59 91 60 92 61 93 62 94 39 95 40 96 48 97
REMARK SMILES IDX 41 98 43 99 49 100 42 101 44 102 45 103 46 104 47 105
REMARK H PARENT 5 4 88 24 10 39 69 58 37 69
REMARK Flexibility Score: inf
ROOT
ATOM      1  C   UNL A   1      36.735  32.758  33.998  1.00  0.00     0.227 C 
ATOM      2  O   UNL A   1      37.260  31.927  34.742  1.00  0.00    -0.274 OA
ATOM      3  N   UNL A   1      35.534  32.406  33.463  1.00  0.00    -0.356 N 
ATOM      4  H   UNL A   1      35.221  31.506  33.710  1.00  0.00     0.163 HD
ENDROOT
BRANCH   1   5
ATOM      5  C   UNL A   1      37.335  34.151  33.719  1.00  0.00     0.105 C 
ATOM      6  C   UNL A   1      36.301  35.183  33.259  1.00  0.00     0.023 C 
BRANCH   5   7
ATOM      7  C   UNL A   1      38.453  34.133  32.680  1.00  0.00    -0.033 A 
ATOM      8  C   UNL A   1      39.774  34.424  33.049  1.00  0.00     0.005 A 
ATOM      9  C   UNL A   1      38.169  33.925  31.323  1.00  0.00     0.044 A 
ATOM     10  C   UNL A   1      40.782  34.520  32.080  1.00  0.00     0.012 A 
ATOM     11  C   UNL A   1      39.176  34.001  30.372  1.00  0.00     0.131 A 
ATOM     12  C   UNL A   1      40.494  34.325  30.719  1.00  0.00     0.018 A 
ATOM     13  F   UNL A   1      38.845  33.796  29.087  1.00  0.00    -0.206 F 
BRANCH  12  14
ATOM     14  C   UNL A   1      41.505  34.564  29.680  1.00  0.00    -0.012 A 
ATOM     15  C   UNL A   1      41.439  35.649  28.796  1.00  0.00     0.009 A 
ATOM     16  C   UNL A   1      42.574  33.661  29.552  1.00  0.00     0.056 A 
ATOM     17  C   UNL A   1      42.424  35.829  27.819  1.00  0.00     0.004 A 
ATOM     18  C   UNL A   1      43.541  33.823  28.566  1.00  0.00     0.133 A 
ATOM     19  C   UNL A   1      43.474  34.915  27.702  1.00  0.00     0.047 A 
BRANCH  18  20
ATOM     20  O   UNL A   1      44.627  32.934  28.372  1.00  0.00    -0.410 OA
BRANCH  20  21
ATOM     21  C   UNL A   1      45.636  32.704  29.306  1.00  0.00     0.412 C 
ATOM     22  O   UNL A   1      45.942  33.421  30.253  1.00  0.00    -0.224 OA
ATOM     23  N   UNL A   1      46.301  31.528  29.127  1.00  0.00    -0.321 N 
ATOM     24  H   UNL A   1      47.022  31.339  29.770  1.00  0.00     0.167 HD
BRANCH  23  25
ATOM     25  C   UNL A   1      46.082  30.527  28.109  1.00  0.00     0.119 C 
BRANCH  25  26
ATOM     26  C   UNL A   1      46.201  29.113  28.680  1.00  0.00     0.025 C 
BRANCH  26  27
ATOM     27  C   UNL A   1      45.860  27.986  27.681  1.00  0.00    -0.009 C 
ATOM     28  C   UNL A   1      45.115  28.515  26.443  1.00  0.00     0.003 C 
ATOM     29  C   UNL A   1      47.145  27.250  27.269  1.00  0.00     0.003 C 
ATOM     30  C   UNL A   1      44.862  27.418  25.411  1.00  0.00     0.000 C 
ATOM     31  C   UNL A   1      46.867  26.149  26.248  1.00  0.00     0.000 C 
ATOM     32  C   UNL A   1      46.148  26.698  25.021  1.00  0.00     0.000 C 
ENDBRANCH  26  27
ENDBRANCH  25  26
ENDBRANCH  23  25
ENDBRANCH  20  21
ENDBRANCH  18  20
ENDBRANCH  12  14
ENDBRANCH   5   7
ENDBRANCH   1   5
BRANCH   3  33
ATOM     33  C   UNL A   1      34.642  33.139  32.592  1.00  0.00     0.116 C 
BRANCH  33  34
ATOM     34  C   UNL A   1      34.738  32.641  31.150  1.00  0.00     0.023 C 
BRANCH  34  35
ATOM     35  C   UNL A   1      35.166  33.704  30.135  1.00  0.00     0.023 C 
BRANCH  35  36
ATOM     36  C   UNL A   1      35.700  33.164  28.813  1.00  0.00     0.116 C 
BRANCH  36  37
ATOM     37  N   UNL A   1      34.723  32.352  28.102  1.00  0.00    -0.352 N 
ATOM     38  C   UNL A   1      34.820  31.046  27.688  1.00  0.00     0.251 C 
ATOM     39  H   UNL A   1      33.875  32.803  27.887  1.00  0.00     0.163 HD
ATOM     40  O   UNL A   1      33.950  30.562  26.968  1.00  0.00    -0.269 OA
BRANCH  38  41
ATOM     41  C   UNL A   1      35.994  30.241  28.085  1.00  0.00     0.039 A 
ATOM     42  C   UNL A   1      37.093  30.186  27.225  1.00  0.00     0.014 A 
ATOM     43  C   UNL A   1      36.030  29.591  29.322  1.00  0.00     0.014 A 
ATOM     44  C   UNL A   1      38.264  29.554  27.645  1.00  0.00     0.010 A 
ATOM     45  C   UNL A   1      37.222  29.021  29.765  1.00  0.00     0.010 A 
ATOM     46  C   UNL A   1      38.356  29.015  28.939  1.00  0.00    -0.014 A 
BRANCH  46  47
ATOM     47  C   UNL A   1      39.652  28.520  29.474  1.00  0.00     0.031 A 
ATOM     48  C   UNL A   1      40.376  29.272  30.556  1.00  0.00     0.074 A 
ATOM     49  C   UNL A   1      40.225  27.440  28.903  1.00  0.00     0.049 A 
ATOM     50  N   UNL A   1      41.545  29.023  31.086  1.00  0.00    -0.248 NA
ATOM     51  C   UNL A   1      39.714  30.470  31.100  1.00  0.00     0.031 C 
ATOM     52  C   UNL A   1      39.660  26.670  27.791  1.00  0.00     0.029 A 
ATOM     53  N   UNL A   1      41.427  26.823  29.152  1.00  0.00    -0.354 N 
ATOM     54  C   UNL A   1      41.777  30.045  31.997  1.00  0.00     0.074 A 
ATOM     55  C   UNL A   1      40.633  30.929  31.940  1.00  0.00     0.031 C 
ATOM     56  C   UNL A   1      40.514  25.693  27.450  1.00  0.00     0.029 A 
ATOM     57  C   UNL A   1      41.705  25.790  28.286  1.00  0.00     0.049 A 
ATOM     58  H   UNL A   1      42.031  27.092  29.881  1.00  0.00     0.167 HD
ATOM     59  C   UNL A   1      42.839  30.221  32.818  1.00  0.00     0.034 A 
ATOM     60  C   UNL A   1      42.807  25.023  28.156  1.00  0.00     0.034 A 
ATOM     61  C   UNL A   1      43.960  29.323  32.897  1.00  0.00     0.049 A 
ATOM     62  C   UNL A   1      43.964  25.240  29.094  1.00  0.00     0.074 A 
ATOM     63  C   UNL A   1      45.028  29.362  33.776  1.00  0.00     0.029 A 
ATOM     64  N   UNL A   1      44.175  28.244  32.055  1.00  0.00    -0.354 N 
ATOM     65  N   UNL A   1      44.078  26.097  30.078  1.00  0.00    -0.248 NA
ATOM     66  C   UNL A   1      45.134  24.366  28.922  1.00  0.00     0.031 C 
ATOM     67  C   UNL A   1      45.912  28.334  33.436  1.00  0.00     0.029 A 
ATOM     68  C   UNL A   1      45.374  27.630  32.372  1.00  0.00     0.049 A 
ATOM     69  H   UNL A   1      43.565  27.957  31.337  1.00  0.00     0.167 HD
ATOM     70  C   UNL A   1      45.318  25.848  30.657  1.00  0.00     0.074 A 
ATOM     71  C   UNL A   1      45.901  24.736  29.937  1.00  0.00     0.031 C 
ATOM     72  C   UNL A   1      45.927  26.496  31.679  1.00  0.00     0.034 A 
BRANCH  59  73
ATOM     73  C   UNL A   1      42.841  31.413  33.737  1.00  0.00     0.023 A 
ATOM     74  C   UNL A   1      43.444  32.617  33.320  1.00  0.00     0.012 A 
ATOM     75  C   UNL A   1      42.142  31.377  34.961  1.00  0.00     0.148 A 
ATOM     76  C   UNL A   1      43.365  33.761  34.113  1.00  0.00     0.002 A 
ATOM     77  C   UNL A   1      42.030  32.532  35.723  1.00  0.00     0.091 A 
ATOM     78  F   UNL A   1      41.590  30.217  35.344  1.00  0.00    -0.205 F 
ATOM     79  C   UNL A   1      42.647  33.722  35.306  1.00  0.00     0.022 A 
BRANCH  77  80
ATOM     80  S   UNL A   1      41.058  32.611  37.232  1.00  0.00     0.127 S 
ATOM     81  O   UNL A   1      41.668  31.549  38.031  1.00  0.00    -0.237 OA
ATOM     82  O   UNL A   1      41.338  33.967  37.704  1.00  0.00    -0.237 OA
ATOM     83  O   UNL A   1      39.677  32.373  36.838  1.00  0.00    -0.744 OA
ENDBRANCH  77  80
ENDBRANCH  59  73
BRANCH  60  84
ATOM     84  C   UNL A   1      42.875  23.971  27.102  1.00  0.00     0.023 A 
ATOM     85  C   UNL A   1      43.569  24.226  25.903  1.00  0.00     0.012 A 
ATOM     86  C   UNL A   1      42.242  22.725  27.274  1.00  0.00     0.148 A 
ATOM     87  C   UNL A   1      43.592  23.280  24.877  1.00  0.00     0.002 A 
ATOM     88  C   UNL A   1      42.320  21.762  26.275  1.00  0.00     0.091 A 
ATOM     89  F   UNL A   1      41.572  22.504  28.414  1.00  0.00    -0.205 F 
ATOM     90  C   UNL A   1      42.975  22.045  25.066  1.00  0.00     0.022 A 
BRANCH  88  91
ATOM     91  S   UNL A   1      41.674  20.101  26.492  1.00  0.00     0.127 S 
ATOM     92  O   UNL A   1      40.233  20.331  26.424  1.00  0.00    -0.237 OA
ATOM     93  O   UNL A   1      42.243  19.402  25.340  1.00  0.00    -0.237 OA
ATOM     94  O   UNL A   1      42.188  19.648  27.778  1.00  0.00    -0.744 OA
ENDBRANCH  88  91
ENDBRANCH  60  84
BRANCH  72  95
ATOM     95  C   UNL A   1      47.290  26.011  32.101  1.00  0.00     0.023 A 
ATOM     96  C   UNL A   1      47.413  25.135  33.199  1.00  0.00     0.012 A 
ATOM     97  C   UNL A   1      48.440  26.364  31.366  1.00  0.00     0.148 A 
ATOM     98  C   UNL A   1      48.663  24.648  33.579  1.00  0.00     0.002 A 
ATOM     99  C   UNL A   1      49.674  25.832  31.720  1.00  0.00     0.091 A 
ATOM    100  F   UNL A   1      48.302  27.208  30.333  1.00  0.00    -0.205 F 
ATOM    101  C   UNL A   1      49.789  24.986  32.833  1.00  0.00     0.022 A 
BRANCH  99 102
ATOM    102  S   UNL A   1      51.166  26.132  30.765  1.00  0.00     0.127 S 
ATOM    103  O   UNL A   1      50.801  25.582  29.460  1.00  0.00    -0.237 OA
ATOM    104  O   UNL A   1      51.269  27.591  30.807  1.00  0.00    -0.237 OA
ATOM    105  O   UNL A   1      52.237  25.428  31.457  1.00  0.00    -0.744 OA
ENDBRANCH  99 102
ENDBRANCH  72  95
ENDBRANCH  46  47
ENDBRANCH  38  41
ENDBRANCH  36  37
ENDBRANCH  35  36
ENDBRANCH  34  35
ENDBRANCH  33  34
ENDBRANCH   3  33
TORSDOF 21
ENDMDL
MODEL 3
REMARK VINA RESULT:     -12.2      5.714     10.896
REMARK SMILES C[C@@H](C(=O)NCCCCNC(=O)c1ccc(-c2c3nc(c(-c4cccc(S(=O)(=O)[O-])c4F)c4ccc([nH]4)c(-c4cccc(S(=O)(=O)[O-])c4F)c4nc(c(-c5cccc(S(=O)(=O)[O-])c5F)c5ccc2[nH]5)C=C4)C=C3)cc1)c1ccc(-c2cccc(OC(=O)NCCC3CCCCC3)c2)c(F)c1
REMARK SMILES IDX 3 1 4 2 5 3 2 5 1 6 76 7 77 8 100 9 78 10 98 11 79 12 99 13
REMARK SMILES IDX 80 14 81 15 97 16 82 17 84 18 83 19 85 20 86 21 87 22 88 23
REMARK SMILES IDX 89 25 90 26 91 27 92 28 96 29 93 30 95 31 94 32 6 33 7 34
REMARK SMILES IDX 8 35 9 36 10 37 11 38 12 40 13 41 14 42 75 43 15 44 74 45
REMARK SMILES IDX 16 46 17 47 18 48 68 49 19 50 73 51 67 52 69 53 20 54 72 55
REMARK SMILES IDX 66 56 65 57 21 59 53 60 33 61 52 62 34 63 37 64 51 65 70 66
REMARK SMILES IDX 35 67 36 68 50 70 71 71 38 72 22 73 23 74 31 75 24 76 26 77
REMARK SMILES IDX 32 78 25 79 27 80 28 81 29 82 30 83 54 84 55 85 63 86 56 87
REMARK SMILES IDX 58 88 64 89 57 90 59 91 60 92 61 93 62 94 39 95 40 96 48 97
REMARK SMILES IDX 41 98 43 99 49 100 42 101 44 102 45 103 46 104 47 105
REMARK H PARENT 5 4 88 24 10 39 69 58 37 69
REMARK Flexibility Score: inf
ROOT
ATOM      1  C   UNL A   1      42.306  22.218  25.835  1.00  0.00     0.227 C 
ATOM      2  O   UNL A   1      41.460  21.345  25.632  1.00  0.00    -0.274 OA
ATOM      3  N   UNL A   1      42.995  22.646  24.742  1.00  0.00    -0.356 N 
ATOM      4  H   UNL A   1      42.760  22.191  23.901  1.00  0.00     0.163 HD
ENDROOT
BRANCH   1   5
ATOM      5  C   UNL A   1      42.553  22.861  27.214  1.00  0.00     0.105 C 
ATOM      6  C   UNL A   1      42.230  21.934  28.390  1.00  0.00     0.023 C 
BRANCH   5   7
ATOM      7  C   UNL A   1      41.772  24.155  27.428  1.00  0.00    -0.033 A 
ATOM      8  C   UNL A   1      42.364  25.245  28.083  1.00  0.00     0.005 A 
ATOM      9  C   UNL A   1      40.421  24.247  27.067  1.00  0.00     0.044 A 
ATOM     10  C   UNL A   1      41.616  26.392  28.381  1.00  0.00     0.012 A 
ATOM     11  C   UNL A   1      39.692  25.394  27.349  1.00  0.00     0.131 A 
ATOM     12  C   UNL A   1      40.259  26.477  28.033  1.00  0.00     0.018 A 
ATOM     13  F   UNL A   1      38.400  25.425  26.984  1.00  0.00    -0.206 F 
BRANCH  12  14
ATOM     14  C   UNL A   1      39.425  27.608  28.466  1.00  0.00    -0.012 A 
ATOM     15  C   UNL A   1      39.256  28.762  27.691  1.00  0.00     0.009 A 
ATOM     16  C   UNL A   1      38.782  27.539  29.714  1.00  0.00     0.056 A 
ATOM     17  C   UNL A   1      38.456  29.814  28.151  1.00  0.00     0.004 A 
ATOM     18  C   UNL A   1      38.007  28.592  30.184  1.00  0.00     0.133 A 
ATOM     19  C   UNL A   1      37.832  29.731  29.398  1.00  0.00     0.047 A 
BRANCH  18  20
ATOM     20  O   UNL A   1      37.355  28.592  31.442  1.00  0.00    -0.410 OA
BRANCH  20  21
ATOM     21  C   UNL A   1      37.998  28.778  32.665  1.00  0.00     0.412 C 
ATOM     22  O   UNL A   1      38.820  28.034  33.188  1.00  0.00    -0.224 OA
ATOM     23  N   UNL A   1      37.671  29.944  33.292  1.00  0.00    -0.321 N 
ATOM     24  H   UNL A   1      38.108  30.103  34.159  1.00  0.00     0.167 HD
BRANCH  23  25
ATOM     25  C   UNL A   1      36.764  30.973  32.842  1.00  0.00     0.119 C 
BRANCH  25  26
ATOM     26  C   UNL A   1      37.517  32.219  32.374  1.00  0.00     0.025 C 
BRANCH  26  27
ATOM     27  C   UNL A   1      36.614  33.419  32.013  1.00  0.00    -0.009 C 
ATOM     28  C   UNL A   1      35.326  32.979  31.295  1.00  0.00     0.003 C 
ATOM     29  C   UNL A   1      36.281  34.219  33.284  1.00  0.00     0.003 C 
ATOM     30  C   UNL A   1      34.388  34.154  31.024  1.00  0.00     0.000 C 
ATOM     31  C   UNL A   1      35.355  35.396  32.987  1.00  0.00     0.000 C 
ATOM     32  C   UNL A   1      34.077  34.936  32.296  1.00  0.00     0.000 C 
ENDBRANCH  26  27
ENDBRANCH  25  26
ENDBRANCH  23  25
ENDBRANCH  20  21
ENDBRANCH  18  20
ENDBRANCH  12  14
ENDBRANCH   5   7
ENDBRANCH   1   5
BRANCH   3  33
ATOM     33  C   UNL A   1      44.017  23.663  24.613  1.00  0.00     0.116 C 
BRANCH  33  34
ATOM     34  C   UNL A   1      45.418  23.062  24.726  1.00  0.00     0.023 C 
BRANCH  34  35
ATOM     35  C   UNL A   1      45.933  22.910  26.159  1.00  0.00     0.023 C 
BRANCH  35  36
ATOM     36  C   UNL A   1      46.524  24.173  26.775  1.00  0.00     0.116 C 
BRANCH  36  37
ATOM     37  N   UNL A   1      47.350  24.922  25.839  1.00  0.00    -0.352 N 
ATOM     38  C   UNL A   1      47.401  26.277  25.620  1.00  0.00     0.251 C 
ATOM     39  H   UNL A   1      47.957  24.380  25.283  1.00  0.00     0.163 HD
ATOM     40  O   UNL A   1      48.056  26.726  24.684  1.00  0.00    -0.269 OA
BRANCH  38  41
ATOM     41  C   UNL A   1      46.635  27.185  26.499  1.00  0.00     0.039 A 
ATOM     42  C   UNL A   1      45.280  27.392  26.233  1.00  0.00     0.014 A 
ATOM     43  C   UNL A   1      47.238  27.785  27.609  1.00  0.00     0.014 A 
ATOM     44  C   UNL A   1      44.507  28.127  27.134  1.00  0.00     0.010 A 
ATOM     45  C   UNL A   1      46.451  28.459  28.539  1.00  0.00     0.010 A 
ATOM     46  C   UNL A   1      45.074  28.619  28.321  1.00  0.00    -0.014 A 
BRANCH  46  47
ATOM     47  C   UNL A   1      44.228  29.227  29.381  1.00  0.00     0.031 A 
ATOM     48  C   UNL A   1      43.811  30.669  29.302  1.00  0.00     0.074 A 
ATOM     49  C   UNL A   1      43.922  28.496  30.474  1.00  0.00     0.049 A 
ATOM     50  N   UNL A   1      43.137  31.378  30.170  1.00  0.00    -0.248 NA
ATOM     51  C   UNL A   1      44.220  31.421  28.103  1.00  0.00     0.031 C 
ATOM     52  C   UNL A   1      44.336  27.108  30.707  1.00  0.00     0.029 A 
ATOM     53  N   UNL A   1      43.226  28.825  31.611  1.00  0.00    -0.354 N 
ATOM     54  C   UNL A   1      43.069  32.662  29.646  1.00  0.00     0.074 A 
ATOM     55  C   UNL A   1      43.784  32.641  28.388  1.00  0.00     0.031 C 
ATOM     56  C   UNL A   1      43.894  26.711  31.910  1.00  0.00     0.029 A 
ATOM     57  C   UNL A   1      43.204  27.823  32.554  1.00  0.00     0.049 A 
ATOM     58  H   UNL A   1      42.784  29.696  31.740  1.00  0.00     0.167 HD
ATOM     59  C   UNL A   1      42.455  33.753  30.159  1.00  0.00     0.034 A 
ATOM     60  C   UNL A   1      42.712  27.807  33.810  1.00  0.00     0.034 A 
ATOM     61  C   UNL A   1      41.717  33.762  31.394  1.00  0.00     0.049 A 
ATOM     62  C   UNL A   1      42.024  29.034  34.342  1.00  0.00     0.074 A 
ATOM     63  C   UNL A   1      40.968  34.792  31.937  1.00  0.00     0.029 A 
ATOM     64  N   UNL A   1      41.653  32.707  32.290  1.00  0.00    -0.354 N 
ATOM     65  N   UNL A   1      41.806  30.181  33.747  1.00  0.00    -0.248 NA
ATOM     66  C   UNL A   1      41.489  28.958  35.710  1.00  0.00     0.031 C 
ATOM     67  C   UNL A   1      40.491  34.376  33.183  1.00  0.00     0.029 A 
ATOM     68  C   UNL A   1      40.907  33.072  33.397  1.00  0.00     0.049 A 
ATOM     69  H   UNL A   1      42.076  31.828  32.159  1.00  0.00     0.167 HD
ATOM     70  C   UNL A   1      41.089  30.951  34.656  1.00  0.00     0.074 A 
ATOM     71  C   UNL A   1      40.877  30.127  35.827  1.00  0.00     0.031 C 
ATOM     72  C   UNL A   1      40.662  32.232  34.539  1.00  0.00     0.034 A 
BRANCH  59  73
ATOM     73  C   UNL A   1      42.511  35.038  29.377  1.00  0.00     0.023 A 
ATOM     74  C   UNL A   1      41.562  35.282  28.363  1.00  0.00     0.012 A 
ATOM     75  C   UNL A   1      43.427  36.051  29.727  1.00  0.00     0.148 A 
ATOM     76  C   UNL A   1      41.534  36.508  27.700  1.00  0.00     0.002 A 
ATOM     77  C   UNL A   1      43.363  37.284  29.092  1.00  0.00     0.091 A 
ATOM     78  F   UNL A   1      44.330  35.790  30.682  1.00  0.00    -0.205 F 
ATOM     79  C   UNL A   1      42.423  37.513  28.074  1.00  0.00     0.022 A 
BRANCH  77  80
ATOM     80  S   UNL A   1      44.406  38.672  29.555  1.00  0.00     0.127 S 
ATOM     81  O   UNL A   1      44.061  39.655  28.530  1.00  0.00    -0.237 OA
ATOM     82  O   UNL A   1      43.914  38.989  30.896  1.00  0.00    -0.237 OA
ATOM     83  O   UNL A   1      45.777  38.182  29.506  1.00  0.00    -0.744 OA
ENDBRANCH  77  80
ENDBRANCH  59  73
BRANCH  60  84
ATOM     84  C   UNL A   1      42.842  26.585  34.655  1.00  0.00     0.023 A 
ATOM     85  C   UNL A   1      41.742  25.718  34.802  1.00  0.00     0.012 A 
ATOM     86  C   UNL A   1      44.043  26.287  35.326  1.00  0.00     0.148 A 
ATOM     87  C   UNL A   1      41.820  24.603  35.640  1.00  0.00     0.002 A 
ATOM     88  C   UNL A   1      44.136  25.142  36.108  1.00  0.00     0.091 A 
ATOM     89  F   UNL A   1      45.075  27.131  35.187  1.00  0.00    -0.205 F 
ATOM     90  C   UNL A   1      43.019  24.311  36.285  1.00  0.00     0.022 A 
BRANCH  88  91
ATOM     91  S   UNL A   1      45.680  24.619  36.861  1.00  0.00     0.127 S 
ATOM     92  O   UNL A   1      46.409  24.091  35.711  1.00  0.00    -0.237 OA
ATOM     93  O   UNL A   1      46.198  25.879  37.395  1.00  0.00    -0.237 OA
ATOM     94  O   UNL A   1      45.306  23.647  37.880  1.00  0.00    -0.744 OA
ENDBRANCH  88  91
ENDBRANCH  60  84
BRANCH  72  95
ATOM     95  C   UNL A   1      39.903  32.824  35.698  1.00  0.00     0.023 A 
ATOM     96  C   UNL A   1      38.509  32.636  35.791  1.00  0.00     0.012 A 
ATOM     97  C   UNL A   1      40.580  33.504  36.731  1.00  0.00     0.148 A 
ATOM     98  C   UNL A   1      37.797  33.146  36.876  1.00  0.00     0.002 A 
ATOM     99  C   UNL A   1      39.870  33.963  37.834  1.00  0.00     0.091 A 
ATOM    100  F   UNL A   1      41.904  33.683  36.616  1.00  0.00    -0.205 F 
ATOM    101  C   UNL A   1      38.478  33.798  37.901  1.00  0.00     0.022 A 
BRANCH  99 102
ATOM    102  S   UNL A   1      40.670  34.730  39.248  1.00  0.00     0.127 S 
ATOM    103  O   UNL A   1      39.533  34.974  40.136  1.00  0.00    -0.237 OA
ATOM    104  O   UNL A   1      41.579  33.676  39.696  1.00  0.00    -0.237 OA
ATOM    105  O   UNL A   1      41.329  35.926  38.741  1.00  0.00    -0.744 OA
ENDBRANCH  99 102
ENDBRANCH  72  95
ENDBRANCH  46  47
ENDBRANCH  38  41
ENDBRANCH  36  37
ENDBRANCH  35  36
ENDBRANCH  34  35
ENDBRANCH  33  34
ENDBRANCH   3  33
TORSDOF 21
ENDMDL
