MODEL 1
REMARK VINA RESULT:     -12.7      0.000      0.000
REMARK SMILES Cc1ccc(S(=O)(=O)n2cc(C(=O)C(=O)NCC(=O)NCCCCNC(=O)c3ccc(-c4c5nc(c(-c6cccc(S(=O)(=O)[O-])c6F)c6ccc([nH]6)c(-c6cccc(S(=O)(=O)[O-])c6F)c6nc(c(-c7cccc(S(=O)(=O)[O-])c7F)c7ccc4[nH]7)C=C6)C=C5)cc3)c3ccccc32)cc1
REMARK SMILES IDX 21 1 20 2 18 3 19 4 17 6 16 7 14 8 15 9 12 11 13 12 11 13
REMARK SMILES IDX 9 14 10 15 96 16 91 17 95 18 92 19 94 20 93 21 6 22 7 23
REMARK SMILES IDX 8 24 5 25 1 26 2 27 3 28 98 29 4 30 97 31 22 32 23 33 24 34
REMARK SMILES IDX 25 35 26 36 27 38 28 39 29 40 90 41 30 42 89 43 31 44 32 45
REMARK SMILES IDX 33 46 83 47 34 48 88 49 82 50 84 51 35 52 87 53 81 54 80 55
REMARK SMILES IDX 36 57 68 58 48 59 67 60 49 61 52 62 66 63 85 64 50 65 51 66
REMARK SMILES IDX 65 68 86 69 53 70 37 71 38 72 46 73 39 74 41 75 47 76 40 77
REMARK SMILES IDX 42 78 43 79 44 80 45 81 69 82 70 83 78 84 71 85 73 86 79 87
REMARK SMILES IDX 72 88 74 89 75 90 76 91 77 92 54 93 55 94 63 95 56 96 58 97
REMARK SMILES IDX 64 98 57 99 59 100 60 101 61 102 62 103
REMARK H PARENT 20 5 16 10 25 37 84 56 52 67
REMARK Flexibility Score: inf
ROOT
ATOM      1  C   UNL A   1      33.372  33.809  28.171  1.00  0.00     0.116 C 
ENDROOT
BRANCH   1   2
ATOM      2  N   UNL A   1      34.400  32.802  28.354  1.00  0.00    -0.355 N 
ATOM      3  C   UNL A   1      34.440  31.517  27.899  1.00  0.00     0.239 C 
ATOM      4  O   UNL A   1      35.426  30.826  28.163  1.00  0.00    -0.273 OA
ATOM      5  H   UNL A   1      35.180  33.087  28.882  1.00  0.00     0.163 HD
BRANCH   3   6
ATOM      6  C   UNL A   1      33.330  30.990  26.985  1.00  0.00     0.216 C 
BRANCH   6   7
ATOM      7  N   UNL A   1      32.451  30.023  27.635  1.00  0.00    -0.340 N 
ATOM      8  C   UNL A   1      32.351  28.655  27.499  1.00  0.00     0.292 C 
ATOM      9  O   UNL A   1      31.521  28.061  28.180  1.00  0.00    -0.265 OA
ATOM     10  H   UNL A   1      31.823  30.416  28.283  1.00  0.00     0.164 HD
BRANCH   8  11
ATOM     11  C   UNL A   1      33.249  27.878  26.502  1.00  0.00     0.252 C 
ATOM     12  O   UNL A   1      34.454  27.830  26.729  1.00  0.00    -0.283 OA
BRANCH  11  13
ATOM     13  C   UNL A   1      32.692  27.188  25.326  1.00  0.00     0.054 A 
ATOM     14  N   UNL A   1      32.341  25.712  23.683  1.00  0.00    -0.240 N 
ATOM     15  C   UNL A   1      33.014  25.926  24.860  1.00  0.00     0.117 A 
ATOM     16  C   UNL A   1      31.534  26.784  23.369  1.00  0.00     0.065 A 
ATOM     17  C   UNL A   1      31.731  27.724  24.391  1.00  0.00     0.012 A 
ATOM     18  C   UNL A   1      30.683  27.039  22.276  1.00  0.00     0.028 A 
ATOM     19  C   UNL A   1      31.024  28.947  24.318  1.00  0.00     0.011 A 
ATOM     20  C   UNL A   1      30.025  28.269  22.221  1.00  0.00     0.002 A 
ATOM     21  C   UNL A   1      30.185  29.209  23.231  1.00  0.00     0.001 A 
BRANCH  14  22
ATOM     22  S   UNL A   1      32.612  24.358  22.684  1.00  0.00     0.268 S 
ATOM     23  O   UNL A   1      33.116  24.898  21.431  1.00  0.00    -0.201 OA
ATOM     24  O   UNL A   1      31.406  23.564  22.750  1.00  0.00    -0.201 OA
BRANCH  22  25
ATOM     25  C   UNL A   1      33.913  23.386  23.402  1.00  0.00     0.088 A 
ATOM     26  C   UNL A   1      36.871  20.729  25.048  1.00  0.00     0.044 C 
ATOM     27  C   UNL A   1      35.845  21.671  24.492  1.00  0.00    -0.051 A 
ATOM     28  C   UNL A   1      34.483  21.405  24.673  1.00  0.00     0.005 A 
ATOM     29  C   UNL A   1      36.228  22.818  23.785  1.00  0.00     0.005 A 
ATOM     30  C   UNL A   1      33.520  22.254  24.127  1.00  0.00     0.022 A 
ATOM     31  C   UNL A   1      35.267  23.683  23.250  1.00  0.00     0.022 A 
ENDBRANCH  22  25
ENDBRANCH  14  22
ENDBRANCH  11  13
ENDBRANCH   8  11
ENDBRANCH   6   7
ENDBRANCH   3   6
ENDBRANCH   1   2
BRANCH   1  32
ATOM     32  C   UNL A   1      33.905  35.224  28.417  1.00  0.00     0.023 C 
BRANCH  32  33
ATOM     33  C   UNL A   1      33.005  36.094  29.293  1.00  0.00     0.023 C 
BRANCH  33  34
ATOM     34  C   UNL A   1      32.847  35.592  30.715  1.00  0.00     0.116 C 
BRANCH  34  35
ATOM     35  N   UNL A   1      33.881  36.056  31.617  1.00  0.00    -0.352 N 
ATOM     36  C   UNL A   1      34.799  35.323  32.351  1.00  0.00     0.251 C 
ATOM     37  H   UNL A   1      33.939  37.033  31.723  1.00  0.00     0.163 HD
ATOM     38  O   UNL A   1      35.379  35.887  33.275  1.00  0.00    -0.269 OA
BRANCH  36  39
ATOM     39  C   UNL A   1      35.218  33.967  31.894  1.00  0.00     0.039 A 
ATOM     40  C   UNL A   1      35.203  32.974  32.882  1.00  0.00     0.014 A 
ATOM     41  C   UNL A   1      36.030  33.812  30.778  1.00  0.00     0.014 A 
ATOM     42  C   UNL A   1      36.257  32.081  32.952  1.00  0.00     0.010 A 
ATOM     43  C   UNL A   1      37.149  33.039  30.913  1.00  0.00     0.010 A 
ATOM     44  C   UNL A   1      37.295  32.249  32.053  1.00  0.00    -0.014 A 
BRANCH  44  45
ATOM     45  C   UNL A   1      38.558  31.558  32.106  1.00  0.00     0.031 A 
ATOM     46  C   UNL A   1      38.607  30.244  31.466  1.00  0.00     0.074 A 
ATOM     47  C   UNL A   1      39.641  32.286  32.446  1.00  0.00     0.049 A 
ATOM     48  N   UNL A   1      39.628  29.476  31.494  1.00  0.00    -0.248 NA
ATOM     49  C   UNL A   1      37.471  29.681  30.743  1.00  0.00     0.031 C 
ATOM     50  C   UNL A   1      41.039  32.071  32.102  1.00  0.00     0.029 A 
ATOM     51  N   UNL A   1      39.683  33.347  33.340  1.00  0.00    -0.354 N 
ATOM     52  C   UNL A   1      39.410  28.476  30.572  1.00  0.00     0.074 A 
ATOM     53  C   UNL A   1      38.019  28.582  30.222  1.00  0.00     0.031 C 
ATOM     54  C   UNL A   1      41.812  32.797  32.933  1.00  0.00     0.029 A 
ATOM     55  C   UNL A   1      40.937  33.332  33.963  1.00  0.00     0.049 A 
ATOM     56  H   UNL A   1      38.961  33.995  33.506  1.00  0.00     0.167 HD
ATOM     57  C   UNL A   1      40.502  27.801  30.119  1.00  0.00     0.034 A 
ATOM     58  C   UNL A   1      41.005  32.984  35.288  1.00  0.00     0.034 A 
ATOM     59  C   UNL A   1      41.684  28.206  30.909  1.00  0.00     0.049 A 
ATOM     60  C   UNL A   1      41.695  31.643  35.520  1.00  0.00     0.074 A 
ATOM     61  C   UNL A   1      42.708  29.114  30.693  1.00  0.00     0.029 A 
ATOM     62  N   UNL A   1      41.693  27.936  32.275  1.00  0.00    -0.354 N 
ATOM     63  N   UNL A   1      42.023  30.786  34.590  1.00  0.00    -0.248 NA
ATOM     64  C   UNL A   1      42.070  31.176  36.846  1.00  0.00     0.031 C 
ATOM     65  C   UNL A   1      43.298  29.424  31.957  1.00  0.00     0.029 A 
ATOM     66  C   UNL A   1      42.661  28.679  32.937  1.00  0.00     0.049 A 
ATOM     67  H   UNL A   1      41.089  27.297  32.716  1.00  0.00     0.167 HD
ATOM     68  C   UNL A   1      42.534  29.635  35.147  1.00  0.00     0.074 A 
ATOM     69  C   UNL A   1      42.580  29.964  36.566  1.00  0.00     0.031 C 
ATOM     70  C   UNL A   1      42.830  28.521  34.388  1.00  0.00     0.034 A 
BRANCH  57  71
ATOM     71  C   UNL A   1      40.590  26.988  28.835  1.00  0.00     0.023 A 
ATOM     72  C   UNL A   1      39.627  25.965  28.680  1.00  0.00     0.012 A 
ATOM     73  C   UNL A   1      41.557  27.079  27.802  1.00  0.00     0.148 A 
ATOM     74  C   UNL A   1      39.649  25.057  27.615  1.00  0.00     0.002 A 
ATOM     75  C   UNL A   1      41.589  26.165  26.740  1.00  0.00     0.091 A 
ATOM     76  F   UNL A   1      42.457  28.060  27.804  1.00  0.00    -0.205 F 
ATOM     77  C   UNL A   1      40.639  25.147  26.651  1.00  0.00     0.022 A 
BRANCH  75  78
ATOM     78  S   UNL A   1      42.848  26.201  25.446  1.00  0.00     0.127 S 
ATOM     79  O   UNL A   1      44.084  26.311  26.224  1.00  0.00    -0.237 OA
ATOM     80  O   UNL A   1      42.660  24.907  24.790  1.00  0.00    -0.237 OA
ATOM     81  O   UNL A   1      42.558  27.362  24.613  1.00  0.00    -0.744 OA
ENDBRANCH  75  78
ENDBRANCH  57  71
BRANCH  58  82
ATOM     82  C   UNL A   1      39.813  33.501  36.056  1.00  0.00     0.023 A 
ATOM     83  C   UNL A   1      38.725  32.602  36.214  1.00  0.00     0.012 A 
ATOM     84  C   UNL A   1      39.934  34.568  36.961  1.00  0.00     0.148 A 
ATOM     85  C   UNL A   1      37.952  32.615  37.378  1.00  0.00     0.002 A 
ATOM     86  C   UNL A   1      39.127  34.601  38.100  1.00  0.00     0.091 A 
ATOM     87  F   UNL A   1      40.863  35.507  36.735  1.00  0.00    -0.205 F 
ATOM     88  C   UNL A   1      38.191  33.583  38.347  1.00  0.00     0.022 A 
BRANCH  86  89
ATOM     89  S   UNL A   1      39.321  35.902  39.326  1.00  0.00     0.127 S 
ATOM     90  O   UNL A   1      40.715  35.726  39.724  1.00  0.00    -0.237 OA
ATOM     91  O   UNL A   1      39.056  37.122  38.565  1.00  0.00    -0.237 OA
ATOM     92  O   UNL A   1      38.319  35.605  40.341  1.00  0.00    -0.744 OA
ENDBRANCH  86  89
ENDBRANCH  58  82
BRANCH  70  93
ATOM     93  C   UNL A   1      43.273  27.138  34.904  1.00  0.00     0.023 A 
ATOM     94  C   UNL A   1      42.383  26.072  35.114  1.00  0.00     0.012 A 
ATOM     95  C   UNL A   1      44.641  26.843  35.185  1.00  0.00     0.148 A 
ATOM     96  C   UNL A   1      42.806  24.790  35.491  1.00  0.00     0.002 A 
ATOM     97  C   UNL A   1      45.071  25.554  35.498  1.00  0.00     0.091 A 
ATOM     98  F   UNL A   1      45.552  27.822  35.226  1.00  0.00    -0.205 F 
ATOM     99  C   UNL A   1      44.153  24.521  35.652  1.00  0.00     0.022 A 
BRANCH  97 100
ATOM    100  S   UNL A   1      46.814  25.143  35.671  1.00  0.00     0.127 S 
ATOM    101  O   UNL A   1      46.755  23.698  35.887  1.00  0.00    -0.237 OA
ATOM    102  O   UNL A   1      47.350  25.542  34.369  1.00  0.00    -0.237 OA
ATOM    103  O   UNL A   1      47.304  25.931  36.792  1.00  0.00    -0.744 OA
ENDBRANCH  97 100
ENDBRANCH  70  93
ENDBRANCH  44  45
ENDBRANCH  36  39
ENDBRANCH  34  35
ENDBRANCH  33  34
ENDBRANCH  32  33
ENDBRANCH   1  32
TORSDOF 19
ENDMDL
MODEL 2
REMARK VINA RESULT:     -12.3      5.650      9.428
REMARK SMILES Cc1ccc(S(=O)(=O)n2cc(C(=O)C(=O)NCC(=O)NCCCCNC(=O)c3ccc(-c4c5nc(c(-c6cccc(S(=O)(=O)[O-])c6F)c6ccc([nH]6)c(-c6cccc(S(=O)(=O)[O-])c6F)c6nc(c(-c7cccc(S(=O)(=O)[O-])c7F)c7ccc4[nH]7)C=C6)C=C5)cc3)c3ccccc32)cc1
REMARK SMILES IDX 21 1 20 2 18 3 19 4 17 6 16 7 14 8 15 9 12 11 13 12 11 13
REMARK SMILES IDX 9 14 10 15 96 16 91 17 95 18 92 19 94 20 93 21 6 22 7 23
REMARK SMILES IDX 8 24 5 25 1 26 2 27 3 28 98 29 4 30 97 31 22 32 23 33 24 34
REMARK SMILES IDX 25 35 26 36 27 38 28 39 29 40 90 41 30 42 89 43 31 44 32 45
REMARK SMILES IDX 33 46 83 47 34 48 88 49 82 50 84 51 35 52 87 53 81 54 80 55
REMARK SMILES IDX 36 57 68 58 48 59 67 60 49 61 52 62 66 63 85 64 50 65 51 66
REMARK SMILES IDX 65 68 86 69 53 70 37 71 38 72 46 73 39 74 41 75 47 76 40 77
REMARK SMILES IDX 42 78 43 79 44 80 45 81 69 82 70 83 78 84 71 85 73 86 79 87
REMARK SMILES IDX 72 88 74 89 75 90 76 91 77 92 54 93 55 94 63 95 56 96 58 97
REMARK SMILES IDX 64 98 57 99 59 100 60 101 61 102 62 103
REMARK H PARENT 20 5 16 10 25 37 84 56 52 67
REMARK Flexibility Score: inf
ROOT
ATOM      1  C   UNL A   1      37.951  22.021  25.562  1.00  0.00     0.116 C 
ENDROOT
BRANCH   1   2
ATOM      2  N   UNL A   1      36.708  22.286  26.261  1.00  0.00    -0.355 N 
ATOM      3  C   UNL A   1      35.473  21.741  26.060  1.00  0.00     0.239 C 
ATOM      4  O   UNL A   1      34.543  22.103  26.783  1.00  0.00    -0.273 OA
ATOM      5  H   UNL A   1      36.763  22.952  26.982  1.00  0.00     0.163 HD
BRANCH   3   6
ATOM      6  C   UNL A   1      35.284  20.623  25.032  1.00  0.00     0.216 C 
BRANCH   6   7
ATOM      7  N   UNL A   1      34.190  19.712  25.357  1.00  0.00    -0.340 N 
ATOM      8  C   UNL A   1      32.919  19.600  24.836  1.00  0.00     0.292 C 
ATOM      9  O   UNL A   1      32.180  18.730  25.284  1.00  0.00    -0.265 OA
ATOM     10  H   UNL A   1      34.397  19.068  26.071  1.00  0.00     0.164 HD
BRANCH   8  11
ATOM     11  C   UNL A   1      32.420  20.555  23.721  1.00  0.00     0.252 C 
ATOM     12  O   UNL A   1      32.172  20.075  22.619  1.00  0.00    -0.283 OA
BRANCH  11  13
ATOM     13  C   UNL A   1      32.215  21.994  23.961  1.00  0.00     0.054 A 
ATOM     14  N   UNL A   1      31.584  23.940  24.864  1.00  0.00    -0.240 N 
ATOM     15  C   UNL A   1      31.699  22.592  25.097  1.00  0.00     0.117 A 
ATOM     16  C   UNL A   1      32.056  24.272  23.614  1.00  0.00     0.065 A 
ATOM     17  C   UNL A   1      32.466  23.065  23.027  1.00  0.00     0.012 A 
ATOM     18  C   UNL A   1      32.129  25.497  22.925  1.00  0.00     0.028 A 
ATOM     19  C   UNL A   1      32.991  23.106  21.715  1.00  0.00     0.011 A 
ATOM     20  C   UNL A   1      32.624  25.496  21.619  1.00  0.00     0.002 A 
ATOM     21  C   UNL A   1      33.059  24.320  21.023  1.00  0.00     0.001 A 
BRANCH  14  22
ATOM     22  S   UNL A   1      30.807  25.010  25.940  1.00  0.00     0.268 S 
ATOM     23  O   UNL A   1      30.677  24.274  27.188  1.00  0.00    -0.201 OA
ATOM     24  O   UNL A   1      29.660  25.529  25.230  1.00  0.00    -0.201 OA
BRANCH  22  25
ATOM     25  C   UNL A   1      31.893  26.382  26.246  1.00  0.00     0.088 A 
ATOM     26  C   UNL A   1      34.311  29.788  27.279  1.00  0.00     0.044 C 
ATOM     27  C   UNL A   1      33.472  28.605  26.895  1.00  0.00    -0.051 A 
ATOM     28  C   UNL A   1      32.078  28.680  26.986  1.00  0.00     0.005 A 
ATOM     29  C   UNL A   1      34.065  27.417  26.448  1.00  0.00     0.005 A 
ATOM     30  C   UNL A   1      31.290  27.573  26.669  1.00  0.00     0.022 A 
ATOM     31  C   UNL A   1      33.279  26.309  26.111  1.00  0.00     0.022 A 
ENDBRANCH  22  25
ENDBRANCH  14  22
ENDBRANCH  11  13
ENDBRANCH   8  11
ENDBRANCH   6   7
ENDBRANCH   3   6
ENDBRANCH   1   2
BRANCH   1  32
ATOM     32  C   UNL A   1      39.163  22.579  26.317  1.00  0.00     0.023 C 
BRANCH  32  33
ATOM     33  C   UNL A   1      38.831  23.702  27.299  1.00  0.00     0.023 C 
BRANCH  33  34
ATOM     34  C   UNL A   1      39.247  25.082  26.831  1.00  0.00     0.116 C 
BRANCH  34  35
ATOM     35  N   UNL A   1      40.384  25.077  25.933  1.00  0.00    -0.352 N 
ATOM     36  C   UNL A   1      41.671  25.543  26.145  1.00  0.00     0.251 C 
ATOM     37  H   UNL A   1      40.217  24.688  25.045  1.00  0.00     0.163 HD
ATOM     38  O   UNL A   1      42.388  25.721  25.164  1.00  0.00    -0.269 OA
BRANCH  36  39
ATOM     39  C   UNL A   1      42.228  25.618  27.526  1.00  0.00     0.039 A 
ATOM     40  C   UNL A   1      42.524  26.909  27.981  1.00  0.00     0.014 A 
ATOM     41  C   UNL A   1      42.873  24.527  28.092  1.00  0.00     0.014 A 
ATOM     42  C   UNL A   1      43.706  27.125  28.666  1.00  0.00     0.010 A 
ATOM     43  C   UNL A   1      44.110  24.736  28.637  1.00  0.00     0.010 A 
ATOM     44  C   UNL A   1      44.553  26.044  28.830  1.00  0.00    -0.014 A 
BRANCH  44  45
ATOM     45  C   UNL A   1      45.904  26.116  29.326  1.00  0.00     0.031 A 
ATOM     46  C   UNL A   1      46.947  25.580  28.453  1.00  0.00     0.074 A 
ATOM     47  C   UNL A   1      46.128  26.933  30.376  1.00  0.00     0.049 A 
ATOM     48  N   UNL A   1      48.180  25.501  28.781  1.00  0.00    -0.248 NA
ATOM     49  C   UNL A   1      46.663  25.065  27.117  1.00  0.00     0.031 C 
ATOM     50  C   UNL A   1      47.353  27.617  30.765  1.00  0.00     0.029 A 
ATOM     51  N   UNL A   1      45.260  27.195  31.426  1.00  0.00    -0.354 N 
ATOM     52  C   UNL A   1      48.888  25.215  27.635  1.00  0.00     0.074 A 
ATOM     53  C   UNL A   1      47.897  24.842  26.661  1.00  0.00     0.031 C 
ATOM     54  C   UNL A   1      47.244  28.018  32.045  1.00  0.00     0.029 A 
ATOM     55  C   UNL A   1      46.031  27.418  32.574  1.00  0.00     0.049 A 
ATOM     56  H   UNL A   1      44.277  27.221  31.374  1.00  0.00     0.167 HD
ATOM     57  C   UNL A   1      50.218  25.499  27.641  1.00  0.00     0.034 A 
ATOM     58  C   UNL A   1      46.008  26.475  33.570  1.00  0.00     0.034 A 
ATOM     59  C   UNL A   1      50.625  25.888  29.008  1.00  0.00     0.049 A 
ATOM     60  C   UNL A   1      47.333  25.733  33.721  1.00  0.00     0.074 A 
ATOM     61  C   UNL A   1      50.815  27.110  29.634  1.00  0.00     0.029 A 
ATOM     62  N   UNL A   1      50.500  24.950  30.029  1.00  0.00    -0.354 N 
ATOM     63  N   UNL A   1      48.342  25.803  32.894  1.00  0.00    -0.248 NA
ATOM     64  C   UNL A   1      47.609  24.848  34.843  1.00  0.00     0.031 C 
ATOM     65  C   UNL A   1      50.749  26.898  31.045  1.00  0.00     0.029 A 
ATOM     66  C   UNL A   1      50.559  25.546  31.282  1.00  0.00     0.049 A 
ATOM     67  H   UNL A   1      50.385  23.984  29.881  1.00  0.00     0.167 HD
ATOM     68  C   UNL A   1      49.340  24.931  33.269  1.00  0.00     0.074 A 
ATOM     69  C   UNL A   1      48.835  24.396  34.528  1.00  0.00     0.031 C 
ATOM     70  C   UNL A   1      50.456  24.712  32.487  1.00  0.00     0.034 A 
BRANCH  57  71
ATOM     71  C   UNL A   1      51.106  25.684  26.418  1.00  0.00     0.023 A 
ATOM     72  C   UNL A   1      52.370  25.053  26.466  1.00  0.00     0.012 A 
ATOM     73  C   UNL A   1      50.857  26.466  25.261  1.00  0.00     0.148 A 
ATOM     74  C   UNL A   1      53.343  25.227  25.475  1.00  0.00     0.002 A 
ATOM     75  C   UNL A   1      51.833  26.651  24.273  1.00  0.00     0.091 A 
ATOM     76  F   UNL A   1      49.668  27.033  25.073  1.00  0.00    -0.205 F 
ATOM     77  C   UNL A   1      53.081  26.037  24.384  1.00  0.00     0.022 A 
BRANCH  75  78
ATOM     78  S   UNL A   1      51.582  27.698  22.823  1.00  0.00     0.127 S 
ATOM     79  O   UNL A   1      51.300  29.000  23.430  1.00  0.00    -0.237 OA
ATOM     80  O   UNL A   1      52.876  27.614  22.147  1.00  0.00    -0.237 OA
ATOM     81  O   UNL A   1      50.462  27.127  22.083  1.00  0.00    -0.744 OA
ENDBRANCH  75  78
ENDBRANCH  57  71
BRANCH  58  82
ATOM     82  C   UNL A   1      44.638  25.861  33.718  1.00  0.00     0.023 A 
ATOM     83  C   UNL A   1      44.500  24.513  33.292  1.00  0.00     0.012 A 
ATOM     84  C   UNL A   1      43.704  26.371  34.636  1.00  0.00     0.148 A 
ATOM     85  C   UNL A   1      43.633  23.641  33.955  1.00  0.00     0.002 A 
ATOM     86  C   UNL A   1      42.808  25.501  35.261  1.00  0.00     0.091 A 
ATOM     87  F   UNL A   1      43.731  27.677  34.928  1.00  0.00    -0.205 F 
ATOM     88  C   UNL A   1      42.826  24.126  34.979  1.00  0.00     0.022 A 
BRANCH  86  89
ATOM     89  S   UNL A   1      41.665  26.105  36.511  1.00  0.00     0.127 S 
ATOM     90  O   UNL A   1      41.047  27.235  35.824  1.00  0.00    -0.237 OA
ATOM     91  O   UNL A   1      40.775  24.964  36.727  1.00  0.00    -0.237 OA
ATOM     92  O   UNL A   1      42.505  26.427  37.656  1.00  0.00    -0.744 OA
ENDBRANCH  86  89
ENDBRANCH  58  82
BRANCH  70  93
ATOM     93  C   UNL A   1      51.565  23.670  32.725  1.00  0.00     0.023 A 
ATOM     94  C   UNL A   1      52.929  23.932  32.513  1.00  0.00     0.012 A 
ATOM     95  C   UNL A   1      51.274  22.357  33.206  1.00  0.00     0.148 A 
ATOM     96  C   UNL A   1      53.939  23.011  32.824  1.00  0.00     0.002 A 
ATOM     97  C   UNL A   1      52.279  21.464  33.575  1.00  0.00     0.091 A 
ATOM     98  F   UNL A   1      50.012  21.916  33.249  1.00  0.00    -0.205 F 
ATOM     99  C   UNL A   1      53.618  21.789  33.386  1.00  0.00     0.022 A 
BRANCH  97 100
ATOM    100  S   UNL A   1      51.914  19.883  34.352  1.00  0.00     0.127 S 
ATOM    101  O   UNL A   1      52.875  19.002  33.690  1.00  0.00    -0.237 OA
ATOM    102  O   UNL A   1      52.212  20.161  35.758  1.00  0.00    -0.237 OA
ATOM    103  O   UNL A   1      50.512  19.613  34.075  1.00  0.00    -0.744 OA
ENDBRANCH  97 100
ENDBRANCH  70  93
ENDBRANCH  44  45
ENDBRANCH  36  39
ENDBRANCH  34  35
ENDBRANCH  33  34
ENDBRANCH  32  33
ENDBRANCH   1  32
TORSDOF 19
ENDMDL
MODEL 3
REMARK VINA RESULT:     -12.2      5.807      9.492
REMARK SMILES Cc1ccc(S(=O)(=O)n2cc(C(=O)C(=O)NCC(=O)NCCCCNC(=O)c3ccc(-c4c5nc(c(-c6cccc(S(=O)(=O)[O-])c6F)c6ccc([nH]6)c(-c6cccc(S(=O)(=O)[O-])c6F)c6nc(c(-c7cccc(S(=O)(=O)[O-])c7F)c7ccc4[nH]7)C=C6)C=C5)cc3)c3ccccc32)cc1
REMARK SMILES IDX 21 1 20 2 18 3 19 4 17 6 16 7 14 8 15 9 12 11 13 12 11 13
REMARK SMILES IDX 9 14 10 15 96 16 91 17 95 18 92 19 94 20 93 21 6 22 7 23
REMARK SMILES IDX 8 24 5 25 1 26 2 27 3 28 98 29 4 30 97 31 22 32 23 33 24 34
REMARK SMILES IDX 25 35 26 36 27 38 28 39 29 40 90 41 30 42 89 43 31 44 32 45
REMARK SMILES IDX 33 46 83 47 34 48 88 49 82 50 84 51 35 52 87 53 81 54 80 55
REMARK SMILES IDX 36 57 68 58 48 59 67 60 49 61 52 62 66 63 85 64 50 65 51 66
REMARK SMILES IDX 65 68 86 69 53 70 37 71 38 72 46 73 39 74 41 75 47 76 40 77
REMARK SMILES IDX 42 78 43 79 44 80 45 81 69 82 70 83 78 84 71 85 73 86 79 87
REMARK SMILES IDX 72 88 74 89 75 90 76 91 77 92 54 93 55 94 63 95 56 96 58 97
REMARK SMILES IDX 64 98 57 99 59 100 60 101 61 102 62 103
REMARK H PARENT 20 5 16 10 25 37 84 56 52 67
REMARK Flexibility Score: inf
ROOT
ATOM      1  C   UNL A   1      38.163  22.019  25.799  1.00  0.00     0.116 C 
ENDROOT
BRANCH   1   2
ATOM      2  N   UNL A   1      36.887  22.628  26.122  1.00  0.00    -0.355 N 
ATOM      3  C   UNL A   1      35.635  22.279  25.708  1.00  0.00     0.239 C 
ATOM      4  O   UNL A   1      34.673  22.933  26.116  1.00  0.00    -0.273 OA
ATOM      5  H   UNL A   1      36.931  23.404  26.725  1.00  0.00     0.163 HD
BRANCH   3   6
ATOM      6  C   UNL A   1      35.431  21.030  24.845  1.00  0.00     0.216 C 
BRANCH   6   7
ATOM      7  N   UNL A   1      34.423  20.116  25.374  1.00  0.00    -0.340 N 
ATOM      8  C   UNL A   1      33.141  19.839  24.950  1.00  0.00     0.292 C 
ATOM      9  O   UNL A   1      32.489  19.007  25.573  1.00  0.00    -0.265 OA
ATOM     10  H   UNL A   1      34.708  19.612  26.169  1.00  0.00     0.164 HD
BRANCH   8  11
ATOM     11  C   UNL A   1      32.523  20.565  23.727  1.00  0.00     0.252 C 
ATOM     12  O   UNL A   1      32.266  19.896  22.730  1.00  0.00    -0.283 OA
BRANCH  11  13
ATOM     13  C   UNL A   1      32.219  22.006  23.748  1.00  0.00     0.054 A 
ATOM     14  N   UNL A   1      32.221  24.196  23.295  1.00  0.00    -0.240 N 
ATOM     15  C   UNL A   1      32.644  22.968  22.849  1.00  0.00     0.117 A 
ATOM     16  C   UNL A   1      31.479  24.078  24.449  1.00  0.00     0.065 A 
ATOM     17  C   UNL A   1      31.457  22.709  24.752  1.00  0.00     0.012 A 
ATOM     18  C   UNL A   1      30.860  25.034  25.277  1.00  0.00     0.028 A 
ATOM     19  C   UNL A   1      30.763  22.293  25.912  1.00  0.00     0.011 A 
ATOM     20  C   UNL A   1      30.210  24.591  26.431  1.00  0.00     0.002 A 
ATOM     21  C   UNL A   1      30.153  23.239  26.742  1.00  0.00     0.001 A 
BRANCH  14  22
ATOM     22  S   UNL A   1      32.703  25.666  22.579  1.00  0.00     0.268 S 
ATOM     23  O   UNL A   1      31.523  26.161  21.886  1.00  0.00    -0.201 OA
ATOM     24  O   UNL A   1      33.942  25.387  21.888  1.00  0.00    -0.201 OA
BRANCH  22  25
ATOM     25  C   UNL A   1      33.079  26.821  23.874  1.00  0.00     0.088 A 
ATOM     26  C   UNL A   1      33.633  29.716  27.010  1.00  0.00     0.044 C 
ATOM     27  C   UNL A   1      33.462  28.713  25.908  1.00  0.00    -0.051 A 
ATOM     28  C   UNL A   1      32.620  28.999  24.828  1.00  0.00     0.005 A 
ATOM     29  C   UNL A   1      34.132  27.483  25.944  1.00  0.00     0.005 A 
ATOM     30  C   UNL A   1      32.423  28.058  23.818  1.00  0.00     0.022 A 
ATOM     31  C   UNL A   1      33.954  26.541  24.924  1.00  0.00     0.022 A 
ENDBRANCH  22  25
ENDBRANCH  14  22
ENDBRANCH  11  13
ENDBRANCH   8  11
ENDBRANCH   6   7
ENDBRANCH   3   6
ENDBRANCH   1   2
BRANCH   1  32
ATOM     32  C   UNL A   1      39.311  22.631  26.609  1.00  0.00     0.023 C 
BRANCH  32  33
ATOM     33  C   UNL A   1      38.912  23.840  27.454  1.00  0.00     0.023 C 
BRANCH  33  34
ATOM     34  C   UNL A   1      39.252  25.177  26.828  1.00  0.00     0.116 C 
BRANCH  34  35
ATOM     35  N   UNL A   1      40.381  25.129  25.922  1.00  0.00    -0.352 N 
ATOM     36  C   UNL A   1      41.678  25.574  26.112  1.00  0.00     0.251 C 
ATOM     37  H   UNL A   1      40.199  24.723  25.045  1.00  0.00     0.163 HD
ATOM     38  O   UNL A   1      42.390  25.715  25.121  1.00  0.00    -0.269 OA
BRANCH  36  39
ATOM     39  C   UNL A   1      42.249  25.670  27.486  1.00  0.00     0.039 A 
ATOM     40  C   UNL A   1      42.574  26.966  27.908  1.00  0.00     0.014 A 
ATOM     41  C   UNL A   1      42.876  24.580  28.073  1.00  0.00     0.014 A 
ATOM     42  C   UNL A   1      43.767  27.174  28.579  1.00  0.00     0.010 A 
ATOM     43  C   UNL A   1      44.122  24.776  28.603  1.00  0.00     0.010 A 
ATOM     44  C   UNL A   1      44.593  26.080  28.761  1.00  0.00    -0.014 A 
BRANCH  44  45
ATOM     45  C   UNL A   1      45.949  26.136  29.245  1.00  0.00     0.031 A 
ATOM     46  C   UNL A   1      46.980  25.607  28.353  1.00  0.00     0.074 A 
ATOM     47  C   UNL A   1      46.189  26.935  30.304  1.00  0.00     0.049 A 
ATOM     48  N   UNL A   1      48.216  25.516  28.666  1.00  0.00    -0.248 NA
ATOM     49  C   UNL A   1      46.679  25.115  27.011  1.00  0.00     0.031 C 
ATOM     50  C   UNL A   1      47.422  27.605  30.692  1.00  0.00     0.029 A 
ATOM     51  N   UNL A   1      45.333  27.185  31.368  1.00  0.00    -0.354 N 
ATOM     52  C   UNL A   1      48.910  25.244  27.509  1.00  0.00     0.074 A 
ATOM     53  C   UNL A   1      47.907  24.892  26.540  1.00  0.00     0.031 C 
ATOM     54  C   UNL A   1      47.328  27.986  31.980  1.00  0.00     0.029 A 
ATOM     55  C   UNL A   1      46.117  27.386  32.511  1.00  0.00     0.049 A 
ATOM     56  H   UNL A   1      44.350  27.218  31.326  1.00  0.00     0.167 HD
ATOM     57  C   UNL A   1      50.242  25.520  27.506  1.00  0.00     0.034 A 
ATOM     58  C   UNL A   1      46.098  26.427  33.492  1.00  0.00     0.034 A 
ATOM     59  C   UNL A   1      50.665  25.884  28.875  1.00  0.00     0.049 A 
ATOM     60  C   UNL A   1      47.420  25.674  33.618  1.00  0.00     0.074 A 
ATOM     61  C   UNL A   1      50.868  27.095  29.518  1.00  0.00     0.029 A 
ATOM     62  N   UNL A   1      50.545  24.931  29.882  1.00  0.00    -0.354 N 
ATOM     63  N   UNL A   1      48.421  25.751  32.782  1.00  0.00    -0.248 NA
ATOM     64  C   UNL A   1      47.702  24.771  34.723  1.00  0.00     0.031 C 
ATOM     65  C   UNL A   1      50.816  26.862  30.926  1.00  0.00     0.029 A 
ATOM     66  C   UNL A   1      50.620  25.507  31.143  1.00  0.00     0.049 A 
ATOM     67  H   UNL A   1      50.422  23.968  29.720  1.00  0.00     0.167 HD
ATOM     68  C   UNL A   1      49.417  24.867  33.133  1.00  0.00     0.074 A 
ATOM     69  C   UNL A   1      48.922  24.316  34.388  1.00  0.00     0.031 C 
ATOM     70  C   UNL A   1      50.524  24.655  32.336  1.00  0.00     0.034 A 
BRANCH  57  71
ATOM     71  C   UNL A   1      51.119  25.719  26.277  1.00  0.00     0.023 A 
ATOM     72  C   UNL A   1      52.362  25.045  26.284  1.00  0.00     0.012 A 
ATOM     73  C   UNL A   1      50.880  26.548  25.152  1.00  0.00     0.148 A 
ATOM     74  C   UNL A   1      53.326  25.222  25.286  1.00  0.00     0.002 A 
ATOM     75  C   UNL A   1      51.848  26.736  24.156  1.00  0.00     0.091 A 
ATOM     76  F   UNL A   1      49.708  27.160  25.001  1.00  0.00    -0.205 F 
ATOM     77  C   UNL A   1      53.076  26.079  24.227  1.00  0.00     0.022 A 
BRANCH  75  78
ATOM     78  S   UNL A   1      51.611  27.842  22.747  1.00  0.00     0.127 S 
ATOM     79  O   UNL A   1      52.933  27.822  22.117  1.00  0.00    -0.237 OA
ATOM     80  O   UNL A   1      50.568  27.158  21.984  1.00  0.00    -0.237 OA
ATOM     81  O   UNL A   1      51.226  29.138  23.292  1.00  0.00    -0.744 OA
ENDBRANCH  75  78
ENDBRANCH  57  71
BRANCH  58  82
ATOM     82  C   UNL A   1      44.726  25.819  33.644  1.00  0.00     0.023 A 
ATOM     83  C   UNL A   1      44.569  24.487  33.175  1.00  0.00     0.012 A 
ATOM     84  C   UNL A   1      43.813  26.304  34.596  1.00  0.00     0.148 A 
ATOM     85  C   UNL A   1      43.707  23.600  33.825  1.00  0.00     0.002 A 
ATOM     86  C   UNL A   1      42.922  25.421  35.208  1.00  0.00     0.091 A 
ATOM     87  F   UNL A   1      43.856  27.600  34.932  1.00  0.00    -0.205 F 
ATOM     88  C   UNL A   1      42.923  24.056  34.879  1.00  0.00     0.022 A 
BRANCH  86  89
ATOM     89  S   UNL A   1      41.806  25.990  36.499  1.00  0.00     0.127 S 
ATOM     90  O   UNL A   1      41.025  26.998  35.789  1.00  0.00    -0.237 OA
ATOM     91  O   UNL A   1      41.061  24.782  36.852  1.00  0.00    -0.237 OA
ATOM     92  O   UNL A   1      42.682  26.478  37.555  1.00  0.00    -0.744 OA
ENDBRANCH  86  89
ENDBRANCH  58  82
BRANCH  70  93
ATOM     93  C   UNL A   1      51.629  23.603  32.547  1.00  0.00     0.023 A 
ATOM     94  C   UNL A   1      51.419  22.222  32.399  1.00  0.00     0.012 A 
ATOM     95  C   UNL A   1      52.966  23.973  32.890  1.00  0.00     0.148 A 
ATOM     96  C   UNL A   1      52.452  21.279  32.498  1.00  0.00     0.002 A 
ATOM     97  C   UNL A   1      54.005  23.044  32.926  1.00  0.00     0.091 A 
ATOM     98  F   UNL A   1      53.247  25.226  33.262  1.00  0.00    -0.205 F 
ATOM     99  C   UNL A   1      53.751  21.691  32.729  1.00  0.00     0.022 A 
BRANCH  97 100
ATOM    100  S   UNL A   1      55.717  23.535  33.177  1.00  0.00     0.127 S 
ATOM    101  O   UNL A   1      56.071  22.770  34.371  1.00  0.00    -0.237 OA
ATOM    102  O   UNL A   1      56.350  23.066  31.943  1.00  0.00    -0.237 OA
ATOM    103  O   UNL A   1      55.702  24.982  33.333  1.00  0.00    -0.744 OA
ENDBRANCH  97 100
ENDBRANCH  70  93
ENDBRANCH  44  45
ENDBRANCH  36  39
ENDBRANCH  34  35
ENDBRANCH  33  34
ENDBRANCH  32  33
ENDBRANCH   1  32
TORSDOF 19
ENDMDL
