MODEL 1
REMARK VINA RESULT:     -12.5      0.000      0.000
REMARK SMILES Cc1c(C(=O)NCCCCNC(=O)c2ccc(-c3c4nc(c(-c5cccc(S(=O)(=O)[O-])c5F)c5ccc([nH]5)c(-c5cccc(S(=O)(=O)[O-])c5F)c5nc(c(-c6cccc(S(=O)(=O)[O-])c6F)c6ccc3[nH]6)C=C5)C=C4)cc2)sc2c1=C(CSc1nncn1-c1ccccc1)CC(=O)N=2
REMARK SMILES IDX 8 1 7 2 6 3 4 4 5 5 3 7 1 8 2 9 79 10 77 11 78 12 80 13
REMARK SMILES IDX 97 14 94 15 95 16 96 17 81 18 82 19 83 20 84 21 87 22 85 23
REMARK SMILES IDX 86 24 88 25 89 26 93 27 90 28 92 29 91 30 9 31 10 32 11 33
REMARK SMILES IDX 12 34 13 36 14 37 15 38 76 39 16 40 75 41 17 42 18 43 19 44
REMARK SMILES IDX 69 45 20 46 74 47 68 48 70 49 21 50 73 51 67 52 66 53 22 55
REMARK SMILES IDX 54 56 34 57 53 58 35 59 38 60 52 61 71 62 36 63 37 64 51 66
REMARK SMILES IDX 72 67 39 68 23 69 24 70 32 71 25 72 27 73 33 74 26 75 28 76
REMARK SMILES IDX 29 77 30 78 31 79 55 80 56 81 64 82 57 83 59 84 65 85 58 86
REMARK SMILES IDX 60 87 61 88 62 89 63 90 40 91 41 92 49 93 42 94 44 95 50 96
REMARK SMILES IDX 43 97 45 98 46 99 47 100 48 101
REMARK H PARENT 6 6 11 35 70 54 38 65
REMARK Flexibility Score: inf
ROOT
ATOM      1  C   UNL A   1      31.172  31.331  25.808  1.00  0.00     0.023 C 
ENDROOT
BRANCH   1   2
ATOM      2  C   UNL A   1      32.331  30.359  26.092  1.00  0.00     0.116 C 
BRANCH   2   3
ATOM      3  N   UNL A   1      31.988  29.438  27.153  1.00  0.00    -0.351 N 
ATOM      4  C   UNL A   1      31.733  28.107  27.231  1.00  0.00     0.261 C 
ATOM      5  O   UNL A   1      31.391  27.723  28.356  1.00  0.00    -0.268 OA
ATOM      6  H   UNL A   1      31.923  29.883  28.029  1.00  0.00     0.163 HD
BRANCH   4   7
ATOM      7  C   UNL A   1      31.861  27.103  26.104  1.00  0.00     0.098 A 
ATOM      8  C   UNL A   1      34.248  26.121  26.038  1.00  0.00     0.047 C 
ATOM      9  C   UNL A   1      32.823  26.270  25.632  1.00  0.00    -0.018 A 
ATOM     10  C   UNL A   1      32.401  25.559  24.417  1.00  0.00     0.016 A 
ATOM     11  S   UNL A   1      30.486  27.199  24.943  1.00  0.00    -0.110 S 
ATOM     12  C   UNL A   1      31.378  26.364  23.706  1.00  0.00     0.128 A 
ATOM     13  C   UNL A   1      33.125  24.769  23.596  1.00  0.00    -0.040 C 
ATOM     14  N   UNL A   1      31.204  26.524  22.441  1.00  0.00    -0.202 NA
ATOM     15  C   UNL A   1      33.418  25.402  22.243  1.00  0.00     0.135 C 
ATOM     16  C   UNL A   1      32.106  25.884  21.618  1.00  0.00     0.251 C 
ATOM     17  O   UNL A   1      31.920  25.748  20.406  1.00  0.00    -0.272 OA
BRANCH  13  18
ATOM     18  C   UNL A   1      32.688  23.317  23.375  1.00  0.00     0.110 C 
BRANCH  18  19
ATOM     19  S   UNL A   1      31.930  22.538  24.808  1.00  0.00    -0.081 SA
BRANCH  19  20
ATOM     20  C   UNL A   1      32.712  20.996  24.806  1.00  0.00     0.195 A 
ATOM     21  N   UNL A   1      32.097  19.859  24.554  1.00  0.00    -0.123 NA
ATOM     22  N   UNL A   1      34.077  20.796  24.868  1.00  0.00    -0.277 N 
ATOM     23  N   UNL A   1      33.047  18.880  24.435  1.00  0.00    -0.138 NA
ATOM     24  C   UNL A   1      34.216  19.448  24.618  1.00  0.00     0.231 A 
BRANCH  22  25
ATOM     25  C   UNL A   1      35.137  21.727  24.991  1.00  0.00     0.049 A 
ATOM     26  C   UNL A   1      35.450  22.357  26.203  1.00  0.00     0.027 A 
ATOM     27  C   UNL A   1      35.836  22.077  23.835  1.00  0.00     0.027 A 
ATOM     28  C   UNL A   1      36.388  23.389  26.238  1.00  0.00     0.002 A 
ATOM     29  C   UNL A   1      36.768  23.099  23.883  1.00  0.00     0.002 A 
ATOM     30  C   UNL A   1      37.031  23.777  25.071  1.00  0.00     0.000 A 
ENDBRANCH  22  25
ENDBRANCH  19  20
ENDBRANCH  18  19
ENDBRANCH  13  18
ENDBRANCH   4   7
ENDBRANCH   2   3
ENDBRANCH   1   2
BRANCH   1  31
ATOM     31  C   UNL A   1      31.352  32.776  26.307  1.00  0.00     0.023 C 
BRANCH  31  32
ATOM     32  C   UNL A   1      32.486  32.986  27.303  1.00  0.00     0.116 C 
BRANCH  32  33
ATOM     33  N   UNL A   1      32.424  34.285  27.984  1.00  0.00    -0.352 N 
ATOM     34  C   UNL A   1      33.121  34.707  29.101  1.00  0.00     0.251 C 
ATOM     35  H   UNL A   1      31.804  34.942  27.594  1.00  0.00     0.163 HD
ATOM     36  O   UNL A   1      32.697  35.638  29.781  1.00  0.00    -0.269 OA
BRANCH  34  37
ATOM     37  C   UNL A   1      34.408  34.070  29.434  1.00  0.00     0.039 A 
ATOM     38  C   UNL A   1      34.559  33.177  30.495  1.00  0.00     0.014 A 
ATOM     39  C   UNL A   1      35.507  34.415  28.656  1.00  0.00     0.014 A 
ATOM     40  C   UNL A   1      35.814  32.611  30.721  1.00  0.00     0.010 A 
ATOM     41  C   UNL A   1      36.714  33.800  28.810  1.00  0.00     0.010 A 
ATOM     42  C   UNL A   1      36.885  32.940  29.874  1.00  0.00    -0.014 A 
BRANCH  42  43
ATOM     43  C   UNL A   1      38.165  32.265  29.941  1.00  0.00     0.031 A 
ATOM     44  C   UNL A   1      38.157  30.936  29.286  1.00  0.00     0.074 A 
ATOM     45  C   UNL A   1      39.310  32.881  30.302  1.00  0.00     0.049 A 
ATOM     46  N   UNL A   1      38.161  29.791  29.876  1.00  0.00    -0.248 NA
ATOM     47  C   UNL A   1      37.928  30.860  27.835  1.00  0.00     0.031 C 
ATOM     48  C   UNL A   1      39.532  34.300  30.612  1.00  0.00     0.029 A 
ATOM     49  N   UNL A   1      40.568  32.371  30.330  1.00  0.00    -0.354 N 
ATOM     50  C   UNL A   1      38.218  28.849  28.857  1.00  0.00     0.074 A 
ATOM     51  C   UNL A   1      37.827  29.540  27.656  1.00  0.00     0.031 C 
ATOM     52  C   UNL A   1      40.857  34.571  30.559  1.00  0.00     0.029 A 
ATOM     53  C   UNL A   1      41.578  33.324  30.385  1.00  0.00     0.049 A 
ATOM     54  H   UNL A   1      40.750  31.403  30.311  1.00  0.00     0.167 HD
ATOM     55  C   UNL A   1      38.852  27.660  29.048  1.00  0.00     0.034 A 
ATOM     56  C   UNL A   1      42.907  33.092  30.254  1.00  0.00     0.034 A 
ATOM     57  C   UNL A   1      39.131  27.442  30.449  1.00  0.00     0.049 A 
ATOM     58  C   UNL A   1      43.126  31.657  30.555  1.00  0.00     0.074 A 
ATOM     59  C   UNL A   1      38.366  27.414  31.601  1.00  0.00     0.029 A 
ATOM     60  N   UNL A   1      40.425  27.655  30.866  1.00  0.00    -0.354 N 
ATOM     61  N   UNL A   1      42.929  31.138  31.736  1.00  0.00    -0.248 NA
ATOM     62  C   UNL A   1      43.115  30.717  29.447  1.00  0.00     0.031 C 
ATOM     63  C   UNL A   1      39.148  28.105  32.573  1.00  0.00     0.029 A 
ATOM     64  C   UNL A   1      40.375  28.433  31.992  1.00  0.00     0.049 A 
ATOM     65  H   UNL A   1      41.240  27.310  30.433  1.00  0.00     0.167 HD
ATOM     66  C   UNL A   1      42.301  29.927  31.475  1.00  0.00     0.074 A 
ATOM     67  C   UNL A   1      42.547  29.671  30.055  1.00  0.00     0.031 C 
ATOM     68  C   UNL A   1      41.391  29.400  32.348  1.00  0.00     0.034 A 
BRANCH  55  69
ATOM     69  C   UNL A   1      39.570  26.869  27.978  1.00  0.00     0.023 A 
ATOM     70  C   UNL A   1      39.244  25.498  27.872  1.00  0.00     0.012 A 
ATOM     71  C   UNL A   1      40.710  27.311  27.270  1.00  0.00     0.148 A 
ATOM     72  C   UNL A   1      40.048  24.603  27.157  1.00  0.00     0.002 A 
ATOM     73  C   UNL A   1      41.460  26.435  26.494  1.00  0.00     0.091 A 
ATOM     74  F   UNL A   1      41.171  28.551  27.441  1.00  0.00    -0.205 F 
ATOM     75  C   UNL A   1      41.154  25.073  26.462  1.00  0.00     0.022 A 
BRANCH  73  76
ATOM     76  S   UNL A   1      42.871  26.999  25.534  1.00  0.00     0.127 S 
ATOM     77  O   UNL A   1      43.301  25.760  24.895  1.00  0.00    -0.237 OA
ATOM     78  O   UNL A   1      42.250  27.977  24.641  1.00  0.00    -0.237 OA
ATOM     79  O   UNL A   1      43.795  27.578  26.501  1.00  0.00    -0.744 OA
ENDBRANCH  73  76
ENDBRANCH  55  69
BRANCH  56  80
ATOM     80  C   UNL A   1      43.970  33.938  29.667  1.00  0.00     0.023 A 
ATOM     81  C   UNL A   1      44.865  34.627  30.511  1.00  0.00     0.012 A 
ATOM     82  C   UNL A   1      44.294  33.835  28.296  1.00  0.00     0.148 A 
ATOM     83  C   UNL A   1      46.062  35.157  30.015  1.00  0.00     0.002 A 
ATOM     84  C   UNL A   1      45.484  34.365  27.808  1.00  0.00     0.091 A 
ATOM     85  F   UNL A   1      43.483  33.133  27.494  1.00  0.00    -0.205 F 
ATOM     86  C   UNL A   1      46.378  35.017  28.667  1.00  0.00     0.022 A 
BRANCH  84  87
ATOM     87  S   UNL A   1      45.968  34.191  26.085  1.00  0.00     0.127 S 
ATOM     88  O   UNL A   1      47.159  35.038  26.018  1.00  0.00    -0.237 OA
ATOM     89  O   UNL A   1      46.225  32.757  25.989  1.00  0.00    -0.237 OA
ATOM     90  O   UNL A   1      44.837  34.687  25.308  1.00  0.00    -0.744 OA
ENDBRANCH  84  87
ENDBRANCH  56  80
BRANCH  68  91
ATOM     91  C   UNL A   1      41.257  30.037  33.713  1.00  0.00     0.023 A 
ATOM     92  C   UNL A   1      42.164  29.783  34.765  1.00  0.00     0.012 A 
ATOM     93  C   UNL A   1      40.298  31.049  33.878  1.00  0.00     0.148 A 
ATOM     94  C   UNL A   1      42.099  30.508  35.959  1.00  0.00     0.002 A 
ATOM     95  C   UNL A   1      40.268  31.800  35.047  1.00  0.00     0.091 A 
ATOM     96  F   UNL A   1      39.442  31.282  32.871  1.00  0.00    -0.205 F 
ATOM     97  C   UNL A   1      41.160  31.526  36.095  1.00  0.00     0.022 A 
BRANCH  95  98
ATOM     98  S   UNL A   1      39.168  33.206  35.226  1.00  0.00     0.127 S 
ATOM     99  O   UNL A   1      39.534  33.713  36.546  1.00  0.00    -0.237 OA
ATOM    100  O   UNL A   1      39.568  34.062  34.109  1.00  0.00    -0.237 OA
ATOM    101  O   UNL A   1      37.816  32.671  35.109  1.00  0.00    -0.744 OA
ENDBRANCH  95  98
ENDBRANCH  68  91
ENDBRANCH  42  43
ENDBRANCH  34  37
ENDBRANCH  32  33
ENDBRANCH  31  32
ENDBRANCH   1  31
TORSDOF 18
ENDMDL
MODEL 2
REMARK VINA RESULT:     -11.8      3.340      7.516
REMARK SMILES Cc1c(C(=O)NCCCCNC(=O)c2ccc(-c3c4nc(c(-c5cccc(S(=O)(=O)[O-])c5F)c5ccc([nH]5)c(-c5cccc(S(=O)(=O)[O-])c5F)c5nc(c(-c6cccc(S(=O)(=O)[O-])c6F)c6ccc3[nH]6)C=C5)C=C4)cc2)sc2c1=C(CSc1nncn1-c1ccccc1)CC(=O)N=2
REMARK SMILES IDX 8 1 7 2 6 3 4 4 5 5 3 7 1 8 2 9 79 10 77 11 78 12 80 13
REMARK SMILES IDX 97 14 94 15 95 16 96 17 81 18 82 19 83 20 84 21 87 22 85 23
REMARK SMILES IDX 86 24 88 25 89 26 93 27 90 28 92 29 91 30 9 31 10 32 11 33
REMARK SMILES IDX 12 34 13 36 14 37 15 38 76 39 16 40 75 41 17 42 18 43 19 44
REMARK SMILES IDX 69 45 20 46 74 47 68 48 70 49 21 50 73 51 67 52 66 53 22 55
REMARK SMILES IDX 54 56 34 57 53 58 35 59 38 60 52 61 71 62 36 63 37 64 51 66
REMARK SMILES IDX 72 67 39 68 23 69 24 70 32 71 25 72 27 73 33 74 26 75 28 76
REMARK SMILES IDX 29 77 30 78 31 79 55 80 56 81 64 82 57 83 59 84 65 85 58 86
REMARK SMILES IDX 60 87 61 88 62 89 63 90 40 91 41 92 49 93 42 94 44 95 50 96
REMARK SMILES IDX 43 97 45 98 46 99 47 100 48 101
REMARK H PARENT 6 6 11 35 70 54 38 65
REMARK Flexibility Score: inf
ROOT
ATOM      1  C   UNL A   1      32.283  30.812  26.087  1.00  0.00     0.023 C 
ENDROOT
BRANCH   1   2
ATOM      2  C   UNL A   1      31.367  29.860  25.298  1.00  0.00     0.116 C 
BRANCH   2   3
ATOM      3  N   UNL A   1      32.084  29.232  24.210  1.00  0.00    -0.351 N 
ATOM      4  C   UNL A   1      32.600  27.997  23.979  1.00  0.00     0.261 C 
ATOM      5  O   UNL A   1      33.225  27.902  22.916  1.00  0.00    -0.268 OA
ATOM      6  H   UNL A   1      32.235  29.847  23.456  1.00  0.00     0.163 HD
BRANCH   4   7
ATOM      7  C   UNL A   1      32.446  26.782  24.869  1.00  0.00     0.098 A 
ATOM      8  C   UNL A   1      33.827  24.806  23.944  1.00  0.00     0.047 C 
ATOM      9  C   UNL A   1      32.948  25.521  24.911  1.00  0.00    -0.018 A 
ATOM     10  C   UNL A   1      32.362  24.719  25.993  1.00  0.00     0.016 A 
ATOM     11  S   UNL A   1      31.076  26.951  26.028  1.00  0.00    -0.110 S 
ATOM     12  C   UNL A   1      31.009  25.237  26.312  1.00  0.00     0.128 A 
ATOM     13  C   UNL A   1      32.505  23.402  26.254  1.00  0.00    -0.040 C 
ATOM     14  N   UNL A   1      29.946  24.589  26.638  1.00  0.00    -0.202 NA
ATOM     15  C   UNL A   1      31.257  22.583  25.960  1.00  0.00     0.135 C 
ATOM     16  C   UNL A   1      30.060  23.216  26.675  1.00  0.00     0.251 C 
ATOM     17  O   UNL A   1      29.210  22.492  27.201  1.00  0.00    -0.272 OA
BRANCH  13  18
ATOM     18  C   UNL A   1      33.073  22.965  27.609  1.00  0.00     0.110 C 
BRANCH  18  19
ATOM     19  S   UNL A   1      34.141  21.521  27.541  1.00  0.00    -0.081 SA
BRANCH  19  20
ATOM     20  C   UNL A   1      35.114  21.885  26.158  1.00  0.00     0.195 A 
ATOM     21  N   UNL A   1      36.044  22.816  26.136  1.00  0.00    -0.123 NA
ATOM     22  N   UNL A   1      35.169  21.128  25.004  1.00  0.00    -0.277 N 
ATOM     23  N   UNL A   1      36.743  22.690  24.966  1.00  0.00    -0.138 NA
ATOM     24  C   UNL A   1      36.219  21.684  24.306  1.00  0.00     0.231 A 
BRANCH  22  25
ATOM     25  C   UNL A   1      34.462  19.957  24.638  1.00  0.00     0.049 A 
ATOM     26  C   UNL A   1      35.045  18.683  24.675  1.00  0.00     0.027 A 
ATOM     27  C   UNL A   1      33.164  20.105  24.147  1.00  0.00     0.027 A 
ATOM     28  C   UNL A   1      34.368  17.584  24.144  1.00  0.00     0.002 A 
ATOM     29  C   UNL A   1      32.501  19.006  23.628  1.00  0.00     0.002 A 
ATOM     30  C   UNL A   1      33.103  17.751  23.598  1.00  0.00     0.000 A 
ENDBRANCH  22  25
ENDBRANCH  19  20
ENDBRANCH  18  19
ENDBRANCH  13  18
ENDBRANCH   4   7
ENDBRANCH   2   3
ENDBRANCH   1   2
BRANCH   1  31
ATOM     31  C   UNL A   1      33.285  30.153  27.053  1.00  0.00     0.023 C 
BRANCH  31  32
ATOM     32  C   UNL A   1      34.598  30.904  27.244  1.00  0.00     0.116 C 
BRANCH  32  33
ATOM     33  N   UNL A   1      34.545  31.896  28.324  1.00  0.00    -0.352 N 
ATOM     34  C   UNL A   1      35.216  31.892  29.533  1.00  0.00     0.251 C 
ATOM     35  H   UNL A   1      33.953  32.667  28.166  1.00  0.00     0.163 HD
ATOM     36  O   UNL A   1      34.792  32.550  30.479  1.00  0.00    -0.269 OA
BRANCH  34  37
ATOM     37  C   UNL A   1      36.476  31.138  29.658  1.00  0.00     0.039 A 
ATOM     38  C   UNL A   1      36.515  29.762  29.888  1.00  0.00     0.014 A 
ATOM     39  C   UNL A   1      37.660  31.860  29.566  1.00  0.00     0.014 A 
ATOM     40  C   UNL A   1      37.758  29.133  29.974  1.00  0.00     0.010 A 
ATOM     41  C   UNL A   1      38.876  31.244  29.557  1.00  0.00     0.010 A 
ATOM     42  C   UNL A   1      38.930  29.890  29.815  1.00  0.00    -0.014 A 
BRANCH  42  43
ATOM     43  C   UNL A   1      40.242  29.282  29.721  1.00  0.00     0.031 A 
ATOM     44  C   UNL A   1      40.858  29.021  31.043  1.00  0.00     0.074 A 
ATOM     45  C   UNL A   1      40.733  28.750  28.582  1.00  0.00     0.049 A 
ATOM     46  N   UNL A   1      41.826  29.680  31.581  1.00  0.00    -0.248 NA
ATOM     47  C   UNL A   1      40.217  28.056  31.949  1.00  0.00     0.031 C 
ATOM     48  C   UNL A   1      40.070  28.597  27.279  1.00  0.00     0.029 A 
ATOM     49  N   UNL A   1      41.907  28.095  28.397  1.00  0.00    -0.354 N 
ATOM     50  C   UNL A   1      42.098  29.030  32.778  1.00  0.00     0.074 A 
ATOM     51  C   UNL A   1      40.944  28.218  33.059  1.00  0.00     0.031 C 
ATOM     52  C   UNL A   1      40.752  27.699  26.531  1.00  0.00     0.029 A 
ATOM     53  C   UNL A   1      41.976  27.349  27.226  1.00  0.00     0.049 A 
ATOM     54  H   UNL A   1      42.651  28.145  29.040  1.00  0.00     0.167 HD
ATOM     55  C   UNL A   1      43.363  29.005  33.279  1.00  0.00     0.034 A 
ATOM     56  C   UNL A   1      42.958  26.478  26.887  1.00  0.00     0.034 A 
ATOM     57  C   UNL A   1      44.210  29.954  32.594  1.00  0.00     0.049 A 
ATOM     58  C   UNL A   1      44.149  26.837  27.694  1.00  0.00     0.074 A 
ATOM     59  C   UNL A   1      44.149  31.314  32.352  1.00  0.00     0.029 A 
ATOM     60  N   UNL A   1      45.083  29.447  31.659  1.00  0.00    -0.354 N 
ATOM     61  N   UNL A   1      44.795  27.961  27.552  1.00  0.00    -0.248 NA
ATOM     62  C   UNL A   1      44.342  26.158  28.964  1.00  0.00     0.031 C 
ATOM     63  C   UNL A   1      44.579  31.462  31.000  1.00  0.00     0.029 A 
ATOM     64  C   UNL A   1      44.961  30.205  30.525  1.00  0.00     0.049 A 
ATOM     65  H   UNL A   1      45.685  28.678  31.782  1.00  0.00     0.167 HD
ATOM     66  C   UNL A   1      45.071  28.362  28.852  1.00  0.00     0.074 A 
ATOM     67  C   UNL A   1      44.873  27.163  29.668  1.00  0.00     0.031 C 
ATOM     68  C   UNL A   1      45.136  29.685  29.186  1.00  0.00     0.034 A 
BRANCH  55  69
ATOM     69  C   UNL A   1      43.955  27.884  34.103  1.00  0.00     0.023 A 
ATOM     70  C   UNL A   1      44.585  26.836  33.395  1.00  0.00     0.012 A 
ATOM     71  C   UNL A   1      43.700  27.664  35.476  1.00  0.00     0.148 A 
ATOM     72  C   UNL A   1      44.881  25.611  34.002  1.00  0.00     0.002 A 
ATOM     73  C   UNL A   1      44.071  26.476  36.096  1.00  0.00     0.091 A 
ATOM     74  F   UNL A   1      42.974  28.538  36.175  1.00  0.00    -0.205 F 
ATOM     75  C   UNL A   1      44.630  25.433  35.356  1.00  0.00     0.022 A 
BRANCH  73  76
ATOM     76  S   UNL A   1      43.815  26.213  37.855  1.00  0.00     0.127 S 
ATOM     77  O   UNL A   1      44.451  24.915  38.050  1.00  0.00    -0.237 OA
ATOM     78  O   UNL A   1      44.531  27.350  38.433  1.00  0.00    -0.237 OA
ATOM     79  O   UNL A   1      42.371  26.257  38.050  1.00  0.00    -0.744 OA
ENDBRANCH  73  76
ENDBRANCH  55  69
BRANCH  56  80
ATOM     80  C   UNL A   1      42.892  25.224  26.104  1.00  0.00     0.023 A 
ATOM     81  C   UNL A   1      43.872  24.955  25.127  1.00  0.00     0.012 A 
ATOM     82  C   UNL A   1      42.054  24.165  26.516  1.00  0.00     0.148 A 
ATOM     83  C   UNL A   1      44.040  23.665  24.609  1.00  0.00     0.002 A 
ATOM     84  C   UNL A   1      42.224  22.884  25.997  1.00  0.00     0.091 A 
ATOM     85  F   UNL A   1      41.159  24.391  27.486  1.00  0.00    -0.205 F 
ATOM     86  C   UNL A   1      43.225  22.627  25.052  1.00  0.00     0.022 A 
BRANCH  84  87
ATOM     87  S   UNL A   1      41.227  21.494  26.549  1.00  0.00     0.127 S 
ATOM     88  O   UNL A   1      39.873  21.945  26.223  1.00  0.00    -0.237 OA
ATOM     89  O   UNL A   1      41.734  20.410  25.713  1.00  0.00    -0.237 OA
ATOM     90  O   UNL A   1      41.488  21.368  27.979  1.00  0.00    -0.744 OA
ENDBRANCH  84  87
ENDBRANCH  56  80
BRANCH  68  91
ATOM     91  C   UNL A   1      45.140  30.705  28.069  1.00  0.00     0.023 A 
ATOM     92  C   UNL A   1      43.960  31.140  27.429  1.00  0.00     0.012 A 
ATOM     93  C   UNL A   1      46.346  31.366  27.783  1.00  0.00     0.148 A 
ATOM     94  C   UNL A   1      43.986  32.195  26.512  1.00  0.00     0.002 A 
ATOM     95  C   UNL A   1      46.360  32.446  26.908  1.00  0.00     0.091 A 
ATOM     96  F   UNL A   1      47.461  30.945  28.398  1.00  0.00    -0.205 F 
ATOM     97  C   UNL A   1      45.185  32.858  26.262  1.00  0.00     0.022 A 
BRANCH  95  98
ATOM     98  S   UNL A   1      47.847  33.417  26.648  1.00  0.00     0.127 S 
ATOM     99  O   UNL A   1      48.826  32.389  26.304  1.00  0.00    -0.237 OA
ATOM    100  O   UNL A   1      47.461  34.291  25.539  1.00  0.00    -0.237 OA
ATOM    101  O   UNL A   1      48.087  34.121  27.902  1.00  0.00    -0.744 OA
ENDBRANCH  95  98
ENDBRANCH  68  91
ENDBRANCH  42  43
ENDBRANCH  34  37
ENDBRANCH  32  33
ENDBRANCH  31  32
ENDBRANCH   1  31
TORSDOF 18
ENDMDL
MODEL 3
REMARK VINA RESULT:     -11.8      3.261      7.111
REMARK SMILES Cc1c(C(=O)NCCCCNC(=O)c2ccc(-c3c4nc(c(-c5cccc(S(=O)(=O)[O-])c5F)c5ccc([nH]5)c(-c5cccc(S(=O)(=O)[O-])c5F)c5nc(c(-c6cccc(S(=O)(=O)[O-])c6F)c6ccc3[nH]6)C=C5)C=C4)cc2)sc2c1=C(CSc1nncn1-c1ccccc1)CC(=O)N=2
REMARK SMILES IDX 8 1 7 2 6 3 4 4 5 5 3 7 1 8 2 9 79 10 77 11 78 12 80 13
REMARK SMILES IDX 97 14 94 15 95 16 96 17 81 18 82 19 83 20 84 21 87 22 85 23
REMARK SMILES IDX 86 24 88 25 89 26 93 27 90 28 92 29 91 30 9 31 10 32 11 33
REMARK SMILES IDX 12 34 13 36 14 37 15 38 76 39 16 40 75 41 17 42 18 43 19 44
REMARK SMILES IDX 69 45 20 46 74 47 68 48 70 49 21 50 73 51 67 52 66 53 22 55
REMARK SMILES IDX 54 56 34 57 53 58 35 59 38 60 52 61 71 62 36 63 37 64 51 66
REMARK SMILES IDX 72 67 39 68 23 69 24 70 32 71 25 72 27 73 33 74 26 75 28 76
REMARK SMILES IDX 29 77 30 78 31 79 55 80 56 81 64 82 57 83 59 84 65 85 58 86
REMARK SMILES IDX 60 87 61 88 62 89 63 90 40 91 41 92 49 93 42 94 44 95 50 96
REMARK SMILES IDX 43 97 45 98 46 99 47 100 48 101
REMARK H PARENT 6 6 11 35 70 54 38 65
REMARK Flexibility Score: inf
ROOT
ATOM      1  C   UNL A   1      32.998  31.376  26.911  1.00  0.00     0.023 C 
ENDROOT
BRANCH   1   2
ATOM      2  C   UNL A   1      32.500  30.057  26.294  1.00  0.00     0.116 C 
BRANCH   2   3
ATOM      3  N   UNL A   1      31.388  30.290  25.399  1.00  0.00    -0.351 N 
ATOM      4  C   UNL A   1      30.767  29.577  24.424  1.00  0.00     0.261 C 
ATOM      5  O   UNL A   1      29.877  30.199  23.832  1.00  0.00    -0.268 OA
ATOM      6  H   UNL A   1      30.984  31.179  25.527  1.00  0.00     0.163 HD
BRANCH   4   7
ATOM      7  C   UNL A   1      31.049  28.137  24.051  1.00  0.00     0.098 A 
ATOM      8  C   UNL A   1      32.684  27.071  25.741  1.00  0.00     0.047 C 
ATOM      9  C   UNL A   1      31.764  27.106  24.570  1.00  0.00    -0.018 A 
ATOM     10  C   UNL A   1      31.742  25.918  23.706  1.00  0.00     0.016 A 
ATOM     11  S   UNL A   1      30.505  27.745  22.378  1.00  0.00    -0.110 S 
ATOM     12  C   UNL A   1      31.518  26.334  22.301  1.00  0.00     0.128 A 
ATOM     13  C   UNL A   1      32.441  24.768  23.819  1.00  0.00    -0.040 C 
ATOM     14  N   UNL A   1      32.022  25.851  21.219  1.00  0.00    -0.202 NA
ATOM     15  C   UNL A   1      33.529  24.611  22.766  1.00  0.00     0.135 C 
ATOM     16  C   UNL A   1      32.919  24.816  21.378  1.00  0.00     0.251 C 
ATOM     17  O   UNL A   1      33.286  24.105  20.438  1.00  0.00    -0.272 OA
BRANCH  13  18
ATOM     18  C   UNL A   1      31.685  23.441  23.947  1.00  0.00     0.110 C 
BRANCH  18  19
ATOM     19  S   UNL A   1      31.689  22.734  25.599  1.00  0.00    -0.081 SA
BRANCH  19  20
ATOM     20  C   UNL A   1      32.497  21.230  25.321  1.00  0.00     0.195 A 
ATOM     21  N   UNL A   1      31.877  20.082  25.148  1.00  0.00    -0.123 NA
ATOM     22  N   UNL A   1      33.844  21.090  25.053  1.00  0.00    -0.277 N 
ATOM     23  N   UNL A   1      32.803  19.155  24.752  1.00  0.00    -0.138 NA
ATOM     24  C   UNL A   1      33.964  19.765  24.695  1.00  0.00     0.231 A 
BRANCH  22  25
ATOM     25  C   UNL A   1      34.874  22.060  24.984  1.00  0.00     0.049 A 
ATOM     26  C   UNL A   1      35.730  22.172  23.881  1.00  0.00     0.027 A 
ATOM     27  C   UNL A   1      35.081  22.872  26.100  1.00  0.00     0.027 A 
ATOM     28  C   UNL A   1      36.834  23.025  23.930  1.00  0.00     0.002 A 
ATOM     29  C   UNL A   1      36.176  23.718  26.136  1.00  0.00     0.002 A 
ATOM     30  C   UNL A   1      37.070  23.782  25.070  1.00  0.00     0.000 A 
ENDBRANCH  22  25
ENDBRANCH  19  20
ENDBRANCH  18  19
ENDBRANCH  13  18
ENDBRANCH   4   7
ENDBRANCH   2   3
ENDBRANCH   1   2
BRANCH   1  31
ATOM     31  C   UNL A   1      34.347  31.319  27.651  1.00  0.00     0.023 C 
BRANCH  31  32
ATOM     32  C   UNL A   1      34.866  32.656  28.167  1.00  0.00     0.116 C 
BRANCH  32  33
ATOM     33  N   UNL A   1      34.711  32.815  29.618  1.00  0.00    -0.352 N 
ATOM     34  C   UNL A   1      35.362  32.140  30.634  1.00  0.00     0.251 C 
ATOM     35  H   UNL A   1      34.056  33.492  29.906  1.00  0.00     0.163 HD
ATOM     36  O   UNL A   1      34.869  32.086  31.757  1.00  0.00    -0.269 OA
BRANCH  34  37
ATOM     37  C   UNL A   1      36.682  31.538  30.372  1.00  0.00     0.039 A 
ATOM     38  C   UNL A   1      37.844  32.296  30.225  1.00  0.00     0.014 A 
ATOM     39  C   UNL A   1      36.735  30.155  30.244  1.00  0.00     0.014 A 
ATOM     40  C   UNL A   1      39.051  31.634  29.997  1.00  0.00     0.010 A 
ATOM     41  C   UNL A   1      37.919  29.493  30.112  1.00  0.00     0.010 A 
ATOM     42  C   UNL A   1      39.070  30.231  29.934  1.00  0.00    -0.014 A 
BRANCH  42  43
ATOM     43  C   UNL A   1      40.303  29.473  29.872  1.00  0.00     0.031 A 
ATOM     44  C   UNL A   1      40.863  29.163  31.208  1.00  0.00     0.074 A 
ATOM     45  C   UNL A   1      40.747  28.869  28.750  1.00  0.00     0.049 A 
ATOM     46  N   UNL A   1      41.893  29.713  31.754  1.00  0.00    -0.248 NA
ATOM     47  C   UNL A   1      40.098  28.294  32.117  1.00  0.00     0.031 C 
ATOM     48  C   UNL A   1      40.092  28.774  27.437  1.00  0.00     0.029 A 
ATOM     49  N   UNL A   1      41.839  28.079  28.595  1.00  0.00    -0.354 N 
ATOM     50  C   UNL A   1      42.067  29.055  32.965  1.00  0.00     0.074 A 
ATOM     51  C   UNL A   1      40.821  28.388  33.236  1.00  0.00     0.031 C 
ATOM     52  C   UNL A   1      40.676  27.790  26.714  1.00  0.00     0.029 A 
ATOM     53  C   UNL A   1      41.839  27.311  27.436  1.00  0.00     0.049 A 
ATOM     54  H   UNL A   1      42.573  28.051  29.251  1.00  0.00     0.167 HD
ATOM     55  C   UNL A   1      43.312  28.890  33.489  1.00  0.00     0.034 A 
ATOM     56  C   UNL A   1      42.718  26.326  27.127  1.00  0.00     0.034 A 
ATOM     57  C   UNL A   1      44.275  29.723  32.806  1.00  0.00     0.049 A 
ATOM     58  C   UNL A   1      43.929  26.555  27.950  1.00  0.00     0.074 A 
ATOM     59  C   UNL A   1      44.379  31.076  32.544  1.00  0.00     0.029 A 
ATOM     60  N   UNL A   1      45.098  29.102  31.894  1.00  0.00    -0.354 N 
ATOM     61  N   UNL A   1      44.705  27.594  27.804  1.00  0.00    -0.248 NA
ATOM     62  C   UNL A   1      44.021  25.880  29.233  1.00  0.00     0.031 C 
ATOM     63  C   UNL A   1      44.844  31.151  31.198  1.00  0.00     0.029 A 
ATOM     64  C   UNL A   1      45.084  29.851  30.748  1.00  0.00     0.049 A 
ATOM     65  H   UNL A   1      45.604  28.270  32.039  1.00  0.00     0.167 HD
ATOM     66  C   UNL A   1      45.005  27.981  29.104  1.00  0.00     0.074 A 
ATOM     67  C   UNL A   1      44.654  26.826  29.932  1.00  0.00     0.031 C 
ATOM     68  C   UNL A   1      45.219  29.293  29.419  1.00  0.00     0.034 A 
BRANCH  55  69
ATOM     69  C   UNL A   1      43.755  27.721  34.340  1.00  0.00     0.023 A 
ATOM     70  C   UNL A   1      44.490  28.025  35.508  1.00  0.00     0.012 A 
ATOM     71  C   UNL A   1      43.733  26.368  33.933  1.00  0.00     0.148 A 
ATOM     72  C   UNL A   1      45.218  27.048  36.194  1.00  0.00     0.002 A 
ATOM     73  C   UNL A   1      44.391  25.385  34.665  1.00  0.00     0.091 A 
ATOM     74  F   UNL A   1      43.193  26.024  32.762  1.00  0.00    -0.205 F 
ATOM     75  C   UNL A   1      45.164  25.725  35.776  1.00  0.00     0.022 A 
BRANCH  73  76
ATOM     76  S   UNL A   1      44.311  23.652  34.197  1.00  0.00     0.127 S 
ATOM     77  O   UNL A   1      44.785  23.701  32.819  1.00  0.00    -0.237 OA
ATOM     78  O   UNL A   1      45.236  23.043  35.153  1.00  0.00    -0.237 OA
ATOM     79  O   UNL A   1      42.919  23.261  34.384  1.00  0.00    -0.744 OA
ENDBRANCH  73  76
ENDBRANCH  55  69
BRANCH  56  80
ATOM     80  C   UNL A   1      42.518  25.075  26.360  1.00  0.00     0.023 A 
ATOM     81  C   UNL A   1      43.393  24.754  25.303  1.00  0.00     0.012 A 
ATOM     82  C   UNL A   1      41.666  24.062  26.851  1.00  0.00     0.148 A 
ATOM     83  C   UNL A   1      43.448  23.455  24.781  1.00  0.00     0.002 A 
ATOM     84  C   UNL A   1      41.722  22.774  26.327  1.00  0.00     0.091 A 
ATOM     85  F   UNL A   1      40.871  24.337  27.894  1.00  0.00    -0.205 F 
ATOM     86  C   UNL A   1      42.621  22.462  25.300  1.00  0.00     0.022 A 
BRANCH  84  87
ATOM     87  S   UNL A   1      40.706  21.439  26.973  1.00  0.00     0.127 S 
ATOM     88  O   UNL A   1      39.380  21.796  26.467  1.00  0.00    -0.237 OA
ATOM     89  O   UNL A   1      41.311  20.269  26.343  1.00  0.00    -0.237 OA
ATOM     90  O   UNL A   1      40.834  21.516  28.424  1.00  0.00    -0.744 OA
ENDBRANCH  84  87
ENDBRANCH  56  80
BRANCH  68  91
ATOM     91  C   UNL A   1      45.361  30.286  28.288  1.00  0.00     0.023 A 
ATOM     92  C   UNL A   1      44.250  30.849  27.624  1.00  0.00     0.012 A 
ATOM     93  C   UNL A   1      46.641  30.795  28.013  1.00  0.00     0.148 A 
ATOM     94  C   UNL A   1      44.415  31.879  26.693  1.00  0.00     0.002 A 
ATOM     95  C   UNL A   1      46.796  31.851  27.124  1.00  0.00     0.091 A 
ATOM     96  F   UNL A   1      47.689  30.253  28.651  1.00  0.00    -0.205 F 
ATOM     97  C   UNL A   1      45.688  32.390  26.452  1.00  0.00     0.022 A 
BRANCH  95  98
ATOM     98  S   UNL A   1      48.391  32.634  26.873  1.00  0.00     0.127 S 
ATOM     99  O   UNL A   1      49.247  31.491  26.564  1.00  0.00    -0.237 OA
ATOM    100  O   UNL A   1      48.130  33.527  25.743  1.00  0.00    -0.237 OA
ATOM    101  O   UNL A   1      48.695  33.328  28.119  1.00  0.00    -0.744 OA
ENDBRANCH  95  98
ENDBRANCH  68  91
ENDBRANCH  42  43
ENDBRANCH  34  37
ENDBRANCH  32  33
ENDBRANCH  31  32
ENDBRANCH   1  31
TORSDOF 18
ENDMDL
