MODEL 1
REMARK VINA RESULT:     -11.7      0.000      0.000
REMARK SMILES C[C@@H](C(=O)NCCCCNC(=O)c1ccc(-c2c3nc(c(-c4cccc(S(=O)(=O)[O-])c4F)c4ccc([nH]4)c(-c4cccc(S(=O)(=O)[O-])c4F)c4nc(c(-c5cccc(S(=O)(=O)[O-])c5F)c5ccc2[nH]5)C=C4)C=C3)cc1)c1cccc(C(=O)c2ccccc2)c1
REMARK SMILES IDX 7 1 6 2 5 3 3 4 4 5 2 7 1 8 76 9 77 10 89 11 78 12 80 13
REMARK SMILES IDX 79 14 81 15 82 16 83 17 84 18 88 19 85 20 87 21 86 22 8 23
REMARK SMILES IDX 9 24 10 25 11 26 12 28 13 29 14 30 75 31 15 32 74 33 16 34
REMARK SMILES IDX 17 35 18 36 68 37 19 38 73 39 67 40 69 41 20 42 72 43 66 44
REMARK SMILES IDX 65 45 21 47 53 48 33 49 52 50 34 51 37 52 51 53 70 54 35 55
REMARK SMILES IDX 36 56 50 58 71 59 38 60 22 61 23 62 31 63 24 64 26 65 32 66
REMARK SMILES IDX 25 67 27 68 28 69 29 70 30 71 54 72 55 73 63 74 56 75 58 76
REMARK SMILES IDX 64 77 57 78 59 79 60 80 61 81 62 82 39 83 40 84 48 85 41 86
REMARK SMILES IDX 43 87 49 88 42 89 44 90 45 91 46 92 47 93
REMARK H PARENT 5 6 10 27 69 46 37 57
REMARK Flexibility Score: inf
ROOT
ATOM      1  C   UNL A   1      36.766  20.719  24.907  1.00  0.00     0.023 C 
ENDROOT
BRANCH   1   2
ATOM      2  C   UNL A   1      35.311  20.256  25.027  1.00  0.00     0.116 C 
BRANCH   2   3
ATOM      3  N   UNL A   1      34.666  20.899  26.153  1.00  0.00    -0.356 N 
ATOM      4  C   UNL A   1      34.387  22.217  26.373  1.00  0.00     0.227 C 
ATOM      5  O   UNL A   1      34.062  22.523  27.523  1.00  0.00    -0.274 OA
ATOM      6  H   UNL A   1      34.383  20.289  26.873  1.00  0.00     0.163 HD
BRANCH   4   7
ATOM      7  C   UNL A   1      34.429  23.235  25.207  1.00  0.00     0.105 C 
ATOM      8  C   UNL A   1      35.110  24.527  25.674  1.00  0.00     0.023 C 
BRANCH   7   9
ATOM      9  C   UNL A   1      33.036  23.485  24.599  1.00  0.00    -0.035 A 
ATOM     10  C   UNL A   1      32.446  22.617  23.666  1.00  0.00     0.004 A 
ATOM     11  C   UNL A   1      32.308  24.634  24.971  1.00  0.00     0.016 A 
ATOM     12  C   UNL A   1      31.223  22.919  23.068  1.00  0.00     0.001 A 
ATOM     13  C   UNL A   1      31.113  24.983  24.324  1.00  0.00     0.023 A 
ATOM     14  C   UNL A   1      30.569  24.108  23.378  1.00  0.00     0.012 A 
BRANCH  13  15
ATOM     15  C   UNL A   1      30.379  26.247  24.615  1.00  0.00     0.193 C 
ATOM     16  O   UNL A   1      29.234  26.397  24.187  1.00  0.00    -0.289 OA
BRANCH  15  17
ATOM     17  C   UNL A   1      30.963  27.326  25.443  1.00  0.00     0.022 A 
ATOM     18  C   UNL A   1      31.340  28.510  24.800  1.00  0.00     0.012 A 
ATOM     19  C   UNL A   1      31.160  27.186  26.823  1.00  0.00     0.012 A 
ATOM     20  C   UNL A   1      31.864  29.570  25.539  1.00  0.00     0.001 A 
ATOM     21  C   UNL A   1      31.682  28.251  27.559  1.00  0.00     0.001 A 
ATOM     22  C   UNL A   1      32.027  29.442  26.920  1.00  0.00     0.000 A 
ENDBRANCH  15  17
ENDBRANCH  13  15
ENDBRANCH   7   9
ENDBRANCH   4   7
ENDBRANCH   2   3
ENDBRANCH   1   2
BRANCH   1  23
ATOM     23  C   UNL A   1      37.810  19.628  25.171  1.00  0.00     0.023 C 
BRANCH  23  24
ATOM     24  C   UNL A   1      39.252  20.112  25.252  1.00  0.00     0.116 C 
BRANCH  24  25
ATOM     25  N   UNL A   1      40.041  19.357  26.212  1.00  0.00    -0.352 N 
ATOM     26  C   UNL A   1      41.021  19.789  27.068  1.00  0.00     0.251 C 
ATOM     27  H   UNL A   1      39.841  18.394  26.256  1.00  0.00     0.163 HD
ATOM     28  O   UNL A   1      41.673  18.959  27.702  1.00  0.00    -0.269 OA
BRANCH  26  29
ATOM     29  C   UNL A   1      41.315  21.232  27.214  1.00  0.00     0.039 A 
ATOM     30  C   UNL A   1      41.807  21.688  28.439  1.00  0.00     0.014 A 
ATOM     31  C   UNL A   1      41.100  22.135  26.168  1.00  0.00     0.014 A 
ATOM     32  C   UNL A   1      42.129  23.037  28.597  1.00  0.00     0.010 A 
ATOM     33  C   UNL A   1      41.495  23.466  26.303  1.00  0.00     0.010 A 
ATOM     34  C   UNL A   1      42.007  23.933  27.521  1.00  0.00    -0.014 A 
BRANCH  34  35
ATOM     35  C   UNL A   1      42.445  25.346  27.669  1.00  0.00     0.031 A 
ATOM     36  C   UNL A   1      41.538  26.381  28.277  1.00  0.00     0.074 A 
ATOM     37  C   UNL A   1      43.662  25.704  27.213  1.00  0.00     0.049 A 
ATOM     38  N   UNL A   1      41.781  27.644  28.522  1.00  0.00    -0.248 NA
ATOM     39  C   UNL A   1      40.176  25.955  28.639  1.00  0.00     0.031 C 
ATOM     40  C   UNL A   1      44.594  24.819  26.510  1.00  0.00     0.029 A 
ATOM     41  N   UNL A   1      44.320  26.908  27.260  1.00  0.00    -0.354 N 
ATOM     42  C   UNL A   1      40.606  28.165  29.052  1.00  0.00     0.074 A 
ATOM     43  C   UNL A   1      39.633  27.095  29.047  1.00  0.00     0.031 C 
ATOM     44  C   UNL A   1      45.707  25.505  26.205  1.00  0.00     0.029 A 
ATOM     45  C   UNL A   1      45.562  26.880  26.670  1.00  0.00     0.049 A 
ATOM     46  H   UNL A   1      43.939  27.714  27.678  1.00  0.00     0.167 HD
ATOM     47  C   UNL A   1      40.368  29.409  29.533  1.00  0.00     0.034 A 
ATOM     48  C   UNL A   1      46.482  27.852  26.520  1.00  0.00     0.034 A 
ATOM     49  C   UNL A   1      41.344  30.466  29.558  1.00  0.00     0.049 A 
ATOM     50  C   UNL A   1      46.212  29.209  27.110  1.00  0.00     0.074 A 
ATOM     51  C   UNL A   1      41.220  31.741  30.084  1.00  0.00     0.029 A 
ATOM     52  N   UNL A   1      42.623  30.378  29.029  1.00  0.00    -0.354 N 
ATOM     53  N   UNL A   1      45.152  29.631  27.757  1.00  0.00    -0.248 NA
ATOM     54  C   UNL A   1      47.282  30.209  26.990  1.00  0.00     0.031 C 
ATOM     55  C   UNL A   1      42.417  32.428  29.854  1.00  0.00     0.029 A 
ATOM     56  C   UNL A   1      43.297  31.574  29.212  1.00  0.00     0.049 A 
ATOM     57  H   UNL A   1      42.996  29.581  28.587  1.00  0.00     0.167 HD
ATOM     58  C   UNL A   1      45.439  30.936  28.143  1.00  0.00     0.074 A 
ATOM     59  C   UNL A   1      46.786  31.217  27.692  1.00  0.00     0.031 C 
ATOM     60  C   UNL A   1      44.651  31.829  28.791  1.00  0.00     0.034 A 
BRANCH  47  61
ATOM     61  C   UNL A   1      39.013  29.678  30.138  1.00  0.00     0.023 A 
ATOM     62  C   UNL A   1      38.746  29.246  31.454  1.00  0.00     0.012 A 
ATOM     63  C   UNL A   1      38.033  30.415  29.444  1.00  0.00     0.148 A 
ATOM     64  C   UNL A   1      37.519  29.514  32.059  1.00  0.00     0.002 A 
ATOM     65  C   UNL A   1      36.828  30.717  30.069  1.00  0.00     0.091 A 
ATOM     66  F   UNL A   1      38.295  30.803  28.187  1.00  0.00    -0.205 F 
ATOM     67  C   UNL A   1      36.565  30.258  31.370  1.00  0.00     0.022 A 
BRANCH  65  68
ATOM     68  S   UNL A   1      35.562  31.735  29.304  1.00  0.00     0.127 S 
ATOM     69  O   UNL A   1      34.726  32.079  30.454  1.00  0.00    -0.237 OA
ATOM     70  O   UNL A   1      36.346  32.847  28.766  1.00  0.00    -0.237 OA
ATOM     71  O   UNL A   1      34.922  30.896  28.300  1.00  0.00    -0.744 OA
ENDBRANCH  65  68
ENDBRANCH  47  61
BRANCH  48  72
ATOM     72  C   UNL A   1      47.769  27.559  25.828  1.00  0.00     0.023 A 
ATOM     73  C   UNL A   1      48.899  27.179  26.578  1.00  0.00     0.012 A 
ATOM     74  C   UNL A   1      47.873  27.642  24.426  1.00  0.00     0.148 A 
ATOM     75  C   UNL A   1      50.118  26.926  25.949  1.00  0.00     0.002 A 
ATOM     76  C   UNL A   1      49.074  27.329  23.801  1.00  0.00     0.091 A 
ATOM     77  F   UNL A   1      46.792  28.019  23.730  1.00  0.00    -0.205 F 
ATOM     78  C   UNL A   1      50.204  26.990  24.561  1.00  0.00     0.022 A 
BRANCH  76  79
ATOM     79  S   UNL A   1      49.228  27.247  22.013  1.00  0.00     0.127 S 
ATOM     80  O   UNL A   1      48.665  28.531  21.606  1.00  0.00    -0.237 OA
ATOM     81  O   UNL A   1      50.676  27.123  21.840  1.00  0.00    -0.237 OA
ATOM     82  O   UNL A   1      48.476  26.065  21.611  1.00  0.00    -0.744 OA
ENDBRANCH  76  79
ENDBRANCH  48  72
BRANCH  60  83
ATOM     83  C   UNL A   1      45.236  33.190  29.070  1.00  0.00     0.023 A 
ATOM     84  C   UNL A   1      45.992  33.401  30.241  1.00  0.00     0.012 A 
ATOM     85  C   UNL A   1      45.063  34.251  28.160  1.00  0.00     0.148 A 
ATOM     86  C   UNL A   1      46.520  34.660  30.528  1.00  0.00     0.002 A 
ATOM     87  C   UNL A   1      45.638  35.489  28.427  1.00  0.00     0.091 A 
ATOM     88  F   UNL A   1      44.326  34.039  27.060  1.00  0.00    -0.205 F 
ATOM     89  C   UNL A   1      46.352  35.700  29.618  1.00  0.00     0.022 A 
BRANCH  87  90
ATOM     90  S   UNL A   1      45.552  36.857  27.266  1.00  0.00     0.127 S 
ATOM     91  O   UNL A   1      46.093  37.958  28.062  1.00  0.00    -0.237 OA
ATOM     92  O   UNL A   1      46.425  36.402  26.184  1.00  0.00    -0.237 OA
ATOM     93  O   UNL A   1      44.148  36.979  26.897  1.00  0.00    -0.744 OA
ENDBRANCH  87  90
ENDBRANCH  60  83
ENDBRANCH  34  35
ENDBRANCH  26  29
ENDBRANCH  24  25
ENDBRANCH  23  24
ENDBRANCH   1  23
TORSDOF 17
ENDMDL
MODEL 2
REMARK VINA RESULT:     -11.6      5.297      8.681
REMARK SMILES C[C@@H](C(=O)NCCCCNC(=O)c1ccc(-c2c3nc(c(-c4cccc(S(=O)(=O)[O-])c4F)c4ccc([nH]4)c(-c4cccc(S(=O)(=O)[O-])c4F)c4nc(c(-c5cccc(S(=O)(=O)[O-])c5F)c5ccc2[nH]5)C=C4)C=C3)cc1)c1cccc(C(=O)c2ccccc2)c1
REMARK SMILES IDX 7 1 6 2 5 3 3 4 4 5 2 7 1 8 76 9 77 10 89 11 78 12 80 13
REMARK SMILES IDX 79 14 81 15 82 16 83 17 84 18 88 19 85 20 87 21 86 22 8 23
REMARK SMILES IDX 9 24 10 25 11 26 12 28 13 29 14 30 75 31 15 32 74 33 16 34
REMARK SMILES IDX 17 35 18 36 68 37 19 38 73 39 67 40 69 41 20 42 72 43 66 44
REMARK SMILES IDX 65 45 21 47 53 48 33 49 52 50 34 51 37 52 51 53 70 54 35 55
REMARK SMILES IDX 36 56 50 58 71 59 38 60 22 61 23 62 31 63 24 64 26 65 32 66
REMARK SMILES IDX 25 67 27 68 28 69 29 70 30 71 54 72 55 73 63 74 56 75 58 76
REMARK SMILES IDX 64 77 57 78 59 79 60 80 61 81 62 82 39 83 40 84 48 85 41 86
REMARK SMILES IDX 43 87 49 88 42 89 44 90 45 91 46 92 47 93
REMARK H PARENT 5 6 10 27 69 46 37 57
REMARK Flexibility Score: inf
ROOT
ATOM      1  C   UNL A   1      31.782  27.990  25.026  1.00  0.00     0.023 C 
ENDROOT
BRANCH   1   2
ATOM      2  C   UNL A   1      30.417  27.704  24.393  1.00  0.00     0.116 C 
BRANCH   2   3
ATOM      3  N   UNL A   1      30.574  26.931  23.178  1.00  0.00    -0.356 N 
ATOM      4  C   UNL A   1      31.590  26.111  22.782  1.00  0.00     0.227 C 
ATOM      5  O   UNL A   1      31.592  25.776  21.595  1.00  0.00    -0.274 OA
ATOM      6  H   UNL A   1      29.830  27.008  22.538  1.00  0.00     0.163 HD
BRANCH   4   7
ATOM      7  C   UNL A   1      32.635  25.602  23.806  1.00  0.00     0.105 C 
ATOM      8  C   UNL A   1      34.022  25.564  23.153  1.00  0.00     0.023 C 
BRANCH   7   9
ATOM      9  C   UNL A   1      32.234  24.250  24.427  1.00  0.00    -0.035 A 
ATOM     10  C   UNL A   1      30.993  24.037  25.048  1.00  0.00     0.004 A 
ATOM     11  C   UNL A   1      33.140  23.171  24.392  1.00  0.00     0.016 A 
ATOM     12  C   UNL A   1      30.697  22.829  25.679  1.00  0.00     0.001 A 
ATOM     13  C   UNL A   1      32.881  21.978  25.084  1.00  0.00     0.023 A 
ATOM     14  C   UNL A   1      31.645  21.811  25.717  1.00  0.00     0.012 A 
BRANCH  13  15
ATOM     15  C   UNL A   1      33.866  20.861  25.161  1.00  0.00     0.193 C 
ATOM     16  O   UNL A   1      34.858  20.975  25.881  1.00  0.00    -0.289 OA
BRANCH  15  17
ATOM     17  C   UNL A   1      33.675  19.589  24.429  1.00  0.00     0.022 A 
ATOM     18  C   UNL A   1      32.577  19.492  23.566  1.00  0.00     0.012 A 
ATOM     19  C   UNL A   1      34.538  18.498  24.590  1.00  0.00     0.012 A 
ATOM     20  C   UNL A   1      32.370  18.327  22.828  1.00  0.00     0.001 A 
ATOM     21  C   UNL A   1      34.327  17.334  23.847  1.00  0.00     0.001 A 
ATOM     22  C   UNL A   1      33.251  17.252  22.963  1.00  0.00     0.000 A 
ENDBRANCH  15  17
ENDBRANCH  13  15
ENDBRANCH   7   9
ENDBRANCH   4   7
ENDBRANCH   2   3
ENDBRANCH   1   2
BRANCH   1  23
ATOM     23  C   UNL A   1      31.784  29.121  26.061  1.00  0.00     0.023 C 
BRANCH  23  24
ATOM     24  C   UNL A   1      33.124  29.816  26.263  1.00  0.00     0.116 C 
BRANCH  24  25
ATOM     25  N   UNL A   1      32.976  31.200  26.687  1.00  0.00    -0.352 N 
ATOM     26  C   UNL A   1      33.747  31.935  27.551  1.00  0.00     0.251 C 
ATOM     27  H   UNL A   1      32.211  31.680  26.296  1.00  0.00     0.163 HD
ATOM     28  O   UNL A   1      33.365  33.055  27.891  1.00  0.00    -0.269 OA
BRANCH  26  29
ATOM     29  C   UNL A   1      35.009  31.386  28.092  1.00  0.00     0.039 A 
ATOM     30  C   UNL A   1      36.134  32.213  28.121  1.00  0.00     0.014 A 
ATOM     31  C   UNL A   1      35.100  30.069  28.554  1.00  0.00     0.014 A 
ATOM     32  C   UNL A   1      37.331  31.737  28.658  1.00  0.00     0.010 A 
ATOM     33  C   UNL A   1      36.273  29.622  29.162  1.00  0.00     0.010 A 
ATOM     34  C   UNL A   1      37.403  30.448  29.213  1.00  0.00    -0.014 A 
BRANCH  34  35
ATOM     35  C   UNL A   1      38.653  29.984  29.872  1.00  0.00     0.031 A 
ATOM     36  C   UNL A   1      39.048  30.491  31.233  1.00  0.00     0.074 A 
ATOM     37  C   UNL A   1      39.458  29.124  29.217  1.00  0.00     0.049 A 
ATOM     38  N   UNL A   1      40.078  30.155  31.967  1.00  0.00    -0.248 NA
ATOM     39  C   UNL A   1      38.193  31.524  31.842  1.00  0.00     0.031 C 
ATOM     40  C   UNL A   1      39.241  28.639  27.851  1.00  0.00     0.029 A 
ATOM     41  N   UNL A   1      40.626  28.516  29.602  1.00  0.00    -0.354 N 
ATOM     42  C   UNL A   1      40.004  30.937  33.113  1.00  0.00     0.074 A 
ATOM     43  C   UNL A   1      38.855  31.803  32.957  1.00  0.00     0.031 C 
ATOM     44  C   UNL A   1      40.233  27.798  27.519  1.00  0.00     0.029 A 
ATOM     45  C   UNL A   1      41.167  27.700  28.637  1.00  0.00     0.049 A 
ATOM     46  H   UNL A   1      41.037  28.650  30.487  1.00  0.00     0.167 HD
ATOM     47  C   UNL A   1      40.795  30.914  34.213  1.00  0.00     0.034 A 
ATOM     48  C   UNL A   1      42.289  26.954  28.647  1.00  0.00     0.034 A 
ATOM     49  C   UNL A   1      41.923  30.035  34.378  1.00  0.00     0.049 A 
ATOM     50  C   UNL A   1      43.120  26.906  29.900  1.00  0.00     0.074 A 
ATOM     51  C   UNL A   1      42.748  29.889  35.480  1.00  0.00     0.029 A 
ATOM     52  N   UNL A   1      42.393  29.158  33.412  1.00  0.00    -0.354 N 
ATOM     53  N   UNL A   1      42.935  27.533  31.037  1.00  0.00    -0.248 NA
ATOM     54  C   UNL A   1      44.287  26.014  29.887  1.00  0.00     0.031 C 
ATOM     55  C   UNL A   1      43.728  28.939  35.172  1.00  0.00     0.029 A 
ATOM     56  C   UNL A   1      43.497  28.471  33.889  1.00  0.00     0.049 A 
ATOM     57  H   UNL A   1      42.000  29.042  32.517  1.00  0.00     0.167 HD
ATOM     58  C   UNL A   1      43.947  27.091  31.882  1.00  0.00     0.074 A 
ATOM     59  C   UNL A   1      44.715  26.115  31.137  1.00  0.00     0.031 C 
ATOM     60  C   UNL A   1      44.230  27.475  33.152  1.00  0.00     0.034 A 
BRANCH  47  61
ATOM     61  C   UNL A   1      40.428  31.821  35.360  1.00  0.00     0.023 A 
ATOM     62  C   UNL A   1      41.158  33.012  35.560  1.00  0.00     0.012 A 
ATOM     63  C   UNL A   1      39.326  31.542  36.192  1.00  0.00     0.148 A 
ATOM     64  C   UNL A   1      40.820  33.894  36.584  1.00  0.00     0.002 A 
ATOM     65  C   UNL A   1      38.966  32.448  37.184  1.00  0.00     0.091 A 
ATOM     66  F   UNL A   1      38.654  30.398  36.001  1.00  0.00    -0.205 F 
ATOM     67  C   UNL A   1      39.718  33.617  37.389  1.00  0.00     0.022 A 
BRANCH  65  68
ATOM     68  S   UNL A   1      37.519  32.229  38.226  1.00  0.00     0.127 S 
ATOM     69  O   UNL A   1      37.987  32.775  39.499  1.00  0.00    -0.237 OA
ATOM     70  O   UNL A   1      36.522  33.051  37.540  1.00  0.00    -0.237 OA
ATOM     71  O   UNL A   1      37.237  30.800  38.228  1.00  0.00    -0.744 OA
ENDBRANCH  65  68
ENDBRANCH  47  61
BRANCH  48  72
ATOM     72  C   UNL A   1      42.659  26.147  27.450  1.00  0.00     0.023 A 
ATOM     73  C   UNL A   1      43.455  26.717  26.438  1.00  0.00     0.012 A 
ATOM     74  C   UNL A   1      42.238  24.810  27.320  1.00  0.00     0.148 A 
ATOM     75  C   UNL A   1      43.790  25.984  25.299  1.00  0.00     0.002 A 
ATOM     76  C   UNL A   1      42.627  24.066  26.213  1.00  0.00     0.091 A 
ATOM     77  F   UNL A   1      41.470  24.288  28.287  1.00  0.00    -0.205 F 
ATOM     78  C   UNL A   1      43.386  24.657  25.191  1.00  0.00     0.022 A 
BRANCH  76  79
ATOM     79  S   UNL A   1      42.271  22.312  26.066  1.00  0.00     0.127 S 
ATOM     80  O   UNL A   1      42.964  21.968  24.829  1.00  0.00    -0.237 OA
ATOM     81  O   UNL A   1      42.879  21.776  27.285  1.00  0.00    -0.237 OA
ATOM     82  O   UNL A   1      40.817  22.211  26.032  1.00  0.00    -0.744 OA
ENDBRANCH  76  79
ENDBRANCH  48  72
BRANCH  60  83
ATOM     83  C   UNL A   1      45.411  26.820  33.823  1.00  0.00     0.023 A 
ATOM     84  C   UNL A   1      46.682  27.426  33.751  1.00  0.00     0.012 A 
ATOM     85  C   UNL A   1      45.257  25.623  34.548  1.00  0.00     0.148 A 
ATOM     86  C   UNL A   1      47.791  26.822  34.344  1.00  0.00     0.002 A 
ATOM     87  C   UNL A   1      46.357  25.055  35.181  1.00  0.00     0.091 A 
ATOM     88  F   UNL A   1      44.046  25.050  34.591  1.00  0.00    -0.205 F 
ATOM     89  C   UNL A   1      47.627  25.643  35.066  1.00  0.00     0.022 A 
BRANCH  87  90
ATOM     90  S   UNL A   1      46.220  23.590  36.211  1.00  0.00     0.127 S 
ATOM     91  O   UNL A   1      45.803  22.580  35.239  1.00  0.00    -0.237 OA
ATOM     92  O   UNL A   1      47.587  23.429  36.708  1.00  0.00    -0.237 OA
ATOM     93  O   UNL A   1      45.240  23.914  37.239  1.00  0.00    -0.744 OA
ENDBRANCH  87  90
ENDBRANCH  60  83
ENDBRANCH  34  35
ENDBRANCH  26  29
ENDBRANCH  24  25
ENDBRANCH  23  24
ENDBRANCH   1  23
TORSDOF 17
ENDMDL
MODEL 3
REMARK VINA RESULT:     -11.5      5.124      8.874
REMARK SMILES C[C@@H](C(=O)NCCCCNC(=O)c1ccc(-c2c3nc(c(-c4cccc(S(=O)(=O)[O-])c4F)c4ccc([nH]4)c(-c4cccc(S(=O)(=O)[O-])c4F)c4nc(c(-c5cccc(S(=O)(=O)[O-])c5F)c5ccc2[nH]5)C=C4)C=C3)cc1)c1cccc(C(=O)c2ccccc2)c1
REMARK SMILES IDX 7 1 6 2 5 3 3 4 4 5 2 7 1 8 76 9 77 10 89 11 78 12 80 13
REMARK SMILES IDX 79 14 81 15 82 16 83 17 84 18 88 19 85 20 87 21 86 22 8 23
REMARK SMILES IDX 9 24 10 25 11 26 12 28 13 29 14 30 75 31 15 32 74 33 16 34
REMARK SMILES IDX 17 35 18 36 68 37 19 38 73 39 67 40 69 41 20 42 72 43 66 44
REMARK SMILES IDX 65 45 21 47 53 48 33 49 52 50 34 51 37 52 51 53 70 54 35 55
REMARK SMILES IDX 36 56 50 58 71 59 38 60 22 61 23 62 31 63 24 64 26 65 32 66
REMARK SMILES IDX 25 67 27 68 28 69 29 70 30 71 54 72 55 73 63 74 56 75 58 76
REMARK SMILES IDX 64 77 57 78 59 79 60 80 61 81 62 82 39 83 40 84 48 85 41 86
REMARK SMILES IDX 43 87 49 88 42 89 44 90 45 91 46 92 47 93
REMARK H PARENT 5 6 10 27 69 46 37 57
REMARK Flexibility Score: inf
ROOT
ATOM      1  C   UNL A   1      32.640  26.824  26.657  1.00  0.00     0.023 C 
ENDROOT
BRANCH   1   2
ATOM      2  C   UNL A   1      32.603  25.613  25.720  1.00  0.00     0.116 C 
BRANCH   2   3
ATOM      3  N   UNL A   1      33.900  24.972  25.669  1.00  0.00    -0.356 N 
ATOM      4  C   UNL A   1      34.256  23.683  25.942  1.00  0.00     0.227 C 
ATOM      5  O   UNL A   1      35.464  23.463  26.067  1.00  0.00    -0.274 OA
ATOM      6  H   UNL A   1      34.643  25.557  25.392  1.00  0.00     0.163 HD
BRANCH   4   7
ATOM      7  C   UNL A   1      33.181  22.571  26.028  1.00  0.00     0.105 C 
ATOM      8  C   UNL A   1      33.642  21.482  27.003  1.00  0.00     0.023 C 
BRANCH   7   9
ATOM      9  C   UNL A   1      32.810  22.010  24.643  1.00  0.00    -0.035 A 
ATOM     10  C   UNL A   1      32.314  22.814  23.605  1.00  0.00     0.004 A 
ATOM     11  C   UNL A   1      32.954  20.631  24.387  1.00  0.00     0.016 A 
ATOM     12  C   UNL A   1      31.902  22.260  22.392  1.00  0.00     0.001 A 
ATOM     13  C   UNL A   1      32.478  20.054  23.200  1.00  0.00     0.023 A 
ATOM     14  C   UNL A   1      31.963  20.883  22.198  1.00  0.00     0.012 A 
BRANCH  13  15
ATOM     15  C   UNL A   1      32.513  18.586  22.947  1.00  0.00     0.193 C 
ATOM     16  O   UNL A   1      32.078  18.142  21.885  1.00  0.00    -0.289 OA
BRANCH  15  17
ATOM     17  C   UNL A   1      33.098  17.632  23.917  1.00  0.00     0.022 A 
ATOM     18  C   UNL A   1      32.256  17.110  24.906  1.00  0.00     0.012 A 
ATOM     19  C   UNL A   1      34.448  17.261  23.879  1.00  0.00     0.012 A 
ATOM     20  C   UNL A   1      32.748  16.183  25.823  1.00  0.00     0.001 A 
ATOM     21  C   UNL A   1      34.935  16.330  24.799  1.00  0.00     0.001 A 
ATOM     22  C   UNL A   1      34.086  15.787  25.763  1.00  0.00     0.000 A 
ENDBRANCH  15  17
ENDBRANCH  13  15
ENDBRANCH   7   9
ENDBRANCH   4   7
ENDBRANCH   2   3
ENDBRANCH   1   2
BRANCH   1  23
ATOM     23  C   UNL A   1      32.652  28.184  25.950  1.00  0.00     0.023 C 
BRANCH  23  24
ATOM     24  C   UNL A   1      33.974  28.939  26.011  1.00  0.00     0.116 C 
BRANCH  24  25
ATOM     25  N   UNL A   1      33.832  30.267  26.586  1.00  0.00    -0.352 N 
ATOM     26  C   UNL A   1      34.581  30.883  27.555  1.00  0.00     0.251 C 
ATOM     27  H   UNL A   1      33.088  30.803  26.226  1.00  0.00     0.163 HD
ATOM     28  O   UNL A   1      34.203  31.964  28.009  1.00  0.00    -0.269 OA
BRANCH  26  29
ATOM     29  C   UNL A   1      35.814  30.251  28.072  1.00  0.00     0.039 A 
ATOM     30  C   UNL A   1      36.977  30.340  27.304  1.00  0.00     0.014 A 
ATOM     31  C   UNL A   1      35.833  29.566  29.291  1.00  0.00     0.014 A 
ATOM     32  C   UNL A   1      38.166  29.785  27.781  1.00  0.00     0.010 A 
ATOM     33  C   UNL A   1      37.038  29.083  29.801  1.00  0.00     0.010 A 
ATOM     34  C   UNL A   1      38.215  29.180  29.048  1.00  0.00    -0.014 A 
BRANCH  34  35
ATOM     35  C   UNL A   1      39.507  28.680  29.591  1.00  0.00     0.031 A 
ATOM     36  C   UNL A   1      40.148  29.325  30.790  1.00  0.00     0.074 A 
ATOM     37  C   UNL A   1      40.125  27.657  28.969  1.00  0.00     0.049 A 
ATOM     38  N   UNL A   1      41.245  28.985  31.417  1.00  0.00    -0.248 NA
ATOM     39  C   UNL A   1      39.488  30.518  31.347  1.00  0.00     0.031 C 
ATOM     40  C   UNL A   1      39.661  27.013  27.737  1.00  0.00     0.029 A 
ATOM     41  N   UNL A   1      41.282  26.985  29.277  1.00  0.00    -0.354 N 
ATOM     42  C   UNL A   1      41.414  29.922  32.429  1.00  0.00     0.074 A 
ATOM     43  C   UNL A   1      40.334  30.876  32.303  1.00  0.00     0.031 C 
ATOM     44  C   UNL A   1      40.515  26.033  27.403  1.00  0.00     0.029 A 
ATOM     45  C   UNL A   1      41.596  25.990  28.382  1.00  0.00     0.049 A 
ATOM     46  H   UNL A   1      41.833  27.196  30.065  1.00  0.00     0.167 HD
ATOM     47  C   UNL A   1      42.360  29.966  33.399  1.00  0.00     0.034 A 
ATOM     48  C   UNL A   1      42.638  25.137  28.350  1.00  0.00     0.034 A 
ATOM     49  C   UNL A   1      43.420  29.003  33.538  1.00  0.00     0.049 A 
ATOM     50  C   UNL A   1      43.644  25.174  29.468  1.00  0.00     0.074 A 
ATOM     51  C   UNL A   1      44.388  28.923  34.524  1.00  0.00     0.029 A 
ATOM     52  N   UNL A   1      43.660  27.955  32.661  1.00  0.00    -0.354 N 
ATOM     53  N   UNL A   1      43.690  25.968  30.511  1.00  0.00    -0.248 NA
ATOM     54  C   UNL A   1      44.715  24.168  29.431  1.00  0.00     0.031 C 
ATOM     55  C   UNL A   1      45.224  27.840  34.232  1.00  0.00     0.029 A 
ATOM     56  C   UNL A   1      44.760  27.226  33.081  1.00  0.00     0.049 A 
ATOM     57  H   UNL A   1      43.125  27.759  31.858  1.00  0.00     0.167 HD
ATOM     58  C   UNL A   1      44.778  25.541  31.265  1.00  0.00     0.074 A 
ATOM     59  C   UNL A   1      45.335  24.395  30.579  1.00  0.00     0.031 C 
ATOM     60  C   UNL A   1      45.284  26.065  32.409  1.00  0.00     0.034 A 
BRANCH  47  61
ATOM     61  C   UNL A   1      42.252  31.058  34.434  1.00  0.00     0.023 A 
ATOM     62  C   UNL A   1      41.592  30.791  35.653  1.00  0.00     0.012 A 
ATOM     63  C   UNL A   1      42.857  32.315  34.239  1.00  0.00     0.148 A 
ATOM     64  C   UNL A   1      41.510  31.764  36.647  1.00  0.00     0.002 A 
ATOM     65  C   UNL A   1      42.809  33.266  35.253  1.00  0.00     0.091 A 
ATOM     66  F   UNL A   1      43.463  32.559  33.069  1.00  0.00    -0.205 F 
ATOM     67  C   UNL A   1      42.127  32.996  36.452  1.00  0.00     0.022 A 
BRANCH  65  68
ATOM     68  S   UNL A   1      43.636  34.856  35.139  1.00  0.00     0.127 S 
ATOM     69  O   UNL A   1      43.076  35.391  33.899  1.00  0.00    -0.237 OA
ATOM     70  O   UNL A   1      43.178  35.528  36.354  1.00  0.00    -0.237 OA
ATOM     71  O   UNL A   1      45.063  34.566  35.102  1.00  0.00    -0.744 OA
ENDBRANCH  65  68
ENDBRANCH  47  61
BRANCH  48  72
ATOM     72  C   UNL A   1      42.751  24.137  27.251  1.00  0.00     0.023 A 
ATOM     73  C   UNL A   1      43.519  24.433  26.109  1.00  0.00     0.012 A 
ATOM     74  C   UNL A   1      42.111  22.886  27.342  1.00  0.00     0.148 A 
ATOM     75  C   UNL A   1      43.614  23.518  25.059  1.00  0.00     0.002 A 
ATOM     76  C   UNL A   1      42.261  21.956  26.321  1.00  0.00     0.091 A 
ATOM     77  F   UNL A   1      41.373  22.627  28.431  1.00  0.00    -0.205 F 
ATOM     78  C   UNL A   1      42.995  22.276  25.169  1.00  0.00     0.022 A 
BRANCH  76  79
ATOM     79  S   UNL A   1      41.616  20.284  26.449  1.00  0.00     0.127 S 
ATOM     80  O   UNL A   1      42.235  19.636  25.297  1.00  0.00    -0.237 OA
ATOM     81  O   UNL A   1      42.134  19.858  27.750  1.00  0.00    -0.237 OA
ATOM     82  O   UNL A   1      40.166  20.421  26.401  1.00  0.00    -0.744 OA
ENDBRANCH  76  79
ENDBRANCH  48  72
BRANCH  60  83
ATOM     83  C   UNL A   1      46.492  25.386  33.002  1.00  0.00     0.023 A 
ATOM     84  C   UNL A   1      47.785  25.838  32.665  1.00  0.00     0.012 A 
ATOM     85  C   UNL A   1      46.349  24.322  33.913  1.00  0.00     0.148 A 
ATOM     86  C   UNL A   1      48.915  25.206  33.184  1.00  0.00     0.002 A 
ATOM     87  C   UNL A   1      47.480  23.732  34.467  1.00  0.00     0.091 A 
ATOM     88  F   UNL A   1      45.114  23.892  34.209  1.00  0.00    -0.205 F 
ATOM     89  C   UNL A   1      48.763  24.162  34.092  1.00  0.00     0.022 A 
BRANCH  87  90
ATOM     90  S   UNL A   1      47.376  22.444  35.715  1.00  0.00     0.127 S 
ATOM     91  O   UNL A   1      47.831  21.270  34.970  1.00  0.00    -0.237 OA
ATOM     92  O   UNL A   1      48.313  22.920  36.733  1.00  0.00    -0.237 OA
ATOM     93  O   UNL A   1      45.985  22.415  36.144  1.00  0.00    -0.744 OA
ENDBRANCH  87  90
ENDBRANCH  60  83
ENDBRANCH  34  35
ENDBRANCH  26  29
ENDBRANCH  24  25
ENDBRANCH  23  24
ENDBRANCH   1  23
TORSDOF 17
ENDMDL
