MODEL 1
REMARK VINA RESULT:     -12.6      0.000      0.000
REMARK SMILES O=C(CN1C(=O)S/C(=C\c2cccn2-c2cccc(C(=O)NCCCCNC(=O)c3ccc(-c4c5nc(c(-c6cccc(S(=O)(=O)[O-])c6F)c6ccc([nH]6)c(-c6cccc(S(=O)(=O)[O-])c6F)c6nc(c(-c7cccc(S(=O)(=O)[O-])c7F)c7ccc4[nH]7)C=C6)C=C5)cc3)c2)C1=O)Nc1ccc(Cl)cc1
REMARK SMILES IDX 23 1 22 2 20 3 21 4 19 6 15 7 16 8 93 9 17 10 18 11 14 12
REMARK SMILES IDX 10 13 11 14 12 15 13 16 9 17 4 18 5 19 94 20 6 21 7 22 8 23
REMARK SMILES IDX 95 24 3 25 2 26 1 27 96 28 97 30 98 31 103 32 99 33 102 34
REMARK SMILES IDX 100 35 101 36 24 37 25 38 26 39 27 40 28 41 29 43 30 44
REMARK SMILES IDX 31 45 92 46 32 47 91 48 33 49 34 50 35 51 85 52 36 53 90 54
REMARK SMILES IDX 84 55 86 56 37 57 89 58 83 59 82 60 38 62 70 63 50 64 69 65
REMARK SMILES IDX 51 66 54 67 68 68 87 69 52 70 53 71 67 73 88 74 55 75 39 76
REMARK SMILES IDX 40 77 48 78 41 79 43 80 49 81 42 82 44 83 45 84 46 85 47 86
REMARK SMILES IDX 71 87 72 88 80 89 73 90 75 91 81 92 74 93 76 94 77 95 78 96
REMARK SMILES IDX 79 97 56 98 57 99 65 100 58 101 60 102 66 103 59 104 61 105
REMARK SMILES IDX 62 106 63 107 64 108
REMARK H PARENT 22 5 96 29 27 42 86 61 54 72
REMARK Flexibility Score: inf
ROOT
ATOM      1  C   UNL A   1      32.505  26.983  26.750  1.00  0.00     0.116 C 
ENDROOT
BRANCH   1   2
ATOM      2  N   UNL A   1      31.490  26.082  26.225  1.00  0.00    -0.352 N 
ATOM      3  C   UNL A   1      31.404  24.707  26.178  1.00  0.00     0.251 C 
ATOM      4  O   UNL A   1      30.457  24.192  25.584  1.00  0.00    -0.269 OA
ATOM      5  H   UNL A   1      30.717  26.544  25.826  1.00  0.00     0.163 HD
BRANCH   3   6
ATOM      6  C   UNL A   1      32.457  23.812  26.733  1.00  0.00     0.041 A 
ATOM      7  C   UNL A   1      34.637  22.769  26.587  1.00  0.00     0.046 A 
ATOM      8  C   UNL A   1      34.231  21.804  27.522  1.00  0.00     0.026 A 
ATOM      9  C   UNL A   1      33.786  23.842  26.301  1.00  0.00     0.040 A 
ATOM     10  C   UNL A   1      32.967  21.879  28.107  1.00  0.00     0.003 A 
ATOM     11  C   UNL A   1      32.069  22.857  27.683  1.00  0.00     0.014 A 
BRANCH   7  12
ATOM     12  N   UNL A   1      35.790  22.534  25.770  1.00  0.00    -0.317 N 
ATOM     13  C   UNL A   1      35.889  22.269  24.399  1.00  0.00     0.047 A 
ATOM     14  C   UNL A   1      37.170  21.800  24.147  1.00  0.00     0.028 A 
ATOM     15  C   UNL A   1      37.895  21.819  25.351  1.00  0.00     0.020 A 
ATOM     16  C   UNL A   1      37.052  22.316  26.314  1.00  0.00     0.092 A 
BRANCH  13  17
ATOM     17  C   UNL A   1      34.845  22.579  23.482  1.00  0.00     0.048 C 
ATOM     18  N   UNL A   1      32.954  25.401  22.287  1.00  0.00    -0.259 N 
ATOM     19  C   UNL A   1      33.727  26.245  23.049  1.00  0.00     0.294 C 
ATOM     20  C   UNL A   1      33.188  24.059  22.410  1.00  0.00     0.268 C 
ATOM     21  O   UNL A   1      33.582  27.428  23.212  1.00  0.00    -0.261 OA
ATOM     22  S   UNL A   1      34.961  25.315  23.888  1.00  0.00    -0.022 SA
ATOM     23  C   UNL A   1      34.376  23.819  23.274  1.00  0.00     0.085 C 
ATOM     24  O   UNL A   1      32.476  23.163  21.983  1.00  0.00    -0.268 OA
BRANCH  18  25
ATOM     25  C   UNL A   1      31.924  25.940  21.413  1.00  0.00     0.230 C 
BRANCH  25  26
ATOM     26  C   UNL A   1      30.845  26.738  22.138  1.00  0.00     0.244 C 
ATOM     27  O   UNL A   1      30.153  26.202  23.001  1.00  0.00    -0.273 OA
ATOM     28  N   UNL A   1      30.807  28.085  21.821  1.00  0.00    -0.325 N 
ATOM     29  H   UNL A   1      31.426  28.399  21.123  1.00  0.00     0.169 HD
BRANCH  28  30
ATOM     30  C   UNL A   1      29.960  29.046  22.407  1.00  0.00     0.041 A 
ATOM     31  C   UNL A   1      28.630  29.086  21.976  1.00  0.00     0.027 A 
ATOM     32  C   UNL A   1      30.381  29.953  23.386  1.00  0.00     0.027 A 
ATOM     33  C   UNL A   1      27.729  29.991  22.544  1.00  0.00     0.022 A 
ATOM     34  C   UNL A   1      29.487  30.870  23.944  1.00  0.00     0.022 A 
ATOM     35  C   UNL A   1      28.161  30.879  23.528  1.00  0.00     0.041 A 
ATOM     36  Cl  UNL A   1      27.050  31.989  24.229  1.00  0.00    -0.084 Cl
ENDBRANCH  28  30
ENDBRANCH  25  26
ENDBRANCH  18  25
ENDBRANCH  13  17
ENDBRANCH   7  12
ENDBRANCH   3   6
ENDBRANCH   1   2
BRANCH   1  37
ATOM     37  C   UNL A   1      32.246  28.461  26.476  1.00  0.00     0.023 C 
BRANCH  37  38
ATOM     38  C   UNL A   1      33.435  29.281  25.972  1.00  0.00     0.023 C 
BRANCH  38  39
ATOM     39  C   UNL A   1      34.689  29.212  26.845  1.00  0.00     0.116 C 
BRANCH  39  40
ATOM     40  N   UNL A   1      35.171  30.536  27.216  1.00  0.00    -0.352 N 
ATOM     41  C   UNL A   1      36.260  30.874  27.988  1.00  0.00     0.251 C 
ATOM     42  H   UNL A   1      34.646  31.292  26.867  1.00  0.00     0.163 HD
ATOM     43  O   UNL A   1      36.268  31.977  28.533  1.00  0.00    -0.269 OA
BRANCH  41  44
ATOM     44  C   UNL A   1      37.389  29.934  28.195  1.00  0.00     0.039 A 
ATOM     45  C   UNL A   1      38.371  29.830  27.199  1.00  0.00     0.014 A 
ATOM     46  C   UNL A   1      37.464  29.109  29.319  1.00  0.00     0.014 A 
ATOM     47  C   UNL A   1      39.464  28.976  27.373  1.00  0.00     0.010 A 
ATOM     48  C   UNL A   1      38.542  28.242  29.487  1.00  0.00     0.010 A 
ATOM     49  C   UNL A   1      39.567  28.206  28.538  1.00  0.00    -0.014 A 
BRANCH  49  50
ATOM     50  C   UNL A   1      40.860  27.572  28.904  1.00  0.00     0.031 A 
ATOM     51  C   UNL A   1      40.903  26.090  28.442  1.00  0.00     0.074 A 
ATOM     52  C   UNL A   1      41.797  28.344  29.539  1.00  0.00     0.049 A 
ATOM     53  N   UNL A   1      41.585  25.085  28.909  1.00  0.00    -0.248 NA
ATOM     54  C   UNL A   1      39.976  25.634  27.365  1.00  0.00     0.031 C 
ATOM     55  C   UNL A   1      41.609  29.767  29.890  1.00  0.00     0.029 A 
ATOM     56  N   UNL A   1      43.083  28.123  30.006  1.00  0.00    -0.354 N 
ATOM     57  C   UNL A   1      41.351  23.982  28.045  1.00  0.00     0.074 A 
ATOM     58  C   UNL A   1      40.248  24.337  27.216  1.00  0.00     0.031 C 
ATOM     59  C   UNL A   1      42.681  30.255  30.553  1.00  0.00     0.029 A 
ATOM     60  C   UNL A   1      43.691  29.219  30.680  1.00  0.00     0.049 A 
ATOM     61  H   UNL A   1      43.547  27.263  29.880  1.00  0.00     0.167 HD
ATOM     62  C   UNL A   1      42.190  22.906  27.955  1.00  0.00     0.034 A 
ATOM     63  C   UNL A   1      44.906  29.290  31.317  1.00  0.00     0.034 A 
ATOM     64  C   UNL A   1      43.299  23.111  28.823  1.00  0.00     0.049 A 
ATOM     65  C   UNL A   1      45.611  28.051  30.975  1.00  0.00     0.074 A 
ATOM     66  C   UNL A   1      43.447  23.057  30.181  1.00  0.00     0.029 A 
ATOM     67  N   UNL A   1      44.364  23.773  28.258  1.00  0.00    -0.354 N 
ATOM     68  N   UNL A   1      46.133  27.803  29.810  1.00  0.00    -0.248 NA
ATOM     69  C   UNL A   1      45.684  26.974  31.969  1.00  0.00     0.031 C 
ATOM     70  C   UNL A   1      44.390  24.069  30.442  1.00  0.00     0.029 A 
ATOM     71  C   UNL A   1      44.912  24.557  29.236  1.00  0.00     0.049 A 
ATOM     72  H   UNL A   1      44.672  23.699  27.327  1.00  0.00     0.167 HD
ATOM     73  C   UNL A   1      46.229  26.434  29.837  1.00  0.00     0.074 A 
ATOM     74  C   UNL A   1      46.297  26.054  31.229  1.00  0.00     0.031 C 
ATOM     75  C   UNL A   1      45.664  25.719  28.830  1.00  0.00     0.034 A 
BRANCH  62  76
ATOM     76  C   UNL A   1      42.326  21.740  27.003  1.00  0.00     0.023 A 
ATOM     77  C   UNL A   1      41.472  20.631  27.281  1.00  0.00     0.012 A 
ATOM     78  C   UNL A   1      43.386  21.524  26.108  1.00  0.00     0.148 A 
ATOM     79  C   UNL A   1      41.731  19.346  26.811  1.00  0.00     0.002 A 
ATOM     80  C   UNL A   1      43.610  20.240  25.593  1.00  0.00     0.091 A 
ATOM     81  F   UNL A   1      44.224  22.527  25.824  1.00  0.00    -0.205 F 
ATOM     82  C   UNL A   1      42.814  19.148  25.976  1.00  0.00     0.022 A 
BRANCH  80  83
ATOM     83  S   UNL A   1      44.926  19.874  24.426  1.00  0.00     0.127 S 
ATOM     84  O   UNL A   1      46.105  20.363  25.133  1.00  0.00    -0.237 OA
ATOM     85  O   UNL A   1      44.844  18.413  24.326  1.00  0.00    -0.237 OA
ATOM     86  O   UNL A   1      44.563  20.570  23.199  1.00  0.00    -0.744 OA
ENDBRANCH  80  83
ENDBRANCH  62  76
BRANCH  63  87
ATOM     87  C   UNL A   1      45.628  30.224  32.272  1.00  0.00     0.023 A 
ATOM     88  C   UNL A   1      46.905  30.755  32.049  1.00  0.00     0.012 A 
ATOM     89  C   UNL A   1      44.961  30.704  33.446  1.00  0.00     0.148 A 
ATOM     90  C   UNL A   1      47.434  31.770  32.877  1.00  0.00     0.002 A 
ATOM     91  C   UNL A   1      45.420  31.792  34.179  1.00  0.00     0.091 A 
ATOM     92  F   UNL A   1      43.873  30.075  33.900  1.00  0.00    -0.205 F 
ATOM     93  C   UNL A   1      46.673  32.325  33.906  1.00  0.00     0.022 A 
BRANCH  91  94
ATOM     94  S   UNL A   1      44.366  32.647  35.373  1.00  0.00     0.127 S 
ATOM     95  O   UNL A   1      45.188  33.794  35.752  1.00  0.00    -0.237 OA
ATOM     96  O   UNL A   1      43.199  32.972  34.551  1.00  0.00    -0.237 OA
ATOM     97  O   UNL A   1      44.101  31.696  36.445  1.00  0.00    -0.744 OA
ENDBRANCH  91  94
ENDBRANCH  63  87
BRANCH  75  98
ATOM     98  C   UNL A   1      45.615  26.440  27.482  1.00  0.00     0.023 A 
ATOM     99  C   UNL A   1      44.354  26.916  27.064  1.00  0.00     0.012 A 
ATOM    100  C   UNL A   1      46.688  26.574  26.568  1.00  0.00     0.148 A 
ATOM    101  C   UNL A   1      44.157  27.478  25.799  1.00  0.00     0.002 A 
ATOM    102  C   UNL A   1      46.492  27.127  25.294  1.00  0.00     0.091 A 
ATOM    103  F   UNL A   1      47.895  26.148  26.932  1.00  0.00    -0.205 F 
ATOM    104  C   UNL A   1      45.224  27.584  24.914  1.00  0.00     0.022 A 
BRANCH 102 105
ATOM    105  S   UNL A   1      47.788  27.278  24.044  1.00  0.00     0.127 S 
ATOM    106  O   UNL A   1      48.037  25.885  23.666  1.00  0.00    -0.237 OA
ATOM    107  O   UNL A   1      47.130  28.068  23.005  1.00  0.00    -0.237 OA
ATOM    108  O   UNL A   1      48.921  27.928  24.686  1.00  0.00    -0.744 OA
ENDBRANCH 102 105
ENDBRANCH  75  98
ENDBRANCH  49  50
ENDBRANCH  41  44
ENDBRANCH  39  40
ENDBRANCH  38  39
ENDBRANCH  37  38
ENDBRANCH   1  37
TORSDOF 19
ENDMDL
MODEL 2
REMARK VINA RESULT:     -12.5      4.530      7.705
REMARK SMILES O=C(CN1C(=O)S/C(=C\c2cccn2-c2cccc(C(=O)NCCCCNC(=O)c3ccc(-c4c5nc(c(-c6cccc(S(=O)(=O)[O-])c6F)c6ccc([nH]6)c(-c6cccc(S(=O)(=O)[O-])c6F)c6nc(c(-c7cccc(S(=O)(=O)[O-])c7F)c7ccc4[nH]7)C=C6)C=C5)cc3)c2)C1=O)Nc1ccc(Cl)cc1
REMARK SMILES IDX 23 1 22 2 20 3 21 4 19 6 15 7 16 8 93 9 17 10 18 11 14 12
REMARK SMILES IDX 10 13 11 14 12 15 13 16 9 17 4 18 5 19 94 20 6 21 7 22 8 23
REMARK SMILES IDX 95 24 3 25 2 26 1 27 96 28 97 30 98 31 103 32 99 33 102 34
REMARK SMILES IDX 100 35 101 36 24 37 25 38 26 39 27 40 28 41 29 43 30 44
REMARK SMILES IDX 31 45 92 46 32 47 91 48 33 49 34 50 35 51 85 52 36 53 90 54
REMARK SMILES IDX 84 55 86 56 37 57 89 58 83 59 82 60 38 62 70 63 50 64 69 65
REMARK SMILES IDX 51 66 54 67 68 68 87 69 52 70 53 71 67 73 88 74 55 75 39 76
REMARK SMILES IDX 40 77 48 78 41 79 43 80 49 81 42 82 44 83 45 84 46 85 47 86
REMARK SMILES IDX 71 87 72 88 80 89 73 90 75 91 81 92 74 93 76 94 77 95 78 96
REMARK SMILES IDX 79 97 56 98 57 99 65 100 58 101 60 102 66 103 59 104 61 105
REMARK SMILES IDX 62 106 63 107 64 108
REMARK H PARENT 22 5 96 29 27 42 86 61 54 72
REMARK Flexibility Score: inf
ROOT
ATOM      1  C   UNL A   1      32.667  30.039  26.564  1.00  0.00     0.116 C 
ENDROOT
BRANCH   1   2
ATOM      2  N   UNL A   1      33.464  29.389  25.534  1.00  0.00    -0.352 N 
ATOM      3  C   UNL A   1      33.187  28.367  24.652  1.00  0.00     0.251 C 
ATOM      4  O   UNL A   1      34.091  27.944  23.932  1.00  0.00    -0.269 OA
ATOM      5  H   UNL A   1      34.377  29.750  25.452  1.00  0.00     0.163 HD
BRANCH   3   6
ATOM      6  C   UNL A   1      31.864  27.685  24.596  1.00  0.00     0.041 A 
ATOM      7  C   UNL A   1      30.389  25.878  25.242  1.00  0.00     0.046 A 
ATOM      8  C   UNL A   1      29.565  26.165  24.142  1.00  0.00     0.026 A 
ATOM      9  C   UNL A   1      31.462  26.727  25.530  1.00  0.00     0.040 A 
ATOM     10  C   UNL A   1      29.854  27.247  23.310  1.00  0.00     0.003 A 
ATOM     11  C   UNL A   1      31.023  27.979  23.514  1.00  0.00     0.014 A 
BRANCH   7  12
ATOM     12  N   UNL A   1      30.277  24.614  25.909  1.00  0.00    -0.317 N 
ATOM     13  C   UNL A   1      30.839  23.372  25.593  1.00  0.00     0.047 A 
ATOM     14  C   UNL A   1      30.183  22.406  26.343  1.00  0.00     0.028 A 
ATOM     15  C   UNL A   1      29.245  23.045  27.169  1.00  0.00     0.020 A 
ATOM     16  C   UNL A   1      29.354  24.392  26.925  1.00  0.00     0.092 A 
BRANCH  13  17
ATOM     17  C   UNL A   1      31.968  23.238  24.736  1.00  0.00     0.048 C 
ATOM     18  N   UNL A   1      35.567  23.245  24.872  1.00  0.00    -0.259 N 
ATOM     19  C   UNL A   1      35.517  23.353  26.242  1.00  0.00     0.294 C 
ATOM     20  C   UNL A   1      34.375  23.278  24.200  1.00  0.00     0.268 C 
ATOM     21  O   UNL A   1      36.438  23.506  27.000  1.00  0.00    -0.261 OA
ATOM     22  S   UNL A   1      33.841  23.346  26.772  1.00  0.00    -0.022 SA
ATOM     23  C   UNL A   1      33.239  23.281  25.162  1.00  0.00     0.085 C 
ATOM     24  O   UNL A   1      34.233  23.406  22.994  1.00  0.00    -0.268 OA
BRANCH  18  25
ATOM     25  C   UNL A   1      36.846  23.125  24.192  1.00  0.00     0.230 C 
BRANCH  25  26
ATOM     26  C   UNL A   1      37.708  21.967  24.685  1.00  0.00     0.244 C 
ATOM     27  O   UNL A   1      37.489  20.822  24.295  1.00  0.00    -0.273 OA
ATOM     28  N   UNL A   1      38.776  22.337  25.484  1.00  0.00    -0.325 N 
ATOM     29  H   UNL A   1      38.855  23.291  25.713  1.00  0.00     0.169 HD
BRANCH  28  30
ATOM     30  C   UNL A   1      39.760  21.469  25.998  1.00  0.00     0.041 A 
ATOM     31  C   UNL A   1      39.611  20.101  25.748  1.00  0.00     0.027 A 
ATOM     32  C   UNL A   1      40.863  21.904  26.741  1.00  0.00     0.027 A 
ATOM     33  C   UNL A   1      40.572  19.191  26.199  1.00  0.00     0.022 A 
ATOM     34  C   UNL A   1      41.816  20.996  27.207  1.00  0.00     0.022 A 
ATOM     35  C   UNL A   1      41.672  19.642  26.925  1.00  0.00     0.041 A 
ATOM     36  Cl  UNL A   1      42.855  18.522  27.475  1.00  0.00    -0.084 Cl
ENDBRANCH  28  30
ENDBRANCH  25  26
ENDBRANCH  18  25
ENDBRANCH  13  17
ENDBRANCH   7  12
ENDBRANCH   3   6
ENDBRANCH   1   2
BRANCH   1  37
ATOM     37  C   UNL A   1      31.515  30.888  26.036  1.00  0.00     0.023 C 
BRANCH  37  38
ATOM     38  C   UNL A   1      31.362  32.284  26.643  1.00  0.00     0.023 C 
BRANCH  38  39
ATOM     39  C   UNL A   1      32.608  32.828  27.344  1.00  0.00     0.116 C 
BRANCH  39  40
ATOM     40  N   UNL A   1      32.493  34.250  27.638  1.00  0.00    -0.352 N 
ATOM     41  C   UNL A   1      33.065  34.970  28.664  1.00  0.00     0.251 C 
ATOM     42  H   UNL A   1      31.930  34.768  27.018  1.00  0.00     0.163 HD
ATOM     43  O   UNL A   1      32.537  36.029  28.997  1.00  0.00    -0.269 OA
BRANCH  41  44
ATOM     44  C   UNL A   1      34.268  34.480  29.381  1.00  0.00     0.039 A 
ATOM     45  C   UNL A   1      34.110  33.915  30.655  1.00  0.00     0.014 A 
ATOM     46  C   UNL A   1      35.551  34.624  28.850  1.00  0.00     0.014 A 
ATOM     47  C   UNL A   1      35.217  33.418  31.348  1.00  0.00     0.010 A 
ATOM     48  C   UNL A   1      36.660  34.147  29.546  1.00  0.00     0.010 A 
ATOM     49  C   UNL A   1      36.492  33.502  30.775  1.00  0.00    -0.014 A 
BRANCH  49  50
ATOM     50  C   UNL A   1      37.610  32.685  31.314  1.00  0.00     0.031 A 
ATOM     51  C   UNL A   1      37.839  31.416  30.450  1.00  0.00     0.074 A 
ATOM     52  C   UNL A   1      38.270  33.150  32.421  1.00  0.00     0.049 A 
ATOM     53  N   UNL A   1      38.356  30.266  30.769  1.00  0.00    -0.248 NA
ATOM     54  C   UNL A   1      37.324  31.384  29.049  1.00  0.00     0.031 C 
ATOM     55  C   UNL A   1      37.942  34.409  33.122  1.00  0.00     0.029 A 
ATOM     56  N   UNL A   1      39.339  32.696  33.177  1.00  0.00    -0.354 N 
ATOM     57  C   UNL A   1      38.445  29.499  29.576  1.00  0.00     0.074 A 
ATOM     58  C   UNL A   1      37.663  30.177  28.595  1.00  0.00     0.031 C 
ATOM     59  C   UNL A   1      38.727  34.585  34.208  1.00  0.00     0.029 A 
ATOM     60  C   UNL A   1      39.666  33.483  34.317  1.00  0.00     0.049 A 
ATOM     61  H   UNL A   1      39.840  31.881  32.942  1.00  0.00     0.167 HD
ATOM     62  C   UNL A   1      39.293  28.439  29.424  1.00  0.00     0.034 A 
ATOM     63  C   UNL A   1      40.605  33.260  35.294  1.00  0.00     0.034 A 
ATOM     64  C   UNL A   1      40.054  28.281  30.616  1.00  0.00     0.049 A 
ATOM     65  C   UNL A   1      41.414  32.132  34.823  1.00  0.00     0.074 A 
ATOM     66  C   UNL A   1      39.753  27.805  31.862  1.00  0.00     0.029 A 
ATOM     67  N   UNL A   1      41.228  28.997  30.655  1.00  0.00    -0.354 N 
ATOM     68  N   UNL A   1      42.293  32.209  33.868  1.00  0.00    -0.248 NA
ATOM     69  C   UNL A   1      41.187  30.801  35.398  1.00  0.00     0.031 C 
ATOM     70  C   UNL A   1      40.533  28.611  32.711  1.00  0.00     0.029 A 
ATOM     71  C   UNL A   1      41.407  29.400  31.950  1.00  0.00     0.049 A 
ATOM     72  H   UNL A   1      41.824  29.184  29.896  1.00  0.00     0.167 HD
ATOM     73  C   UNL A   1      42.409  30.894  33.493  1.00  0.00     0.074 A 
ATOM     74  C   UNL A   1      42.030  30.104  34.642  1.00  0.00     0.031 C 
ATOM     75  C   UNL A   1      42.221  30.566  32.189  1.00  0.00     0.034 A 
BRANCH  62  76
ATOM     76  C   UNL A   1      39.761  27.611  28.248  1.00  0.00     0.023 A 
ATOM     77  C   UNL A   1      39.301  26.260  28.240  1.00  0.00     0.012 A 
ATOM     78  C   UNL A   1      40.815  27.933  27.378  1.00  0.00     0.148 A 
ATOM     79  C   UNL A   1      39.934  25.254  27.515  1.00  0.00     0.002 A 
ATOM     80  C   UNL A   1      41.413  26.928  26.608  1.00  0.00     0.091 A 
ATOM     81  F   UNL A   1      41.294  29.182  27.357  1.00  0.00    -0.205 F 
ATOM     82  C   UNL A   1      41.005  25.588  26.709  1.00  0.00     0.022 A 
BRANCH  80  83
ATOM     83  S   UNL A   1      42.750  27.250  25.452  1.00  0.00     0.127 S 
ATOM     84  O   UNL A   1      43.879  27.482  26.347  1.00  0.00    -0.237 OA
ATOM     85  O   UNL A   1      42.818  25.989  24.707  1.00  0.00    -0.237 OA
ATOM     86  O   UNL A   1      42.307  28.384  24.652  1.00  0.00    -0.744 OA
ENDBRANCH  80  83
ENDBRANCH  62  76
BRANCH  63  87
ATOM     87  C   UNL A   1      40.953  33.799  36.671  1.00  0.00     0.023 A 
ATOM     88  C   UNL A   1      41.865  34.834  36.910  1.00  0.00     0.012 A 
ATOM     89  C   UNL A   1      40.255  33.318  37.826  1.00  0.00     0.148 A 
ATOM     90  C   UNL A   1      41.993  35.419  38.190  1.00  0.00     0.002 A 
ATOM     91  C   UNL A   1      40.281  33.977  39.049  1.00  0.00     0.091 A 
ATOM     92  F   UNL A   1      39.576  32.168  37.765  1.00  0.00    -0.205 F 
ATOM     93  C   UNL A   1      41.166  35.030  39.244  1.00  0.00     0.022 A 
BRANCH  91  94
ATOM     94  S   UNL A   1      39.078  33.618  40.350  1.00  0.00     0.127 S 
ATOM     95  O   UNL A   1      37.815  33.603  39.615  1.00  0.00    -0.237 OA
ATOM     96  O   UNL A   1      39.534  32.307  40.813  1.00  0.00    -0.237 OA
ATOM     97  O   UNL A   1      39.207  34.683  41.336  1.00  0.00    -0.744 OA
ENDBRANCH  91  94
ENDBRANCH  63  87
BRANCH  75  98
ATOM     98  C   UNL A   1      42.596  31.665  31.193  1.00  0.00     0.023 A 
ATOM     99  C   UNL A   1      41.551  32.508  30.758  1.00  0.00     0.012 A 
ATOM    100  C   UNL A   1      43.862  31.842  30.584  1.00  0.00     0.148 A 
ATOM    101  C   UNL A   1      41.741  33.465  29.756  1.00  0.00     0.002 A 
ATOM    102  C   UNL A   1      44.053  32.794  29.571  1.00  0.00     0.091 A 
ATOM    103  F   UNL A   1      44.874  31.073  30.977  1.00  0.00    -0.205 F 
ATOM    104  C   UNL A   1      42.990  33.609  29.163  1.00  0.00     0.022 A 
BRANCH 102 105
ATOM    105  S   UNL A   1      45.614  33.044  28.697  1.00  0.00     0.127 S 
ATOM    106  O   UNL A   1      45.777  31.789  27.960  1.00  0.00    -0.237 OA
ATOM    107  O   UNL A   1      45.318  34.198  27.851  1.00  0.00    -0.237 OA
ATOM    108  O   UNL A   1      46.635  33.271  29.710  1.00  0.00    -0.744 OA
ENDBRANCH 102 105
ENDBRANCH  75  98
ENDBRANCH  49  50
ENDBRANCH  41  44
ENDBRANCH  39  40
ENDBRANCH  38  39
ENDBRANCH  37  38
ENDBRANCH   1  37
TORSDOF 19
ENDMDL
MODEL 3
REMARK VINA RESULT:     -11.4      6.214     14.059
REMARK SMILES O=C(CN1C(=O)S/C(=C\c2cccn2-c2cccc(C(=O)NCCCCNC(=O)c3ccc(-c4c5nc(c(-c6cccc(S(=O)(=O)[O-])c6F)c6ccc([nH]6)c(-c6cccc(S(=O)(=O)[O-])c6F)c6nc(c(-c7cccc(S(=O)(=O)[O-])c7F)c7ccc4[nH]7)C=C6)C=C5)cc3)c2)C1=O)Nc1ccc(Cl)cc1
REMARK SMILES IDX 23 1 22 2 20 3 21 4 19 6 15 7 16 8 93 9 17 10 18 11 14 12
REMARK SMILES IDX 10 13 11 14 12 15 13 16 9 17 4 18 5 19 94 20 6 21 7 22 8 23
REMARK SMILES IDX 95 24 3 25 2 26 1 27 96 28 97 30 98 31 103 32 99 33 102 34
REMARK SMILES IDX 100 35 101 36 24 37 25 38 26 39 27 40 28 41 29 43 30 44
REMARK SMILES IDX 31 45 92 46 32 47 91 48 33 49 34 50 35 51 85 52 36 53 90 54
REMARK SMILES IDX 84 55 86 56 37 57 89 58 83 59 82 60 38 62 70 63 50 64 69 65
REMARK SMILES IDX 51 66 54 67 68 68 87 69 52 70 53 71 67 73 88 74 55 75 39 76
REMARK SMILES IDX 40 77 48 78 41 79 43 80 49 81 42 82 44 83 45 84 46 85 47 86
REMARK SMILES IDX 71 87 72 88 80 89 73 90 75 91 81 92 74 93 76 94 77 95 78 96
REMARK SMILES IDX 79 97 56 98 57 99 65 100 58 101 60 102 66 103 59 104 61 105
REMARK SMILES IDX 62 106 63 107 64 108
REMARK H PARENT 22 5 96 29 27 42 86 61 54 72
REMARK Flexibility Score: inf
ROOT
ATOM      1  C   UNL A   1      44.413  26.788  28.285  1.00  0.00     0.116 C 
ENDROOT
BRANCH   1   2
ATOM      2  N   UNL A   1      43.695  27.176  27.079  1.00  0.00    -0.352 N 
ATOM      3  C   UNL A   1      43.711  28.325  26.318  1.00  0.00     0.251 C 
ATOM      4  O   UNL A   1      42.923  28.426  25.379  1.00  0.00    -0.269 OA
ATOM      5  H   UNL A   1      43.081  26.484  26.743  1.00  0.00     0.163 HD
BRANCH   3   6
ATOM      6  C   UNL A   1      44.576  29.495  26.639  1.00  0.00     0.041 A 
ATOM      7  C   UNL A   1      44.962  31.883  26.707  1.00  0.00     0.046 A 
ATOM      8  C   UNL A   1      46.342  31.652  26.805  1.00  0.00     0.026 A 
ATOM      9  C   UNL A   1      44.083  30.797  26.757  1.00  0.00     0.040 A 
ATOM     10  C   UNL A   1      46.834  30.349  26.884  1.00  0.00     0.003 A 
ATOM     11  C   UNL A   1      45.955  29.273  26.761  1.00  0.00     0.014 A 
BRANCH   7  12
ATOM     12  N   UNL A   1      44.478  33.177  26.324  1.00  0.00    -0.317 N 
ATOM     13  C   UNL A   1      44.318  34.343  27.082  1.00  0.00     0.047 A 
ATOM     14  C   UNL A   1      43.524  35.218  26.354  1.00  0.00     0.028 A 
ATOM     15  C   UNL A   1      43.228  34.624  25.116  1.00  0.00     0.020 A 
ATOM     16  C   UNL A   1      43.859  33.405  25.100  1.00  0.00     0.092 A 
BRANCH  13  17
ATOM     17  C   UNL A   1      44.995  34.553  28.316  1.00  0.00     0.048 C 
ATOM     18  N   UNL A   1      47.927  36.183  29.627  1.00  0.00    -0.259 N 
ATOM     19  C   UNL A   1      48.199  36.699  28.382  1.00  0.00     0.294 C 
ATOM     20  C   UNL A   1      46.860  35.332  29.730  1.00  0.00     0.268 C 
ATOM     21  O   UNL A   1      49.168  37.327  28.044  1.00  0.00    -0.261 OA
ATOM     22  S   UNL A   1      46.942  36.212  27.256  1.00  0.00    -0.022 SA
ATOM     23  C   UNL A   1      46.123  35.269  28.438  1.00  0.00     0.085 C 
ATOM     24  O   UNL A   1      46.596  34.624  30.689  1.00  0.00    -0.268 OA
BRANCH  18  25
ATOM     25  C   UNL A   1      48.765  36.529  30.764  1.00  0.00     0.230 C 
BRANCH  25  26
ATOM     26  C   UNL A   1      48.182  37.615  31.663  1.00  0.00     0.244 C 
ATOM     27  O   UNL A   1      47.805  37.340  32.800  1.00  0.00    -0.273 OA
ATOM     28  N   UNL A   1      48.226  38.892  31.133  1.00  0.00    -0.325 N 
ATOM     29  H   UNL A   1      48.568  38.986  30.214  1.00  0.00     0.169 HD
BRANCH  28  30
ATOM     30  C   UNL A   1      47.825  40.072  31.792  1.00  0.00     0.041 A 
ATOM     31  C   UNL A   1      48.731  40.654  32.685  1.00  0.00     0.027 A 
ATOM     32  C   UNL A   1      46.579  40.679  31.600  1.00  0.00     0.027 A 
ATOM     33  C   UNL A   1      48.409  41.846  33.342  1.00  0.00     0.022 A 
ATOM     34  C   UNL A   1      46.248  41.860  32.268  1.00  0.00     0.022 A 
ATOM     35  C   UNL A   1      47.169  42.445  33.129  1.00  0.00     0.041 A 
ATOM     36  Cl  UNL A   1      46.776  43.912  33.936  1.00  0.00    -0.084 Cl
ENDBRANCH  28  30
ENDBRANCH  25  26
ENDBRANCH  18  25
ENDBRANCH  13  17
ENDBRANCH   7  12
ENDBRANCH   3   6
ENDBRANCH   1   2
BRANCH   1  37
ATOM     37  C   UNL A   1      43.897  25.517  28.950  1.00  0.00     0.023 C 
BRANCH  37  38
ATOM     38  C   UNL A   1      43.342  24.436  28.020  1.00  0.00     0.023 C 
BRANCH  38  39
ATOM     39  C   UNL A   1      42.161  23.641  28.578  1.00  0.00     0.116 C 
BRANCH  39  40
ATOM     40  N   UNL A   1      41.112  23.450  27.585  1.00  0.00    -0.352 N 
ATOM     41  C   UNL A   1      39.980  24.205  27.368  1.00  0.00     0.251 C 
ATOM     42  H   UNL A   1      41.228  22.677  26.987  1.00  0.00     0.163 HD
ATOM     43  O   UNL A   1      39.027  23.674  26.799  1.00  0.00    -0.269 OA
BRANCH  41  44
ATOM     44  C   UNL A   1      39.881  25.611  27.831  1.00  0.00     0.039 A 
ATOM     45  C   UNL A   1      39.341  25.867  29.099  1.00  0.00     0.014 A 
ATOM     46  C   UNL A   1      40.252  26.681  27.015  1.00  0.00     0.014 A 
ATOM     47  C   UNL A   1      39.259  27.178  29.579  1.00  0.00     0.010 A 
ATOM     48  C   UNL A   1      40.154  27.991  27.482  1.00  0.00     0.010 A 
ATOM     49  C   UNL A   1      39.701  28.240  28.781  1.00  0.00    -0.014 A 
BRANCH  49  50
ATOM     50  C   UNL A   1      39.951  29.575  29.382  1.00  0.00     0.031 A 
ATOM     51  C   UNL A   1      38.734  30.516  29.173  1.00  0.00     0.074 A 
ATOM     52  C   UNL A   1      41.142  29.776  30.029  1.00  0.00     0.049 A 
ATOM     53  N   UNL A   1      38.677  31.815  29.123  1.00  0.00    -0.248 NA
ATOM     54  C   UNL A   1      37.397  29.925  28.874  1.00  0.00     0.031 C 
ATOM     55  C   UNL A   1      42.201  28.754  30.166  1.00  0.00     0.029 A 
ATOM     56  N   UNL A   1      41.711  30.841  30.709  1.00  0.00    -0.354 N 
ATOM     57  C   UNL A   1      37.304  32.172  29.037  1.00  0.00     0.074 A 
ATOM     58  C   UNL A   1      36.588  30.976  28.737  1.00  0.00     0.031 C 
ATOM     59  C   UNL A   1      43.282  29.250  30.808  1.00  0.00     0.029 A 
ATOM     60  C   UNL A   1      43.036  30.631  31.185  1.00  0.00     0.049 A 
ATOM     61  H   UNL A   1      41.231  31.689  30.853  1.00  0.00     0.167 HD
ATOM     62  C   UNL A   1      36.824  33.404  29.382  1.00  0.00     0.034 A 
ATOM     63  C   UNL A   1      43.888  31.505  31.814  1.00  0.00     0.034 A 
ATOM     64  C   UNL A   1      37.903  34.205  29.852  1.00  0.00     0.049 A 
ATOM     65  C   UNL A   1      43.084  32.687  32.137  1.00  0.00     0.074 A 
ATOM     66  C   UNL A   1      38.942  34.835  29.224  1.00  0.00     0.029 A 
ATOM     67  N   UNL A   1      38.152  34.112  31.200  1.00  0.00    -0.354 N 
ATOM     68  N   UNL A   1      42.192  32.732  33.082  1.00  0.00    -0.248 NA
ATOM     69  C   UNL A   1      43.221  33.891  31.308  1.00  0.00     0.031 C 
ATOM     70  C   UNL A   1      39.992  34.723  30.154  1.00  0.00     0.029 A 
ATOM     71  C   UNL A   1      39.506  34.211  31.365  1.00  0.00     0.049 A 
ATOM     72  H   UNL A   1      37.483  33.995  31.912  1.00  0.00     0.167 HD
ATOM     73  C   UNL A   1      41.428  33.802  32.690  1.00  0.00     0.074 A 
ATOM     74  C   UNL A   1      42.279  34.639  31.875  1.00  0.00     0.031 C 
ATOM     75  C   UNL A   1      40.088  33.632  32.551  1.00  0.00     0.034 A 
BRANCH  62  76
ATOM     76  C   UNL A   1      35.446  33.983  29.611  1.00  0.00     0.023 A 
ATOM     77  C   UNL A   1      34.804  34.493  28.442  1.00  0.00     0.012 A 
ATOM     78  C   UNL A   1      34.897  34.343  30.852  1.00  0.00     0.148 A 
ATOM     79  C   UNL A   1      33.763  35.416  28.498  1.00  0.00     0.002 A 
ATOM     80  C   UNL A   1      33.813  35.230  30.901  1.00  0.00     0.091 A 
ATOM     81  F   UNL A   1      35.469  33.904  31.978  1.00  0.00    -0.205 F 
ATOM     82  C   UNL A   1      33.278  35.797  29.734  1.00  0.00     0.022 A 
BRANCH  80  83
ATOM     83  S   UNL A   1      33.031  35.729  32.440  1.00  0.00     0.127 S 
ATOM     84  O   UNL A   1      32.054  36.710  31.981  1.00  0.00    -0.237 OA
ATOM     85  O   UNL A   1      32.448  34.467  32.907  1.00  0.00    -0.237 OA
ATOM     86  O   UNL A   1      34.111  36.226  33.282  1.00  0.00    -0.744 OA
ENDBRANCH  80  83
ENDBRANCH  62  76
BRANCH  63  87
ATOM     87  C   UNL A   1      45.361  31.583  32.177  1.00  0.00     0.023 A 
ATOM     88  C   UNL A   1      45.849  31.906  33.449  1.00  0.00     0.012 A 
ATOM     89  C   UNL A   1      46.356  31.214  31.214  1.00  0.00     0.148 A 
ATOM     90  C   UNL A   1      47.219  31.767  33.768  1.00  0.00     0.002 A 
ATOM     91  C   UNL A   1      47.675  30.949  31.560  1.00  0.00     0.091 A 
ATOM     92  F   UNL A   1      46.040  31.154  29.916  1.00  0.00    -0.205 F 
ATOM     93  C   UNL A   1      48.121  31.239  32.844  1.00  0.00     0.022 A 
BRANCH  91  94
ATOM     94  S   UNL A   1      48.797  30.080  30.441  1.00  0.00     0.127 S 
ATOM     95  O   UNL A   1      49.127  31.113  29.462  1.00  0.00    -0.237 OA
ATOM     96  O   UNL A   1      49.890  29.720  31.345  1.00  0.00    -0.237 OA
ATOM     97  O   UNL A   1      48.054  28.942  29.912  1.00  0.00    -0.744 OA
ENDBRANCH  91  94
ENDBRANCH  63  87
BRANCH  75  98
ATOM     98  C   UNL A   1      39.478  32.572  33.470  1.00  0.00     0.023 A 
ATOM     99  C   UNL A   1      39.122  31.345  32.871  1.00  0.00     0.012 A 
ATOM    100  C   UNL A   1      39.135  32.747  34.832  1.00  0.00     0.148 A 
ATOM    101  C   UNL A   1      38.443  30.348  33.577  1.00  0.00     0.002 A 
ATOM    102  C   UNL A   1      38.444  31.753  35.540  1.00  0.00     0.091 A 
ATOM    103  F   UNL A   1      39.465  33.888  35.434  1.00  0.00    -0.205 F 
ATOM    104  C   UNL A   1      38.104  30.550  34.910  1.00  0.00     0.022 A 
BRANCH 102 105
ATOM    105  S   UNL A   1      37.911  31.917  37.259  1.00  0.00     0.127 S 
ATOM    106  O   UNL A   1      36.817  32.887  37.168  1.00  0.00    -0.237 OA
ATOM    107  O   UNL A   1      37.477  30.559  37.583  1.00  0.00    -0.237 OA
ATOM    108  O   UNL A   1      39.061  32.392  38.015  1.00  0.00    -0.744 OA
ENDBRANCH 102 105
ENDBRANCH  75  98
ENDBRANCH  49  50
ENDBRANCH  41  44
ENDBRANCH  39  40
ENDBRANCH  38  39
ENDBRANCH  37  38
ENDBRANCH   1  37
TORSDOF 19
ENDMDL
