MODEL 1
REMARK VINA RESULT:     -11.4      0.000      0.000
REMARK SMILES CC[C@@H](C)CN(C)c1cccc(Cl)c1/C=C/C(=O)NCCCCNC(=O)c1ccc(-c2c3nc(c(-c4cccc(S(=O)(=O)[O-])c4F)c4ccc([nH]4)c(-c4cccc(S(=O)(=O)[O-])c4F)c4nc(c(-c5cccc(S(=O)(=O)[O-])c5F)c5ccc2[nH]5)C=C4)C=C3)cc1
REMARK SMILES IDX 20 1 19 2 17 3 18 4 16 6 15 7 14 8 8 9 9 10 10 11 12 12
REMARK SMILES IDX 11 13 13 14 6 15 7 16 5 17 3 18 4 19 2 20 1 21 21 22 22 23
REMARK SMILES IDX 23 24 24 25 25 26 26 28 27 29 28 30 89 31 29 32 88 33 30 34
REMARK SMILES IDX 31 35 32 36 82 37 33 38 87 39 81 40 83 41 34 42 86 43 80 44
REMARK SMILES IDX 79 45 35 47 67 48 47 49 66 50 48 51 51 52 65 53 84 54 49 55
REMARK SMILES IDX 50 56 64 58 85 59 52 60 36 61 37 62 45 63 38 64 40 65 46 66
REMARK SMILES IDX 39 67 41 68 42 69 43 70 44 71 68 72 69 73 77 74 70 75 72 76
REMARK SMILES IDX 78 77 71 78 73 79 74 80 75 81 76 82 53 83 54 84 62 85 55 86
REMARK SMILES IDX 57 87 63 88 56 89 58 90 59 91 60 92 61 93
REMARK H PARENT 19 5 24 27 83 46 51 57
REMARK Flexibility Score: inf
ROOT
ATOM      1  C   UNL A   1      31.272  28.568  23.232  1.00  0.00     0.116 C 
ENDROOT
BRANCH   1   2
ATOM      2  N   UNL A   1      32.366  28.130  22.384  1.00  0.00    -0.353 N 
ATOM      3  C   UNL A   1      33.079  26.969  22.434  1.00  0.00     0.244 C 
ATOM      4  O   UNL A   1      33.858  26.672  21.532  1.00  0.00    -0.270 OA
ATOM      5  H   UNL A   1      32.631  28.759  21.674  1.00  0.00     0.163 HD
BRANCH   3   6
ATOM      6  C   UNL A   1      32.891  26.034  23.565  1.00  0.00     0.072 C 
ATOM      7  C   UNL A   1      31.980  25.055  23.486  1.00  0.00     0.017 C 
BRANCH   7   8
ATOM      8  C   UNL A   1      31.573  24.138  24.565  1.00  0.00     0.017 A 
ATOM      9  C   UNL A   1      32.224  22.898  24.760  1.00  0.00     0.045 A 
ATOM     10  C   UNL A   1      32.029  22.233  25.984  1.00  0.00     0.026 A 
ATOM     11  C   UNL A   1      31.106  22.679  26.929  1.00  0.00     0.004 A 
ATOM     12  C   UNL A   1      30.623  24.568  25.517  1.00  0.00     0.050 A 
ATOM     13  C   UNL A   1      30.373  23.828  26.675  1.00  0.00     0.021 A 
ATOM     14  Cl  UNL A   1      29.706  26.025  25.312  1.00  0.00    -0.084 Cl
BRANCH   9  15
ATOM     15  N   UNL A   1      33.003  22.268  23.797  1.00  0.00    -0.374 N 
ATOM     16  C   UNL A   1      32.365  21.698  22.620  1.00  0.00     0.143 C 
BRANCH  15  17
ATOM     17  C   UNL A   1      34.411  21.971  24.103  1.00  0.00     0.119 C 
BRANCH  17  18
ATOM     18  C   UNL A   1      35.311  23.222  23.946  1.00  0.00     0.005 C 
ATOM     19  C   UNL A   1      36.597  22.863  23.192  1.00  0.00     0.009 C 
BRANCH  18  20
ATOM     20  C   UNL A   1      35.687  23.842  25.312  1.00  0.00     0.002 C 
ATOM     21  C   UNL A   1      37.193  23.835  25.554  1.00  0.00     0.004 C 
ENDBRANCH  18  20
ENDBRANCH  17  18
ENDBRANCH  15  17
ENDBRANCH   9  15
ENDBRANCH   7   8
ENDBRANCH   3   6
ENDBRANCH   1   2
BRANCH   1  22
ATOM     22  C   UNL A   1      31.716  29.626  24.242  1.00  0.00     0.023 C 
BRANCH  22  23
ATOM     23  C   UNL A   1      32.885  29.208  25.137  1.00  0.00     0.023 C 
BRANCH  23  24
ATOM     24  C   UNL A   1      32.754  29.597  26.606  1.00  0.00     0.116 C 
BRANCH  24  25
ATOM     25  N   UNL A   1      32.647  31.033  26.822  1.00  0.00    -0.352 N 
ATOM     26  C   UNL A   1      33.546  31.868  27.448  1.00  0.00     0.251 C 
ATOM     27  H   UNL A   1      31.830  31.460  26.478  1.00  0.00     0.163 HD
ATOM     28  O   UNL A   1      33.278  33.045  27.636  1.00  0.00    -0.269 OA
BRANCH  26  29
ATOM     29  C   UNL A   1      34.826  31.303  27.926  1.00  0.00     0.039 A 
ATOM     30  C   UNL A   1      35.929  32.150  28.051  1.00  0.00     0.014 A 
ATOM     31  C   UNL A   1      34.912  29.961  28.302  1.00  0.00     0.014 A 
ATOM     32  C   UNL A   1      37.105  31.663  28.625  1.00  0.00     0.010 A 
ATOM     33  C   UNL A   1      36.061  29.498  28.935  1.00  0.00     0.010 A 
ATOM     34  C   UNL A   1      37.167  30.344  29.105  1.00  0.00    -0.014 A 
BRANCH  34  35
ATOM     35  C   UNL A   1      38.367  29.838  29.815  1.00  0.00     0.031 A 
ATOM     36  C   UNL A   1      38.708  30.350  31.186  1.00  0.00     0.074 A 
ATOM     37  C   UNL A   1      39.204  28.993  29.180  1.00  0.00     0.049 A 
ATOM     38  N   UNL A   1      39.742  30.073  31.935  1.00  0.00    -0.248 NA
ATOM     39  C   UNL A   1      37.778  31.324  31.783  1.00  0.00     0.031 C 
ATOM     40  C   UNL A   1      39.029  28.496  27.813  1.00  0.00     0.029 A 
ATOM     41  N   UNL A   1      40.386  28.428  29.589  1.00  0.00    -0.354 N 
ATOM     42  C   UNL A   1      39.609  30.860  33.072  1.00  0.00     0.074 A 
ATOM     43  C   UNL A   1      38.412  31.653  32.900  1.00  0.00     0.031 C 
ATOM     44  C   UNL A   1      40.064  27.700  27.498  1.00  0.00     0.029 A 
ATOM     45  C   UNL A   1      40.986  27.647  28.628  1.00  0.00     0.049 A 
ATOM     46  H   UNL A   1      40.768  28.567  30.486  1.00  0.00     0.167 HD
ATOM     47  C   UNL A   1      40.396  30.898  34.174  1.00  0.00     0.034 A 
ATOM     48  C   UNL A   1      42.150  26.968  28.654  1.00  0.00     0.034 A 
ATOM     49  C   UNL A   1      41.557  30.072  34.361  1.00  0.00     0.049 A 
ATOM     50  C   UNL A   1      42.975  26.984  29.911  1.00  0.00     0.074 A 
ATOM     51  C   UNL A   1      42.364  29.962  35.480  1.00  0.00     0.029 A 
ATOM     52  N   UNL A   1      42.081  29.216  33.405  1.00  0.00    -0.354 N 
ATOM     53  N   UNL A   1      42.741  27.601  31.044  1.00  0.00    -0.248 NA
ATOM     54  C   UNL A   1      44.206  26.180  29.910  1.00  0.00     0.031 C 
ATOM     55  C   UNL A   1      43.384  29.050  35.194  1.00  0.00     0.029 A 
ATOM     56  C   UNL A   1      43.204  28.578  33.903  1.00  0.00     0.049 A 
ATOM     57  H   UNL A   1      41.709  29.081  32.503  1.00  0.00     0.167 HD
ATOM     58  C   UNL A   1      43.774  27.235  31.900  1.00  0.00     0.074 A 
ATOM     59  C   UNL A   1      44.624  26.323  31.161  1.00  0.00     0.031 C 
ATOM     60  C   UNL A   1      44.007  27.631  33.175  1.00  0.00     0.034 A 
BRANCH  47  61
ATOM     61  C   UNL A   1      39.987  31.820  35.292  1.00  0.00     0.023 A 
ATOM     62  C   UNL A   1      40.509  33.129  35.333  1.00  0.00     0.012 A 
ATOM     63  C   UNL A   1      39.053  31.417  36.266  1.00  0.00     0.148 A 
ATOM     64  C   UNL A   1      40.135  34.014  36.343  1.00  0.00     0.002 A 
ATOM     65  C   UNL A   1      38.653  32.318  37.247  1.00  0.00     0.091 A 
ATOM     66  F   UNL A   1      38.586  30.161  36.226  1.00  0.00    -0.205 F 
ATOM     67  C   UNL A   1      39.200  33.611  37.294  1.00  0.00     0.022 A 
BRANCH  65  68
ATOM     68  S   UNL A   1      37.398  31.923  38.471  1.00  0.00     0.127 S 
ATOM     69  O   UNL A   1      37.085  30.535  38.133  1.00  0.00    -0.237 OA
ATOM     70  O   UNL A   1      38.126  32.096  39.728  1.00  0.00    -0.237 OA
ATOM     71  O   UNL A   1      36.319  32.877  38.259  1.00  0.00    -0.744 OA
ENDBRANCH  65  68
ENDBRANCH  47  61
BRANCH  48  72
ATOM     72  C   UNL A   1      42.561  26.152  27.477  1.00  0.00     0.023 A 
ATOM     73  C   UNL A   1      43.396  26.727  26.499  1.00  0.00     0.012 A 
ATOM     74  C   UNL A   1      42.163  24.809  27.336  1.00  0.00     0.148 A 
ATOM     75  C   UNL A   1      43.801  25.990  25.385  1.00  0.00     0.002 A 
ATOM     76  C   UNL A   1      42.613  24.064  26.251  1.00  0.00     0.091 A 
ATOM     77  F   UNL A   1      41.359  24.282  28.270  1.00  0.00    -0.205 F 
ATOM     78  C   UNL A   1      43.418  24.656  25.267  1.00  0.00     0.022 A 
BRANCH  76  79
ATOM     79  S   UNL A   1      42.279  22.306  26.089  1.00  0.00     0.127 S 
ATOM     80  O   UNL A   1      42.976  21.983  24.845  1.00  0.00    -0.237 OA
ATOM     81  O   UNL A   1      42.898  21.765  27.299  1.00  0.00    -0.237 OA
ATOM     82  O   UNL A   1      40.828  22.186  26.054  1.00  0.00    -0.744 OA
ENDBRANCH  76  79
ENDBRANCH  48  72
BRANCH  60  83
ATOM     83  C   UNL A   1      45.216  27.063  33.872  1.00  0.00     0.023 A 
ATOM     84  C   UNL A   1      46.443  27.751  33.810  1.00  0.00     0.012 A 
ATOM     85  C   UNL A   1      45.116  25.894  34.652  1.00  0.00     0.148 A 
ATOM     86  C   UNL A   1      47.561  27.269  34.490  1.00  0.00     0.002 A 
ATOM     87  C   UNL A   1      46.222  25.446  35.364  1.00  0.00     0.091 A 
ATOM     88  F   UNL A   1      43.944  25.243  34.682  1.00  0.00    -0.205 F 
ATOM     89  C   UNL A   1      47.447  26.125  35.275  1.00  0.00     0.022 A 
BRANCH  87  90
ATOM     90  S   UNL A   1      46.140  24.037  36.475  1.00  0.00     0.127 S 
ATOM     91  O   UNL A   1      45.300  23.109  35.721  1.00  0.00    -0.237 OA
ATOM     92  O   UNL A   1      47.544  23.640  36.581  1.00  0.00    -0.237 OA
ATOM     93  O   UNL A   1      45.563  24.539  37.716  1.00  0.00    -0.744 OA
ENDBRANCH  87  90
ENDBRANCH  60  83
ENDBRANCH  34  35
ENDBRANCH  26  29
ENDBRANCH  24  25
ENDBRANCH  23  24
ENDBRANCH  22  23
ENDBRANCH   1  22
TORSDOF 19
ENDMDL
MODEL 2
REMARK VINA RESULT:     -11.3      5.151      7.657
REMARK SMILES CC[C@@H](C)CN(C)c1cccc(Cl)c1/C=C/C(=O)NCCCCNC(=O)c1ccc(-c2c3nc(c(-c4cccc(S(=O)(=O)[O-])c4F)c4ccc([nH]4)c(-c4cccc(S(=O)(=O)[O-])c4F)c4nc(c(-c5cccc(S(=O)(=O)[O-])c5F)c5ccc2[nH]5)C=C4)C=C3)cc1
REMARK SMILES IDX 20 1 19 2 17 3 18 4 16 6 15 7 14 8 8 9 9 10 10 11 12 12
REMARK SMILES IDX 11 13 13 14 6 15 7 16 5 17 3 18 4 19 2 20 1 21 21 22 22 23
REMARK SMILES IDX 23 24 24 25 25 26 26 28 27 29 28 30 89 31 29 32 88 33 30 34
REMARK SMILES IDX 31 35 32 36 82 37 33 38 87 39 81 40 83 41 34 42 86 43 80 44
REMARK SMILES IDX 79 45 35 47 67 48 47 49 66 50 48 51 51 52 65 53 84 54 49 55
REMARK SMILES IDX 50 56 64 58 85 59 52 60 36 61 37 62 45 63 38 64 40 65 46 66
REMARK SMILES IDX 39 67 41 68 42 69 43 70 44 71 68 72 69 73 77 74 70 75 72 76
REMARK SMILES IDX 78 77 71 78 73 79 74 80 75 81 76 82 53 83 54 84 62 85 55 86
REMARK SMILES IDX 57 87 63 88 56 89 58 90 59 91 60 92 61 93
REMARK H PARENT 19 5 24 27 83 46 51 57
REMARK Flexibility Score: inf
ROOT
ATOM      1  C   UNL A   1      33.111  20.688  25.997  1.00  0.00     0.116 C 
ENDROOT
BRANCH   1   2
ATOM      2  N   UNL A   1      32.656  21.697  26.937  1.00  0.00    -0.353 N 
ATOM      3  C   UNL A   1      31.961  22.844  26.694  1.00  0.00     0.244 C 
ATOM      4  O   UNL A   1      31.497  23.504  27.620  1.00  0.00    -0.270 OA
ATOM      5  H   UNL A   1      32.880  21.529  27.881  1.00  0.00     0.163 HD
BRANCH   3   6
ATOM      6  C   UNL A   1      31.728  23.287  25.302  1.00  0.00     0.072 C 
ATOM      7  C   UNL A   1      32.446  24.295  24.787  1.00  0.00     0.017 C 
BRANCH   7   8
ATOM      8  C   UNL A   1      32.246  24.945  23.481  1.00  0.00     0.017 A 
ATOM      9  C   UNL A   1      31.573  26.185  23.372  1.00  0.00     0.045 A 
ATOM     10  C   UNL A   1      31.709  26.908  22.173  1.00  0.00     0.026 A 
ATOM     11  C   UNL A   1      32.348  26.374  21.055  1.00  0.00     0.004 A 
ATOM     12  C   UNL A   1      32.870  24.404  22.335  1.00  0.00     0.050 A 
ATOM     13  C   UNL A   1      32.895  25.102  21.126  1.00  0.00     0.021 A 
ATOM     14  Cl  UNL A   1      33.634  22.847  22.350  1.00  0.00    -0.084 Cl
BRANCH   9  15
ATOM     15  N   UNL A   1      30.742  26.708  24.355  1.00  0.00    -0.374 N 
ATOM     16  C   UNL A   1      29.364  26.251  24.446  1.00  0.00     0.143 C 
BRANCH  15  17
ATOM     17  C   UNL A   1      31.193  27.883  25.116  1.00  0.00     0.119 C 
BRANCH  17  18
ATOM     18  C   UNL A   1      32.048  27.482  26.344  1.00  0.00     0.005 C 
ATOM     19  C   UNL A   1      31.507  28.153  27.613  1.00  0.00     0.009 C 
BRANCH  18  20
ATOM     20  C   UNL A   1      33.535  27.867  26.168  1.00  0.00     0.002 C 
ATOM     21  C   UNL A   1      33.791  28.592  24.851  1.00  0.00     0.004 C 
ENDBRANCH  18  20
ENDBRANCH  17  18
ENDBRANCH  15  17
ENDBRANCH   9  15
ENDBRANCH   7   8
ENDBRANCH   3   6
ENDBRANCH   1   2
BRANCH   1  22
ATOM     22  C   UNL A   1      34.622  20.751  25.773  1.00  0.00     0.023 C 
BRANCH  22  23
ATOM     23  C   UNL A   1      35.240  22.138  25.964  1.00  0.00     0.023 C 
BRANCH  23  24
ATOM     24  C   UNL A   1      36.591  22.349  25.286  1.00  0.00     0.116 C 
BRANCH  24  25
ATOM     25  N   UNL A   1      37.482  21.203  25.392  1.00  0.00    -0.352 N 
ATOM     26  C   UNL A   1      38.763  21.165  25.897  1.00  0.00     0.251 C 
ATOM     27  H   UNL A   1      37.125  20.348  25.061  1.00  0.00     0.163 HD
ATOM     28  O   UNL A   1      39.428  20.143  25.838  1.00  0.00    -0.269 OA
BRANCH  26  29
ATOM     29  C   UNL A   1      39.334  22.401  26.475  1.00  0.00     0.039 A 
ATOM     30  C   UNL A   1      40.388  22.292  27.385  1.00  0.00     0.014 A 
ATOM     31  C   UNL A   1      38.868  23.654  26.071  1.00  0.00     0.014 A 
ATOM     32  C   UNL A   1      41.025  23.450  27.837  1.00  0.00     0.010 A 
ATOM     33  C   UNL A   1      39.547  24.800  26.470  1.00  0.00     0.010 A 
ATOM     34  C   UNL A   1      40.634  24.709  27.354  1.00  0.00    -0.014 A 
BRANCH  34  35
ATOM     35  C   UNL A   1      41.364  25.942  27.736  1.00  0.00     0.031 A 
ATOM     36  C   UNL A   1      40.666  27.028  28.507  1.00  0.00     0.074 A 
ATOM     37  C   UNL A   1      42.627  26.126  27.301  1.00  0.00     0.049 A 
ATOM     38  N   UNL A   1      41.119  28.196  28.877  1.00  0.00    -0.248 NA
ATOM     39  C   UNL A   1      39.265  26.779  28.886  1.00  0.00     0.031 C 
ATOM     40  C   UNL A   1      43.380  25.185  26.468  1.00  0.00     0.029 A 
ATOM     41  N   UNL A   1      43.488  27.181  27.471  1.00  0.00    -0.354 N 
ATOM     42  C   UNL A   1      40.054  28.836  29.500  1.00  0.00     0.074 A 
ATOM     43  C   UNL A   1      38.921  27.939  29.427  1.00  0.00     0.031 C 
ATOM     44  C   UNL A   1      44.590  25.704  26.202  1.00  0.00     0.029 A 
ATOM     45  C   UNL A   1      44.691  27.020  26.823  1.00  0.00     0.049 A 
ATOM     46  H   UNL A   1      43.266  27.977  28.007  1.00  0.00     0.167 HD
ATOM     47  C   UNL A   1      40.029  30.047  30.105  1.00  0.00     0.034 A 
ATOM     48  C   UNL A   1      45.756  27.844  26.737  1.00  0.00     0.034 A 
ATOM     49  C   UNL A   1      41.170  30.912  30.218  1.00  0.00     0.049 A 
ATOM     50  C   UNL A   1      45.720  29.159  27.466  1.00  0.00     0.074 A 
ATOM     51  C   UNL A   1      41.276  32.114  30.897  1.00  0.00     0.029 A 
ATOM     52  N   UNL A   1      42.405  30.673  29.636  1.00  0.00    -0.354 N 
ATOM     53  N   UNL A   1      44.760  29.671  28.198  1.00  0.00    -0.248 NA
ATOM     54  C   UNL A   1      46.927  29.995  27.389  1.00  0.00     0.031 C 
ATOM     55  C   UNL A   1      42.571  32.608  30.712  1.00  0.00     0.029 A 
ATOM     56  C   UNL A   1      43.278  31.706  29.932  1.00  0.00     0.049 A 
ATOM     57  H   UNL A   1      42.629  29.883  29.091  1.00  0.00     0.167 HD
ATOM     58  C   UNL A   1      45.258  30.870  28.696  1.00  0.00     0.074 A 
ATOM     59  C   UNL A   1      46.613  30.997  28.200  1.00  0.00     0.031 C 
ATOM     60  C   UNL A   1      44.642  31.790  29.478  1.00  0.00     0.034 A 
BRANCH  47  61
ATOM     61  C   UNL A   1      38.738  30.479  30.750  1.00  0.00     0.023 A 
ATOM     62  C   UNL A   1      38.542  30.244  32.126  1.00  0.00     0.012 A 
ATOM     63  C   UNL A   1      37.748  31.159  30.016  1.00  0.00     0.148 A 
ATOM     64  C   UNL A   1      37.366  30.650  32.757  1.00  0.00     0.002 A 
ATOM     65  C   UNL A   1      36.596  31.598  30.660  1.00  0.00     0.091 A 
ATOM     66  F   UNL A   1      37.941  31.352  28.703  1.00  0.00    -0.205 F 
ATOM     67  C   UNL A   1      36.399  31.335  32.026  1.00  0.00     0.022 A 
BRANCH  65  68
ATOM     68  S   UNL A   1      35.325  32.556  29.826  1.00  0.00     0.127 S 
ATOM     69  O   UNL A   1      34.335  32.719  30.889  1.00  0.00    -0.237 OA
ATOM     70  O   UNL A   1      36.044  33.778  29.468  1.00  0.00    -0.237 OA
ATOM     71  O   UNL A   1      34.898  31.750  28.691  1.00  0.00    -0.744 OA
ENDBRANCH  65  68
ENDBRANCH  47  61
BRANCH  48  72
ATOM     72  C   UNL A   1      46.974  27.410  25.996  1.00  0.00     0.023 A 
ATOM     73  C   UNL A   1      47.943  26.635  26.660  1.00  0.00     0.012 A 
ATOM     74  C   UNL A   1      47.162  27.729  24.637  1.00  0.00     0.148 A 
ATOM     75  C   UNL A   1      49.094  26.211  25.995  1.00  0.00     0.002 A 
ATOM     76  C   UNL A   1      48.285  27.258  23.966  1.00  0.00     0.091 A 
ATOM     77  F   UNL A   1      46.234  28.478  24.024  1.00  0.00    -0.205 F 
ATOM     78  C   UNL A   1      49.260  26.513  24.646  1.00  0.00     0.022 A 
BRANCH  76  79
ATOM     79  S   UNL A   1      48.513  27.487  22.198  1.00  0.00     0.127 S 
ATOM     80  O   UNL A   1      48.650  26.108  21.734  1.00  0.00    -0.237 OA
ATOM     81  O   UNL A   1      47.265  28.145  21.812  1.00  0.00    -0.237 OA
ATOM     82  O   UNL A   1      49.697  28.324  22.063  1.00  0.00    -0.744 OA
ENDBRANCH  76  79
ENDBRANCH  48  72
BRANCH  60  83
ATOM     83  C   UNL A   1      45.432  33.010  29.875  1.00  0.00     0.023 A 
ATOM     84  C   UNL A   1      46.163  33.006  31.078  1.00  0.00     0.012 A 
ATOM     85  C   UNL A   1      45.515  34.125  29.017  1.00  0.00     0.148 A 
ATOM     86  C   UNL A   1      46.942  34.106  31.438  1.00  0.00     0.002 A 
ATOM     87  C   UNL A   1      46.330  35.197  29.360  1.00  0.00     0.091 A 
ATOM     88  F   UNL A   1      44.796  34.117  27.885  1.00  0.00    -0.205 F 
ATOM     89  C   UNL A   1      47.034  35.194  30.575  1.00  0.00     0.022 A 
BRANCH  87  90
ATOM     90  S   UNL A   1      46.584  36.598  28.265  1.00  0.00     0.127 S 
ATOM     91  O   UNL A   1      47.474  37.442  29.059  1.00  0.00    -0.237 OA
ATOM     92  O   UNL A   1      47.212  35.975  27.100  1.00  0.00    -0.237 OA
ATOM     93  O   UNL A   1      45.259  37.151  28.009  1.00  0.00    -0.744 OA
ENDBRANCH  87  90
ENDBRANCH  60  83
ENDBRANCH  34  35
ENDBRANCH  26  29
ENDBRANCH  24  25
ENDBRANCH  23  24
ENDBRANCH  22  23
ENDBRANCH   1  22
TORSDOF 19
ENDMDL
MODEL 3
REMARK VINA RESULT:     -11.1      2.355      8.208
REMARK SMILES CC[C@@H](C)CN(C)c1cccc(Cl)c1/C=C/C(=O)NCCCCNC(=O)c1ccc(-c2c3nc(c(-c4cccc(S(=O)(=O)[O-])c4F)c4ccc([nH]4)c(-c4cccc(S(=O)(=O)[O-])c4F)c4nc(c(-c5cccc(S(=O)(=O)[O-])c5F)c5ccc2[nH]5)C=C4)C=C3)cc1
REMARK SMILES IDX 20 1 19 2 17 3 18 4 16 6 15 7 14 8 8 9 9 10 10 11 12 12
REMARK SMILES IDX 11 13 13 14 6 15 7 16 5 17 3 18 4 19 2 20 1 21 21 22 22 23
REMARK SMILES IDX 23 24 24 25 25 26 26 28 27 29 28 30 89 31 29 32 88 33 30 34
REMARK SMILES IDX 31 35 32 36 82 37 33 38 87 39 81 40 83 41 34 42 86 43 80 44
REMARK SMILES IDX 79 45 35 47 67 48 47 49 66 50 48 51 51 52 65 53 84 54 49 55
REMARK SMILES IDX 50 56 64 58 85 59 52 60 36 61 37 62 45 63 38 64 40 65 46 66
REMARK SMILES IDX 39 67 41 68 42 69 43 70 44 71 68 72 69 73 77 74 70 75 72 76
REMARK SMILES IDX 78 77 71 78 73 79 74 80 75 81 76 82 53 83 54 84 62 85 55 86
REMARK SMILES IDX 57 87 63 88 56 89 58 90 59 91 60 92 61 93
REMARK H PARENT 19 5 24 27 83 46 51 57
REMARK Flexibility Score: inf
ROOT
ATOM      1  C   UNL A   1      33.633  29.760  26.818  1.00  0.00     0.116 C 
ENDROOT
BRANCH   1   2
ATOM      2  N   UNL A   1      34.034  29.333  25.489  1.00  0.00    -0.353 N 
ATOM      3  C   UNL A   1      33.789  28.150  24.857  1.00  0.00     0.244 C 
ATOM      4  O   UNL A   1      34.046  28.011  23.664  1.00  0.00    -0.270 OA
ATOM      5  H   UNL A   1      34.555  29.989  24.972  1.00  0.00     0.163 HD
BRANCH   3   6
ATOM      6  C   UNL A   1      33.175  27.028  25.601  1.00  0.00     0.072 C 
ATOM      7  C   UNL A   1      32.745  25.941  24.945  1.00  0.00     0.017 C 
BRANCH   7   8
ATOM      8  C   UNL A   1      31.991  24.809  25.511  1.00  0.00     0.017 A 
ATOM      9  C   UNL A   1      32.647  23.636  25.951  1.00  0.00     0.045 A 
ATOM     10  C   UNL A   1      31.933  22.749  26.778  1.00  0.00     0.026 A 
ATOM     11  C   UNL A   1      30.575  22.915  27.042  1.00  0.00     0.004 A 
ATOM     12  C   UNL A   1      30.609  24.956  25.765  1.00  0.00     0.050 A 
ATOM     13  C   UNL A   1      29.903  24.001  26.500  1.00  0.00     0.021 A 
ATOM     14  Cl  UNL A   1      29.703  26.313  25.179  1.00  0.00    -0.084 Cl
BRANCH   9  15
ATOM     15  N   UNL A   1      33.935  23.276  25.574  1.00  0.00    -0.374 N 
ATOM     16  C   UNL A   1      35.021  23.384  26.536  1.00  0.00     0.143 C 
BRANCH  15  17
ATOM     17  C   UNL A   1      34.217  23.035  24.150  1.00  0.00     0.119 C 
BRANCH  17  18
ATOM     18  C   UNL A   1      33.677  21.661  23.679  1.00  0.00     0.005 C 
ATOM     19  C   UNL A   1      32.230  21.797  23.189  1.00  0.00     0.009 C 
BRANCH  18  20
ATOM     20  C   UNL A   1      33.729  20.600  24.803  1.00  0.00     0.002 C 
ATOM     21  C   UNL A   1      33.396  19.203  24.292  1.00  0.00     0.004 C 
ENDBRANCH  18  20
ENDBRANCH  17  18
ENDBRANCH  15  17
ENDBRANCH   9  15
ENDBRANCH   7   8
ENDBRANCH   3   6
ENDBRANCH   1   2
BRANCH   1  22
ATOM     22  C   UNL A   1      32.152  30.132  26.879  1.00  0.00     0.023 C 
BRANCH  22  23
ATOM     23  C   UNL A   1      31.868  31.635  26.850  1.00  0.00     0.023 C 
BRANCH  23  24
ATOM     24  C   UNL A   1      32.997  32.523  27.365  1.00  0.00     0.116 C 
BRANCH  24  25
ATOM     25  N   UNL A   1      32.589  33.895  27.626  1.00  0.00    -0.352 N 
ATOM     26  C   UNL A   1      33.103  34.775  28.553  1.00  0.00     0.251 C 
ATOM     27  H   UNL A   1      31.852  34.238  27.069  1.00  0.00     0.163 HD
ATOM     28  O   UNL A   1      32.595  35.873  28.720  1.00  0.00    -0.269 OA
BRANCH  26  29
ATOM     29  C   UNL A   1      34.256  34.346  29.373  1.00  0.00     0.039 A 
ATOM     30  C   UNL A   1      34.015  33.666  30.568  1.00  0.00     0.014 A 
ATOM     31  C   UNL A   1      35.562  34.564  28.928  1.00  0.00     0.014 A 
ATOM     32  C   UNL A   1      35.090  33.139  31.286  1.00  0.00     0.010 A 
ATOM     33  C   UNL A   1      36.625  33.980  29.610  1.00  0.00     0.010 A 
ATOM     34  C   UNL A   1      36.400  33.260  30.792  1.00  0.00    -0.014 A 
BRANCH  34  35
ATOM     35  C   UNL A   1      37.545  32.616  31.481  1.00  0.00     0.031 A 
ATOM     36  C   UNL A   1      38.257  31.456  30.843  1.00  0.00     0.074 A 
ATOM     37  C   UNL A   1      37.877  33.014  32.726  1.00  0.00     0.049 A 
ATOM     38  N   UNL A   1      39.235  30.730  31.316  1.00  0.00    -0.248 NA
ATOM     39  C   UNL A   1      37.789  31.038  29.511  1.00  0.00     0.031 C 
ATOM     40  C   UNL A   1      37.202  34.067  33.486  1.00  0.00     0.029 A 
ATOM     41  N   UNL A   1      38.847  32.555  33.583  1.00  0.00    -0.354 N 
ATOM     42  C   UNL A   1      39.476  29.750  30.360  1.00  0.00     0.074 A 
ATOM     43  C   UNL A   1      38.519  29.954  29.296  1.00  0.00     0.031 C 
ATOM     44  C   UNL A   1      37.778  34.176  34.695  1.00  0.00     0.029 A 
ATOM     45  C   UNL A   1      38.845  33.188  34.805  1.00  0.00     0.049 A 
ATOM     46  H   UNL A   1      39.483  31.843  33.345  1.00  0.00     0.167 HD
ATOM     47  C   UNL A   1      40.429  28.788  30.354  1.00  0.00     0.034 A 
ATOM     48  C   UNL A   1      39.616  32.990  35.894  1.00  0.00     0.034 A 
ATOM     49  C   UNL A   1      41.410  28.622  31.392  1.00  0.00     0.049 A 
ATOM     50  C   UNL A   1      40.702  31.951  35.838  1.00  0.00     0.074 A 
ATOM     51  C   UNL A   1      42.477  27.743  31.434  1.00  0.00     0.029 A 
ATOM     52  N   UNL A   1      41.443  29.347  32.573  1.00  0.00    -0.354 N 
ATOM     53  N   UNL A   1      41.028  31.149  34.853  1.00  0.00    -0.248 NA
ATOM     54  C   UNL A   1      41.554  31.814  37.028  1.00  0.00     0.031 C 
ATOM     55  C   UNL A   1      43.147  27.927  32.648  1.00  0.00     0.029 A 
ATOM     56  C   UNL A   1      42.506  28.932  33.355  1.00  0.00     0.049 A 
ATOM     57  H   UNL A   1      40.802  30.054  32.820  1.00  0.00     0.167 HD
ATOM     58  C   UNL A   1      42.139  30.437  35.290  1.00  0.00     0.074 A 
ATOM     59  C   UNL A   1      42.445  30.920  36.621  1.00  0.00     0.031 C 
ATOM     60  C   UNL A   1      42.832  29.461  34.654  1.00  0.00     0.034 A 
BRANCH  47  61
ATOM     61  C   UNL A   1      40.496  27.880  29.155  1.00  0.00     0.023 A 
ATOM     62  C   UNL A   1      39.604  26.791  29.063  1.00  0.00     0.012 A 
ATOM     63  C   UNL A   1      41.396  28.128  28.101  1.00  0.00     0.148 A 
ATOM     64  C   UNL A   1      39.627  25.944  27.956  1.00  0.00     0.002 A 
ATOM     65  C   UNL A   1      41.386  27.303  26.981  1.00  0.00     0.091 A 
ATOM     66  F   UNL A   1      42.253  29.152  28.217  1.00  0.00    -0.205 F 
ATOM     67  C   UNL A   1      40.511  26.206  26.912  1.00  0.00     0.022 A 
BRANCH  65  68
ATOM     68  S   UNL A   1      42.430  27.600  25.550  1.00  0.00     0.127 S 
ATOM     69  O   UNL A   1      41.890  28.862  25.049  1.00  0.00    -0.237 OA
ATOM     70  O   UNL A   1      43.759  27.703  26.153  1.00  0.00    -0.237 OA
ATOM     71  O   UNL A   1      42.248  26.450  24.677  1.00  0.00    -0.744 OA
ENDBRANCH  65  68
ENDBRANCH  47  61
BRANCH  48  72
ATOM     72  C   UNL A   1      39.438  33.850  37.098  1.00  0.00     0.023 A 
ATOM     73  C   UNL A   1      39.881  35.186  37.060  1.00  0.00     0.012 A 
ATOM     74  C   UNL A   1      38.807  33.368  38.260  1.00  0.00     0.148 A 
ATOM     75  C   UNL A   1      39.728  36.018  38.169  1.00  0.00     0.002 A 
ATOM     76  C   UNL A   1      38.609  34.218  39.343  1.00  0.00     0.091 A 
ATOM     77  F   UNL A   1      38.402  32.090  38.282  1.00  0.00    -0.205 F 
ATOM     78  C   UNL A   1      39.083  35.539  39.306  1.00  0.00     0.022 A 
BRANCH  76  79
ATOM     79  S   UNL A   1      37.672  33.724  40.794  1.00  0.00     0.127 S 
ATOM     80  O   UNL A   1      37.488  35.001  41.480  1.00  0.00    -0.237 OA
ATOM     81  O   UNL A   1      36.458  33.165  40.197  1.00  0.00    -0.237 OA
ATOM     82  O   UNL A   1      38.504  32.746  41.481  1.00  0.00    -0.744 OA
ENDBRANCH  76  79
ENDBRANCH  48  72
BRANCH  60  83
ATOM     83  C   UNL A   1      44.011  28.861  35.374  1.00  0.00     0.023 A 
ATOM     84  C   UNL A   1      45.297  29.401  35.177  1.00  0.00     0.012 A 
ATOM     85  C   UNL A   1      43.833  27.817  36.303  1.00  0.00     0.148 A 
ATOM     86  C   UNL A   1      46.393  28.892  35.873  1.00  0.00     0.002 A 
ATOM     87  C   UNL A   1      44.923  27.347  37.027  1.00  0.00     0.091 A 
ATOM     88  F   UNL A   1      42.604  27.303  36.461  1.00  0.00    -0.205 F 
ATOM     89  C   UNL A   1      46.204  27.876  36.805  1.00  0.00     0.022 A 
BRANCH  87  90
ATOM     90  S   UNL A   1      44.755  26.106  38.315  1.00  0.00     0.127 S 
ATOM     91  O   UNL A   1      44.265  24.955  37.560  1.00  0.00    -0.237 OA
ATOM     92  O   UNL A   1      46.127  25.976  38.804  1.00  0.00    -0.237 OA
ATOM     93  O   UNL A   1      43.821  26.662  39.287  1.00  0.00    -0.744 OA
ENDBRANCH  87  90
ENDBRANCH  60  83
ENDBRANCH  34  35
ENDBRANCH  26  29
ENDBRANCH  24  25
ENDBRANCH  23  24
ENDBRANCH  22  23
ENDBRANCH   1  22
TORSDOF 19
ENDMDL
