MODEL 1
REMARK VINA RESULT:     -12.2      0.000      0.000
REMARK SMILES O=C(NCCCCNC(=O)[C@H]1CCCN(C(=O)C2CC[NH+](Cc3ccco3)CC2)C1)c1ccc(-c2c3nc(c(-c4cccc(S(=O)(=O)[O-])c4F)c4ccc([nH]4)c(-c4cccc(S(=O)(=O)[O-])c4F)c4nc(c(-c5cccc(S(=O)(=O)[O-])c5F)c5ccc2[nH]5)C=C4)C=C3)cc1
REMARK SMILES IDX 6 1 5 2 4 3 3 4 1 5 2 6 31 8 32 9 93 10 33 11 92 12 34 13
REMARK SMILES IDX 35 14 36 15 86 16 37 17 91 18 85 19 87 20 38 21 90 22 84 23
REMARK SMILES IDX 83 24 39 26 71 27 51 28 70 29 52 30 55 31 69 32 88 33 53 34
REMARK SMILES IDX 54 35 68 37 89 38 56 39 40 40 41 41 49 42 42 43 44 44 50 45
REMARK SMILES IDX 43 46 45 47 46 48 47 49 48 50 72 51 73 52 81 53 74 54 76 55
REMARK SMILES IDX 82 56 75 57 77 58 78 59 79 60 80 61 57 62 58 63 66 64 59 65
REMARK SMILES IDX 61 66 67 67 60 68 62 69 63 70 64 71 65 72 7 73 8 74 9 75
REMARK SMILES IDX 10 77 11 78 12 79 30 80 13 81 15 82 14 83 16 84 17 85 18 86
REMARK SMILES IDX 19 87 29 88 20 89 28 90 21 91 22 93 23 94 24 95 27 96 25 97
REMARK SMILES IDX 26 98
REMARK H PARENT 3 7 87 25 55 36 8 76 21 92
REMARK Flexibility Score: inf
ROOT
ATOM      1  C   UNL A   1      31.730  30.896  26.873  1.00  0.00     0.023 C 
ENDROOT
BRANCH   1   2
ATOM      2  C   UNL A   1      31.774  32.419  26.735  1.00  0.00     0.023 C 
BRANCH   2   3
ATOM      3  C   UNL A   1      32.880  33.112  27.522  1.00  0.00     0.116 C 
BRANCH   3   4
ATOM      4  N   UNL A   1      32.523  34.448  27.966  1.00  0.00    -0.352 N 
ATOM      5  O   UNL A   1      32.627  36.258  29.311  1.00  0.00    -0.269 OA
ATOM      6  C   UNL A   1      33.091  35.174  28.988  1.00  0.00     0.251 C 
ATOM      7  H   UNL A   1      31.789  34.887  27.478  1.00  0.00     0.163 HD
BRANCH   6   8
ATOM      8  C   UNL A   1      34.242  34.589  29.710  1.00  0.00     0.039 A 
ATOM      9  C   UNL A   1      35.525  34.653  29.161  1.00  0.00     0.014 A 
ATOM     10  C   UNL A   1      34.015  33.921  30.914  1.00  0.00     0.014 A 
ATOM     11  C   UNL A   1      36.559  33.938  29.752  1.00  0.00     0.010 A 
ATOM     12  C   UNL A   1      35.074  33.263  31.544  1.00  0.00     0.010 A 
ATOM     13  C   UNL A   1      36.346  33.240  30.952  1.00  0.00    -0.014 A 
BRANCH  13  14
ATOM     14  C   UNL A   1      37.485  32.557  31.611  1.00  0.00     0.031 A 
ATOM     15  C   UNL A   1      38.219  31.430  30.940  1.00  0.00     0.074 A 
ATOM     16  C   UNL A   1      37.846  32.962  32.844  1.00  0.00     0.049 A 
ATOM     17  N   UNL A   1      39.241  30.741  31.378  1.00  0.00    -0.248 NA
ATOM     18  C   UNL A   1      37.742  31.016  29.611  1.00  0.00     0.031 C 
ATOM     19  C   UNL A   1      37.174  34.016  33.609  1.00  0.00     0.029 A 
ATOM     20  N   UNL A   1      38.855  32.544  33.670  1.00  0.00    -0.354 N 
ATOM     21  C   UNL A   1      39.507  29.787  30.404  1.00  0.00     0.074 A 
ATOM     22  C   UNL A   1      38.534  29.983  29.349  1.00  0.00     0.031 C 
ATOM     23  C   UNL A   1      37.803  34.178  34.781  1.00  0.00     0.029 A 
ATOM     24  C   UNL A   1      38.890  33.210  34.872  1.00  0.00     0.049 A 
ATOM     25  H   UNL A   1      39.492  31.833  33.428  1.00  0.00     0.167 HD
ATOM     26  C   UNL A   1      40.483  28.848  30.383  1.00  0.00     0.034 A 
ATOM     27  C   UNL A   1      39.701  33.055  35.935  1.00  0.00     0.034 A 
ATOM     28  C   UNL A   1      41.471  28.688  31.418  1.00  0.00     0.049 A 
ATOM     29  C   UNL A   1      40.791  32.026  35.873  1.00  0.00     0.074 A 
ATOM     30  C   UNL A   1      42.545  27.815  31.456  1.00  0.00     0.029 A 
ATOM     31  N   UNL A   1      41.506  29.412  32.600  1.00  0.00    -0.354 N 
ATOM     32  N   UNL A   1      41.108  31.224  34.885  1.00  0.00    -0.248 NA
ATOM     33  C   UNL A   1      41.650  31.897  37.056  1.00  0.00     0.031 C 
ATOM     34  C   UNL A   1      43.218  28.001  32.669  1.00  0.00     0.029 A 
ATOM     35  C   UNL A   1      42.573  29.000  33.381  1.00  0.00     0.049 A 
ATOM     36  H   UNL A   1      40.864  30.116  32.849  1.00  0.00     0.167 HD
ATOM     37  C   UNL A   1      42.215  30.507  35.319  1.00  0.00     0.074 A 
ATOM     38  C   UNL A   1      42.530  30.993  36.649  1.00  0.00     0.031 C 
ATOM     39  C   UNL A   1      42.897  29.523  34.684  1.00  0.00     0.034 A 
BRANCH  26  40
ATOM     40  C   UNL A   1      40.561  27.942  29.181  1.00  0.00     0.023 A 
ATOM     41  C   UNL A   1      39.682  26.844  29.081  1.00  0.00     0.012 A 
ATOM     42  C   UNL A   1      41.454  28.208  28.124  1.00  0.00     0.148 A 
ATOM     43  C   UNL A   1      39.710  26.009  27.964  1.00  0.00     0.002 A 
ATOM     44  C   UNL A   1      41.451  27.393  26.997  1.00  0.00     0.091 A 
ATOM     45  F   UNL A   1      42.300  29.241  28.245  1.00  0.00    -0.205 F 
ATOM     46  C   UNL A   1      40.587  26.289  26.919  1.00  0.00     0.022 A 
BRANCH  44  47
ATOM     47  S   UNL A   1      42.499  27.720  25.573  1.00  0.00     0.127 S 
ATOM     48  O   UNL A   1      41.941  28.977  25.079  1.00  0.00    -0.237 OA
ATOM     49  O   UNL A   1      43.825  27.840  26.181  1.00  0.00    -0.237 OA
ATOM     50  O   UNL A   1      42.342  26.570  24.695  1.00  0.00    -0.744 OA
ENDBRANCH  44  47
ENDBRANCH  26  40
BRANCH  27  51
ATOM     51  C   UNL A   1      39.533  33.948  37.115  1.00  0.00     0.023 A 
ATOM     52  C   UNL A   1      39.896  35.303  37.009  1.00  0.00     0.012 A 
ATOM     53  C   UNL A   1      38.943  33.483  38.307  1.00  0.00     0.148 A 
ATOM     54  C   UNL A   1      39.685  36.179  38.074  1.00  0.00     0.002 A 
ATOM     55  C   UNL A   1      38.683  34.374  39.342  1.00  0.00     0.091 A 
ATOM     56  F   UNL A   1      38.620  32.185  38.392  1.00  0.00    -0.205 F 
ATOM     57  C   UNL A   1      39.065  35.719  39.233  1.00  0.00     0.022 A 
BRANCH  55  58
ATOM     58  S   UNL A   1      37.752  33.897  40.803  1.00  0.00     0.127 S 
ATOM     59  O   UNL A   1      36.519  33.383  40.217  1.00  0.00    -0.237 OA
ATOM     60  O   UNL A   1      38.622  32.882  41.400  1.00  0.00    -0.237 OA
ATOM     61  O   UNL A   1      37.622  35.113  41.596  1.00  0.00    -0.744 OA
ENDBRANCH  55  58
ENDBRANCH  27  51
BRANCH  39  62
ATOM     62  C   UNL A   1      44.059  28.907  35.416  1.00  0.00     0.023 A 
ATOM     63  C   UNL A   1      45.343  29.471  35.275  1.00  0.00     0.012 A 
ATOM     64  C   UNL A   1      43.874  27.816  36.286  1.00  0.00     0.148 A 
ATOM     65  C   UNL A   1      46.430  28.938  35.966  1.00  0.00     0.002 A 
ATOM     66  C   UNL A   1      44.954  27.318  37.004  1.00  0.00     0.091 A 
ATOM     67  F   UNL A   1      42.649  27.278  36.387  1.00  0.00    -0.205 F 
ATOM     68  C   UNL A   1      46.234  27.871  36.838  1.00  0.00     0.022 A 
BRANCH  66  69
ATOM     69  S   UNL A   1      44.773  26.001  38.213  1.00  0.00     0.127 S 
ATOM     70  O   UNL A   1      43.688  26.510  39.049  1.00  0.00    -0.237 OA
ATOM     71  O   UNL A   1      44.413  24.855  37.377  1.00  0.00    -0.237 OA
ATOM     72  O   UNL A   1      46.069  25.883  38.867  1.00  0.00    -0.744 OA
ENDBRANCH  66  69
ENDBRANCH  39  62
ENDBRANCH  13  14
ENDBRANCH   6   8
ENDBRANCH   3   4
ENDBRANCH   2   3
ENDBRANCH   1   2
BRANCH   1  73
ATOM     73  C   UNL A   1      33.071  30.210  26.645  1.00  0.00     0.116 C 
BRANCH  73  74
ATOM     74  N   UNL A   1      33.271  29.822  25.260  1.00  0.00    -0.356 N 
ATOM     75  C   UNL A   1      32.668  28.955  24.410  1.00  0.00     0.224 C 
ATOM     76  H   UNL A   1      34.021  30.301  24.838  1.00  0.00     0.163 HD
ATOM     77  O   UNL A   1      33.212  28.839  23.307  1.00  0.00    -0.275 OA
BRANCH  75  78
ATOM     78  C   UNL A   1      31.434  28.113  24.758  1.00  0.00     0.098 C 
ATOM     79  C   UNL A   1      30.331  28.157  23.692  1.00  0.00     0.017 C 
ATOM     80  C   UNL A   1      31.948  26.670  25.077  1.00  0.00     0.133 C 
ATOM     81  C   UNL A   1      29.394  26.970  23.706  1.00  0.00     0.022 C 
ATOM     82  N   UNL A   1      30.950  25.609  24.888  1.00  0.00    -0.342 N 
ATOM     83  C   UNL A   1      30.247  25.731  23.643  1.00  0.00     0.119 C 
BRANCH  82  84
ATOM     84  C   UNL A   1      30.805  24.594  25.813  1.00  0.00     0.226 C 
ATOM     85  O   UNL A   1      30.009  24.728  26.754  1.00  0.00    -0.275 OA
BRANCH  84  86
ATOM     86  C   UNL A   1      31.613  23.269  25.762  1.00  0.00     0.090 C 
ATOM     87  C   UNL A   1      32.753  23.156  26.769  1.00  0.00     0.075 C 
ATOM     88  C   UNL A   1      31.977  22.660  24.407  1.00  0.00     0.075 C 
ATOM     89  C   UNL A   1      34.110  23.571  26.222  1.00  0.00     0.263 C 
ATOM     90  C   UNL A   1      33.420  22.856  23.919  1.00  0.00     0.263 C 
ATOM     91  N   UNL A   1      34.464  22.960  24.941  1.00  0.00    -0.329 N 
ATOM     92  H   UNL A   1      34.597  21.986  25.214  1.00  0.00     0.348 HD
BRANCH  91  93
ATOM     93  C   UNL A   1      35.738  23.480  24.387  1.00  0.00     0.338 C 
BRANCH  93  94
ATOM     94  C   UNL A   1      36.995  23.080  25.110  1.00  0.00     0.157 A 
ATOM     95  C   UNL A   1      37.848  23.745  25.974  1.00  0.00     0.052 A 
ATOM     96  O   UNL A   1      37.435  21.796  24.940  1.00  0.00    -0.463 OA
ATOM     97  C   UNL A   1      38.872  22.832  26.324  1.00  0.00     0.042 A 
ATOM     98  C   UNL A   1      38.564  21.656  25.686  1.00  0.00     0.195 A 
ENDBRANCH  93  94
ENDBRANCH  91  93
ENDBRANCH  84  86
ENDBRANCH  82  84
ENDBRANCH  75  78
ENDBRANCH  73  74
ENDBRANCH   1  73
TORSDOF 18
ENDMDL
MODEL 2
REMARK VINA RESULT:     -12.1      0.616      7.632
REMARK SMILES O=C(NCCCCNC(=O)[C@H]1CCCN(C(=O)C2CC[NH+](Cc3ccco3)CC2)C1)c1ccc(-c2c3nc(c(-c4cccc(S(=O)(=O)[O-])c4F)c4ccc([nH]4)c(-c4cccc(S(=O)(=O)[O-])c4F)c4nc(c(-c5cccc(S(=O)(=O)[O-])c5F)c5ccc2[nH]5)C=C4)C=C3)cc1
REMARK SMILES IDX 6 1 5 2 4 3 3 4 1 5 2 6 31 8 32 9 93 10 33 11 92 12 34 13
REMARK SMILES IDX 35 14 36 15 86 16 37 17 91 18 85 19 87 20 38 21 90 22 84 23
REMARK SMILES IDX 83 24 39 26 71 27 51 28 70 29 52 30 55 31 69 32 88 33 53 34
REMARK SMILES IDX 54 35 68 37 89 38 56 39 40 40 41 41 49 42 42 43 44 44 50 45
REMARK SMILES IDX 43 46 45 47 46 48 47 49 48 50 72 51 73 52 81 53 74 54 76 55
REMARK SMILES IDX 82 56 75 57 77 58 78 59 79 60 80 61 57 62 58 63 66 64 59 65
REMARK SMILES IDX 61 66 67 67 60 68 62 69 63 70 64 71 65 72 7 73 8 74 9 75
REMARK SMILES IDX 10 77 11 78 12 79 30 80 13 81 15 82 14 83 16 84 17 85 18 86
REMARK SMILES IDX 19 87 29 88 20 89 28 90 21 91 22 93 23 94 24 95 27 96 25 97
REMARK SMILES IDX 26 98
REMARK H PARENT 3 7 87 25 55 36 8 76 21 92
REMARK Flexibility Score: inf
ROOT
ATOM      1  C   UNL A   1      32.155  30.121  27.161  1.00  0.00     0.023 C 
ENDROOT
BRANCH   1   2
ATOM      2  C   UNL A   1      32.042  31.614  26.845  1.00  0.00     0.023 C 
BRANCH   2   3
ATOM      3  C   UNL A   1      33.172  32.481  27.383  1.00  0.00     0.116 C 
BRANCH   3   4
ATOM      4  N   UNL A   1      32.744  33.814  27.772  1.00  0.00    -0.352 N 
ATOM      5  O   UNL A   1      32.727  35.668  29.059  1.00  0.00    -0.269 OA
ATOM      6  C   UNL A   1      33.248  34.597  28.786  1.00  0.00     0.251 C 
ATOM      7  H   UNL A   1      32.006  34.204  27.248  1.00  0.00     0.163 HD
BRANCH   6   8
ATOM      8  C   UNL A   1      34.400  34.087  29.560  1.00  0.00     0.039 A 
ATOM      9  C   UNL A   1      35.704  34.417  29.183  1.00  0.00     0.014 A 
ATOM     10  C   UNL A   1      34.166  33.224  30.632  1.00  0.00     0.014 A 
ATOM     11  C   UNL A   1      36.777  33.782  29.797  1.00  0.00     0.010 A 
ATOM     12  C   UNL A   1      35.249  32.643  31.295  1.00  0.00     0.010 A 
ATOM     13  C   UNL A   1      36.561  32.893  30.863  1.00  0.00    -0.014 A 
BRANCH  13  14
ATOM     14  C   UNL A   1      37.724  32.295  31.562  1.00  0.00     0.031 A 
ATOM     15  C   UNL A   1      38.159  32.780  32.916  1.00  0.00     0.074 A 
ATOM     16  C   UNL A   1      38.399  31.305  30.946  1.00  0.00     0.049 A 
ATOM     17  N   UNL A   1      39.145  32.353  33.662  1.00  0.00    -0.248 NA
ATOM     18  C   UNL A   1      37.398  33.891  33.508  1.00  0.00     0.031 C 
ATOM     19  C   UNL A   1      38.092  30.787  29.610  1.00  0.00     0.029 A 
ATOM     20  N   UNL A   1      39.475  30.562  31.352  1.00  0.00    -0.354 N 
ATOM     21  C   UNL A   1      39.153  33.164  34.790  1.00  0.00     0.074 A 
ATOM     22  C   UNL A   1      38.072  34.115  34.629  1.00  0.00     0.031 C 
ATOM     23  C   UNL A   1      38.944  29.795  29.317  1.00  0.00     0.029 A 
ATOM     24  C   UNL A   1      39.885  29.639  30.420  1.00  0.00     0.049 A 
ATOM     25  H   UNL A   1      39.914  30.679  32.225  1.00  0.00     0.167 HD
ATOM     26  C   UNL A   1      39.973  33.109  35.866  1.00  0.00     0.034 A 
ATOM     27  C   UNL A   1      40.912  28.768  30.443  1.00  0.00     0.034 A 
ATOM     28  C   UNL A   1      41.019  32.134  36.035  1.00  0.00     0.049 A 
ATOM     29  C   UNL A   1      41.786  28.709  31.660  1.00  0.00     0.074 A 
ATOM     30  C   UNL A   1      41.856  31.948  37.121  1.00  0.00     0.029 A 
ATOM     31  N   UNL A   1      41.376  31.182  35.091  1.00  0.00    -0.354 N 
ATOM     32  N   UNL A   1      41.692  29.396  32.773  1.00  0.00    -0.248 NA
ATOM     33  C   UNL A   1      42.889  27.741  31.639  1.00  0.00     0.031 C 
ATOM     34  C   UNL A   1      42.730  30.894  36.827  1.00  0.00     0.029 A 
ATOM     35  C   UNL A   1      42.428  30.414  35.562  1.00  0.00     0.049 A 
ATOM     36  H   UNL A   1      40.945  31.070  34.213  1.00  0.00     0.167 HD
ATOM     37  C   UNL A   1      42.712  28.931  33.593  1.00  0.00     0.074 A 
ATOM     38  C   UNL A   1      43.392  27.883  32.857  1.00  0.00     0.031 C 
ATOM     39  C   UNL A   1      43.066  29.348  34.834  1.00  0.00     0.034 A 
BRANCH  26  40
ATOM     40  C   UNL A   1      39.747  34.106  36.973  1.00  0.00     0.023 A 
ATOM     41  C   UNL A   1      40.046  35.466  36.753  1.00  0.00     0.012 A 
ATOM     42  C   UNL A   1      39.185  33.715  38.204  1.00  0.00     0.148 A 
ATOM     43  C   UNL A   1      39.816  36.416  37.749  1.00  0.00     0.002 A 
ATOM     44  C   UNL A   1      38.924  34.673  39.179  1.00  0.00     0.091 A 
ATOM     45  F   UNL A   1      38.930  32.415  38.407  1.00  0.00    -0.205 F 
ATOM     46  C   UNL A   1      39.246  36.021  38.956  1.00  0.00     0.022 A 
BRANCH  44  47
ATOM     47  S   UNL A   1      38.128  34.264  40.738  1.00  0.00     0.127 S 
ATOM     48  O   UNL A   1      36.981  33.480  40.287  1.00  0.00    -0.237 OA
ATOM     49  O   UNL A   1      39.163  33.488  41.424  1.00  0.00    -0.237 OA
ATOM     50  O   UNL A   1      37.817  35.538  41.368  1.00  0.00    -0.744 OA
ENDBRANCH  44  47
ENDBRANCH  26  40
BRANCH  27  51
ATOM     51  C   UNL A   1      41.111  27.847  29.290  1.00  0.00     0.023 A 
ATOM     52  C   UNL A   1      40.452  26.603  29.281  1.00  0.00     0.012 A 
ATOM     53  C   UNL A   1      41.879  28.229  28.172  1.00  0.00     0.148 A 
ATOM     54  C   UNL A   1      40.565  25.750  28.183  1.00  0.00     0.002 A 
ATOM     55  C   UNL A   1      41.938  27.399  27.059  1.00  0.00     0.091 A 
ATOM     56  F   UNL A   1      42.511  29.410  28.209  1.00  0.00    -0.205 F 
ATOM     57  C   UNL A   1      41.293  26.153  27.067  1.00  0.00     0.022 A 
BRANCH  55  58
ATOM     58  S   UNL A   1      42.726  27.909  25.527  1.00  0.00     0.127 S 
ATOM     59  O   UNL A   1      44.081  28.215  25.975  1.00  0.00    -0.237 OA
ATOM     60  O   UNL A   1      42.605  26.703  24.706  1.00  0.00    -0.237 OA
ATOM     61  O   UNL A   1      41.944  29.040  25.044  1.00  0.00    -0.744 OA
ENDBRANCH  55  58
ENDBRANCH  27  51
BRANCH  39  62
ATOM     62  C   UNL A   1      44.241  28.663  35.481  1.00  0.00     0.023 A 
ATOM     63  C   UNL A   1      45.547  29.099  35.180  1.00  0.00     0.012 A 
ATOM     64  C   UNL A   1      44.053  27.638  36.426  1.00  0.00     0.148 A 
ATOM     65  C   UNL A   1      46.649  28.501  35.789  1.00  0.00     0.002 A 
ATOM     66  C   UNL A   1      45.154  27.076  37.061  1.00  0.00     0.091 A 
ATOM     67  F   UNL A   1      42.803  27.221  36.679  1.00  0.00    -0.205 F 
ATOM     68  C   UNL A   1      46.453  27.500  36.736  1.00  0.00     0.022 A 
BRANCH  66  69
ATOM     69  S   UNL A   1      44.986  25.842  38.355  1.00  0.00     0.127 S 
ATOM     70  O   UNL A   1      46.382  25.572  38.693  1.00  0.00    -0.237 OA
ATOM     71  O   UNL A   1      44.238  26.566  39.384  1.00  0.00    -0.237 OA
ATOM     72  O   UNL A   1      44.259  24.733  37.752  1.00  0.00    -0.744 OA
ENDBRANCH  66  69
ENDBRANCH  39  62
ENDBRANCH  13  14
ENDBRANCH   6   8
ENDBRANCH   3   4
ENDBRANCH   2   3
ENDBRANCH   1   2
BRANCH   1  73
ATOM     73  C   UNL A   1      33.551  29.545  26.955  1.00  0.00     0.116 C 
BRANCH  73  74
ATOM     74  N   UNL A   1      33.760  29.061  25.602  1.00  0.00    -0.356 N 
ATOM     75  C   UNL A   1      33.164  28.135  24.811  1.00  0.00     0.224 C 
ATOM     76  H   UNL A   1      34.512  29.511  25.153  1.00  0.00     0.163 HD
ATOM     77  O   UNL A   1      33.716  27.944  23.722  1.00  0.00    -0.275 OA
BRANCH  75  78
ATOM     78  C   UNL A   1      31.930  27.317  25.209  1.00  0.00     0.098 C 
ATOM     79  C   UNL A   1      30.790  27.373  24.183  1.00  0.00     0.017 C 
ATOM     80  C   UNL A   1      32.431  25.867  25.520  1.00  0.00     0.133 C 
ATOM     81  C   UNL A   1      29.834  26.202  24.240  1.00  0.00     0.022 C 
ATOM     82  N   UNL A   1      31.408  24.822  25.375  1.00  0.00    -0.342 N 
ATOM     83  C   UNL A   1      30.663  24.948  24.155  1.00  0.00     0.119 C 
BRANCH  82  84
ATOM     84  C   UNL A   1      31.279  23.817  26.313  1.00  0.00     0.226 C 
ATOM     85  O   UNL A   1      30.442  23.925  27.220  1.00  0.00    -0.275 OA
BRANCH  84  86
ATOM     86  C   UNL A   1      32.155  22.534  26.316  1.00  0.00     0.090 C 
ATOM     87  C   UNL A   1      33.366  22.569  27.244  1.00  0.00     0.075 C 
ATOM     88  C   UNL A   1      32.460  21.826  24.995  1.00  0.00     0.075 C 
ATOM     89  C   UNL A   1      34.656  23.001  26.566  1.00  0.00     0.263 C 
ATOM     90  C   UNL A   1      33.853  22.050  24.388  1.00  0.00     0.263 C 
ATOM     91  N   UNL A   1      34.956  22.296  25.320  1.00  0.00    -0.329 N 
ATOM     92  H   UNL A   1      35.162  21.359  25.665  1.00  0.00     0.348 HD
BRANCH  91  93
ATOM     93  C   UNL A   1      36.159  22.828  24.632  1.00  0.00     0.338 C 
BRANCH  93  94
ATOM     94  C   UNL A   1      37.460  22.716  25.377  1.00  0.00     0.157 A 
ATOM     95  C   UNL A   1      38.184  23.593  26.165  1.00  0.00     0.052 A 
ATOM     96  O   UNL A   1      38.111  21.513  25.324  1.00  0.00    -0.463 OA
ATOM     97  C   UNL A   1      39.345  22.903  26.589  1.00  0.00     0.042 A 
ATOM     98  C   UNL A   1      39.243  21.636  26.068  1.00  0.00     0.195 A 
ENDBRANCH  93  94
ENDBRANCH  91  93
ENDBRANCH  84  86
ENDBRANCH  82  84
ENDBRANCH  75  78
ENDBRANCH  73  74
ENDBRANCH   1  73
TORSDOF 18
ENDMDL
MODEL 3
REMARK VINA RESULT:     -12.0      6.204     10.069
REMARK SMILES O=C(NCCCCNC(=O)[C@H]1CCCN(C(=O)C2CC[NH+](Cc3ccco3)CC2)C1)c1ccc(-c2c3nc(c(-c4cccc(S(=O)(=O)[O-])c4F)c4ccc([nH]4)c(-c4cccc(S(=O)(=O)[O-])c4F)c4nc(c(-c5cccc(S(=O)(=O)[O-])c5F)c5ccc2[nH]5)C=C4)C=C3)cc1
REMARK SMILES IDX 6 1 5 2 4 3 3 4 1 5 2 6 31 8 32 9 93 10 33 11 92 12 34 13
REMARK SMILES IDX 35 14 36 15 86 16 37 17 91 18 85 19 87 20 38 21 90 22 84 23
REMARK SMILES IDX 83 24 39 26 71 27 51 28 70 29 52 30 55 31 69 32 88 33 53 34
REMARK SMILES IDX 54 35 68 37 89 38 56 39 40 40 41 41 49 42 42 43 44 44 50 45
REMARK SMILES IDX 43 46 45 47 46 48 47 49 48 50 72 51 73 52 81 53 74 54 76 55
REMARK SMILES IDX 82 56 75 57 77 58 78 59 79 60 80 61 57 62 58 63 66 64 59 65
REMARK SMILES IDX 61 66 67 67 60 68 62 69 63 70 64 71 65 72 7 73 8 74 9 75
REMARK SMILES IDX 10 77 11 78 12 79 30 80 13 81 15 82 14 83 16 84 17 85 18 86
REMARK SMILES IDX 19 87 29 88 20 89 28 90 21 91 22 93 23 94 24 95 27 96 25 97
REMARK SMILES IDX 26 98
REMARK H PARENT 3 7 87 25 55 36 8 76 21 92
REMARK Flexibility Score: inf
ROOT
ATOM      1  C   UNL A   1      36.671  21.297  25.016  1.00  0.00     0.023 C 
ENDROOT
BRANCH   1   2
ATOM      2  C   UNL A   1      37.841  20.315  24.939  1.00  0.00     0.023 C 
BRANCH   2   3
ATOM      3  C   UNL A   1      38.993  20.598  25.895  1.00  0.00     0.116 C 
BRANCH   3   4
ATOM      4  N   UNL A   1      40.028  19.578  25.871  1.00  0.00    -0.352 N 
ATOM      5  O   UNL A   1      42.147  18.805  25.961  1.00  0.00    -0.269 OA
ATOM      6  C   UNL A   1      41.375  19.742  26.104  1.00  0.00     0.251 C 
ATOM      7  H   UNL A   1      39.731  18.662  25.665  1.00  0.00     0.163 HD
BRANCH   6   8
ATOM      8  C   UNL A   1      41.865  21.085  26.482  1.00  0.00     0.039 A 
ATOM      9  C   UNL A   1      42.046  21.415  27.828  1.00  0.00     0.014 A 
ATOM     10  C   UNL A   1      42.082  22.033  25.481  1.00  0.00     0.014 A 
ATOM     11  C   UNL A   1      42.320  22.732  28.180  1.00  0.00     0.010 A 
ATOM     12  C   UNL A   1      42.429  23.338  25.835  1.00  0.00     0.010 A 
ATOM     13  C   UNL A   1      42.520  23.705  27.187  1.00  0.00    -0.014 A 
BRANCH  13  14
ATOM     14  C   UNL A   1      42.900  25.083  27.582  1.00  0.00     0.031 A 
ATOM     15  C   UNL A   1      44.315  25.572  27.459  1.00  0.00     0.074 A 
ATOM     16  C   UNL A   1      41.941  25.893  28.072  1.00  0.00     0.049 A 
ATOM     17  N   UNL A   1      44.804  26.750  27.750  1.00  0.00    -0.248 NA
ATOM     18  C   UNL A   1      45.314  24.618  26.954  1.00  0.00     0.031 C 
ATOM     19  C   UNL A   1      40.543  25.508  28.278  1.00  0.00     0.029 A 
ATOM     20  N   UNL A   1      41.991  27.198  28.486  1.00  0.00    -0.354 N 
ATOM     21  C   UNL A   1      46.168  26.672  27.504  1.00  0.00     0.074 A 
ATOM     22  C   UNL A   1      46.434  25.325  27.043  1.00  0.00     0.031 C 
ATOM     23  C   UNL A   1      39.863  26.558  28.756  1.00  0.00     0.029 A 
ATOM     24  C   UNL A   1      40.783  27.676  28.936  1.00  0.00     0.049 A 
ATOM     25  H   UNL A   1      42.812  27.741  28.465  1.00  0.00     0.167 HD
ATOM     26  C   UNL A   1      47.109  27.638  27.634  1.00  0.00     0.034 A 
ATOM     27  C   UNL A   1      40.452  28.876  29.446  1.00  0.00     0.034 A 
ATOM     28  C   UNL A   1      46.828  28.986  28.054  1.00  0.00     0.049 A 
ATOM     29  C   UNL A   1      41.508  29.936  29.551  1.00  0.00     0.074 A 
ATOM     30  C   UNL A   1      47.699  30.059  28.147  1.00  0.00     0.029 A 
ATOM     31  N   UNL A   1      45.584  29.449  28.457  1.00  0.00    -0.354 N 
ATOM     32  N   UNL A   1      42.766  29.882  29.187  1.00  0.00    -0.248 NA
ATOM     33  C   UNL A   1      41.096  31.229  30.112  1.00  0.00     0.031 C 
ATOM     34  C   UNL A   1      46.984  31.164  28.622  1.00  0.00     0.029 A 
ATOM     35  C   UNL A   1      45.664  30.786  28.812  1.00  0.00     0.049 A 
ATOM     36  H   UNL A   1      44.764  28.905  28.488  1.00  0.00     0.167 HD
ATOM     37  C   UNL A   1      43.294  31.137  29.457  1.00  0.00     0.074 A 
ATOM     38  C   UNL A   1      42.209  31.940  29.987  1.00  0.00     0.031 C 
ATOM     39  C   UNL A   1      44.566  31.580  29.298  1.00  0.00     0.034 A 
BRANCH  26  40
ATOM     40  C   UNL A   1      48.530  27.288  27.275  1.00  0.00     0.023 A 
ATOM     41  C   UNL A   1      49.334  26.606  28.212  1.00  0.00     0.012 A 
ATOM     42  C   UNL A   1      49.052  27.574  25.998  1.00  0.00     0.148 A 
ATOM     43  C   UNL A   1      50.642  26.240  27.894  1.00  0.00     0.002 A 
ATOM     44  C   UNL A   1      50.345  27.174  25.676  1.00  0.00     0.091 A 
ATOM     45  F   UNL A   1      48.284  28.245  25.128  1.00  0.00    -0.205 F 
ATOM     46  C   UNL A   1      51.143  26.515  26.625  1.00  0.00     0.022 A 
BRANCH  44  47
ATOM     47  S   UNL A   1      51.048  27.425  24.041  1.00  0.00     0.127 S 
ATOM     48  O   UNL A   1      51.187  28.879  23.999  1.00  0.00    -0.237 OA
ATOM     49  O   UNL A   1      52.314  26.696  24.129  1.00  0.00    -0.237 OA
ATOM     50  O   UNL A   1      50.089  26.853  23.107  1.00  0.00    -0.744 OA
ENDBRANCH  44  47
ENDBRANCH  26  40
BRANCH  27  51
ATOM     51  C   UNL A   1      39.037  29.138  29.833  1.00  0.00     0.023 A 
ATOM     52  C   UNL A   1      38.604  28.796  31.127  1.00  0.00     0.012 A 
ATOM     53  C   UNL A   1      38.150  29.795  28.959  1.00  0.00     0.148 A 
ATOM     54  C   UNL A   1      37.305  29.093  31.541  1.00  0.00     0.002 A 
ATOM     55  C   UNL A   1      36.877  30.141  29.398  1.00  0.00     0.091 A 
ATOM     56  F   UNL A   1      38.579  30.097  27.726  1.00  0.00    -0.205 F 
ATOM     57  C   UNL A   1      36.448  29.778  30.683  1.00  0.00     0.022 A 
BRANCH  55  58
ATOM     58  S   UNL A   1      35.767  31.154  28.414  1.00  0.00     0.127 S 
ATOM     59  O   UNL A   1      35.316  30.205  27.401  1.00  0.00    -0.237 OA
ATOM     60  O   UNL A   1      34.753  31.538  29.396  1.00  0.00    -0.237 OA
ATOM     61  O   UNL A   1      36.579  32.264  27.930  1.00  0.00    -0.744 OA
ENDBRANCH  55  58
ENDBRANCH  27  51
BRANCH  39  62
ATOM     62  C   UNL A   1      44.854  33.003  29.697  1.00  0.00     0.023 A 
ATOM     63  C   UNL A   1      45.280  33.280  31.011  1.00  0.00     0.012 A 
ATOM     64  C   UNL A   1      44.763  34.051  28.762  1.00  0.00     0.148 A 
ATOM     65  C   UNL A   1      45.582  34.586  31.396  1.00  0.00     0.002 A 
ATOM     66  C   UNL A   1      45.108  35.343  29.142  1.00  0.00     0.091 A 
ATOM     67  F   UNL A   1      44.332  33.770  27.523  1.00  0.00    -0.205 F 
ATOM     68  C   UNL A   1      45.508  35.614  30.460  1.00  0.00     0.022 A 
BRANCH  66  69
ATOM     69  S   UNL A   1      45.122  36.710  27.977  1.00  0.00     0.127 S 
ATOM     70  O   UNL A   1      43.712  36.803  27.607  1.00  0.00    -0.237 OA
ATOM     71  O   UNL A   1      45.611  37.819  28.799  1.00  0.00    -0.237 OA
ATOM     72  O   UNL A   1      46.028  36.311  26.908  1.00  0.00    -0.744 OA
ENDBRANCH  66  69
ENDBRANCH  39  62
ENDBRANCH  13  14
ENDBRANCH   6   8
ENDBRANCH   3   4
ENDBRANCH   2   3
ENDBRANCH   1   2
BRANCH   1  73
ATOM     73  C   UNL A   1      35.300  20.632  25.046  1.00  0.00     0.116 C 
BRANCH  73  74
ATOM     74  N   UNL A   1      34.570  20.915  26.270  1.00  0.00    -0.356 N 
ATOM     75  C   UNL A   1      33.687  21.867  26.662  1.00  0.00     0.224 C 
ATOM     76  H   UNL A   1      34.760  20.262  26.982  1.00  0.00     0.163 HD
ATOM     77  O   UNL A   1      33.357  21.815  27.852  1.00  0.00    -0.275 OA
BRANCH  75  78
ATOM     78  C   UNL A   1      33.150  22.980  25.755  1.00  0.00     0.098 C 
ATOM     79  C   UNL A   1      32.066  22.513  24.774  1.00  0.00     0.017 C 
ATOM     80  C   UNL A   1      32.693  24.146  26.695  1.00  0.00     0.133 C 
ATOM     81  C   UNL A   1      31.147  23.609  24.282  1.00  0.00     0.022 C 
ATOM     82  N   UNL A   1      31.674  25.033  26.118  1.00  0.00    -0.342 N 
ATOM     83  C   UNL A   1      30.601  24.309  25.499  1.00  0.00     0.119 C 
BRANCH  82  84
ATOM     84  C   UNL A   1      31.764  26.404  26.253  1.00  0.00     0.226 C 
ATOM     85  O   UNL A   1      31.024  26.994  27.053  1.00  0.00    -0.275 OA
BRANCH  84  86
ATOM     86  C   UNL A   1      32.745  27.281  25.428  1.00  0.00     0.090 C 
ATOM     87  C   UNL A   1      32.562  28.789  25.577  1.00  0.00     0.075 C 
ATOM     88  C   UNL A   1      33.090  26.881  23.993  1.00  0.00     0.075 C 
ATOM     89  C   UNL A   1      31.685  29.418  24.506  1.00  0.00     0.263 C 
ATOM     90  C   UNL A   1      32.396  27.659  22.865  1.00  0.00     0.263 C 
ATOM     91  N   UNL A   1      32.041  29.055  23.135  1.00  0.00    -0.329 N 
ATOM     92  H   UNL A   1      32.937  29.530  23.029  1.00  0.00     0.348 HD
BRANCH  91  93
ATOM     93  C   UNL A   1      31.091  29.593  22.130  1.00  0.00     0.338 C 
BRANCH  93  94
ATOM     94  C   UNL A   1      29.667  29.766  22.582  1.00  0.00     0.157 A 
ATOM     95  C   UNL A   1      28.977  30.810  23.174  1.00  0.00     0.052 A 
ATOM     96  O   UNL A   1      28.813  28.717  22.377  1.00  0.00    -0.463 OA
ATOM     97  C   UNL A   1      27.646  30.365  23.365  1.00  0.00     0.042 A 
ATOM     98  C   UNL A   1      27.593  29.095  22.846  1.00  0.00     0.195 A 
ENDBRANCH  93  94
ENDBRANCH  91  93
ENDBRANCH  84  86
ENDBRANCH  82  84
ENDBRANCH  75  78
ENDBRANCH  73  74
ENDBRANCH   1  73
TORSDOF 18
ENDMDL
