MODEL 1
REMARK VINA RESULT:     -12.7      0.000      0.000
REMARK SMILES Cc1ccc(C(C)(C)C)c(OCC(=O)c2nc(C)c(C(=O)NCCCCNC(=O)c3ccc(-c4c5nc(c(-c6cccc(S(=O)(=O)[O-])c6F)c6ccc([nH]6)c(-c6cccc(S(=O)(=O)[O-])c6F)c6nc(c(-c7cccc(S(=O)(=O)[O-])c7F)c7ccc4[nH]7)C=C6)C=C5)cc3)s2)c1
REMARK SMILES IDX 23 1 22 2 20 3 21 4 19 6 15 7 16 8 93 9 17 10 18 11 13 12
REMARK SMILES IDX 14 13 12 14 11 15 10 16 1 17 2 18 3 19 94 20 4 21 5 22 6 23
REMARK SMILES IDX 7 24 8 25 9 26 24 27 25 28 26 29 27 30 28 31 29 33 30 34
REMARK SMILES IDX 31 35 92 36 32 37 91 38 33 39 34 40 35 41 85 42 36 43 90 44
REMARK SMILES IDX 84 45 86 46 37 47 89 48 83 49 82 50 38 52 70 53 50 54 69 55
REMARK SMILES IDX 51 56 54 57 68 58 87 59 52 60 53 61 67 63 88 64 55 65 39 66
REMARK SMILES IDX 40 67 48 68 41 69 43 70 49 71 42 72 44 73 45 74 46 75 47 76
REMARK SMILES IDX 71 77 72 78 80 79 73 80 75 81 81 82 74 83 76 84 77 85 78 86
REMARK SMILES IDX 79 87 56 88 57 89 65 90 58 91 60 92 66 93 59 94 61 95 62 96
REMARK SMILES IDX 63 97 64 98
REMARK H PARENT 22 5 27 32 86 51 54 62
REMARK Flexibility Score: inf
ROOT
ATOM      1  C   UNL A   1      32.998  29.132  23.471  1.00  0.00     0.116 C 
ENDROOT
BRANCH   1   2
ATOM      2  N   UNL A   1      31.564  29.005  23.444  1.00  0.00    -0.351 N 
ATOM      3  C   UNL A   1      30.683  27.978  23.639  1.00  0.00     0.263 C 
ATOM      4  O   UNL A   1      29.509  28.351  23.490  1.00  0.00    -0.268 OA
ATOM      5  H   UNL A   1      31.113  29.856  23.237  1.00  0.00     0.163 HD
BRANCH   3   6
ATOM      6  C   UNL A   1      31.013  26.590  23.981  1.00  0.00     0.115 A 
ATOM      7  C   UNL A   1      31.025  24.556  25.395  1.00  0.00     0.164 A 
ATOM      8  N   UNL A   1      31.687  24.354  24.287  1.00  0.00    -0.237 NA
ATOM      9  S   UNL A   1      30.366  26.102  25.546  1.00  0.00    -0.105 S 
ATOM     10  C   UNL A   1      31.680  25.478  23.460  1.00  0.00     0.062 A 
ATOM     11  C   UNL A   1      32.401  25.182  22.199  1.00  0.00     0.068 C 
BRANCH   7  12
ATOM     12  C   UNL A   1      30.906  23.504  26.390  1.00  0.00     0.228 C 
ATOM     13  O   UNL A   1      29.976  23.452  27.206  1.00  0.00    -0.288 OA
BRANCH  12  14
ATOM     14  C   UNL A   1      32.051  22.493  26.537  1.00  0.00     0.313 C 
BRANCH  14  15
ATOM     15  O   UNL A   1      32.595  21.821  25.424  1.00  0.00    -0.485 OA
BRANCH  15  16
ATOM     16  C   UNL A   1      33.947  21.693  25.293  1.00  0.00     0.123 A 
ATOM     17  C   UNL A   1      37.139  23.766  25.669  1.00  0.00     0.044 C 
ATOM     18  C   UNL A   1      36.215  22.611  25.419  1.00  0.00    -0.047 A 
ATOM     19  C   UNL A   1      36.725  21.349  25.142  1.00  0.00     0.004 A 
ATOM     20  C   UNL A   1      34.828  22.779  25.456  1.00  0.00     0.050 A 
ATOM     21  C   UNL A   1      35.858  20.276  24.924  1.00  0.00     0.008 A 
ATOM     22  C   UNL A   1      34.450  20.407  24.999  1.00  0.00    -0.000 A 
BRANCH  22  23
ATOM     23  C   UNL A   1      33.595  19.138  24.742  1.00  0.00    -0.010 C 
ATOM     24  C   UNL A   1      32.599  19.442  23.597  1.00  0.00     0.016 C 
ATOM     25  C   UNL A   1      34.513  17.966  24.320  1.00  0.00     0.016 C 
ATOM     26  C   UNL A   1      32.741  18.606  25.916  1.00  0.00     0.016 C 
ENDBRANCH  22  23
ENDBRANCH  15  16
ENDBRANCH  14  15
ENDBRANCH  12  14
ENDBRANCH   7  12
ENDBRANCH   3   6
ENDBRANCH   1   2
BRANCH   1  27
ATOM     27  C   UNL A   1      33.558  28.882  24.877  1.00  0.00     0.023 C 
BRANCH  27  28
ATOM     28  C   UNL A   1      32.985  29.745  26.011  1.00  0.00     0.023 C 
BRANCH  28  29
ATOM     29  C   UNL A   1      33.844  29.847  27.269  1.00  0.00     0.116 C 
BRANCH  29  30
ATOM     30  N   UNL A   1      34.666  31.061  27.284  1.00  0.00    -0.352 N 
ATOM     31  C   UNL A   1      35.826  31.345  27.973  1.00  0.00     0.251 C 
ATOM     32  H   UNL A   1      34.338  31.789  26.709  1.00  0.00     0.163 HD
ATOM     33  O   UNL A   1      36.068  32.528  28.242  1.00  0.00    -0.269 OA
BRANCH  31  34
ATOM     34  C   UNL A   1      36.789  30.276  28.292  1.00  0.00     0.039 A 
ATOM     35  C   UNL A   1      36.854  29.628  29.532  1.00  0.00     0.014 A 
ATOM     36  C   UNL A   1      37.778  30.040  27.350  1.00  0.00     0.014 A 
ATOM     37  C   UNL A   1      37.972  28.843  29.829  1.00  0.00     0.010 A 
ATOM     38  C   UNL A   1      38.701  29.066  27.525  1.00  0.00     0.010 A 
ATOM     39  C   UNL A   1      38.915  28.637  28.827  1.00  0.00    -0.014 A 
BRANCH  39  40
ATOM     40  C   UNL A   1      40.271  28.151  28.983  1.00  0.00     0.031 A 
ATOM     41  C   UNL A   1      40.572  26.742  28.734  1.00  0.00     0.074 A 
ATOM     42  C   UNL A   1      41.215  29.127  28.957  1.00  0.00     0.049 A 
ATOM     43  N   UNL A   1      41.665  26.171  29.090  1.00  0.00    -0.248 NA
ATOM     44  C   UNL A   1      39.647  25.864  28.025  1.00  0.00     0.031 C 
ATOM     45  C   UNL A   1      42.594  29.042  28.511  1.00  0.00     0.029 A 
ATOM     46  N   UNL A   1      41.087  30.475  29.336  1.00  0.00    -0.354 N 
ATOM     47  C   UNL A   1      41.734  24.988  28.385  1.00  0.00     0.074 A 
ATOM     48  C   UNL A   1      40.406  24.777  27.854  1.00  0.00     0.031 C 
ATOM     49  C   UNL A   1      43.243  30.156  28.903  1.00  0.00     0.029 A 
ATOM     50  C   UNL A   1      42.344  30.878  29.793  1.00  0.00     0.049 A 
ATOM     51  H   UNL A   1      40.271  31.025  29.290  1.00  0.00     0.167 HD
ATOM     52  C   UNL A   1      42.957  24.441  28.137  1.00  0.00     0.034 A 
ATOM     53  C   UNL A   1      42.585  31.163  31.111  1.00  0.00     0.034 A 
ATOM     54  C   UNL A   1      44.018  25.315  28.668  1.00  0.00     0.049 A 
ATOM     55  C   UNL A   1      43.580  30.190  31.727  1.00  0.00     0.074 A 
ATOM     56  C   UNL A   1      44.813  26.278  28.064  1.00  0.00     0.029 A 
ATOM     57  N   UNL A   1      44.128  25.525  30.038  1.00  0.00    -0.354 N 
ATOM     58  N   UNL A   1      43.992  29.102  31.137  1.00  0.00    -0.248 NA
ATOM     59  C   UNL A   1      44.177  30.352  33.048  1.00  0.00     0.031 C 
ATOM     60  C   UNL A   1      45.345  27.114  29.082  1.00  0.00     0.029 A 
ATOM     61  C   UNL A   1      44.899  26.648  30.308  1.00  0.00     0.049 A 
ATOM     62  H   UNL A   1      43.714  24.954  30.725  1.00  0.00     0.167 HD
ATOM     63  C   UNL A   1      44.756  28.357  31.992  1.00  0.00     0.074 A 
ATOM     64  C   UNL A   1      44.912  29.228  33.147  1.00  0.00     0.031 C 
ATOM     65  C   UNL A   1      45.134  27.074  31.688  1.00  0.00     0.034 A 
BRANCH  52  66
ATOM     66  C   UNL A   1      43.219  23.354  27.109  1.00  0.00     0.023 A 
ATOM     67  C   UNL A   1      43.889  23.733  25.923  1.00  0.00     0.012 A 
ATOM     68  C   UNL A   1      42.837  21.994  27.195  1.00  0.00     0.148 A 
ATOM     69  C   UNL A   1      44.076  22.860  24.848  1.00  0.00     0.002 A 
ATOM     70  C   UNL A   1      42.961  21.137  26.095  1.00  0.00     0.091 A 
ATOM     71  F   UNL A   1      42.426  21.494  28.366  1.00  0.00    -0.205 F 
ATOM     72  C   UNL A   1      43.579  21.570  24.919  1.00  0.00     0.022 A 
BRANCH  70  73
ATOM     73  S   UNL A   1      42.269  19.473  26.079  1.00  0.00     0.127 S 
ATOM     74  O   UNL A   1      40.837  19.734  25.905  1.00  0.00    -0.237 OA
ATOM     75  O   UNL A   1      42.920  18.870  24.918  1.00  0.00    -0.237 OA
ATOM     76  O   UNL A   1      42.606  18.887  27.371  1.00  0.00    -0.744 OA
ENDBRANCH  70  73
ENDBRANCH  52  66
BRANCH  53  77
ATOM     77  C   UNL A   1      41.386  31.728  31.815  1.00  0.00     0.023 A 
ATOM     78  C   UNL A   1      40.841  32.924  31.285  1.00  0.00     0.012 A 
ATOM     79  C   UNL A   1      40.567  30.907  32.610  1.00  0.00     0.148 A 
ATOM     80  C   UNL A   1      39.470  33.183  31.372  1.00  0.00     0.002 A 
ATOM     81  C   UNL A   1      39.199  31.173  32.691  1.00  0.00     0.091 A 
ATOM     82  F   UNL A   1      41.110  29.838  33.205  1.00  0.00    -0.205 F 
ATOM     83  C   UNL A   1      38.642  32.279  32.029  1.00  0.00     0.022 A 
BRANCH  81  84
ATOM     84  S   UNL A   1      38.093  30.036  33.540  1.00  0.00     0.127 S 
ATOM     85  O   UNL A   1      36.796  30.436  33.003  1.00  0.00    -0.237 OA
ATOM     86  O   UNL A   1      38.561  28.726  33.091  1.00  0.00    -0.237 OA
ATOM     87  O   UNL A   1      38.319  30.294  34.953  1.00  0.00    -0.744 OA
ENDBRANCH  81  84
ENDBRANCH  53  77
BRANCH  65  88
ATOM     88  C   UNL A   1      45.760  26.085  32.657  1.00  0.00     0.023 A 
ATOM     89  C   UNL A   1      47.149  26.007  32.865  1.00  0.00     0.012 A 
ATOM     90  C   UNL A   1      44.948  25.286  33.506  1.00  0.00     0.148 A 
ATOM     91  C   UNL A   1      47.710  25.135  33.805  1.00  0.00     0.002 A 
ATOM     92  C   UNL A   1      45.504  24.523  34.529  1.00  0.00     0.091 A 
ATOM     93  F   UNL A   1      43.623  25.230  33.315  1.00  0.00    -0.205 F 
ATOM     94  C   UNL A   1      46.887  24.413  34.656  1.00  0.00     0.022 A 
BRANCH  92  95
ATOM     95  S   UNL A   1      44.472  23.792  35.808  1.00  0.00     0.127 S 
ATOM     96  O   UNL A   1      43.483  24.843  36.035  1.00  0.00    -0.237 OA
ATOM     97  O   UNL A   1      43.950  22.597  35.142  1.00  0.00    -0.237 OA
ATOM     98  O   UNL A   1      45.376  23.509  36.914  1.00  0.00    -0.744 OA
ENDBRANCH  92  95
ENDBRANCH  65  88
ENDBRANCH  39  40
ENDBRANCH  31  34
ENDBRANCH  29  30
ENDBRANCH  28  29
ENDBRANCH  27  28
ENDBRANCH   1  27
TORSDOF 19
ENDMDL
MODEL 2
REMARK VINA RESULT:     -12.5      1.206      2.196
REMARK SMILES Cc1ccc(C(C)(C)C)c(OCC(=O)c2nc(C)c(C(=O)NCCCCNC(=O)c3ccc(-c4c5nc(c(-c6cccc(S(=O)(=O)[O-])c6F)c6ccc([nH]6)c(-c6cccc(S(=O)(=O)[O-])c6F)c6nc(c(-c7cccc(S(=O)(=O)[O-])c7F)c7ccc4[nH]7)C=C6)C=C5)cc3)s2)c1
REMARK SMILES IDX 23 1 22 2 20 3 21 4 19 6 15 7 16 8 93 9 17 10 18 11 13 12
REMARK SMILES IDX 14 13 12 14 11 15 10 16 1 17 2 18 3 19 94 20 4 21 5 22 6 23
REMARK SMILES IDX 7 24 8 25 9 26 24 27 25 28 26 29 27 30 28 31 29 33 30 34
REMARK SMILES IDX 31 35 92 36 32 37 91 38 33 39 34 40 35 41 85 42 36 43 90 44
REMARK SMILES IDX 84 45 86 46 37 47 89 48 83 49 82 50 38 52 70 53 50 54 69 55
REMARK SMILES IDX 51 56 54 57 68 58 87 59 52 60 53 61 67 63 88 64 55 65 39 66
REMARK SMILES IDX 40 67 48 68 41 69 43 70 49 71 42 72 44 73 45 74 46 75 47 76
REMARK SMILES IDX 71 77 72 78 80 79 73 80 75 81 81 82 74 83 76 84 77 85 78 86
REMARK SMILES IDX 79 87 56 88 57 89 65 90 58 91 60 92 66 93 59 94 61 95 62 96
REMARK SMILES IDX 63 97 64 98
REMARK H PARENT 22 5 27 32 86 51 54 62
REMARK Flexibility Score: inf
ROOT
ATOM      1  C   UNL A   1      33.443  28.322  23.368  1.00  0.00     0.116 C 
ENDROOT
BRANCH   1   2
ATOM      2  N   UNL A   1      32.017  28.474  23.238  1.00  0.00    -0.351 N 
ATOM      3  C   UNL A   1      30.929  27.916  23.847  1.00  0.00     0.263 C 
ATOM      4  O   UNL A   1      29.868  28.356  23.377  1.00  0.00    -0.268 OA
ATOM      5  H   UNL A   1      31.769  29.134  22.549  1.00  0.00     0.163 HD
BRANCH   3   6
ATOM      6  C   UNL A   1      30.939  26.919  24.924  1.00  0.00     0.115 A 
ATOM      7  C   UNL A   1      30.804  24.643  25.895  1.00  0.00     0.164 A 
ATOM      8  N   UNL A   1      30.983  25.537  26.831  1.00  0.00    -0.237 NA
ATOM      9  S   UNL A   1      30.719  25.274  24.331  1.00  0.00    -0.105 S 
ATOM     10  C   UNL A   1      31.084  26.828  26.311  1.00  0.00     0.062 A 
ATOM     11  C   UNL A   1      31.334  27.795  27.406  1.00  0.00     0.068 C 
BRANCH   7  12
ATOM     12  C   UNL A   1      30.683  23.234  26.227  1.00  0.00     0.228 C 
ATOM     13  O   UNL A   1      30.206  22.834  27.297  1.00  0.00    -0.288 OA
BRANCH  12  14
ATOM     14  C   UNL A   1      31.298  22.197  25.279  1.00  0.00     0.313 C 
BRANCH  14  15
ATOM     15  O   UNL A   1      32.516  22.433  24.610  1.00  0.00    -0.485 OA
BRANCH  15  16
ATOM     16  C   UNL A   1      33.543  21.541  24.718  1.00  0.00     0.123 A 
ATOM     17  C   UNL A   1      34.196  17.780  24.480  1.00  0.00     0.044 C 
ATOM     18  C   UNL A   1      34.420  19.254  24.645  1.00  0.00    -0.047 A 
ATOM     19  C   UNL A   1      35.704  19.757  24.814  1.00  0.00     0.004 A 
ATOM     20  C   UNL A   1      33.346  20.150  24.634  1.00  0.00     0.050 A 
ATOM     21  C   UNL A   1      35.904  21.132  24.954  1.00  0.00     0.008 A 
ATOM     22  C   UNL A   1      34.840  22.066  24.903  1.00  0.00    -0.000 A 
BRANCH  22  23
ATOM     23  C   UNL A   1      35.193  23.568  25.065  1.00  0.00    -0.010 C 
ATOM     24  C   UNL A   1      36.675  23.680  25.495  1.00  0.00     0.016 C 
ATOM     25  C   UNL A   1      34.999  24.299  23.714  1.00  0.00     0.016 C 
ATOM     26  C   UNL A   1      34.387  24.380  26.106  1.00  0.00     0.016 C 
ENDBRANCH  22  23
ENDBRANCH  15  16
ENDBRANCH  14  15
ENDBRANCH  12  14
ENDBRANCH   7  12
ENDBRANCH   3   6
ENDBRANCH   1   2
BRANCH   1  27
ATOM     27  C   UNL A   1      33.895  28.477  24.826  1.00  0.00     0.023 C 
BRANCH  27  28
ATOM     28  C   UNL A   1      33.522  29.792  25.526  1.00  0.00     0.023 C 
BRANCH  28  29
ATOM     29  C   UNL A   1      33.943  29.908  26.990  1.00  0.00     0.116 C 
BRANCH  29  30
ATOM     30  N   UNL A   1      34.756  31.102  27.241  1.00  0.00    -0.352 N 
ATOM     31  C   UNL A   1      35.834  31.287  28.081  1.00  0.00     0.251 C 
ATOM     32  H   UNL A   1      34.490  31.898  26.728  1.00  0.00     0.163 HD
ATOM     33  O   UNL A   1      36.043  32.427  28.517  1.00  0.00    -0.269 OA
BRANCH  31  34
ATOM     34  C   UNL A   1      36.759  30.177  28.368  1.00  0.00     0.039 A 
ATOM     35  C   UNL A   1      36.822  29.511  29.598  1.00  0.00     0.014 A 
ATOM     36  C   UNL A   1      37.720  29.914  27.404  1.00  0.00     0.014 A 
ATOM     37  C   UNL A   1      37.914  28.678  29.864  1.00  0.00     0.010 A 
ATOM     38  C   UNL A   1      38.607  28.902  27.549  1.00  0.00     0.010 A 
ATOM     39  C   UNL A   1      38.829  28.449  28.841  1.00  0.00    -0.014 A 
BRANCH  39  40
ATOM     40  C   UNL A   1      40.167  27.907  28.965  1.00  0.00     0.031 A 
ATOM     41  C   UNL A   1      40.388  26.471  28.805  1.00  0.00     0.074 A 
ATOM     42  C   UNL A   1      41.153  28.831  28.822  1.00  0.00     0.049 A 
ATOM     43  N   UNL A   1      41.470  25.872  29.148  1.00  0.00    -0.248 NA
ATOM     44  C   UNL A   1      39.387  25.593  28.209  1.00  0.00     0.031 C 
ATOM     45  C   UNL A   1      42.501  28.645  28.315  1.00  0.00     0.029 A 
ATOM     46  N   UNL A   1      41.107  30.206  29.107  1.00  0.00    -0.354 N 
ATOM     47  C   UNL A   1      41.447  24.640  28.528  1.00  0.00     0.074 A 
ATOM     48  C   UNL A   1      40.085  24.460  28.080  1.00  0.00     0.031 C 
ATOM     49  C   UNL A   1      43.220  29.750  28.592  1.00  0.00     0.029 A 
ATOM     50  C   UNL A   1      42.404  30.577  29.470  1.00  0.00     0.049 A 
ATOM     51  H   UNL A   1      40.317  30.792  29.061  1.00  0.00     0.167 HD
ATOM     52  C   UNL A   1      42.628  24.017  28.261  1.00  0.00     0.034 A 
ATOM     53  C   UNL A   1      42.728  30.942  30.750  1.00  0.00     0.034 A 
ATOM     54  C   UNL A   1      43.756  24.872  28.674  1.00  0.00     0.049 A 
ATOM     55  C   UNL A   1      43.708  29.966  31.386  1.00  0.00     0.074 A 
ATOM     56  C   UNL A   1      44.562  25.749  27.962  1.00  0.00     0.029 A 
ATOM     57  N   UNL A   1      43.948  25.172  30.017  1.00  0.00    -0.354 N 
ATOM     58  N   UNL A   1      44.037  28.820  30.858  1.00  0.00    -0.248 NA
ATOM     59  C   UNL A   1      44.381  30.191  32.661  1.00  0.00     0.031 C 
ATOM     60  C   UNL A   1      45.185  26.627  28.889  1.00  0.00     0.029 A 
ATOM     61  C   UNL A   1      44.784  26.271  30.166  1.00  0.00     0.049 A 
ATOM     62  H   UNL A   1      43.544  24.673  30.764  1.00  0.00     0.167 HD
ATOM     63  C   UNL A   1      44.809  28.100  31.725  1.00  0.00     0.074 A 
ATOM     64  C   UNL A   1      45.066  29.041  32.805  1.00  0.00     0.031 C 
ATOM     65  C   UNL A   1      45.110  26.781  31.498  1.00  0.00     0.034 A 
BRANCH  52  66
ATOM     66  C   UNL A   1      42.785  22.848  27.303  1.00  0.00     0.023 A 
ATOM     67  C   UNL A   1      42.059  21.671  27.595  1.00  0.00     0.012 A 
ATOM     68  C   UNL A   1      43.607  22.798  26.153  1.00  0.00     0.148 A 
ATOM     69  C   UNL A   1      42.214  20.487  26.868  1.00  0.00     0.002 A 
ATOM     70  C   UNL A   1      43.816  21.596  25.465  1.00  0.00     0.091 A 
ATOM     71  F   UNL A   1      44.131  23.927  25.662  1.00  0.00    -0.205 F 
ATOM     72  C   UNL A   1      43.121  20.438  25.823  1.00  0.00     0.022 A 
BRANCH  70  73
ATOM     73  S   UNL A   1      45.038  21.431  24.150  1.00  0.00     0.127 S 
ATOM     74  O   UNL A   1      44.970  20.000  23.841  1.00  0.00    -0.237 OA
ATOM     75  O   UNL A   1      44.501  22.302  23.107  1.00  0.00    -0.237 OA
ATOM     76  O   UNL A   1      46.309  21.847  24.731  1.00  0.00    -0.744 OA
ENDBRANCH  70  73
ENDBRANCH  52  66
BRANCH  53  77
ATOM     77  C   UNL A   1      41.595  31.615  31.470  1.00  0.00     0.023 A 
ATOM     78  C   UNL A   1      41.092  32.807  30.892  1.00  0.00     0.012 A 
ATOM     79  C   UNL A   1      40.770  30.890  32.348  1.00  0.00     0.148 A 
ATOM     80  C   UNL A   1      39.743  33.148  31.022  1.00  0.00     0.002 A 
ATOM     81  C   UNL A   1      39.424  31.238  32.472  1.00  0.00     0.091 A 
ATOM     82  F   UNL A   1      41.282  29.829  32.983  1.00  0.00    -0.205 F 
ATOM     83  C   UNL A   1      38.898  32.332  31.768  1.00  0.00     0.022 A 
BRANCH  81  84
ATOM     84  S   UNL A   1      38.299  30.218  33.436  1.00  0.00     0.127 S 
ATOM     85  O   UNL A   1      38.515  30.737  34.783  1.00  0.00    -0.237 OA
ATOM     86  O   UNL A   1      36.992  30.538  32.862  1.00  0.00    -0.237 OA
ATOM     87  O   UNL A   1      38.738  28.855  33.186  1.00  0.00    -0.744 OA
ENDBRANCH  81  84
ENDBRANCH  53  77
BRANCH  65  88
ATOM     88  C   UNL A   1      45.740  25.833  32.504  1.00  0.00     0.023 A 
ATOM     89  C   UNL A   1      47.128  25.779  32.727  1.00  0.00     0.012 A 
ATOM     90  C   UNL A   1      44.931  25.051  33.372  1.00  0.00     0.148 A 
ATOM     91  C   UNL A   1      47.692  24.946  33.700  1.00  0.00     0.002 A 
ATOM     92  C   UNL A   1      45.487  24.330  34.425  1.00  0.00     0.091 A 
ATOM     93  F   UNL A   1      43.608  24.972  33.172  1.00  0.00    -0.205 F 
ATOM     94  C   UNL A   1      46.870  24.242  34.567  1.00  0.00     0.022 A 
BRANCH  92  95
ATOM     95  S   UNL A   1      44.453  23.628  35.719  1.00  0.00     0.127 S 
ATOM     96  O   UNL A   1      45.448  23.183  36.692  1.00  0.00    -0.237 OA
ATOM     97  O   UNL A   1      43.659  24.783  36.144  1.00  0.00    -0.237 OA
ATOM     98  O   UNL A   1      43.680  22.583  35.065  1.00  0.00    -0.744 OA
ENDBRANCH  92  95
ENDBRANCH  65  88
ENDBRANCH  39  40
ENDBRANCH  31  34
ENDBRANCH  29  30
ENDBRANCH  28  29
ENDBRANCH  27  28
ENDBRANCH   1  27
TORSDOF 19
ENDMDL
MODEL 3
REMARK VINA RESULT:     -11.9      1.792      2.158
REMARK SMILES Cc1ccc(C(C)(C)C)c(OCC(=O)c2nc(C)c(C(=O)NCCCCNC(=O)c3ccc(-c4c5nc(c(-c6cccc(S(=O)(=O)[O-])c6F)c6ccc([nH]6)c(-c6cccc(S(=O)(=O)[O-])c6F)c6nc(c(-c7cccc(S(=O)(=O)[O-])c7F)c7ccc4[nH]7)C=C6)C=C5)cc3)s2)c1
REMARK SMILES IDX 23 1 22 2 20 3 21 4 19 6 15 7 16 8 93 9 17 10 18 11 13 12
REMARK SMILES IDX 14 13 12 14 11 15 10 16 1 17 2 18 3 19 94 20 4 21 5 22 6 23
REMARK SMILES IDX 7 24 8 25 9 26 24 27 25 28 26 29 27 30 28 31 29 33 30 34
REMARK SMILES IDX 31 35 92 36 32 37 91 38 33 39 34 40 35 41 85 42 36 43 90 44
REMARK SMILES IDX 84 45 86 46 37 47 89 48 83 49 82 50 38 52 70 53 50 54 69 55
REMARK SMILES IDX 51 56 54 57 68 58 87 59 52 60 53 61 67 63 88 64 55 65 39 66
REMARK SMILES IDX 40 67 48 68 41 69 43 70 49 71 42 72 44 73 45 74 46 75 47 76
REMARK SMILES IDX 71 77 72 78 80 79 73 80 75 81 81 82 74 83 76 84 77 85 78 86
REMARK SMILES IDX 79 87 56 88 57 89 65 90 58 91 60 92 66 93 59 94 61 95 62 96
REMARK SMILES IDX 63 97 64 98
REMARK H PARENT 22 5 27 32 86 51 54 62
REMARK Flexibility Score: inf
ROOT
ATOM      1  C   UNL A   1      33.445  28.601  23.534  1.00  0.00     0.116 C 
ENDROOT
BRANCH   1   2
ATOM      2  N   UNL A   1      32.030  28.504  23.285  1.00  0.00    -0.351 N 
ATOM      3  C   UNL A   1      31.019  27.720  23.766  1.00  0.00     0.263 C 
ATOM      4  O   UNL A   1      29.936  27.992  23.226  1.00  0.00    -0.268 OA
ATOM      5  H   UNL A   1      31.719  29.152  22.612  1.00  0.00     0.163 HD
BRANCH   3   6
ATOM      6  C   UNL A   1      31.128  26.672  24.788  1.00  0.00     0.115 A 
ATOM      7  C   UNL A   1      31.339  24.350  25.626  1.00  0.00     0.164 A 
ATOM      8  N   UNL A   1      31.277  25.198  26.618  1.00  0.00    -0.237 NA
ATOM      9  S   UNL A   1      31.262  25.057  24.095  1.00  0.00    -0.105 S 
ATOM     10  C   UNL A   1      31.179  26.517  26.176  1.00  0.00     0.062 A 
ATOM     11  C   UNL A   1      31.160  27.439  27.336  1.00  0.00     0.068 C 
BRANCH   7  12
ATOM     12  C   UNL A   1      31.454  22.923  25.874  1.00  0.00     0.228 C 
ATOM     13  O   UNL A   1      30.476  22.199  26.103  1.00  0.00    -0.288 OA
BRANCH  12  14
ATOM     14  C   UNL A   1      32.853  22.306  26.001  1.00  0.00     0.313 C 
BRANCH  14  15
ATOM     15  O   UNL A   1      33.137  21.008  25.530  1.00  0.00    -0.485 OA
BRANCH  15  16
ATOM     16  C   UNL A   1      34.425  20.638  25.271  1.00  0.00     0.123 A 
ATOM     17  C   UNL A   1      37.984  22.000  25.577  1.00  0.00     0.044 C 
ATOM     18  C   UNL A   1      36.834  21.081  25.293  1.00  0.00    -0.047 A 
ATOM     19  C   UNL A   1      37.062  19.785  24.849  1.00  0.00     0.004 A 
ATOM     20  C   UNL A   1      35.514  21.508  25.466  1.00  0.00     0.050 A 
ATOM     21  C   UNL A   1      35.985  18.931  24.600  1.00  0.00     0.008 A 
ATOM     22  C   UNL A   1      34.639  19.322  24.808  1.00  0.00    -0.000 A 
BRANCH  22  23
ATOM     23  C   UNL A   1      33.532  18.280  24.500  1.00  0.00    -0.010 C 
ATOM     24  C   UNL A   1      32.583  18.874  23.432  1.00  0.00     0.016 C 
ATOM     25  C   UNL A   1      34.174  16.984  23.946  1.00  0.00     0.016 C 
ATOM     26  C   UNL A   1      32.626  17.836  25.672  1.00  0.00     0.016 C 
ENDBRANCH  22  23
ENDBRANCH  15  16
ENDBRANCH  14  15
ENDBRANCH  12  14
ENDBRANCH   7  12
ENDBRANCH   3   6
ENDBRANCH   1   2
BRANCH   1  27
ATOM     27  C   UNL A   1      33.746  28.709  25.035  1.00  0.00     0.023 C 
BRANCH  27  28
ATOM     28  C   UNL A   1      33.184  29.937  25.764  1.00  0.00     0.023 C 
BRANCH  28  29
ATOM     29  C   UNL A   1      33.700  30.161  27.184  1.00  0.00     0.116 C 
BRANCH  29  30
ATOM     30  N   UNL A   1      34.600  31.315  27.272  1.00  0.00    -0.352 N 
ATOM     31  C   UNL A   1      35.734  31.505  28.033  1.00  0.00     0.251 C 
ATOM     32  H   UNL A   1      34.356  32.074  26.696  1.00  0.00     0.163 HD
ATOM     33  O   UNL A   1      36.041  32.664  28.341  1.00  0.00    -0.269 OA
BRANCH  31  34
ATOM     34  C   UNL A   1      36.602  30.367  28.382  1.00  0.00     0.039 A 
ATOM     35  C   UNL A   1      36.487  29.633  29.569  1.00  0.00     0.014 A 
ATOM     36  C   UNL A   1      37.687  30.143  27.549  1.00  0.00     0.014 A 
ATOM     37  C   UNL A   1      37.525  28.770  29.937  1.00  0.00     0.010 A 
ATOM     38  C   UNL A   1      38.536  29.111  27.758  1.00  0.00     0.010 A 
ATOM     39  C   UNL A   1      38.572  28.583  29.040  1.00  0.00    -0.014 A 
BRANCH  39  40
ATOM     40  C   UNL A   1      39.875  28.015  29.318  1.00  0.00     0.031 A 
ATOM     41  C   UNL A   1      40.194  26.666  28.854  1.00  0.00     0.074 A 
ATOM     42  C   UNL A   1      40.823  28.934  29.635  1.00  0.00     0.049 A 
ATOM     43  N   UNL A   1      41.204  25.988  29.267  1.00  0.00    -0.248 NA
ATOM     44  C   UNL A   1      39.390  25.979  27.849  1.00  0.00     0.031 C 
ATOM     45  C   UNL A   1      42.257  28.872  29.410  1.00  0.00     0.029 A 
ATOM     46  N   UNL A   1      40.651  30.191  30.240  1.00  0.00    -0.354 N 
ATOM     47  C   UNL A   1      41.374  24.956  28.367  1.00  0.00     0.074 A 
ATOM     48  C   UNL A   1      40.152  24.911  27.597  1.00  0.00     0.031 C 
ATOM     49  C   UNL A   1      42.845  29.861  30.110  1.00  0.00     0.029 A 
ATOM     50  C   UNL A   1      41.819  30.444  30.964  1.00  0.00     0.049 A 
ATOM     51  H   UNL A   1      39.863  30.776  30.169  1.00  0.00     0.167 HD
ATOM     52  C   UNL A   1      42.614  24.411  28.221  1.00  0.00     0.034 A 
ATOM     53  C   UNL A   1      41.839  30.464  32.334  1.00  0.00     0.034 A 
ATOM     54  C   UNL A   1      43.583  25.120  29.076  1.00  0.00     0.049 A 
ATOM     55  C   UNL A   1      42.702  29.349  32.904  1.00  0.00     0.074 A 
ATOM     56  C   UNL A   1      44.481  26.142  28.806  1.00  0.00     0.029 A 
ATOM     57  N   UNL A   1      43.463  25.064  30.460  1.00  0.00    -0.354 N 
ATOM     58  N   UNL A   1      43.193  28.373  32.191  1.00  0.00    -0.248 NA
ATOM     59  C   UNL A   1      43.071  29.232  34.311  1.00  0.00     0.031 C 
ATOM     60  C   UNL A   1      44.845  26.747  30.039  1.00  0.00     0.029 A 
ATOM     61  C   UNL A   1      44.193  26.080  31.063  1.00  0.00     0.049 A 
ATOM     62  H   UNL A   1      42.931  24.394  30.947  1.00  0.00     0.167 HD
ATOM     63  C   UNL A   1      43.792  27.447  32.998  1.00  0.00     0.074 A 
ATOM     64  C   UNL A   1      43.763  28.078  34.309  1.00  0.00     0.031 C 
ATOM     65  C   UNL A   1      44.198  26.228  32.518  1.00  0.00     0.034 A 
BRANCH  52  66
ATOM     66  C   UNL A   1      43.030  23.526  27.059  1.00  0.00     0.023 A 
ATOM     67  C   UNL A   1      43.508  24.169  25.894  1.00  0.00     0.012 A 
ATOM     68  C   UNL A   1      42.967  22.113  27.003  1.00  0.00     0.148 A 
ATOM     69  C   UNL A   1      43.801  23.478  24.715  1.00  0.00     0.002 A 
ATOM     70  C   UNL A   1      43.193  21.426  25.804  1.00  0.00     0.091 A 
ATOM     71  F   UNL A   1      42.767  21.413  28.126  1.00  0.00    -0.205 F 
ATOM     72  C   UNL A   1      43.608  22.108  24.657  1.00  0.00     0.022 A 
BRANCH  70  73
ATOM     73  S   UNL A   1      42.886  19.659  25.626  1.00  0.00     0.127 S 
ATOM     74  O   UNL A   1      41.455  19.622  25.314  1.00  0.00    -0.237 OA
ATOM     75  O   UNL A   1      43.758  19.297  24.510  1.00  0.00    -0.237 OA
ATOM     76  O   UNL A   1      43.223  19.063  26.913  1.00  0.00    -0.744 OA
ENDBRANCH  70  73
ENDBRANCH  52  66
BRANCH  53  77
ATOM     77  C   UNL A   1      40.546  30.942  32.929  1.00  0.00     0.023 A 
ATOM     78  C   UNL A   1      39.874  30.046  33.796  1.00  0.00     0.012 A 
ATOM     79  C   UNL A   1      40.267  32.317  33.031  1.00  0.00     0.148 A 
ATOM     80  C   UNL A   1      39.110  30.524  34.865  1.00  0.00     0.002 A 
ATOM     81  C   UNL A   1      39.504  32.786  34.102  1.00  0.00     0.091 A 
ATOM     82  F   UNL A   1      40.813  33.153  32.139  1.00  0.00    -0.205 F 
ATOM     83  C   UNL A   1      38.972  31.896  35.048  1.00  0.00     0.022 A 
BRANCH  81  84
ATOM     84  S   UNL A   1      39.290  34.552  34.370  1.00  0.00     0.127 S 
ATOM     85  O   UNL A   1      38.697  34.574  35.704  1.00  0.00    -0.237 OA
ATOM     86  O   UNL A   1      40.659  35.063  34.303  1.00  0.00    -0.237 OA
ATOM     87  O   UNL A   1      38.441  34.987  33.273  1.00  0.00    -0.744 OA
ENDBRANCH  81  84
ENDBRANCH  53  77
BRANCH  65  88
ATOM     88  C   UNL A   1      44.638  25.047  33.368  1.00  0.00     0.023 A 
ATOM     89  C   UNL A   1      43.858  23.886  33.511  1.00  0.00     0.012 A 
ATOM     90  C   UNL A   1      45.936  25.012  33.946  1.00  0.00     0.148 A 
ATOM     91  C   UNL A   1      44.302  22.780  34.246  1.00  0.00     0.002 A 
ATOM     92  C   UNL A   1      46.423  23.861  34.559  1.00  0.00     0.091 A 
ATOM     93  F   UNL A   1      46.709  26.107  33.937  1.00  0.00    -0.205 F 
ATOM     94  C   UNL A   1      45.594  22.757  34.747  1.00  0.00     0.022 A 
BRANCH  92  95
ATOM     95  S   UNL A   1      48.164  23.698  34.980  1.00  0.00     0.127 S 
ATOM     96  O   UNL A   1      48.320  24.718  36.014  1.00  0.00    -0.237 OA
ATOM     97  O   UNL A   1      48.239  22.319  35.467  1.00  0.00    -0.237 OA
ATOM     98  O   UNL A   1      48.882  23.928  33.734  1.00  0.00    -0.744 OA
ENDBRANCH  92  95
ENDBRANCH  65  88
ENDBRANCH  39  40
ENDBRANCH  31  34
ENDBRANCH  29  30
ENDBRANCH  28  29
ENDBRANCH  27  28
ENDBRANCH   1  27
TORSDOF 19
ENDMDL
