MODEL 1
REMARK VINA RESULT:     -11.8      0.000      0.000
REMARK SMILES Cn1ccc(S(=O)(=O)N2CCO[C@H](CC(=O)NCCCCNC(=O)c3ccc(-c4c5nc(c(-c6cccc(S(=O)(=O)[O-])c6F)c6ccc([nH]6)c(-c6cccc(S(=O)(=O)[O-])c6F)c6nc(c(-c7cccc(S(=O)(=O)[O-])c7F)c7ccc4[nH]7)C=C6)C=C5)cc3)C2)c1
REMARK SMILES IDX 19 1 18 2 17 3 15 4 16 5 14 7 13 8 9 9 10 10 88 11 11 12
REMARK SMILES IDX 12 13 6 14 7 15 8 16 5 17 1 18 2 19 3 20 89 21 4 22 20 23
REMARK SMILES IDX 21 24 22 25 23 26 24 28 25 29 26 30 87 31 27 32 86 33 28 34
REMARK SMILES IDX 29 35 30 36 80 37 31 38 85 39 79 40 81 41 32 42 84 43 78 44
REMARK SMILES IDX 77 45 33 47 65 48 45 49 64 50 46 51 49 52 63 53 82 54 47 55
REMARK SMILES IDX 48 56 62 58 83 59 50 60 34 61 35 62 43 63 36 64 38 65 44 66
REMARK SMILES IDX 37 67 39 68 40 69 41 70 42 71 66 72 67 73 75 74 68 75 70 76
REMARK SMILES IDX 76 77 69 78 71 79 72 80 73 81 74 82 51 83 52 84 60 85 53 86
REMARK SMILES IDX 55 87 61 88 54 89 56 90 57 91 58 92 59 93
REMARK H PARENT 17 6 22 27 81 46 49 57
REMARK Flexibility Score: inf
ROOT
ATOM      1  C   UNL A   1      32.069  30.264  26.598  1.00  0.00     0.023 C 
ENDROOT
BRANCH   1   2
ATOM      2  C   UNL A   1      31.483  29.650  25.328  1.00  0.00     0.116 C 
BRANCH   2   3
ATOM      3  N   UNL A   1      32.462  29.565  24.259  1.00  0.00    -0.356 N 
ATOM      4  C   UNL A   1      33.066  28.462  23.737  1.00  0.00     0.222 C 
ATOM      5  O   UNL A   1      33.904  28.596  22.848  1.00  0.00    -0.275 OA
ATOM      6  H   UNL A   1      32.724  30.423  23.855  1.00  0.00     0.163 HD
BRANCH   4   7
ATOM      7  C   UNL A   1      32.703  27.101  24.268  1.00  0.00     0.133 C 
BRANCH   7   8
ATOM      8  C   UNL A   1      31.377  26.623  23.664  1.00  0.00     0.142 C 
ATOM      9  N   UNL A   1      31.306  24.427  24.717  1.00  0.00    -0.193 NA
ATOM     10  C   UNL A   1      31.435  23.755  23.413  1.00  0.00     0.131 C 
ATOM     11  C   UNL A   1      30.593  25.711  24.634  1.00  0.00     0.135 C 
ATOM     12  C   UNL A   1      32.215  24.692  22.486  1.00  0.00     0.177 C 
ATOM     13  O   UNL A   1      31.591  25.983  22.380  1.00  0.00    -0.375 OA
BRANCH   9  14
ATOM     14  S   UNL A   1      31.341  23.537  26.126  1.00  0.00     0.244 S 
ATOM     15  O   UNL A   1      30.647  22.289  25.904  1.00  0.00    -0.207 OA
ATOM     16  O   UNL A   1      31.075  24.393  27.259  1.00  0.00    -0.207 OA
BRANCH  14  17
ATOM     17  C   UNL A   1      32.998  23.075  26.344  1.00  0.00     0.100 A 
ATOM     18  C   UNL A   1      36.576  23.433  25.946  1.00  0.00     0.149 C 
ATOM     19  N   UNL A   1      35.216  23.055  26.253  1.00  0.00    -0.356 N 
ATOM     20  C   UNL A   1      34.836  21.897  26.882  1.00  0.00     0.086 A 
ATOM     21  C   UNL A   1      34.109  23.791  25.940  1.00  0.00     0.106 A 
ATOM     22  C   UNL A   1      33.457  21.884  26.957  1.00  0.00     0.041 A 
ENDBRANCH  14  17
ENDBRANCH   9  14
ENDBRANCH   7   8
ENDBRANCH   4   7
ENDBRANCH   2   3
ENDBRANCH   1   2
BRANCH   1  23
ATOM     23  C   UNL A   1      31.814  31.763  26.764  1.00  0.00     0.023 C 
BRANCH  23  24
ATOM     24  C   UNL A   1      32.966  32.555  27.372  1.00  0.00     0.116 C 
BRANCH  24  25
ATOM     25  N   UNL A   1      32.603  33.929  27.687  1.00  0.00    -0.352 N 
ATOM     26  C   UNL A   1      33.143  34.764  28.637  1.00  0.00     0.251 C 
ATOM     27  H   UNL A   1      31.875  34.313  27.148  1.00  0.00     0.163 HD
ATOM     28  O   UNL A   1      32.637  35.861  28.853  1.00  0.00    -0.269 OA
BRANCH  26  29
ATOM     29  C   UNL A   1      34.317  34.317  29.416  1.00  0.00     0.039 A 
ATOM     30  C   UNL A   1      34.109  33.660  30.633  1.00  0.00     0.014 A 
ATOM     31  C   UNL A   1      35.612  34.515  28.931  1.00  0.00     0.014 A 
ATOM     32  C   UNL A   1      35.202  33.140  31.331  1.00  0.00     0.010 A 
ATOM     33  C   UNL A   1      36.691  33.942  29.596  1.00  0.00     0.010 A 
ATOM     34  C   UNL A   1      36.496  33.248  30.801  1.00  0.00    -0.014 A 
BRANCH  34  35
ATOM     35  C   UNL A   1      37.666  32.624  31.469  1.00  0.00     0.031 A 
ATOM     36  C   UNL A   1      38.382  31.472  30.820  1.00  0.00     0.074 A 
ATOM     37  C   UNL A   1      38.001  33.010  32.716  1.00  0.00     0.049 A 
ATOM     38  N   UNL A   1      39.352  30.735  31.291  1.00  0.00    -0.248 NA
ATOM     39  C   UNL A   1      37.923  31.077  29.478  1.00  0.00     0.031 C 
ATOM     40  C   UNL A   1      37.321  34.050  33.491  1.00  0.00     0.029 A 
ATOM     41  N   UNL A   1      38.972  32.543  33.568  1.00  0.00    -0.354 N 
ATOM     42  C   UNL A   1      39.588  29.760  30.330  1.00  0.00     0.074 A 
ATOM     43  C   UNL A   1      38.644  29.986  29.258  1.00  0.00     0.031 C 
ATOM     44  C   UNL A   1      37.882  34.130  34.708  1.00  0.00     0.029 A 
ATOM     45  C   UNL A   1      38.948  33.138  34.808  1.00  0.00     0.049 A 
ATOM     46  H   UNL A   1      39.623  31.849  33.315  1.00  0.00     0.167 HD
ATOM     47  C   UNL A   1      40.524  28.782  30.328  1.00  0.00     0.034 A 
ATOM     48  C   UNL A   1      39.693  32.903  35.906  1.00  0.00     0.034 A 
ATOM     49  C   UNL A   1      41.505  28.605  31.363  1.00  0.00     0.049 A 
ATOM     50  C   UNL A   1      40.781  31.866  35.846  1.00  0.00     0.074 A 
ATOM     51  C   UNL A   1      42.576  27.730  31.390  1.00  0.00     0.029 A 
ATOM     52  N   UNL A   1      41.534  29.311  32.555  1.00  0.00    -0.354 N 
ATOM     53  N   UNL A   1      41.115  31.081  34.851  1.00  0.00    -0.248 NA
ATOM     54  C   UNL A   1      41.619  31.707  37.044  1.00  0.00     0.031 C 
ATOM     55  C   UNL A   1      43.249  27.902  32.605  1.00  0.00     0.029 A 
ATOM     56  C   UNL A   1      42.599  28.889  33.329  1.00  0.00     0.049 A 
ATOM     57  H   UNL A   1      40.891  30.012  32.810  1.00  0.00     0.167 HD
ATOM     58  C   UNL A   1      42.218  30.357  35.289  1.00  0.00     0.074 A 
ATOM     59  C   UNL A   1      42.508  30.811  36.634  1.00  0.00     0.031 C 
ATOM     60  C   UNL A   1      42.914  29.390  34.643  1.00  0.00     0.034 A 
BRANCH  47  61
ATOM     61  C   UNL A   1      40.575  27.869  29.132  1.00  0.00     0.023 A 
ATOM     62  C   UNL A   1      39.666  26.796  29.044  1.00  0.00     0.012 A 
ATOM     63  C   UNL A   1      41.481  28.097  28.079  1.00  0.00     0.148 A 
ATOM     64  C   UNL A   1      39.678  25.944  27.940  1.00  0.00     0.002 A 
ATOM     65  C   UNL A   1      41.460  27.267  26.963  1.00  0.00     0.091 A 
ATOM     66  F   UNL A   1      42.357  29.106  28.192  1.00  0.00    -0.205 F 
ATOM     67  C   UNL A   1      40.568  26.185  26.897  1.00  0.00     0.022 A 
BRANCH  65  68
ATOM     68  S   UNL A   1      42.522  27.547  25.541  1.00  0.00     0.127 S 
ATOM     69  O   UNL A   1      43.850  27.513  26.153  1.00  0.00    -0.237 OA
ATOM     70  O   UNL A   1      42.216  26.396  24.690  1.00  0.00    -0.237 OA
ATOM     71  O   UNL A   1      42.112  28.831  24.990  1.00  0.00    -0.744 OA
ENDBRANCH  65  68
ENDBRANCH  47  61
BRANCH  48  72
ATOM     72  C   UNL A   1      39.478  33.726  37.130  1.00  0.00     0.023 A 
ATOM     73  C   UNL A   1      39.927  35.060  37.149  1.00  0.00     0.012 A 
ATOM     74  C   UNL A   1      38.781  33.219  38.243  1.00  0.00     0.148 A 
ATOM     75  C   UNL A   1      39.706  35.868  38.264  1.00  0.00     0.002 A 
ATOM     76  C   UNL A   1      38.518  34.045  39.329  1.00  0.00     0.091 A 
ATOM     77  F   UNL A   1      38.373  31.942  38.211  1.00  0.00    -0.205 F 
ATOM     78  C   UNL A   1      38.991  35.365  39.348  1.00  0.00     0.022 A 
BRANCH  76  79
ATOM     79  S   UNL A   1      37.487  33.521  40.705  1.00  0.00     0.127 S 
ATOM     80  O   UNL A   1      37.334  34.764  41.455  1.00  0.00    -0.237 OA
ATOM     81  O   UNL A   1      36.277  33.060  40.022  1.00  0.00    -0.237 OA
ATOM     82  O   UNL A   1      38.236  32.463  41.371  1.00  0.00    -0.744 OA
ENDBRANCH  76  79
ENDBRANCH  48  72
BRANCH  60  83
ATOM     83  C   UNL A   1      44.077  28.762  35.362  1.00  0.00     0.023 A 
ATOM     84  C   UNL A   1      45.369  29.296  35.189  1.00  0.00     0.012 A 
ATOM     85  C   UNL A   1      43.877  27.713  36.280  1.00  0.00     0.148 A 
ATOM     86  C   UNL A   1      46.449  28.782  35.905  1.00  0.00     0.002 A 
ATOM     87  C   UNL A   1      44.952  27.233  37.021  1.00  0.00     0.091 A 
ATOM     88  F   UNL A   1      42.643  27.205  36.414  1.00  0.00    -0.205 F 
ATOM     89  C   UNL A   1      46.239  27.761  36.829  1.00  0.00     0.022 A 
BRANCH  87  90
ATOM     90  S   UNL A   1      44.754  25.984  38.297  1.00  0.00     0.127 S 
ATOM     91  O   UNL A   1      43.933  26.688  39.281  1.00  0.00    -0.237 OA
ATOM     92  O   UNL A   1      44.061  24.911  37.581  1.00  0.00    -0.237 OA
ATOM     93  O   UNL A   1      46.101  25.642  38.732  1.00  0.00    -0.744 OA
ENDBRANCH  87  90
ENDBRANCH  60  83
ENDBRANCH  34  35
ENDBRANCH  26  29
ENDBRANCH  24  25
ENDBRANCH  23  24
ENDBRANCH   1  23
TORSDOF 17
ENDMDL
MODEL 2
REMARK VINA RESULT:     -11.7      6.389     11.696
REMARK SMILES Cn1ccc(S(=O)(=O)N2CCO[C@H](CC(=O)NCCCCNC(=O)c3ccc(-c4c5nc(c(-c6cccc(S(=O)(=O)[O-])c6F)c6ccc([nH]6)c(-c6cccc(S(=O)(=O)[O-])c6F)c6nc(c(-c7cccc(S(=O)(=O)[O-])c7F)c7ccc4[nH]7)C=C6)C=C5)cc3)C2)c1
REMARK SMILES IDX 19 1 18 2 17 3 15 4 16 5 14 7 13 8 9 9 10 10 88 11 11 12
REMARK SMILES IDX 12 13 6 14 7 15 8 16 5 17 1 18 2 19 3 20 89 21 4 22 20 23
REMARK SMILES IDX 21 24 22 25 23 26 24 28 25 29 26 30 87 31 27 32 86 33 28 34
REMARK SMILES IDX 29 35 30 36 80 37 31 38 85 39 79 40 81 41 32 42 84 43 78 44
REMARK SMILES IDX 77 45 33 47 65 48 45 49 64 50 46 51 49 52 63 53 82 54 47 55
REMARK SMILES IDX 48 56 62 58 83 59 50 60 34 61 35 62 43 63 36 64 38 65 44 66
REMARK SMILES IDX 37 67 39 68 40 69 41 70 42 71 66 72 67 73 75 74 68 75 70 76
REMARK SMILES IDX 76 77 69 78 71 79 72 80 73 81 74 82 51 83 52 84 60 85 53 86
REMARK SMILES IDX 55 87 61 88 54 89 56 90 57 91 58 92 59 93
REMARK H PARENT 17 6 22 27 81 46 49 57
REMARK Flexibility Score: inf
ROOT
ATOM      1  C   UNL A   1      37.538  21.083  24.696  1.00  0.00     0.023 C 
ENDROOT
BRANCH   1   2
ATOM      2  C   UNL A   1      36.170  21.033  25.375  1.00  0.00     0.116 C 
BRANCH   2   3
ATOM      3  N   UNL A   1      35.415  19.851  24.998  1.00  0.00    -0.356 N 
ATOM      4  C   UNL A   1      34.082  19.610  25.129  1.00  0.00     0.222 C 
ATOM      5  O   UNL A   1      33.628  18.523  24.780  1.00  0.00    -0.275 OA
ATOM      6  H   UNL A   1      35.940  19.125  24.591  1.00  0.00     0.163 HD
BRANCH   4   7
ATOM      7  C   UNL A   1      33.192  20.676  25.710  1.00  0.00     0.133 C 
BRANCH   7   8
ATOM      8  C   UNL A   1      32.063  21.026  24.735  1.00  0.00     0.142 C 
ATOM      9  N   UNL A   1      32.782  23.291  24.195  1.00  0.00    -0.193 NA
ATOM     10  C   UNL A   1      31.583  23.864  24.828  1.00  0.00     0.131 C 
ATOM     11  C   UNL A   1      32.543  21.965  23.605  1.00  0.00     0.135 C 
ATOM     12  C   UNL A   1      31.144  22.904  25.938  1.00  0.00     0.177 C 
ATOM     13  O   UNL A   1      30.919  21.575  25.439  1.00  0.00    -0.375 OA
BRANCH   9  14
ATOM     14  S   UNL A   1      33.993  24.290  23.635  1.00  0.00     0.244 S 
ATOM     15  O   UNL A   1      33.774  24.541  22.228  1.00  0.00    -0.207 OA
ATOM     16  O   UNL A   1      35.267  23.871  24.169  1.00  0.00    -0.207 OA
BRANCH  14  17
ATOM     17  C   UNL A   1      33.718  25.825  24.393  1.00  0.00     0.100 A 
ATOM     18  C   UNL A   1      32.812  29.327  24.459  1.00  0.00     0.149 C 
ATOM     19  N   UNL A   1      33.211  27.963  24.715  1.00  0.00    -0.356 N 
ATOM     20  C   UNL A   1      33.655  27.476  25.917  1.00  0.00     0.086 A 
ATOM     21  C   UNL A   1      33.223  26.963  23.784  1.00  0.00     0.106 A 
ATOM     22  C   UNL A   1      33.975  26.144  25.748  1.00  0.00     0.041 A 
ENDBRANCH  14  17
ENDBRANCH   9  14
ENDBRANCH   7   8
ENDBRANCH   4   7
ENDBRANCH   2   3
ENDBRANCH   1   2
BRANCH   1  23
ATOM     23  C   UNL A   1      38.374  19.810  24.841  1.00  0.00     0.023 C 
BRANCH  23  24
ATOM     24  C   UNL A   1      39.172  19.699  26.135  1.00  0.00     0.116 C 
BRANCH  24  25
ATOM     25  N   UNL A   1      40.413  18.956  25.972  1.00  0.00    -0.352 N 
ATOM     26  C   UNL A   1      41.706  19.420  26.029  1.00  0.00     0.251 C 
ATOM     27  H   UNL A   1      40.314  17.992  25.800  1.00  0.00     0.163 HD
ATOM     28  O   UNL A   1      42.641  18.675  25.750  1.00  0.00    -0.269 OA
BRANCH  26  29
ATOM     29  C   UNL A   1      41.958  20.830  26.397  1.00  0.00     0.039 A 
ATOM     30  C   UNL A   1      42.279  21.134  27.723  1.00  0.00     0.014 A 
ATOM     31  C   UNL A   1      41.910  21.838  25.431  1.00  0.00     0.014 A 
ATOM     32  C   UNL A   1      42.620  22.444  28.066  1.00  0.00     0.010 A 
ATOM     33  C   UNL A   1      42.311  23.127  25.763  1.00  0.00     0.010 A 
ATOM     34  C   UNL A   1      42.671  23.443  27.082  1.00  0.00    -0.014 A 
BRANCH  34  35
ATOM     35  C   UNL A   1      43.122  24.822  27.396  1.00  0.00     0.031 A 
ATOM     36  C   UNL A   1      42.165  25.810  28.003  1.00  0.00     0.074 A 
ATOM     37  C   UNL A   1      44.353  25.220  27.017  1.00  0.00     0.049 A 
ATOM     38  N   UNL A   1      42.342  27.081  28.252  1.00  0.00    -0.248 NA
ATOM     39  C   UNL A   1      40.823  25.311  28.343  1.00  0.00     0.031 C 
ATOM     40  C   UNL A   1      45.339  24.382  26.331  1.00  0.00     0.029 A 
ATOM     41  N   UNL A   1      44.969  26.444  27.115  1.00  0.00    -0.354 N 
ATOM     42  C   UNL A   1      41.123  27.545  28.731  1.00  0.00     0.074 A 
ATOM     43  C   UNL A   1      40.208  26.425  28.716  1.00  0.00     0.031 C 
ATOM     44  C   UNL A   1      46.427  25.119  26.056  1.00  0.00     0.029 A 
ATOM     45  C   UNL A   1      46.211  26.483  26.527  1.00  0.00     0.049 A 
ATOM     46  H   UNL A   1      44.560  27.218  27.565  1.00  0.00     0.167 HD
ATOM     47  C   UNL A   1      40.802  28.786  29.168  1.00  0.00     0.034 A 
ATOM     48  C   UNL A   1      47.075  27.506  26.373  1.00  0.00     0.034 A 
ATOM     49  C   UNL A   1      41.734  29.877  29.246  1.00  0.00     0.049 A 
ATOM     50  C   UNL A   1      46.725  28.853  26.943  1.00  0.00     0.074 A 
ATOM     51  C   UNL A   1      41.543  31.132  29.796  1.00  0.00     0.029 A 
ATOM     52  N   UNL A   1      43.030  29.847  28.757  1.00  0.00    -0.354 N 
ATOM     53  N   UNL A   1      45.634  29.224  27.569  1.00  0.00    -0.248 NA
ATOM     54  C   UNL A   1      47.737  29.913  26.822  1.00  0.00     0.031 C 
ATOM     55  C   UNL A   1      42.723  31.865  29.632  1.00  0.00     0.029 A 
ATOM     56  C   UNL A   1      43.650  31.062  28.985  1.00  0.00     0.049 A 
ATOM     57  H   UNL A   1      43.448  29.074  28.313  1.00  0.00     0.167 HD
ATOM     58  C   UNL A   1      45.838  30.548  27.941  1.00  0.00     0.074 A 
ATOM     59  C   UNL A   1      47.166  30.909  27.489  1.00  0.00     0.031 C 
ATOM     60  C   UNL A   1      44.994  31.392  28.583  1.00  0.00     0.034 A 
BRANCH  47  61
ATOM     61  C   UNL A   1      39.399  29.009  29.663  1.00  0.00     0.023 A 
ATOM     62  C   UNL A   1      39.050  28.591  30.963  1.00  0.00     0.012 A 
ATOM     63  C   UNL A   1      38.442  29.672  28.869  1.00  0.00     0.148 A 
ATOM     64  C   UNL A   1      37.762  28.801  31.455  1.00  0.00     0.002 A 
ATOM     65  C   UNL A   1      37.172  29.912  29.382  1.00  0.00     0.091 A 
ATOM     66  F   UNL A   1      38.782  30.038  27.625  1.00  0.00    -0.205 F 
ATOM     67  C   UNL A   1      36.828  29.469  30.669  1.00  0.00     0.022 A 
BRANCH  65  68
ATOM     68  S   UNL A   1      35.928  30.829  28.466  1.00  0.00     0.127 S 
ATOM     69  O   UNL A   1      36.679  32.013  28.051  1.00  0.00    -0.237 OA
ATOM     70  O   UNL A   1      35.595  29.907  27.380  1.00  0.00    -0.237 OA
ATOM     71  O   UNL A   1      34.842  31.067  29.408  1.00  0.00    -0.744 OA
ENDBRANCH  65  68
ENDBRANCH  47  61
BRANCH  48  72
ATOM     72  C   UNL A   1      48.389  27.265  25.713  1.00  0.00     0.023 A 
ATOM     73  C   UNL A   1      49.456  26.749  26.472  1.00  0.00     0.012 A 
ATOM     74  C   UNL A   1      48.569  27.485  24.334  1.00  0.00     0.148 A 
ATOM     75  C   UNL A   1      50.686  26.475  25.875  1.00  0.00     0.002 A 
ATOM     76  C   UNL A   1      49.781  27.161  23.735  1.00  0.00     0.091 A 
ATOM     77  F   UNL A   1      47.546  27.991  23.631  1.00  0.00    -0.205 F 
ATOM     78  C   UNL A   1      50.845  26.669  24.505  1.00  0.00     0.022 A 
BRANCH  76  79
ATOM     79  S   UNL A   1      50.026  27.250  21.957  1.00  0.00     0.127 S 
ATOM     80  O   UNL A   1      51.396  26.766  21.818  1.00  0.00    -0.237 OA
ATOM     81  O   UNL A   1      48.995  26.335  21.460  1.00  0.00    -0.237 OA
ATOM     82  O   UNL A   1      49.803  28.646  21.603  1.00  0.00    -0.744 OA
ENDBRANCH  76  79
ENDBRANCH  48  72
BRANCH  60  83
ATOM     83  C   UNL A   1      45.475  32.790  28.861  1.00  0.00     0.023 A 
ATOM     84  C   UNL A   1      46.244  33.042  30.013  1.00  0.00     0.012 A 
ATOM     85  C   UNL A   1      45.253  33.828  27.935  1.00  0.00     0.148 A 
ATOM     86  C   UNL A   1      46.768  34.311  30.251  1.00  0.00     0.002 A 
ATOM     87  C   UNL A   1      45.813  35.081  28.159  1.00  0.00     0.091 A 
ATOM     88  F   UNL A   1      44.500  33.573  26.855  1.00  0.00    -0.205 F 
ATOM     89  C   UNL A   1      46.565  35.326  29.320  1.00  0.00     0.022 A 
BRANCH  87  90
ATOM     90  S   UNL A   1      45.678  36.418  26.966  1.00  0.00     0.127 S 
ATOM     91  O   UNL A   1      46.479  37.465  27.597  1.00  0.00    -0.237 OA
ATOM     92  O   UNL A   1      46.278  35.831  25.767  1.00  0.00    -0.237 OA
ATOM     93  O   UNL A   1      44.254  36.702  26.846  1.00  0.00    -0.744 OA
ENDBRANCH  87  90
ENDBRANCH  60  83
ENDBRANCH  34  35
ENDBRANCH  26  29
ENDBRANCH  24  25
ENDBRANCH  23  24
ENDBRANCH   1  23
TORSDOF 17
ENDMDL
MODEL 3
REMARK VINA RESULT:     -11.5      2.575      3.722
REMARK SMILES Cn1ccc(S(=O)(=O)N2CCO[C@H](CC(=O)NCCCCNC(=O)c3ccc(-c4c5nc(c(-c6cccc(S(=O)(=O)[O-])c6F)c6ccc([nH]6)c(-c6cccc(S(=O)(=O)[O-])c6F)c6nc(c(-c7cccc(S(=O)(=O)[O-])c7F)c7ccc4[nH]7)C=C6)C=C5)cc3)C2)c1
REMARK SMILES IDX 19 1 18 2 17 3 15 4 16 5 14 7 13 8 9 9 10 10 88 11 11 12
REMARK SMILES IDX 12 13 6 14 7 15 8 16 5 17 1 18 2 19 3 20 89 21 4 22 20 23
REMARK SMILES IDX 21 24 22 25 23 26 24 28 25 29 26 30 87 31 27 32 86 33 28 34
REMARK SMILES IDX 29 35 30 36 80 37 31 38 85 39 79 40 81 41 32 42 84 43 78 44
REMARK SMILES IDX 77 45 33 47 65 48 45 49 64 50 46 51 49 52 63 53 82 54 47 55
REMARK SMILES IDX 48 56 62 58 83 59 50 60 34 61 35 62 43 63 36 64 38 65 44 66
REMARK SMILES IDX 37 67 39 68 40 69 41 70 42 71 66 72 67 73 75 74 68 75 70 76
REMARK SMILES IDX 76 77 69 78 71 79 72 80 73 81 74 82 51 83 52 84 60 85 53 86
REMARK SMILES IDX 55 87 61 88 54 89 56 90 57 91 58 92 59 93
REMARK H PARENT 17 6 22 27 81 46 49 57
REMARK Flexibility Score: inf
ROOT
ATOM      1  C   UNL A   1      31.784  28.687  23.157  1.00  0.00     0.023 C 
ENDROOT
BRANCH   1   2
ATOM      2  C   UNL A   1      31.449  27.213  22.934  1.00  0.00     0.116 C 
BRANCH   2   3
ATOM      3  N   UNL A   1      32.060  26.688  21.726  1.00  0.00    -0.356 N 
ATOM      4  C   UNL A   1      32.813  25.566  21.566  1.00  0.00     0.222 C 
ATOM      5  O   UNL A   1      33.277  25.303  20.460  1.00  0.00    -0.275 OA
ATOM      6  H   UNL A   1      31.908  27.218  20.911  1.00  0.00     0.163 HD
BRANCH   4   7
ATOM      7  C   UNL A   1      33.070  24.674  22.752  1.00  0.00     0.133 C 
BRANCH   7   8
ATOM      8  C   UNL A   1      33.650  23.330  22.299  1.00  0.00     0.142 C 
ATOM      9  N   UNL A   1      33.570  22.193  24.452  1.00  0.00    -0.193 NA
ATOM     10  C   UNL A   1      35.038  22.110  24.508  1.00  0.00     0.131 C 
ATOM     11  C   UNL A   1      33.042  22.143  23.079  1.00  0.00     0.135 C 
ATOM     12  C   UNL A   1      35.597  23.302  23.724  1.00  0.00     0.177 C 
ATOM     13  O   UNL A   1      35.099  23.336  22.375  1.00  0.00    -0.375 OA
BRANCH   9  14
ATOM     14  S   UNL A   1      32.653  21.707  25.757  1.00  0.00     0.244 S 
ATOM     15  O   UNL A   1      33.508  21.621  26.919  1.00  0.00    -0.207 OA
ATOM     16  O   UNL A   1      31.753  20.648  25.364  1.00  0.00    -0.207 OA
BRANCH  14  17
ATOM     17  C   UNL A   1      31.593  23.036  26.101  1.00  0.00     0.100 A 
ATOM     18  C   UNL A   1      30.653  26.528  26.219  1.00  0.00     0.149 C 
ATOM     19  N   UNL A   1      30.769  25.090  26.285  1.00  0.00    -0.356 N 
ATOM     20  C   UNL A   1      29.856  24.244  26.862  1.00  0.00     0.086 A 
ATOM     21  C   UNL A   1      31.820  24.366  25.798  1.00  0.00     0.106 A 
ATOM     22  C   UNL A   1      30.341  22.956  26.758  1.00  0.00     0.041 A 
ENDBRANCH  14  17
ENDBRANCH   9  14
ENDBRANCH   7   8
ENDBRANCH   4   7
ENDBRANCH   2   3
ENDBRANCH   1   2
BRANCH   1  23
ATOM     23  C   UNL A   1      33.181  28.950  23.722  1.00  0.00     0.023 C 
BRANCH  23  24
ATOM     24  C   UNL A   1      33.268  29.002  25.243  1.00  0.00     0.116 C 
BRANCH  24  25
ATOM     25  N   UNL A   1      32.685  30.213  25.801  1.00  0.00    -0.352 N 
ATOM     26  C   UNL A   1      33.161  31.005  26.819  1.00  0.00     0.251 C 
ATOM     27  H   UNL A   1      31.837  30.505  25.396  1.00  0.00     0.163 HD
ATOM     28  O   UNL A   1      32.480  31.932  27.249  1.00  0.00    -0.269 OA
BRANCH  26  29
ATOM     29  C   UNL A   1      34.484  30.713  27.411  1.00  0.00     0.039 A 
ATOM     30  C   UNL A   1      35.353  31.775  27.680  1.00  0.00     0.014 A 
ATOM     31  C   UNL A   1      34.848  29.403  27.729  1.00  0.00     0.014 A 
ATOM     32  C   UNL A   1      36.562  31.528  28.332  1.00  0.00     0.010 A 
ATOM     33  C   UNL A   1      36.023  29.168  28.435  1.00  0.00     0.010 A 
ATOM     34  C   UNL A   1      36.891  30.227  28.745  1.00  0.00    -0.014 A 
BRANCH  34  35
ATOM     35  C   UNL A   1      38.123  29.946  29.524  1.00  0.00     0.031 A 
ATOM     36  C   UNL A   1      39.166  29.012  28.977  1.00  0.00     0.074 A 
ATOM     37  C   UNL A   1      38.241  30.430  30.777  1.00  0.00     0.049 A 
ATOM     38  N   UNL A   1      40.252  28.565  29.549  1.00  0.00    -0.248 NA
ATOM     39  C   UNL A   1      38.939  28.484  27.622  1.00  0.00     0.031 C 
ATOM     40  C   UNL A   1      37.250  31.268  31.456  1.00  0.00     0.029 A 
ATOM     41  N   UNL A   1      39.225  30.251  31.717  1.00  0.00    -0.354 N 
ATOM     42  C   UNL A   1      40.814  27.669  28.648  1.00  0.00     0.074 A 
ATOM     43  C   UNL A   1      39.936  27.618  27.500  1.00  0.00     0.031 C 
ATOM     44  C   UNL A   1      37.668  31.517  32.707  1.00  0.00     0.029 A 
ATOM     45  C   UNL A   1      38.944  30.842  32.927  1.00  0.00     0.049 A 
ATOM     46  H   UNL A   1      40.053  29.749  31.542  1.00  0.00     0.167 HD
ATOM     47  C   UNL A   1      41.969  26.972  28.756  1.00  0.00     0.034 A 
ATOM     48  C   UNL A   1      39.630  30.832  34.087  1.00  0.00     0.034 A 
ATOM     49  C   UNL A   1      42.873  27.079  29.868  1.00  0.00     0.049 A 
ATOM     50  C   UNL A   1      40.952  30.117  34.151  1.00  0.00     0.074 A 
ATOM     51  C   UNL A   1      44.129  26.518  30.011  1.00  0.00     0.029 A 
ATOM     52  N   UNL A   1      42.617  27.790  31.029  1.00  0.00    -0.354 N 
ATOM     53  N   UNL A   1      41.562  29.430  33.215  1.00  0.00    -0.248 NA
ATOM     54  C   UNL A   1      41.700  30.207  35.413  1.00  0.00     0.031 C 
ATOM     55  C   UNL A   1      44.630  26.883  31.265  1.00  0.00     0.029 A 
ATOM     56  C   UNL A   1      43.687  27.678  31.898  1.00  0.00     0.049 A 
ATOM     57  H   UNL A   1      41.795  28.301  31.208  1.00  0.00     0.167 HD
ATOM     58  C   UNL A   1      42.775  29.030  33.764  1.00  0.00     0.074 A 
ATOM     59  C   UNL A   1      42.823  29.570  35.108  1.00  0.00     0.031 C 
ATOM     60  C   UNL A   1      43.750  28.269  33.211  1.00  0.00     0.034 A 
BRANCH  47  61
ATOM     61  C   UNL A   1      42.357  26.083  27.605  1.00  0.00     0.023 A 
ATOM     62  C   UNL A   1      43.180  26.596  26.583  1.00  0.00     0.012 A 
ATOM     63  C   UNL A   1      41.952  24.735  27.557  1.00  0.00     0.148 A 
ATOM     64  C   UNL A   1      43.570  25.790  25.513  1.00  0.00     0.002 A 
ATOM     65  C   UNL A   1      42.377  23.927  26.507  1.00  0.00     0.091 A 
ATOM     66  F   UNL A   1      41.146  24.271  28.522  1.00  0.00    -0.205 F 
ATOM     67  C   UNL A   1      43.177  24.456  25.481  1.00  0.00     0.022 A 
BRANCH  65  68
ATOM     68  S   UNL A   1      41.977  22.178  26.422  1.00  0.00     0.127 S 
ATOM     69  O   UNL A   1      42.710  21.765  25.226  1.00  0.00    -0.237 OA
ATOM     70  O   UNL A   1      42.529  21.669  27.679  1.00  0.00    -0.237 OA
ATOM     71  O   UNL A   1      40.525  22.109  26.330  1.00  0.00    -0.744 OA
ENDBRANCH  65  68
ENDBRANCH  47  61
BRANCH  48  72
ATOM     72  C   UNL A   1      39.106  31.592  35.257  1.00  0.00     0.023 A 
ATOM     73  C   UNL A   1      38.252  30.945  36.170  1.00  0.00     0.012 A 
ATOM     74  C   UNL A   1      39.495  32.922  35.503  1.00  0.00     0.148 A 
ATOM     75  C   UNL A   1      37.776  31.616  37.296  1.00  0.00     0.002 A 
ATOM     76  C   UNL A   1      39.059  33.568  36.654  1.00  0.00     0.091 A 
ATOM     77  F   UNL A   1      40.298  33.525  34.614  1.00  0.00    -0.205 F 
ATOM     78  C   UNL A   1      38.189  32.923  37.545  1.00  0.00     0.022 A 
BRANCH  76  79
ATOM     79  S   UNL A   1      39.652  35.199  37.121  1.00  0.00     0.127 S 
ATOM     80  O   UNL A   1      38.953  35.423  38.383  1.00  0.00    -0.237 OA
ATOM     81  O   UNL A   1      41.094  34.977  37.245  1.00  0.00    -0.237 OA
ATOM     82  O   UNL A   1      39.278  36.078  36.020  1.00  0.00    -0.744 OA
ENDBRANCH  76  79
ENDBRANCH  48  72
BRANCH  60  83
ATOM     83  C   UNL A   1      44.972  27.983  34.040  1.00  0.00     0.023 A 
ATOM     84  C   UNL A   1      46.062  28.874  33.999  1.00  0.00     0.012 A 
ATOM     85  C   UNL A   1      45.002  26.892  34.931  1.00  0.00     0.148 A 
ATOM     86  C   UNL A   1      47.173  28.673  34.817  1.00  0.00     0.002 A 
ATOM     87  C   UNL A   1      46.096  26.721  35.773  1.00  0.00     0.091 A 
ATOM     88  F   UNL A   1      43.964  26.043  34.939  1.00  0.00    -0.205 F 
ATOM     89  C   UNL A   1      47.184  27.606  35.712  1.00  0.00     0.022 A 
BRANCH  87  90
ATOM     90  S   UNL A   1      46.152  25.428  37.020  1.00  0.00     0.127 S 
ATOM     91  O   UNL A   1      46.060  24.220  36.202  1.00  0.00    -0.237 OA
ATOM     92  O   UNL A   1      47.460  25.647  37.639  1.00  0.00    -0.237 OA
ATOM     93  O   UNL A   1      45.020  25.677  37.903  1.00  0.00    -0.744 OA
ENDBRANCH  87  90
ENDBRANCH  60  83
ENDBRANCH  34  35
ENDBRANCH  26  29
ENDBRANCH  24  25
ENDBRANCH  23  24
ENDBRANCH   1  23
TORSDOF 17
ENDMDL
