MODEL 1
REMARK VINA RESULT:     -12.1      0.000      0.000
REMARK SMILES CO[C@@H]1C[C@@H](C(=O)NCCCCNC(=O)c2ccc(-c3c4nc(c(-c5cccc(S(=O)(=O)[O-])c5F)c5ccc([nH]5)c(-c5cccc(S(=O)(=O)[O-])c5F)c5nc(c(-c6cccc(S(=O)(=O)[O-])c6F)c6ccc3[nH]6)C=C5)C=C4)cc2)N(S(=O)(=O)c2ccc(Cl)cc2F)C1
REMARK SMILES IDX 11 1 10 2 9 3 8 4 6 5 7 6 5 8 3 9 4 10 91 11 79 12 2 13 1 14
REMARK SMILES IDX 80 15 81 16 82 17 83 18 84 19 89 20 85 21 88 22 90 23 86 24
REMARK SMILES IDX 87 25 12 26 13 27 14 28 15 30 16 31 17 32 78 33 18 34 77 35
REMARK SMILES IDX 19 36 20 37 21 38 71 39 22 40 76 41 70 42 72 43 23 44 75 45
REMARK SMILES IDX 69 46 68 47 24 49 56 50 36 51 55 52 37 53 40 54 54 55 73 56
REMARK SMILES IDX 38 57 39 58 53 60 74 61 41 62 25 63 26 64 34 65 27 66 29 67
REMARK SMILES IDX 35 68 28 69 30 70 31 71 32 72 33 73 57 74 58 75 66 76 59 77
REMARK SMILES IDX 61 78 67 79 60 80 62 81 63 82 64 83 65 84 42 85 43 86 51 87
REMARK SMILES IDX 44 88 46 89 52 90 45 91 47 92 48 93 49 94 50 95
REMARK H PARENT 8 7 13 29 72 48 40 59
REMARK Flexibility Score: inf
ROOT
ATOM      1  C   UNL A   1      37.412  19.448  24.962  1.00  0.00     0.023 C 
ENDROOT
BRANCH   1   2
ATOM      2  C   UNL A   1      36.135  20.280  24.845  1.00  0.00     0.023 C 
BRANCH   2   3
ATOM      3  C   UNL A   1      36.279  21.729  25.301  1.00  0.00     0.116 C 
BRANCH   3   4
ATOM      4  N   UNL A   1      35.481  22.031  26.465  1.00  0.00    -0.355 N 
ATOM      5  C   UNL A   1      34.487  22.930  26.673  1.00  0.00     0.238 C 
ATOM      6  O   UNL A   1      33.852  22.798  27.727  1.00  0.00    -0.273 OA
ATOM      7  H   UNL A   1      35.700  21.485  27.255  1.00  0.00     0.163 HD
BRANCH   5   8
ATOM      8  C   UNL A   1      34.024  23.959  25.653  1.00  0.00     0.165 C 
ATOM      9  C   UNL A   1      33.098  25.912  24.653  1.00  0.00     0.135 C 
ATOM     10  C   UNL A   1      33.304  25.254  26.011  1.00  0.00     0.064 C 
ATOM     11  C   UNL A   1      33.026  24.750  23.645  1.00  0.00     0.135 C 
ATOM     12  N   UNL A   1      33.279  23.477  24.431  1.00  0.00    -0.183 NA
BRANCH   9  13
ATOM     13  O   UNL A   1      34.070  26.921  24.341  1.00  0.00    -0.380 OA
ATOM     14  C   UNL A   1      33.654  28.279  24.319  1.00  0.00     0.195 C 
ENDBRANCH   9  13
BRANCH  12  15
ATOM     15  S   UNL A   1      31.831  22.558  24.639  1.00  0.00     0.246 S 
ATOM     16  O   UNL A   1      31.334  22.818  25.972  1.00  0.00    -0.207 OA
ATOM     17  O   UNL A   1      30.992  22.892  23.499  1.00  0.00    -0.207 OA
BRANCH  15  18
ATOM     18  C   UNL A   1      32.226  20.851  24.471  1.00  0.00     0.118 A 
ATOM     19  C   UNL A   1      32.559  20.099  25.605  1.00  0.00     0.026 A 
ATOM     20  C   UNL A   1      32.309  20.266  23.211  1.00  0.00     0.144 A 
ATOM     21  C   UNL A   1      32.866  18.742  25.473  1.00  0.00     0.022 A 
ATOM     22  C   UNL A   1      32.574  18.904  23.076  1.00  0.00     0.061 A 
ATOM     23  F   UNL A   1      32.056  20.971  22.101  1.00  0.00    -0.205 F 
ATOM     24  C   UNL A   1      32.837  18.143  24.213  1.00  0.00     0.044 A 
ATOM     25  Cl  UNL A   1      33.117  16.453  24.069  1.00  0.00    -0.084 Cl
ENDBRANCH  15  18
ENDBRANCH  12  15
ENDBRANCH   5   8
ENDBRANCH   3   4
ENDBRANCH   2   3
ENDBRANCH   1   2
BRANCH   1  26
ATOM     26  C   UNL A   1      38.560  20.118  25.706  1.00  0.00     0.116 C 
BRANCH  26  27
ATOM     27  N   UNL A   1      39.781  19.322  25.722  1.00  0.00    -0.352 N 
ATOM     28  C   UNL A   1      41.044  19.711  26.104  1.00  0.00     0.251 C 
ATOM     29  H   UNL A   1      39.692  18.388  25.423  1.00  0.00     0.163 HD
ATOM     30  O   UNL A   1      41.999  18.953  25.974  1.00  0.00    -0.269 OA
BRANCH  28  31
ATOM     31  C   UNL A   1      41.232  21.077  26.629  1.00  0.00     0.039 A 
ATOM     32  C   UNL A   1      41.888  21.245  27.848  1.00  0.00     0.014 A 
ATOM     33  C   UNL A   1      40.851  22.182  25.863  1.00  0.00     0.014 A 
ATOM     34  C   UNL A   1      42.245  22.529  28.262  1.00  0.00     0.010 A 
ATOM     35  C   UNL A   1      41.270  23.452  26.244  1.00  0.00     0.010 A 
ATOM     36  C   UNL A   1      41.985  23.635  27.437  1.00  0.00    -0.014 A 
BRANCH  36  37
ATOM     37  C   UNL A   1      42.509  24.985  27.767  1.00  0.00     0.031 A 
ATOM     38  C   UNL A   1      41.605  26.020  28.376  1.00  0.00     0.074 A 
ATOM     39  C   UNL A   1      43.767  25.312  27.407  1.00  0.00     0.049 A 
ATOM     40  N   UNL A   1      41.852  27.277  28.634  1.00  0.00    -0.248 NA
ATOM     41  C   UNL A   1      40.237  25.595  28.716  1.00  0.00     0.031 C 
ATOM     42  C   UNL A   1      44.715  24.419  26.737  1.00  0.00     0.029 A 
ATOM     43  N   UNL A   1      44.450  26.499  27.513  1.00  0.00    -0.354 N 
ATOM     44  C   UNL A   1      40.665  27.805  29.124  1.00  0.00     0.074 A 
ATOM     45  C   UNL A   1      39.690  26.735  29.115  1.00  0.00     0.031 C 
ATOM     46  C   UNL A   1      45.848  25.091  26.480  1.00  0.00     0.029 A 
ATOM     47  C   UNL A   1      45.695  26.472  26.925  1.00  0.00     0.049 A 
ATOM     48  H   UNL A   1      44.086  27.293  27.966  1.00  0.00     0.167 HD
ATOM     49  C   UNL A   1      40.414  29.063  29.556  1.00  0.00     0.034 A 
ATOM     50  C   UNL A   1      46.598  27.453  26.735  1.00  0.00     0.034 A 
ATOM     51  C   UNL A   1      41.394  30.112  29.597  1.00  0.00     0.049 A 
ATOM     52  C   UNL A   1      46.298  28.836  27.249  1.00  0.00     0.074 A 
ATOM     53  C   UNL A   1      41.265  31.386  30.122  1.00  0.00     0.029 A 
ATOM     54  N   UNL A   1      42.674  30.025  29.073  1.00  0.00    -0.354 N 
ATOM     55  N   UNL A   1      45.232  29.268  27.877  1.00  0.00    -0.248 NA
ATOM     56  C   UNL A   1      47.336  29.859  27.055  1.00  0.00     0.031 C 
ATOM     57  C   UNL A   1      42.449  32.084  29.874  1.00  0.00     0.029 A 
ATOM     58  C   UNL A   1      43.333  31.232  29.234  1.00  0.00     0.049 A 
ATOM     59  H   UNL A   1      43.057  29.224  28.648  1.00  0.00     0.167 HD
ATOM     60  C   UNL A   1      45.480  30.602  28.176  1.00  0.00     0.074 A 
ATOM     61  C   UNL A   1      46.811  30.899  27.688  1.00  0.00     0.031 C 
ATOM     62  C   UNL A   1      44.674  31.505  28.784  1.00  0.00     0.034 A 
BRANCH  49  63
ATOM     63  C   UNL A   1      39.028  29.378  30.053  1.00  0.00     0.023 A 
ATOM     64  C   UNL A   1      38.665  29.052  31.375  1.00  0.00     0.012 A 
ATOM     65  C   UNL A   1      38.120  30.082  29.238  1.00  0.00     0.148 A 
ATOM     66  C   UNL A   1      37.409  29.403  31.871  1.00  0.00     0.002 A 
ATOM     67  C   UNL A   1      36.890  30.469  29.754  1.00  0.00     0.091 A 
ATOM     68  F   UNL A   1      38.479  30.363  27.977  1.00  0.00    -0.205 F 
ATOM     69  C   UNL A   1      36.529  30.121  31.067  1.00  0.00     0.022 A 
BRANCH  67  70
ATOM     70  S   UNL A   1      35.720  31.467  28.828  1.00  0.00     0.127 S 
ATOM     71  O   UNL A   1      36.580  32.535  28.320  1.00  0.00    -0.237 OA
ATOM     72  O   UNL A   1      35.253  30.525  27.811  1.00  0.00    -0.237 OA
ATOM     73  O   UNL A   1      34.705  31.889  29.782  1.00  0.00    -0.744 OA
ENDBRANCH  67  70
ENDBRANCH  49  63
BRANCH  50  74
ATOM     74  C   UNL A   1      47.882  27.166  26.032  1.00  0.00     0.023 A 
ATOM     75  C   UNL A   1      48.980  26.667  26.758  1.00  0.00     0.012 A 
ATOM     76  C   UNL A   1      48.017  27.385  24.647  1.00  0.00     0.148 A 
ATOM     77  C   UNL A   1      50.202  26.431  26.126  1.00  0.00     0.002 A 
ATOM     78  C   UNL A   1      49.216  27.090  24.013  1.00  0.00     0.091 A 
ATOM     79  F   UNL A   1      46.964  27.874  23.976  1.00  0.00    -0.205 F 
ATOM     80  C   UNL A   1      50.318  26.634  24.753  1.00  0.00     0.022 A 
BRANCH  78  81
ATOM     81  S   UNL A   1      49.410  27.192  22.230  1.00  0.00     0.127 S 
ATOM     82  O   UNL A   1      50.851  27.014  22.075  1.00  0.00    -0.237 OA
ATOM     83  O   UNL A   1      48.595  26.065  21.774  1.00  0.00    -0.237 OA
ATOM     84  O   UNL A   1      48.887  28.499  21.853  1.00  0.00    -0.744 OA
ENDBRANCH  78  81
ENDBRANCH  50  74
BRANCH  62  85
ATOM     85  C   UNL A   1      45.210  32.898  28.991  1.00  0.00     0.023 A 
ATOM     86  C   UNL A   1      46.045  33.174  30.092  1.00  0.00     0.012 A 
ATOM     87  C   UNL A   1      44.949  33.913  28.049  1.00  0.00     0.148 A 
ATOM     88  C   UNL A   1      46.585  34.447  30.271  1.00  0.00     0.002 A 
ATOM     89  C   UNL A   1      45.533  35.164  28.205  1.00  0.00     0.091 A 
ATOM     90  F   UNL A   1      44.141  33.634  27.016  1.00  0.00    -0.205 F 
ATOM     91  C   UNL A   1      46.339  35.438  29.322  1.00  0.00     0.022 A 
BRANCH  89  92
ATOM     92  S   UNL A   1      45.354  36.472  26.986  1.00  0.00     0.127 S 
ATOM     93  O   UNL A   1      45.902  37.623  27.703  1.00  0.00    -0.237 OA
ATOM     94  O   UNL A   1      46.189  35.984  25.887  1.00  0.00    -0.237 OA
ATOM     95  O   UNL A   1      43.933  36.550  26.680  1.00  0.00    -0.744 OA
ENDBRANCH  89  92
ENDBRANCH  62  85
ENDBRANCH  36  37
ENDBRANCH  28  31
ENDBRANCH  26  27
ENDBRANCH   1  26
TORSDOF 17
ENDMDL
MODEL 2
REMARK VINA RESULT:     -12.0      5.964     11.222
REMARK SMILES CO[C@@H]1C[C@@H](C(=O)NCCCCNC(=O)c2ccc(-c3c4nc(c(-c5cccc(S(=O)(=O)[O-])c5F)c5ccc([nH]5)c(-c5cccc(S(=O)(=O)[O-])c5F)c5nc(c(-c6cccc(S(=O)(=O)[O-])c6F)c6ccc3[nH]6)C=C5)C=C4)cc2)N(S(=O)(=O)c2ccc(Cl)cc2F)C1
REMARK SMILES IDX 11 1 10 2 9 3 8 4 6 5 7 6 5 8 3 9 4 10 91 11 79 12 2 13 1 14
REMARK SMILES IDX 80 15 81 16 82 17 83 18 84 19 89 20 85 21 88 22 90 23 86 24
REMARK SMILES IDX 87 25 12 26 13 27 14 28 15 30 16 31 17 32 78 33 18 34 77 35
REMARK SMILES IDX 19 36 20 37 21 38 71 39 22 40 76 41 70 42 72 43 23 44 75 45
REMARK SMILES IDX 69 46 68 47 24 49 56 50 36 51 55 52 37 53 40 54 54 55 73 56
REMARK SMILES IDX 38 57 39 58 53 60 74 61 41 62 25 63 26 64 34 65 27 66 29 67
REMARK SMILES IDX 35 68 28 69 30 70 31 71 32 72 33 73 57 74 58 75 66 76 59 77
REMARK SMILES IDX 61 78 67 79 60 80 62 81 63 82 64 83 65 84 42 85 43 86 51 87
REMARK SMILES IDX 44 88 46 89 52 90 45 91 47 92 48 93 49 94 50 95
REMARK H PARENT 8 7 13 29 72 48 40 59
REMARK Flexibility Score: inf
ROOT
ATOM      1  C   UNL A   1      31.027  31.939  26.075  1.00  0.00     0.023 C 
ENDROOT
BRANCH   1   2
ATOM      2  C   UNL A   1      31.040  30.585  25.364  1.00  0.00     0.023 C 
BRANCH   2   3
ATOM      3  C   UNL A   1      32.187  29.666  25.775  1.00  0.00     0.116 C 
BRANCH   3   4
ATOM      4  N   UNL A   1      33.102  29.394  24.692  1.00  0.00    -0.355 N 
ATOM      5  C   UNL A   1      33.562  28.232  24.166  1.00  0.00     0.238 C 
ATOM      6  O   UNL A   1      34.177  28.330  23.096  1.00  0.00    -0.273 OA
ATOM      7  H   UNL A   1      33.458  30.201  24.255  1.00  0.00     0.163 HD
BRANCH   5   8
ATOM      8  C   UNL A   1      33.248  26.849  24.716  1.00  0.00     0.165 C 
ATOM      9  C   UNL A   1      33.361  24.525  25.227  1.00  0.00     0.135 C 
ATOM     10  C   UNL A   1      34.083  25.606  24.432  1.00  0.00     0.064 C 
ATOM     11  C   UNL A   1      31.892  24.984  25.293  1.00  0.00     0.135 C 
ATOM     12  N   UNL A   1      31.830  26.341  24.619  1.00  0.00    -0.183 NA
BRANCH   9  13
ATOM     13  O   UNL A   1      33.960  24.239  26.500  1.00  0.00    -0.380 OA
ATOM     14  C   UNL A   1      34.450  22.928  26.739  1.00  0.00     0.195 C 
ENDBRANCH   9  13
BRANCH  12  15
ATOM     15  S   UNL A   1      31.076  26.248  23.066  1.00  0.00     0.246 S 
ATOM     16  O   UNL A   1      32.124  26.177  22.074  1.00  0.00    -0.207 OA
ATOM     17  O   UNL A   1      30.125  25.151  23.162  1.00  0.00    -0.207 OA
BRANCH  15  18
ATOM     18  C   UNL A   1      30.119  27.705  22.824  1.00  0.00     0.118 A 
ATOM     19  C   UNL A   1      30.696  28.820  22.200  1.00  0.00     0.026 A 
ATOM     20  C   UNL A   1      28.828  27.796  23.335  1.00  0.00     0.144 A 
ATOM     21  C   UNL A   1      29.934  29.974  22.001  1.00  0.00     0.022 A 
ATOM     22  C   UNL A   1      28.050  28.930  23.103  1.00  0.00     0.061 A 
ATOM     23  F   UNL A   1      28.268  26.771  23.989  1.00  0.00    -0.205 F 
ATOM     24  C   UNL A   1      28.604  30.010  22.422  1.00  0.00     0.044 A 
ATOM     25  Cl  UNL A   1      27.644  31.396  22.085  1.00  0.00    -0.084 Cl
ENDBRANCH  15  18
ENDBRANCH  12  15
ENDBRANCH   5   8
ENDBRANCH   3   4
ENDBRANCH   2   3
ENDBRANCH   1   2
BRANCH   1  26
ATOM     26  C   UNL A   1      32.280  32.267  26.875  1.00  0.00     0.116 C 
BRANCH  26  27
ATOM     27  N   UNL A   1      32.268  33.609  27.444  1.00  0.00    -0.352 N 
ATOM     28  C   UNL A   1      33.196  34.186  28.280  1.00  0.00     0.251 C 
ATOM     29  H   UNL A   1      31.500  34.174  27.200  1.00  0.00     0.163 HD
ATOM     30  O   UNL A   1      33.003  35.298  28.757  1.00  0.00    -0.269 OA
BRANCH  28  31
ATOM     31  C   UNL A   1      34.406  33.416  28.628  1.00  0.00     0.039 A 
ATOM     32  C   UNL A   1      35.656  33.951  28.316  1.00  0.00     0.014 A 
ATOM     33  C   UNL A   1      34.297  32.226  29.351  1.00  0.00     0.014 A 
ATOM     34  C   UNL A   1      36.807  33.333  28.809  1.00  0.00     0.010 A 
ATOM     35  C   UNL A   1      35.440  31.653  29.899  1.00  0.00     0.010 A 
ATOM     36  C   UNL A   1      36.702  32.211  29.647  1.00  0.00    -0.014 A 
BRANCH  36  37
ATOM     37  C   UNL A   1      37.894  31.642  30.327  1.00  0.00     0.031 A 
ATOM     38  C   UNL A   1      38.705  30.567  29.661  1.00  0.00     0.074 A 
ATOM     39  C   UNL A   1      38.170  32.011  31.595  1.00  0.00     0.049 A 
ATOM     40  N   UNL A   1      39.708  29.880  30.139  1.00  0.00    -0.248 NA
ATOM     41  C   UNL A   1      38.325  30.199  28.286  1.00  0.00     0.031 C 
ATOM     42  C   UNL A   1      37.408  32.987  32.378  1.00  0.00     0.029 A 
ATOM     43  N   UNL A   1      39.141  31.577  32.464  1.00  0.00    -0.354 N 
ATOM     44  C   UNL A   1      40.052  28.970  29.147  1.00  0.00     0.074 A 
ATOM     45  C   UNL A   1      39.141  29.182  28.043  1.00  0.00     0.031 C 
ATOM     46  C   UNL A   1      37.929  33.066  33.612  1.00  0.00     0.029 A 
ATOM     47  C   UNL A   1      39.033  32.119  33.725  1.00  0.00     0.049 A 
ATOM     48  H   UNL A   1      39.847  30.940  32.210  1.00  0.00     0.167 HD
ATOM     49  C   UNL A   1      41.046  28.052  29.150  1.00  0.00     0.034 A 
ATOM     50  C   UNL A   1      39.721  31.861  34.854  1.00  0.00     0.034 A 
ATOM     51  C   UNL A   1      41.972  27.869  30.234  1.00  0.00     0.049 A 
ATOM     52  C   UNL A   1      40.837  30.850  34.818  1.00  0.00     0.074 A 
ATOM     53  C   UNL A   1      43.081  27.042  30.284  1.00  0.00     0.029 A 
ATOM     54  N   UNL A   1      41.887  28.497  31.467  1.00  0.00    -0.354 N 
ATOM     55  N   UNL A   1      41.263  30.130  33.810  1.00  0.00    -0.248 NA
ATOM     56  C   UNL A   1      41.586  30.639  36.066  1.00  0.00     0.031 C 
ATOM     57  C   UNL A   1      43.638  27.135  31.562  1.00  0.00     0.029 A 
ATOM     58  C   UNL A   1      42.905  28.054  32.293  1.00  0.00     0.049 A 
ATOM     59  H   UNL A   1      41.204  29.161  31.716  1.00  0.00     0.167 HD
ATOM     60  C   UNL A   1      42.344  29.401  34.292  1.00  0.00     0.074 A 
ATOM     61  C   UNL A   1      42.526  29.790  35.675  1.00  0.00     0.031 C 
ATOM     62  C   UNL A   1      43.105  28.480  33.655  1.00  0.00     0.034 A 
BRANCH  49  63
ATOM     63  C   UNL A   1      41.214  27.184  27.931  1.00  0.00     0.023 A 
ATOM     64  C   UNL A   1      41.833  27.705  26.778  1.00  0.00     0.012 A 
ATOM     65  C   UNL A   1      40.841  25.826  27.964  1.00  0.00     0.148 A 
ATOM     66  C   UNL A   1      42.060  26.893  25.668  1.00  0.00     0.002 A 
ATOM     67  C   UNL A   1      41.113  25.012  26.873  1.00  0.00     0.091 A 
ATOM     68  F   UNL A   1      40.235  25.357  29.064  1.00  0.00    -0.205 F 
ATOM     69  C   UNL A   1      41.713  25.546  25.720  1.00  0.00     0.022 A 
BRANCH  67  70
ATOM     70  S   UNL A   1      40.781  23.247  26.871  1.00  0.00     0.127 S 
ATOM     71  O   UNL A   1      39.337  23.219  26.642  1.00  0.00    -0.237 OA
ATOM     72  O   UNL A   1      41.586  22.786  25.740  1.00  0.00    -0.237 OA
ATOM     73  O   UNL A   1      41.213  22.753  28.170  1.00  0.00    -0.744 OA
ENDBRANCH  67  70
ENDBRANCH  49  63
BRANCH  50  74
ATOM     74  C   UNL A   1      39.385  32.576  36.119  1.00  0.00     0.023 A 
ATOM     75  C   UNL A   1      39.945  33.842  36.376  1.00  0.00     0.012 A 
ATOM     76  C   UNL A   1      38.512  32.007  37.066  1.00  0.00     0.148 A 
ATOM     77  C   UNL A   1      39.675  34.509  37.572  1.00  0.00     0.002 A 
ATOM     78  C   UNL A   1      38.199  32.702  38.226  1.00  0.00     0.091 A 
ATOM     79  F   UNL A   1      37.999  30.794  36.808  1.00  0.00    -0.205 F 
ATOM     80  C   UNL A   1      38.796  33.944  38.493  1.00  0.00     0.022 A 
BRANCH  78  81
ATOM     81  S   UNL A   1      36.973  32.112  39.398  1.00  0.00     0.127 S 
ATOM     82  O   UNL A   1      37.451  32.694  40.650  1.00  0.00    -0.237 OA
ATOM     83  O   UNL A   1      35.742  32.703  38.871  1.00  0.00    -0.237 OA
ATOM     84  O   UNL A   1      37.020  30.658  39.315  1.00  0.00    -0.744 OA
ENDBRANCH  78  81
ENDBRANCH  50  74
BRANCH  62  85
ATOM     85  C   UNL A   1      44.231  27.843  34.428  1.00  0.00     0.023 A 
ATOM     86  C   UNL A   1      45.494  28.467  34.472  1.00  0.00     0.012 A 
ATOM     87  C   UNL A   1      44.014  26.668  35.173  1.00  0.00     0.148 A 
ATOM     88  C   UNL A   1      46.532  27.913  35.220  1.00  0.00     0.002 A 
ATOM     89  C   UNL A   1      45.037  26.150  35.958  1.00  0.00     0.091 A 
ATOM     90  F   UNL A   1      42.809  26.082  35.105  1.00  0.00    -0.205 F 
ATOM     91  C   UNL A   1      46.301  26.762  35.971  1.00  0.00     0.022 A 
BRANCH  89  92
ATOM     92  S   UNL A   1      44.805  24.731  37.035  1.00  0.00     0.127 S 
ATOM     93  O   UNL A   1      43.815  25.237  37.984  1.00  0.00    -0.237 OA
ATOM     94  O   UNL A   1      44.298  23.720  36.106  1.00  0.00    -0.237 OA
ATOM     95  O   UNL A   1      46.113  24.434  37.601  1.00  0.00    -0.744 OA
ENDBRANCH  89  92
ENDBRANCH  62  85
ENDBRANCH  36  37
ENDBRANCH  28  31
ENDBRANCH  26  27
ENDBRANCH   1  26
TORSDOF 17
ENDMDL
MODEL 3
REMARK VINA RESULT:     -11.9      1.942      3.284
REMARK SMILES CO[C@@H]1C[C@@H](C(=O)NCCCCNC(=O)c2ccc(-c3c4nc(c(-c5cccc(S(=O)(=O)[O-])c5F)c5ccc([nH]5)c(-c5cccc(S(=O)(=O)[O-])c5F)c5nc(c(-c6cccc(S(=O)(=O)[O-])c6F)c6ccc3[nH]6)C=C5)C=C4)cc2)N(S(=O)(=O)c2ccc(Cl)cc2F)C1
REMARK SMILES IDX 11 1 10 2 9 3 8 4 6 5 7 6 5 8 3 9 4 10 91 11 79 12 2 13 1 14
REMARK SMILES IDX 80 15 81 16 82 17 83 18 84 19 89 20 85 21 88 22 90 23 86 24
REMARK SMILES IDX 87 25 12 26 13 27 14 28 15 30 16 31 17 32 78 33 18 34 77 35
REMARK SMILES IDX 19 36 20 37 21 38 71 39 22 40 76 41 70 42 72 43 23 44 75 45
REMARK SMILES IDX 69 46 68 47 24 49 56 50 36 51 55 52 37 53 40 54 54 55 73 56
REMARK SMILES IDX 38 57 39 58 53 60 74 61 41 62 25 63 26 64 34 65 27 66 29 67
REMARK SMILES IDX 35 68 28 69 30 70 31 71 32 72 33 73 57 74 58 75 66 76 59 77
REMARK SMILES IDX 61 78 67 79 60 80 62 81 63 82 64 83 65 84 42 85 43 86 51 87
REMARK SMILES IDX 44 88 46 89 52 90 45 91 47 92 48 93 49 94 50 95
REMARK H PARENT 8 7 13 29 72 48 40 59
REMARK Flexibility Score: inf
ROOT
ATOM      1  C   UNL A   1      36.922  21.463  24.041  1.00  0.00     0.023 C 
ENDROOT
BRANCH   1   2
ATOM      2  C   UNL A   1      36.711  22.710  23.182  1.00  0.00     0.023 C 
BRANCH   2   3
ATOM      3  C   UNL A   1      35.671  23.685  23.726  1.00  0.00     0.116 C 
BRANCH   3   4
ATOM      4  N   UNL A   1      34.409  23.604  23.028  1.00  0.00    -0.355 N 
ATOM      5  C   UNL A   1      33.341  22.784  23.182  1.00  0.00     0.238 C 
ATOM      6  O   UNL A   1      32.318  23.108  22.563  1.00  0.00    -0.273 OA
ATOM      7  H   UNL A   1      34.307  24.266  22.306  1.00  0.00     0.163 HD
BRANCH   5   8
ATOM      8  C   UNL A   1      33.278  21.617  24.154  1.00  0.00     0.165 C 
ATOM      9  C   UNL A   1      32.712  19.549  25.192  1.00  0.00     0.135 C 
ATOM     10  C   UNL A   1      32.363  20.409  23.984  1.00  0.00     0.064 C 
ATOM     11  C   UNL A   1      33.188  20.539  26.271  1.00  0.00     0.135 C 
ATOM     12  N   UNL A   1      33.185  21.914  25.632  1.00  0.00    -0.183 NA
BRANCH   9  13
ATOM     13  O   UNL A   1      33.630  18.484  24.904  1.00  0.00    -0.380 OA
ATOM     14  C   UNL A   1      33.454  17.744  23.704  1.00  0.00     0.195 C 
ENDBRANCH   9  13
BRANCH  12  15
ATOM     15  S   UNL A   1      31.877  22.884  26.211  1.00  0.00     0.246 S 
ATOM     16  O   UNL A   1      30.674  22.441  25.545  1.00  0.00    -0.207 OA
ATOM     17  O   UNL A   1      31.947  22.803  27.662  1.00  0.00    -0.207 OA
BRANCH  15  18
ATOM     18  C   UNL A   1      32.205  24.564  25.800  1.00  0.00     0.118 A 
ATOM     19  C   UNL A   1      31.237  25.316  25.122  1.00  0.00     0.026 A 
ATOM     20  C   UNL A   1      33.455  25.121  26.051  1.00  0.00     0.144 A 
ATOM     21  C   UNL A   1      31.494  26.651  24.803  1.00  0.00     0.022 A 
ATOM     22  C   UNL A   1      33.703  26.465  25.772  1.00  0.00     0.061 A 
ATOM     23  F   UNL A   1      34.425  24.412  26.643  1.00  0.00    -0.205 F 
ATOM     24  C   UNL A   1      32.713  27.230  25.161  1.00  0.00     0.044 A 
ATOM     25  Cl  UNL A   1      32.984  28.899  24.853  1.00  0.00    -0.084 Cl
ENDBRANCH  15  18
ENDBRANCH  12  15
ENDBRANCH   5   8
ENDBRANCH   3   4
ENDBRANCH   2   3
ENDBRANCH   1   2
BRANCH   1  26
ATOM     26  C   UNL A   1      37.667  21.692  25.349  1.00  0.00     0.116 C 
BRANCH  26  27
ATOM     27  N   UNL A   1      38.650  20.656  25.644  1.00  0.00    -0.352 N 
ATOM     28  C   UNL A   1      39.829  20.777  26.341  1.00  0.00     0.251 C 
ATOM     29  H   UNL A   1      38.445  19.756  25.300  1.00  0.00     0.163 HD
ATOM     30  O   UNL A   1      40.605  19.831  26.428  1.00  0.00    -0.269 OA
BRANCH  28  31
ATOM     31  C   UNL A   1      40.162  22.083  26.941  1.00  0.00     0.039 A 
ATOM     32  C   UNL A   1      41.073  22.125  27.997  1.00  0.00     0.014 A 
ATOM     33  C   UNL A   1      39.652  23.260  26.388  1.00  0.00     0.014 A 
ATOM     34  C   UNL A   1      41.544  23.360  28.445  1.00  0.00     0.010 A 
ATOM     35  C   UNL A   1      40.177  24.484  26.788  1.00  0.00     0.010 A 
ATOM     36  C   UNL A   1      41.139  24.544  27.808  1.00  0.00    -0.014 A 
BRANCH  36  37
ATOM     37  C   UNL A   1      41.757  25.853  28.144  1.00  0.00     0.031 A 
ATOM     38  C   UNL A   1      40.939  26.930  28.799  1.00  0.00     0.074 A 
ATOM     39  C   UNL A   1      43.021  26.107  27.749  1.00  0.00     0.049 A 
ATOM     40  N   UNL A   1      41.273  28.164  29.070  1.00  0.00    -0.248 NA
ATOM     41  C   UNL A   1      39.558  26.585  29.176  1.00  0.00     0.031 C 
ATOM     42  C   UNL A   1      43.890  25.169  27.034  1.00  0.00     0.029 A 
ATOM     43  N   UNL A   1      43.781  27.247  27.854  1.00  0.00    -0.354 N 
ATOM     44  C   UNL A   1      40.137  28.755  29.607  1.00  0.00     0.074 A 
ATOM     45  C   UNL A   1      39.097  27.749  29.611  1.00  0.00     0.031 C 
ATOM     46  C   UNL A   1      45.055  25.774  26.752  1.00  0.00     0.029 A 
ATOM     47  C   UNL A   1      45.003  27.153  27.225  1.00  0.00     0.049 A 
ATOM     48  H   UNL A   1      43.481  28.053  28.332  1.00  0.00     0.167 HD
ATOM     49  C   UNL A   1      39.980  30.018  30.069  1.00  0.00     0.034 A 
ATOM     50  C   UNL A   1      45.960  28.079  27.023  1.00  0.00     0.034 A 
ATOM     51  C   UNL A   1      41.025  31.004  30.096  1.00  0.00     0.049 A 
ATOM     52  C   UNL A   1      45.763  29.468  27.570  1.00  0.00     0.074 A 
ATOM     53  C   UNL A   1      40.992  32.273  30.647  1.00  0.00     0.029 A 
ATOM     54  N   UNL A   1      42.280  30.847  29.529  1.00  0.00    -0.354 N 
ATOM     55  N   UNL A   1      44.746  29.954  28.239  1.00  0.00    -0.248 NA
ATOM     56  C   UNL A   1      46.858  30.428  27.360  1.00  0.00     0.031 C 
ATOM     57  C   UNL A   1      42.210  32.900  30.372  1.00  0.00     0.029 A 
ATOM     58  C   UNL A   1      43.018  32.007  29.690  1.00  0.00     0.049 A 
ATOM     59  H   UNL A   1      42.598  30.031  29.079  1.00  0.00     0.167 HD
ATOM     60  C   UNL A   1      45.088  31.264  28.553  1.00  0.00     0.074 A 
ATOM     61  C   UNL A   1      46.419  31.486  28.027  1.00  0.00     0.031 C 
ATOM     62  C   UNL A   1      44.359  32.204  29.202  1.00  0.00     0.034 A 
BRANCH  49  63
ATOM     63  C   UNL A   1      38.632  30.410  30.615  1.00  0.00     0.023 A 
ATOM     64  C   UNL A   1      38.346  30.219  31.981  1.00  0.00     0.012 A 
ATOM     65  C   UNL A   1      37.687  31.054  29.792  1.00  0.00     0.148 A 
ATOM     66  C   UNL A   1      37.130  30.642  32.516  1.00  0.00     0.002 A 
ATOM     67  C   UNL A   1      36.499  31.515  30.342  1.00  0.00     0.091 A 
ATOM     68  F   UNL A   1      37.973  31.206  28.491  1.00  0.00    -0.205 F 
ATOM     69  C   UNL A   1      36.213  31.301  31.701  1.00  0.00     0.022 A 
BRANCH  67  70
ATOM     70  S   UNL A   1      35.290  32.447  29.396  1.00  0.00     0.127 S 
ATOM     71  O   UNL A   1      34.261  32.703  30.403  1.00  0.00    -0.237 OA
ATOM     72  O   UNL A   1      36.059  33.627  28.996  1.00  0.00    -0.237 OA
ATOM     73  O   UNL A   1      34.882  31.583  28.298  1.00  0.00    -0.744 OA
ENDBRANCH  67  70
ENDBRANCH  49  63
BRANCH  50  74
ATOM     74  C   UNL A   1      47.200  27.726  26.275  1.00  0.00     0.023 A 
ATOM     75  C   UNL A   1      48.307  27.198  26.965  1.00  0.00     0.012 A 
ATOM     76  C   UNL A   1      47.286  27.911  24.881  1.00  0.00     0.148 A 
ATOM     77  C   UNL A   1      49.491  26.899  26.289  1.00  0.00     0.002 A 
ATOM     78  C   UNL A   1      48.445  27.555  24.204  1.00  0.00     0.091 A 
ATOM     79  F   UNL A   1      46.225  28.428  24.243  1.00  0.00    -0.205 F 
ATOM     80  C   UNL A   1      49.558  27.070  24.908  1.00  0.00     0.022 A 
BRANCH  78  81
ATOM     81  S   UNL A   1      48.567  27.612  22.413  1.00  0.00     0.127 S 
ATOM     82  O   UNL A   1      49.828  28.324  22.222  1.00  0.00    -0.237 OA
ATOM     83  O   UNL A   1      48.601  26.191  22.068  1.00  0.00    -0.237 OA
ATOM     84  O   UNL A   1      47.370  28.309  21.961  1.00  0.00    -0.744 OA
ENDBRANCH  78  81
ENDBRANCH  50  74
BRANCH  62  85
ATOM     85  C   UNL A   1      44.988  33.556  29.415  1.00  0.00     0.023 A 
ATOM     86  C   UNL A   1      45.747  33.804  30.576  1.00  0.00     0.012 A 
ATOM     87  C   UNL A   1      44.891  34.555  28.426  1.00  0.00     0.148 A 
ATOM     88  C   UNL A   1      46.372  35.036  30.765  1.00  0.00     0.002 A 
ATOM     89  C   UNL A   1      45.560  35.761  28.596  1.00  0.00     0.091 A 
ATOM     90  F   UNL A   1      44.153  34.305  27.335  1.00  0.00    -0.205 F 
ATOM     91  C   UNL A   1      46.289  36.009  29.771  1.00  0.00     0.022 A 
BRANCH  89  92
ATOM     92  S   UNL A   1      45.592  37.035  27.330  1.00  0.00     0.127 S 
ATOM     93  O   UNL A   1      46.394  38.074  27.975  1.00  0.00    -0.237 OA
ATOM     94  O   UNL A   1      46.259  36.350  26.222  1.00  0.00    -0.237 OA
ATOM     95  O   UNL A   1      44.203  37.390  27.077  1.00  0.00    -0.744 OA
ENDBRANCH  89  92
ENDBRANCH  62  85
ENDBRANCH  36  37
ENDBRANCH  28  31
ENDBRANCH  26  27
ENDBRANCH   1  26
TORSDOF 17
ENDMDL
