MODEL 1
REMARK VINA RESULT:     -10.9      0.000      0.000
REMARK SMILES Cc1noc(C)c1CSCC(=O)N1CC[C@H](C(=O)NCCCCNC(=O)c2ccc(-c3c4nc(c(-c5cccc(S(=O)(=O)[O-])c5F)c5ccc([nH]5)c(-c5cccc(S(=O)(=O)[O-])c5F)c5nc(c(-c6cccc(S(=O)(=O)[O-])c6F)c6ccc3[nH]6)C=C5)C=C4)cc2)[C@@H]1C
REMARK SMILES IDX 20 1 19 2 17 3 18 4 16 6 13 7 14 8 90 9 15 10 91 11 11 12
REMARK SMILES IDX 12 13 10 14 9 15 8 16 7 17 1 18 2 19 3 20 4 21 5 22 6 23
REMARK SMILES IDX 21 24 22 25 23 26 24 27 25 28 26 30 27 31 28 32 89 33 29 34
REMARK SMILES IDX 88 35 30 36 31 37 32 38 82 39 33 40 87 41 81 42 83 43 34 44
REMARK SMILES IDX 86 45 80 46 79 47 35 49 67 50 47 51 66 52 48 53 51 54 65 55
REMARK SMILES IDX 84 56 49 57 50 58 64 60 85 61 52 62 36 63 37 64 45 65 38 66
REMARK SMILES IDX 40 67 46 68 39 69 41 70 42 71 43 72 44 73 68 74 69 75 77 76
REMARK SMILES IDX 70 77 72 78 78 79 71 80 73 81 74 82 75 83 76 84 53 85 54 86
REMARK SMILES IDX 62 87 55 88 57 89 63 90 56 91 58 92 59 93 60 94 61 95
REMARK H PARENT 19 5 24 29 83 48 51 59
REMARK Flexibility Score: inf
ROOT
ATOM      1  C   UNL A   1      35.666  21.244  24.620  1.00  0.00     0.116 C 
ENDROOT
BRANCH   1   2
ATOM      2  N   UNL A   1      35.140  21.317  25.967  1.00  0.00    -0.356 N 
ATOM      3  C   UNL A   1      33.964  21.803  26.444  1.00  0.00     0.225 C 
ATOM      4  O   UNL A   1      33.780  21.650  27.649  1.00  0.00    -0.275 OA
ATOM      5  H   UNL A   1      35.737  20.950  26.658  1.00  0.00     0.163 HD
BRANCH   3   6
ATOM      6  C   UNL A   1      32.986  22.503  25.493  1.00  0.00     0.102 C 
ATOM      7  N   UNL A   1      31.851  24.534  26.136  1.00  0.00    -0.338 N 
ATOM      8  C   UNL A   1      31.228  23.425  26.827  1.00  0.00     0.120 C 
ATOM      9  C   UNL A   1      33.039  24.064  25.392  1.00  0.00     0.094 C 
ATOM     10  C   UNL A   1      31.544  22.237  25.941  1.00  0.00     0.037 C 
ATOM     11  C   UNL A   1      34.343  24.670  25.915  1.00  0.00     0.032 C 
BRANCH   7  12
ATOM     12  C   UNL A   1      31.250  25.771  26.220  1.00  0.00     0.232 C 
ATOM     13  O   UNL A   1      31.602  26.571  27.096  1.00  0.00    -0.274 OA
BRANCH  12  14
ATOM     14  C   UNL A   1      30.007  26.094  25.411  1.00  0.00     0.170 C 
BRANCH  14  15
ATOM     15  S   UNL A   1      29.961  25.633  23.672  1.00  0.00    -0.147 SA
BRANCH  15  16
ATOM     16  C   UNL A   1      30.434  27.199  22.871  1.00  0.00     0.111 C 
BRANCH  16  17
ATOM     17  C   UNL A   1      31.895  27.398  22.751  1.00  0.00     0.027 A 
ATOM     18  C   UNL A   1      32.577  25.678  20.898  1.00  0.00     0.071 C 
ATOM     19  C   UNL A   1      32.831  26.733  21.909  1.00  0.00     0.085 A 
ATOM     20  N   UNL A   1      34.079  27.159  22.132  1.00  0.00    -0.085 NA
ATOM     21  O   UNL A   1      33.984  28.089  23.149  1.00  0.00    -0.361 OA
ATOM     22  C   UNL A   1      32.686  28.219  23.526  1.00  0.00     0.137 A 
ATOM     23  C   UNL A   1      32.412  29.134  24.653  1.00  0.00     0.091 C 
ENDBRANCH  16  17
ENDBRANCH  15  16
ENDBRANCH  14  15
ENDBRANCH  12  14
ENDBRANCH   7  12
ENDBRANCH   3   6
ENDBRANCH   1   2
BRANCH   1  24
ATOM     24  C   UNL A   1      37.182  21.398  24.587  1.00  0.00     0.023 C 
BRANCH  24  25
ATOM     25  C   UNL A   1      37.979  20.145  24.961  1.00  0.00     0.023 C 
BRANCH  25  26
ATOM     26  C   UNL A   1      39.036  20.329  26.046  1.00  0.00     0.116 C 
BRANCH  26  27
ATOM     27  N   UNL A   1      40.077  19.316  25.996  1.00  0.00    -0.352 N 
ATOM     28  C   UNL A   1      41.440  19.465  26.081  1.00  0.00     0.251 C 
ATOM     29  H   UNL A   1      39.760  18.391  25.885  1.00  0.00     0.163 HD
ATOM     30  O   UNL A   1      42.172  18.501  25.867  1.00  0.00    -0.269 OA
BRANCH  28  31
ATOM     31  C   UNL A   1      42.021  20.785  26.398  1.00  0.00     0.039 A 
ATOM     32  C   UNL A   1      42.302  21.666  25.351  1.00  0.00     0.014 A 
ATOM     33  C   UNL A   1      42.269  21.165  27.720  1.00  0.00     0.014 A 
ATOM     34  C   UNL A   1      42.762  22.954  25.635  1.00  0.00     0.010 A 
ATOM     35  C   UNL A   1      42.653  22.473  28.004  1.00  0.00     0.010 A 
ATOM     36  C   UNL A   1      42.903  23.383  26.965  1.00  0.00    -0.014 A 
BRANCH  36  37
ATOM     37  C   UNL A   1      43.282  24.784  27.286  1.00  0.00     0.031 A 
ATOM     38  C   UNL A   1      42.270  25.735  27.867  1.00  0.00     0.074 A 
ATOM     39  C   UNL A   1      44.517  25.226  26.972  1.00  0.00     0.049 A 
ATOM     40  N   UNL A   1      42.405  27.003  28.160  1.00  0.00    -0.248 NA
ATOM     41  C   UNL A   1      40.923  25.202  28.131  1.00  0.00     0.031 C 
ATOM     42  C   UNL A   1      45.562  24.428  26.325  1.00  0.00     0.029 A 
ATOM     43  N   UNL A   1      45.094  26.462  27.123  1.00  0.00    -0.354 N 
ATOM     44  C   UNL A   1      41.159  27.427  28.603  1.00  0.00     0.074 A 
ATOM     45  C   UNL A   1      40.270  26.290  28.515  1.00  0.00     0.031 C 
ATOM     46  C   UNL A   1      46.650  25.193  26.137  1.00  0.00     0.029 A 
ATOM     47  C   UNL A   1      46.372  26.543  26.617  1.00  0.00     0.049 A 
ATOM     48  H   UNL A   1      44.638  27.221  27.554  1.00  0.00     0.167 HD
ATOM     49  C   UNL A   1      40.793  28.646  29.065  1.00  0.00     0.034 A 
ATOM     50  C   UNL A   1      47.220  27.587  26.535  1.00  0.00     0.034 A 
ATOM     51  C   UNL A   1      41.690  29.763  29.195  1.00  0.00     0.049 A 
ATOM     52  C   UNL A   1      46.799  28.917  27.100  1.00  0.00     0.074 A 
ATOM     53  C   UNL A   1      41.437  31.006  29.748  1.00  0.00     0.029 A 
ATOM     54  N   UNL A   1      43.004  29.779  28.758  1.00  0.00    -0.354 N 
ATOM     55  N   UNL A   1      45.670  29.249  27.676  1.00  0.00    -0.248 NA
ATOM     56  C   UNL A   1      47.782  30.009  27.035  1.00  0.00     0.031 C 
ATOM     57  C   UNL A   1      42.591  31.785  29.619  1.00  0.00     0.029 A 
ATOM     58  C   UNL A   1      43.573  31.015  29.015  1.00  0.00     0.049 A 
ATOM     59  H   UNL A   1      43.466  29.023  28.328  1.00  0.00     0.167 HD
ATOM     60  C   UNL A   1      45.820  30.572  28.075  1.00  0.00     0.074 A 
ATOM     61  C   UNL A   1      47.158  30.974  27.697  1.00  0.00     0.031 C 
ATOM     62  C   UNL A   1      44.924  31.386  28.685  1.00  0.00     0.034 A 
BRANCH  49  63
ATOM     63  C   UNL A   1      39.368  28.832  29.520  1.00  0.00     0.023 A 
ATOM     64  C   UNL A   1      39.005  28.475  30.833  1.00  0.00     0.012 A 
ATOM     65  C   UNL A   1      38.417  29.441  28.678  1.00  0.00     0.148 A 
ATOM     66  C   UNL A   1      37.708  28.696  31.295  1.00  0.00     0.002 A 
ATOM     67  C   UNL A   1      37.139  29.701  29.161  1.00  0.00     0.091 A 
ATOM     68  F   UNL A   1      38.778  29.756  27.427  1.00  0.00    -0.205 F 
ATOM     69  C   UNL A   1      36.780  29.321  30.465  1.00  0.00     0.022 A 
BRANCH  67  70
ATOM     70  S   UNL A   1      35.896  30.573  28.202  1.00  0.00     0.127 S 
ATOM     71  O   UNL A   1      35.574  29.587  27.172  1.00  0.00    -0.237 OA
ATOM     72  O   UNL A   1      34.840  30.787  29.192  1.00  0.00    -0.237 OA
ATOM     73  O   UNL A   1      36.537  31.789  27.720  1.00  0.00    -0.744 OA
ENDBRANCH  67  70
ENDBRANCH  49  63
BRANCH  50  74
ATOM     74  C   UNL A   1      48.574  27.409  25.937  1.00  0.00     0.023 A 
ATOM     75  C   UNL A   1      49.663  27.079  26.766  1.00  0.00     0.012 A 
ATOM     76  C   UNL A   1      48.788  27.560  24.553  1.00  0.00     0.148 A 
ATOM     77  C   UNL A   1      50.947  26.945  26.236  1.00  0.00     0.002 A 
ATOM     78  C   UNL A   1      50.058  27.365  24.022  1.00  0.00     0.091 A 
ATOM     79  F   UNL A   1      47.742  27.886  23.780  1.00  0.00    -0.205 F 
ATOM     80  C   UNL A   1      51.143  27.079  24.864  1.00  0.00     0.022 A 
BRANCH  78  81
ATOM     81  S   UNL A   1      50.372  27.384  22.254  1.00  0.00     0.127 S 
ATOM     82  O   UNL A   1      51.732  26.859  22.184  1.00  0.00    -0.237 OA
ATOM     83  O   UNL A   1      49.335  26.480  21.753  1.00  0.00    -0.237 OA
ATOM     84  O   UNL A   1      50.202  28.771  21.843  1.00  0.00    -0.744 OA
ENDBRANCH  78  81
ENDBRANCH  50  74
BRANCH  62  85
ATOM     85  C   UNL A   1      45.367  32.786  29.023  1.00  0.00     0.023 A 
ATOM     86  C   UNL A   1      45.959  33.054  30.272  1.00  0.00     0.012 A 
ATOM     87  C   UNL A   1      45.262  33.819  28.070  1.00  0.00     0.148 A 
ATOM     88  C   UNL A   1      46.408  34.338  30.582  1.00  0.00     0.002 A 
ATOM     89  C   UNL A   1      45.759  35.082  28.366  1.00  0.00     0.091 A 
ATOM     90  F   UNL A   1      44.680  33.546  26.893  1.00  0.00    -0.205 F 
ATOM     91  C   UNL A   1      46.320  35.347  29.626  1.00  0.00     0.022 A 
BRANCH  89  92
ATOM     92  S   UNL A   1      45.777  36.416  27.162  1.00  0.00     0.127 S 
ATOM     93  O   UNL A   1      44.349  36.632  26.936  1.00  0.00    -0.237 OA
ATOM     94  O   UNL A   1      46.447  37.488  27.899  1.00  0.00    -0.237 OA
ATOM     95  O   UNL A   1      46.523  35.913  26.016  1.00  0.00    -0.744 OA
ENDBRANCH  89  92
ENDBRANCH  62  85
ENDBRANCH  36  37
ENDBRANCH  28  31
ENDBRANCH  26  27
ENDBRANCH  25  26
ENDBRANCH  24  25
ENDBRANCH   1  24
TORSDOF 19
ENDMDL
MODEL 2
REMARK VINA RESULT:     -10.9      4.784      8.486
REMARK SMILES Cc1noc(C)c1CSCC(=O)N1CC[C@H](C(=O)NCCCCNC(=O)c2ccc(-c3c4nc(c(-c5cccc(S(=O)(=O)[O-])c5F)c5ccc([nH]5)c(-c5cccc(S(=O)(=O)[O-])c5F)c5nc(c(-c6cccc(S(=O)(=O)[O-])c6F)c6ccc3[nH]6)C=C5)C=C4)cc2)[C@@H]1C
REMARK SMILES IDX 20 1 19 2 17 3 18 4 16 6 13 7 14 8 90 9 15 10 91 11 11 12
REMARK SMILES IDX 12 13 10 14 9 15 8 16 7 17 1 18 2 19 3 20 4 21 5 22 6 23
REMARK SMILES IDX 21 24 22 25 23 26 24 27 25 28 26 30 27 31 28 32 89 33 29 34
REMARK SMILES IDX 88 35 30 36 31 37 32 38 82 39 33 40 87 41 81 42 83 43 34 44
REMARK SMILES IDX 86 45 80 46 79 47 35 49 67 50 47 51 66 52 48 53 51 54 65 55
REMARK SMILES IDX 84 56 49 57 50 58 64 60 85 61 52 62 36 63 37 64 45 65 38 66
REMARK SMILES IDX 40 67 46 68 39 69 41 70 42 71 43 72 44 73 68 74 69 75 77 76
REMARK SMILES IDX 70 77 72 78 78 79 71 80 73 81 74 82 75 83 76 84 53 85 54 86
REMARK SMILES IDX 62 87 55 88 57 89 63 90 56 91 58 92 59 93 60 94 61 95
REMARK H PARENT 19 5 24 29 83 48 51 59
REMARK Flexibility Score: inf
ROOT
ATOM      1  C   UNL A   1      31.514  29.344  24.865  1.00  0.00     0.116 C 
ENDROOT
BRANCH   1   2
ATOM      2  N   UNL A   1      31.042  28.769  23.623  1.00  0.00    -0.356 N 
ATOM      3  C   UNL A   1      30.929  27.476  23.221  1.00  0.00     0.225 C 
ATOM      4  O   UNL A   1      30.413  27.309  22.118  1.00  0.00    -0.275 OA
ATOM      5  H   UNL A   1      30.752  29.429  22.953  1.00  0.00     0.163 HD
BRANCH   3   6
ATOM      6  C   UNL A   1      31.447  26.349  24.122  1.00  0.00     0.102 C 
ATOM      7  N   UNL A   1      32.314  24.299  23.189  1.00  0.00    -0.338 N 
ATOM      8  C   UNL A   1      30.871  24.276  23.076  1.00  0.00     0.120 C 
ATOM      9  C   UNL A   1      32.762  25.611  23.704  1.00  0.00     0.094 C 
ATOM     10  C   UNL A   1      30.418  25.213  24.178  1.00  0.00     0.037 C 
ATOM     11  C   UNL A   1      33.607  26.386  22.692  1.00  0.00     0.032 C 
BRANCH   7  12
ATOM     12  C   UNL A   1      33.008  23.150  22.877  1.00  0.00     0.232 C 
ATOM     13  O   UNL A   1      33.980  23.203  22.113  1.00  0.00    -0.274 OA
BRANCH  12  14
ATOM     14  C   UNL A   1      32.473  21.783  23.264  1.00  0.00     0.170 C 
BRANCH  14  15
ATOM     15  S   UNL A   1      32.386  21.349  25.009  1.00  0.00    -0.147 SA
BRANCH  15  16
ATOM     16  C   UNL A   1      34.027  20.608  25.279  1.00  0.00     0.111 C 
BRANCH  16  17
ATOM     17  C   UNL A   1      35.101  21.596  25.526  1.00  0.00     0.027 A 
ATOM     18  C   UNL A   1      37.269  20.305  24.824  1.00  0.00     0.071 C 
ATOM     19  C   UNL A   1      36.507  21.466  25.344  1.00  0.00     0.085 A 
ATOM     20  N   UNL A   1      37.154  22.571  25.733  1.00  0.00    -0.085 NA
ATOM     21  O   UNL A   1      36.182  23.431  26.206  1.00  0.00    -0.361 OA
ATOM     22  C   UNL A   1      34.963  22.844  26.095  1.00  0.00     0.137 A 
ATOM     23  C   UNL A   1      33.811  23.607  26.617  1.00  0.00     0.091 C 
ENDBRANCH  16  17
ENDBRANCH  15  16
ENDBRANCH  14  15
ENDBRANCH  12  14
ENDBRANCH   7  12
ENDBRANCH   3   6
ENDBRANCH   1   2
BRANCH   1  24
ATOM     24  C   UNL A   1      33.026  29.540  24.869  1.00  0.00     0.023 C 
BRANCH  24  25
ATOM     25  C   UNL A   1      33.797  28.692  25.884  1.00  0.00     0.023 C 
BRANCH  25  26
ATOM     26  C   UNL A   1      33.523  28.999  27.352  1.00  0.00     0.116 C 
BRANCH  26  27
ATOM     27  N   UNL A   1      33.624  30.417  27.659  1.00  0.00    -0.352 N 
ATOM     28  C   UNL A   1      34.631  31.099  28.297  1.00  0.00     0.251 C 
ATOM     29  H   UNL A   1      32.861  30.967  27.368  1.00  0.00     0.163 HD
ATOM     30  O   UNL A   1      34.470  32.279  28.600  1.00  0.00    -0.269 OA
BRANCH  28  31
ATOM     31  C   UNL A   1      35.889  30.406  28.644  1.00  0.00     0.039 A 
ATOM     32  C   UNL A   1      36.999  30.569  27.811  1.00  0.00     0.014 A 
ATOM     33  C   UNL A   1      35.984  29.618  29.794  1.00  0.00     0.014 A 
ATOM     34  C   UNL A   1      38.222  30.000  28.171  1.00  0.00     0.010 A 
ATOM     35  C   UNL A   1      37.221  29.118  30.190  1.00  0.00     0.010 A 
ATOM     36  C   UNL A   1      38.355  29.305  29.384  1.00  0.00    -0.014 A 
BRANCH  36  37
ATOM     37  C   UNL A   1      39.675  28.792  29.837  1.00  0.00     0.031 A 
ATOM     38  C   UNL A   1      40.440  29.503  30.921  1.00  0.00     0.074 A 
ATOM     39  C   UNL A   1      40.227  27.733  29.208  1.00  0.00     0.049 A 
ATOM     40  N   UNL A   1      41.624  29.232  31.406  1.00  0.00    -0.248 NA
ATOM     41  C   UNL A   1      39.804  30.687  31.524  1.00  0.00     0.031 C 
ATOM     42  C   UNL A   1      39.627  27.009  28.085  1.00  0.00     0.029 A 
ATOM     43  N   UNL A   1      41.429  27.100  29.403  1.00  0.00    -0.354 N 
ATOM     44  C   UNL A   1      41.892  30.227  32.337  1.00  0.00     0.074 A 
ATOM     45  C   UNL A   1      40.760  31.126  32.332  1.00  0.00     0.031 C 
ATOM     46  C   UNL A   1      40.462  26.034  27.691  1.00  0.00     0.029 A 
ATOM     47  C   UNL A   1      41.669  26.081  28.509  1.00  0.00     0.049 A 
ATOM     48  H   UNL A   1      42.062  27.351  30.115  1.00  0.00     0.167 HD
ATOM     49  C   UNL A   1      42.971  30.367  33.143  1.00  0.00     0.034 A 
ATOM     50  C   UNL A   1      42.745  25.283  28.354  1.00  0.00     0.034 A 
ATOM     51  C   UNL A   1      44.076  29.446  33.180  1.00  0.00     0.049 A 
ATOM     52  C   UNL A   1      43.910  25.435  29.295  1.00  0.00     0.074 A 
ATOM     53  C   UNL A   1      45.166  29.448  34.032  1.00  0.00     0.029 A 
ATOM     54  N   UNL A   1      44.240  28.371  32.323  1.00  0.00    -0.354 N 
ATOM     55  N   UNL A   1      44.064  26.277  30.288  1.00  0.00    -0.248 NA
ATOM     56  C   UNL A   1      45.033  24.503  29.119  1.00  0.00     0.031 C 
ATOM     57  C   UNL A   1      46.005  28.389  33.672  1.00  0.00     0.029 A 
ATOM     58  C   UNL A   1      45.421  27.709  32.616  1.00  0.00     0.049 A 
ATOM     59  H   UNL A   1      43.611  28.115  31.610  1.00  0.00     0.167 HD
ATOM     60  C   UNL A   1      45.281  25.953  30.876  1.00  0.00     0.074 A 
ATOM     61  C   UNL A   1      45.812  24.823  30.145  1.00  0.00     0.031 C 
ATOM     62  C   UNL A   1      45.911  26.550  31.918  1.00  0.00     0.034 A 
BRANCH  49  63
ATOM     63  C   UNL A   1      42.996  31.534  34.097  1.00  0.00     0.023 A 
ATOM     64  C   UNL A   1      43.521  32.770  33.671  1.00  0.00     0.012 A 
ATOM     65  C   UNL A   1      42.420  31.430  35.378  1.00  0.00     0.148 A 
ATOM     66  C   UNL A   1      43.498  33.880  34.514  1.00  0.00     0.002 A 
ATOM     67  C   UNL A   1      42.358  32.553  36.196  1.00  0.00     0.091 A 
ATOM     68  F   UNL A   1      41.942  30.241  35.770  1.00  0.00    -0.205 F 
ATOM     69  C   UNL A   1      42.905  33.775  35.771  1.00  0.00     0.022 A 
BRANCH  67  70
ATOM     70  S   UNL A   1      41.544  32.545  37.797  1.00  0.00     0.127 S 
ATOM     71  O   UNL A   1      41.711  33.935  38.219  1.00  0.00    -0.237 OA
ATOM     72  O   UNL A   1      40.173  32.177  37.441  1.00  0.00    -0.237 OA
ATOM     73  O   UNL A   1      42.251  31.561  38.605  1.00  0.00    -0.744 OA
ENDBRANCH  67  70
ENDBRANCH  49  63
BRANCH  50  74
ATOM     74  C   UNL A   1      42.755  24.234  27.295  1.00  0.00     0.023 A 
ATOM     75  C   UNL A   1      43.415  24.482  26.076  1.00  0.00     0.012 A 
ATOM     76  C   UNL A   1      42.119  22.992  27.490  1.00  0.00     0.148 A 
ATOM     77  C   UNL A   1      43.406  23.531  25.055  1.00  0.00     0.002 A 
ATOM     78  C   UNL A   1      42.165  22.026  26.491  1.00  0.00     0.091 A 
ATOM     79  F   UNL A   1      41.485  22.777  28.651  1.00  0.00    -0.205 F 
ATOM     80  C   UNL A   1      42.789  22.301  25.266  1.00  0.00     0.022 A 
BRANCH  78  81
ATOM     81  S   UNL A   1      41.517  20.368  26.731  1.00  0.00     0.127 S 
ATOM     82  O   UNL A   1      40.090  20.626  26.906  1.00  0.00    -0.237 OA
ATOM     83  O   UNL A   1      41.876  19.716  25.471  1.00  0.00    -0.237 OA
ATOM     84  O   UNL A   1      42.216  19.841  27.896  1.00  0.00    -0.744 OA
ENDBRANCH  78  81
ENDBRANCH  50  74
BRANCH  62  85
ATOM     85  C   UNL A   1      47.229  25.972  32.363  1.00  0.00     0.023 A 
ATOM     86  C   UNL A   1      47.262  24.994  33.376  1.00  0.00     0.012 A 
ATOM     87  C   UNL A   1      48.428  26.346  31.723  1.00  0.00     0.148 A 
ATOM     88  C   UNL A   1      48.472  24.422  33.770  1.00  0.00     0.002 A 
ATOM     89  C   UNL A   1      49.622  25.735  32.085  1.00  0.00     0.091 A 
ATOM     90  F   UNL A   1      48.377  27.291  30.772  1.00  0.00    -0.205 F 
ATOM     91  C   UNL A   1      49.648  24.783  33.117  1.00  0.00     0.022 A 
BRANCH  89  92
ATOM     92  S   UNL A   1      51.169  26.065  31.232  1.00  0.00     0.127 S 
ATOM     93  O   UNL A   1      51.464  27.428  31.668  1.00  0.00    -0.237 OA
ATOM     94  O   UNL A   1      52.053  25.041  31.791  1.00  0.00    -0.237 OA
ATOM     95  O   UNL A   1      50.886  25.910  29.812  1.00  0.00    -0.744 OA
ENDBRANCH  89  92
ENDBRANCH  62  85
ENDBRANCH  36  37
ENDBRANCH  28  31
ENDBRANCH  26  27
ENDBRANCH  25  26
ENDBRANCH  24  25
ENDBRANCH   1  24
TORSDOF 19
ENDMDL
MODEL 3
REMARK VINA RESULT:     -10.7      5.074      8.827
REMARK SMILES Cc1noc(C)c1CSCC(=O)N1CC[C@H](C(=O)NCCCCNC(=O)c2ccc(-c3c4nc(c(-c5cccc(S(=O)(=O)[O-])c5F)c5ccc([nH]5)c(-c5cccc(S(=O)(=O)[O-])c5F)c5nc(c(-c6cccc(S(=O)(=O)[O-])c6F)c6ccc3[nH]6)C=C5)C=C4)cc2)[C@@H]1C
REMARK SMILES IDX 20 1 19 2 17 3 18 4 16 6 13 7 14 8 90 9 15 10 91 11 11 12
REMARK SMILES IDX 12 13 10 14 9 15 8 16 7 17 1 18 2 19 3 20 4 21 5 22 6 23
REMARK SMILES IDX 21 24 22 25 23 26 24 27 25 28 26 30 27 31 28 32 89 33 29 34
REMARK SMILES IDX 88 35 30 36 31 37 32 38 82 39 33 40 87 41 81 42 83 43 34 44
REMARK SMILES IDX 86 45 80 46 79 47 35 49 67 50 47 51 66 52 48 53 51 54 65 55
REMARK SMILES IDX 84 56 49 57 50 58 64 60 85 61 52 62 36 63 37 64 45 65 38 66
REMARK SMILES IDX 40 67 46 68 39 69 41 70 42 71 43 72 44 73 68 74 69 75 77 76
REMARK SMILES IDX 70 77 72 78 78 79 71 80 73 81 74 82 75 83 76 84 53 85 54 86
REMARK SMILES IDX 62 87 55 88 57 89 63 90 56 91 58 92 59 93 60 94 61 95
REMARK H PARENT 19 5 24 29 83 48 51 59
REMARK Flexibility Score: inf
ROOT
ATOM      1  C   UNL A   1      31.428  29.436  24.910  1.00  0.00     0.116 C 
ENDROOT
BRANCH   1   2
ATOM      2  N   UNL A   1      30.842  28.900  23.700  1.00  0.00    -0.356 N 
ATOM      3  C   UNL A   1      30.714  27.622  23.256  1.00  0.00     0.225 C 
ATOM      4  O   UNL A   1      30.091  27.488  22.206  1.00  0.00    -0.275 OA
ATOM      5  H   UNL A   1      30.471  29.579  23.092  1.00  0.00     0.163 HD
BRANCH   3   6
ATOM      6  C   UNL A   1      31.345  26.472  24.050  1.00  0.00     0.102 C 
ATOM      7  N   UNL A   1      32.134  24.475  22.948  1.00  0.00    -0.338 N 
ATOM      8  C   UNL A   1      30.688  24.429  22.995  1.00  0.00     0.120 C 
ATOM      9  C   UNL A   1      32.617  25.775  23.460  1.00  0.00     0.094 C 
ATOM     10  C   UNL A   1      30.346  25.316  24.175  1.00  0.00     0.037 C 
ATOM     11  C   UNL A   1      33.333  26.603  22.393  1.00  0.00     0.032 C 
BRANCH   7  12
ATOM     12  C   UNL A   1      32.805  23.351  22.517  1.00  0.00     0.232 C 
ATOM     13  O   UNL A   1      33.736  23.460  21.709  1.00  0.00    -0.274 OA
BRANCH  12  14
ATOM     14  C   UNL A   1      32.285  21.960  22.830  1.00  0.00     0.170 C 
BRANCH  14  15
ATOM     15  S   UNL A   1      32.419  21.344  24.516  1.00  0.00    -0.147 SA
BRANCH  15  16
ATOM     16  C   UNL A   1      34.210  21.040  24.647  1.00  0.00     0.111 C 
BRANCH  16  17
ATOM     17  C   UNL A   1      34.975  22.177  25.204  1.00  0.00     0.027 A 
ATOM     18  C   UNL A   1      36.666  22.750  23.288  1.00  0.00     0.071 C 
ATOM     19  C   UNL A   1      36.048  22.913  24.626  1.00  0.00     0.085 A 
ATOM     20  N   UNL A   1      36.516  23.840  25.471  1.00  0.00    -0.085 NA
ATOM     21  O   UNL A   1      35.774  23.704  26.628  1.00  0.00    -0.361 OA
ATOM     22  C   UNL A   1      34.868  22.705  26.473  1.00  0.00     0.137 A 
ATOM     23  C   UNL A   1      34.030  22.383  27.646  1.00  0.00     0.091 C 
ENDBRANCH  16  17
ENDBRANCH  15  16
ENDBRANCH  14  15
ENDBRANCH  12  14
ENDBRANCH   7  12
ENDBRANCH   3   6
ENDBRANCH   1   2
BRANCH   1  24
ATOM     24  C   UNL A   1      32.951  29.453  24.852  1.00  0.00     0.023 C 
BRANCH  24  25
ATOM     25  C   UNL A   1      33.662  28.694  25.977  1.00  0.00     0.023 C 
BRANCH  25  26
ATOM     26  C   UNL A   1      33.349  29.161  27.395  1.00  0.00     0.116 C 
BRANCH  26  27
ATOM     27  N   UNL A   1      33.539  30.592  27.572  1.00  0.00    -0.352 N 
ATOM     28  C   UNL A   1      34.592  31.265  28.141  1.00  0.00     0.251 C 
ATOM     29  H   UNL A   1      32.808  31.159  27.235  1.00  0.00     0.163 HD
ATOM     30  O   UNL A   1      34.506  32.476  28.336  1.00  0.00    -0.269 OA
BRANCH  28  31
ATOM     31  C   UNL A   1      35.809  30.530  28.543  1.00  0.00     0.039 A 
ATOM     32  C   UNL A   1      36.969  30.680  27.779  1.00  0.00     0.014 A 
ATOM     33  C   UNL A   1      35.816  29.716  29.679  1.00  0.00     0.014 A 
ATOM     34  C   UNL A   1      38.154  30.070  28.196  1.00  0.00     0.010 A 
ATOM     35  C   UNL A   1      37.015  29.174  30.134  1.00  0.00     0.010 A 
ATOM     36  C   UNL A   1      38.198  29.345  29.398  1.00  0.00    -0.014 A 
BRANCH  36  37
ATOM     37  C   UNL A   1      39.476  28.787  29.915  1.00  0.00     0.031 A 
ATOM     38  C   UNL A   1      40.153  29.405  31.108  1.00  0.00     0.074 A 
ATOM     39  C   UNL A   1      40.072  27.774  29.252  1.00  0.00     0.049 A 
ATOM     40  N   UNL A   1      41.293  29.086  31.664  1.00  0.00    -0.248 NA
ATOM     41  C   UNL A   1      39.475  30.545  31.748  1.00  0.00     0.031 C 
ATOM     42  C   UNL A   1      39.563  27.145  28.032  1.00  0.00     0.029 A 
ATOM     43  N   UNL A   1      41.253  27.117  29.492  1.00  0.00    -0.354 N 
ATOM     44  C   UNL A   1      41.489  30.004  32.688  1.00  0.00     0.074 A 
ATOM     45  C   UNL A   1      40.363  30.912  32.661  1.00  0.00     0.031 C 
ATOM     46  C   UNL A   1      40.423  26.194  27.632  1.00  0.00     0.029 A 
ATOM     47  C   UNL A   1      41.561  26.167  28.545  1.00  0.00     0.049 A 
ATOM     48  H   UNL A   1      41.827  27.306  30.270  1.00  0.00     0.167 HD
ATOM     49  C   UNL A   1      42.500  30.072  33.585  1.00  0.00     0.034 A 
ATOM     50  C   UNL A   1      42.643  25.373  28.415  1.00  0.00     0.034 A 
ATOM     51  C   UNL A   1      43.595  29.140  33.639  1.00  0.00     0.049 A 
ATOM     52  C   UNL A   1      43.728  25.441  29.456  1.00  0.00     0.074 A 
ATOM     53  C   UNL A   1      44.613  29.066  34.574  1.00  0.00     0.029 A 
ATOM     54  N   UNL A   1      43.824  28.133  32.717  1.00  0.00    -0.354 N 
ATOM     55  N   UNL A   1      43.805  26.203  30.519  1.00  0.00    -0.248 NA
ATOM     56  C   UNL A   1      44.859  24.515  29.298  1.00  0.00     0.031 C 
ATOM     57  C   UNL A   1      45.474  28.030  34.201  1.00  0.00     0.029 A 
ATOM     58  C   UNL A   1      44.975  27.439  33.052  1.00  0.00     0.049 A 
ATOM     59  H   UNL A   1      43.253  27.938  31.939  1.00  0.00     0.167 HD
ATOM     60  C   UNL A   1      44.970  25.823  31.176  1.00  0.00     0.074 A 
ATOM     61  C   UNL A   1      45.554  24.747  30.404  1.00  0.00     0.031 C 
ATOM     62  C   UNL A   1      45.516  26.332  32.308  1.00  0.00     0.034 A 
BRANCH  49  63
ATOM     63  C   UNL A   1      42.452  31.161  34.625  1.00  0.00     0.023 A 
ATOM     64  C   UNL A   1      41.892  30.892  35.890  1.00  0.00     0.012 A 
ATOM     65  C   UNL A   1      43.041  32.418  34.382  1.00  0.00     0.148 A 
ATOM     66  C   UNL A   1      41.893  31.865  36.889  1.00  0.00     0.002 A 
ATOM     67  C   UNL A   1      43.080  33.366  35.398  1.00  0.00     0.091 A 
ATOM     68  F   UNL A   1      43.552  32.660  33.167  1.00  0.00    -0.205 F 
ATOM     69  C   UNL A   1      42.498  33.096  36.647  1.00  0.00     0.022 A 
BRANCH  67  70
ATOM     70  S   UNL A   1      43.906  34.950  35.216  1.00  0.00     0.127 S 
ATOM     71  O   UNL A   1      43.220  35.510  34.053  1.00  0.00    -0.237 OA
ATOM     72  O   UNL A   1      43.589  35.609  36.485  1.00  0.00    -0.237 OA
ATOM     73  O   UNL A   1      45.318  34.650  35.021  1.00  0.00    -0.744 OA
ENDBRANCH  67  70
ENDBRANCH  49  63
BRANCH  50  74
ATOM     74  C   UNL A   1      42.734  24.408  27.282  1.00  0.00     0.023 A 
ATOM     75  C   UNL A   1      43.385  24.791  26.093  1.00  0.00     0.012 A 
ATOM     76  C   UNL A   1      42.185  23.114  27.377  1.00  0.00     0.148 A 
ATOM     77  C   UNL A   1      43.450  23.919  25.006  1.00  0.00     0.002 A 
ATOM     78  C   UNL A   1      42.306  22.230  26.312  1.00  0.00     0.091 A 
ATOM     79  F   UNL A   1      41.559  22.771  28.512  1.00  0.00    -0.205 F 
ATOM     80  C   UNL A   1      42.920  22.637  25.117  1.00  0.00     0.022 A 
BRANCH  78  81
ATOM     81  S   UNL A   1      41.774  20.518  26.421  1.00  0.00     0.127 S 
ATOM     82  O   UNL A   1      40.338  20.635  26.186  1.00  0.00    -0.237 OA
ATOM     83  O   UNL A   1      42.528  19.895  25.333  1.00  0.00    -0.237 OA
ATOM     84  O   UNL A   1      42.167  20.072  27.751  1.00  0.00    -0.744 OA
ENDBRANCH  78  81
ENDBRANCH  50  74
BRANCH  62  85
ATOM     85  C   UNL A   1      46.792  25.708  32.811  1.00  0.00     0.023 A 
ATOM     86  C   UNL A   1      48.036  26.241  32.423  1.00  0.00     0.012 A 
ATOM     87  C   UNL A   1      46.752  24.639  33.729  1.00  0.00     0.148 A 
ATOM     88  C   UNL A   1      49.224  25.697  32.913  1.00  0.00     0.002 A 
ATOM     89  C   UNL A   1      47.937  24.137  34.253  1.00  0.00     0.091 A 
ATOM     90  F   UNL A   1      45.558  24.136  34.073  1.00  0.00    -0.205 F 
ATOM     91  C   UNL A   1      49.174  24.655  33.835  1.00  0.00     0.022 A 
BRANCH  89  92
ATOM     92  S   UNL A   1      47.966  22.862  35.519  1.00  0.00     0.127 S 
ATOM     93  O   UNL A   1      49.269  23.091  36.141  1.00  0.00    -0.237 OA
ATOM     94  O   UNL A   1      46.820  23.228  36.352  1.00  0.00    -0.237 OA
ATOM     95  O   UNL A   1      47.822  21.595  34.816  1.00  0.00    -0.744 OA
ENDBRANCH  89  92
ENDBRANCH  62  85
ENDBRANCH  36  37
ENDBRANCH  28  31
ENDBRANCH  26  27
ENDBRANCH  25  26
ENDBRANCH  24  25
ENDBRANCH   1  24
TORSDOF 19
ENDMDL
