MODEL 1
REMARK VINA RESULT:     -10.9      0.000      0.000
REMARK SMILES CCCN(CC(=O)NCCCCNC(=O)c1ccc(-c2c3nc(c(-c4cccc(S(=O)(=O)[O-])c4F)c4ccc([nH]4)c(-c4cccc(S(=O)(=O)[O-])c4F)c4nc(c(-c5cccc(S(=O)(=O)[O-])c5F)c5ccc2[nH]5)C=C4)C=C3)cc1)C(=O)Cc1ccc(F)c(F)c1
REMARK SMILES IDX 10 1 9 2 8 3 6 4 7 5 5 7 4 8 3 9 2 10 1 11 79 12 80 13 81 14
REMARK SMILES IDX 82 15 83 16 89 17 84 18 87 19 85 20 88 21 86 22 11 23 12 24
REMARK SMILES IDX 13 25 14 26 15 28 16 29 17 30 78 31 18 32 77 33 19 34 20 35
REMARK SMILES IDX 21 36 71 37 22 38 76 39 70 40 72 41 23 42 75 43 69 44 68 45
REMARK SMILES IDX 24 47 56 48 36 49 55 50 37 51 40 52 54 53 73 54 38 55 39 56
REMARK SMILES IDX 53 58 74 59 41 60 25 61 26 62 34 63 27 64 29 65 35 66 28 67
REMARK SMILES IDX 30 68 31 69 32 70 33 71 57 72 58 73 66 74 59 75 61 76 67 77
REMARK SMILES IDX 60 78 62 79 63 80 64 81 65 82 42 83 43 84 51 85 44 86 46 87
REMARK SMILES IDX 52 88 45 89 47 90 48 91 49 92 50 93
REMARK H PARENT 8 6 13 27 72 46 40 57
REMARK Flexibility Score: inf
ROOT
ATOM      1  C   UNL A   1      31.806  27.777  26.792  1.00  0.00     0.023 C 
ENDROOT
BRANCH   1   2
ATOM      2  C   UNL A   1      32.038  26.500  25.989  1.00  0.00     0.116 C 
BRANCH   2   3
ATOM      3  N   UNL A   1      31.410  25.349  26.591  1.00  0.00    -0.355 N 
ATOM      4  C   UNL A   1      31.933  24.117  26.832  1.00  0.00     0.239 C 
ATOM      5  O   UNL A   1      31.276  23.348  27.537  1.00  0.00    -0.273 OA
ATOM      6  H   UNL A   1      30.472  25.472  26.863  1.00  0.00     0.163 HD
BRANCH   4   7
ATOM      7  C   UNL A   1      33.330  23.722  26.319  1.00  0.00     0.219 C 
BRANCH   7   8
ATOM      8  N   UNL A   1      33.355  22.572  25.403  1.00  0.00    -0.333 N 
BRANCH   8   9
ATOM      9  C   UNL A   1      33.563  22.846  23.973  1.00  0.00     0.120 C 
BRANCH   9  10
ATOM     10  C   UNL A   1      34.888  23.529  23.616  1.00  0.00     0.018 C 
ATOM     11  C   UNL A   1      36.069  22.580  23.502  1.00  0.00     0.006 C 
ENDBRANCH   9  10
ENDBRANCH   8   9
BRANCH   8  12
ATOM     12  C   UNL A   1      33.211  21.248  25.816  1.00  0.00     0.227 C 
ATOM     13  O   UNL A   1      33.599  20.888  26.933  1.00  0.00    -0.275 OA
BRANCH  12  14
ATOM     14  C   UNL A   1      32.629  20.193  24.875  1.00  0.00     0.135 C 
BRANCH  14  15
ATOM     15  C   UNL A   1      33.261  18.820  24.962  1.00  0.00    -0.036 A 
ATOM     16  C   UNL A   1      34.576  18.599  24.522  1.00  0.00     0.007 A 
ATOM     17  C   UNL A   1      32.528  17.733  25.467  1.00  0.00     0.046 A 
ATOM     18  C   UNL A   1      35.153  17.328  24.625  1.00  0.00     0.043 A 
ATOM     19  C   UNL A   1      33.122  16.484  25.605  1.00  0.00     0.159 A 
ATOM     20  C   UNL A   1      34.428  16.281  25.186  1.00  0.00     0.158 A 
ATOM     21  F   UNL A   1      32.426  15.482  26.160  1.00  0.00    -0.204 F 
ATOM     22  F   UNL A   1      34.999  15.076  25.316  1.00  0.00    -0.204 F 
ENDBRANCH  14  15
ENDBRANCH  12  14
ENDBRANCH   8  12
ENDBRANCH   7   8
ENDBRANCH   4   7
ENDBRANCH   2   3
ENDBRANCH   1   2
BRANCH   1  23
ATOM     23  C   UNL A   1      33.073  28.387  27.396  1.00  0.00     0.023 C 
BRANCH  23  24
ATOM     24  C   UNL A   1      33.757  29.444  26.537  1.00  0.00     0.116 C 
BRANCH  24  25
ATOM     25  N   UNL A   1      33.664  30.782  27.101  1.00  0.00    -0.352 N 
ATOM     26  C   UNL A   1      34.505  31.405  27.988  1.00  0.00     0.251 C 
ATOM     27  H   UNL A   1      32.891  31.314  26.805  1.00  0.00     0.163 HD
ATOM     28  O   UNL A   1      34.199  32.501  28.450  1.00  0.00    -0.269 OA
BRANCH  26  29
ATOM     29  C   UNL A   1      35.755  30.738  28.409  1.00  0.00     0.039 A 
ATOM     30  C   UNL A   1      36.940  31.067  27.751  1.00  0.00     0.014 A 
ATOM     31  C   UNL A   1      35.763  29.809  29.453  1.00  0.00     0.014 A 
ATOM     32  C   UNL A   1      38.143  30.502  28.174  1.00  0.00     0.010 A 
ATOM     33  C   UNL A   1      36.974  29.310  29.927  1.00  0.00     0.010 A 
ATOM     34  C   UNL A   1      38.175  29.643  29.286  1.00  0.00    -0.014 A 
BRANCH  34  35
ATOM     35  C   UNL A   1      39.469  29.114  29.789  1.00  0.00     0.031 A 
ATOM     36  C   UNL A   1      40.169  29.764  30.953  1.00  0.00     0.074 A 
ATOM     37  C   UNL A   1      40.041  28.068  29.160  1.00  0.00     0.049 A 
ATOM     38  N   UNL A   1      41.277  29.405  31.548  1.00  0.00    -0.248 NA
ATOM     39  C   UNL A   1      39.565  30.989  31.504  1.00  0.00     0.031 C 
ATOM     40  C   UNL A   1      39.515  27.414  27.958  1.00  0.00     0.029 A 
ATOM     41  N   UNL A   1      41.195  27.378  29.432  1.00  0.00    -0.354 N 
ATOM     42  C   UNL A   1      41.519  30.370  32.518  1.00  0.00     0.074 A 
ATOM     43  C   UNL A   1      40.461  31.351  32.410  1.00  0.00     0.031 C 
ATOM     44  C   UNL A   1      40.334  26.410  27.608  1.00  0.00     0.029 A 
ATOM     45  C   UNL A   1      41.455  26.363  28.541  1.00  0.00     0.049 A 
ATOM     46  H   UNL A   1      41.783  27.590  30.193  1.00  0.00     0.167 HD
ATOM     47  C   UNL A   1      42.516  30.423  33.433  1.00  0.00     0.034 A 
ATOM     48  C   UNL A   1      42.481  25.491  28.480  1.00  0.00     0.034 A 
ATOM     49  C   UNL A   1      43.545  29.426  33.560  1.00  0.00     0.049 A 
ATOM     50  C   UNL A   1      43.539  25.535  29.549  1.00  0.00     0.074 A 
ATOM     51  C   UNL A   1      44.535  29.331  34.523  1.00  0.00     0.029 A 
ATOM     52  N   UNL A   1      43.731  28.363  32.691  1.00  0.00    -0.354 N 
ATOM     53  N   UNL A   1      43.643  26.343  30.574  1.00  0.00    -0.248 NA
ATOM     54  C   UNL A   1      44.598  24.519  29.474  1.00  0.00     0.031 C 
ATOM     55  C   UNL A   1      45.344  28.233  34.213  1.00  0.00     0.029 A 
ATOM     56  C   UNL A   1      44.831  27.617  33.082  1.00  0.00     0.049 A 
ATOM     57  H   UNL A   1      43.165  28.166  31.911  1.00  0.00     0.167 HD
ATOM     58  C   UNL A   1      44.758  25.915  31.285  1.00  0.00     0.074 A 
ATOM     59  C   UNL A   1      45.275  24.755  30.588  1.00  0.00     0.031 C 
ATOM     60  C   UNL A   1      45.315  26.443  32.403  1.00  0.00     0.034 A 
BRANCH  47  61
ATOM     61  C   UNL A   1      42.526  31.578  34.400  1.00  0.00     0.023 A 
ATOM     62  C   UNL A   1      43.229  32.757  34.077  1.00  0.00     0.012 A 
ATOM     63  C   UNL A   1      41.778  31.526  35.593  1.00  0.00     0.148 A 
ATOM     64  C   UNL A   1      43.213  33.854  34.939  1.00  0.00     0.002 A 
ATOM     65  C   UNL A   1      41.726  32.639  36.423  1.00  0.00     0.091 A 
ATOM     66  F   UNL A   1      41.133  30.390  35.893  1.00  0.00    -0.205 F 
ATOM     67  C   UNL A   1      42.453  33.799  36.104  1.00  0.00     0.022 A 
BRANCH  65  68
ATOM     68  S   UNL A   1      40.710  32.701  37.903  1.00  0.00     0.127 S 
ATOM     69  O   UNL A   1      41.531  31.951  38.854  1.00  0.00    -0.237 OA
ATOM     70  O   UNL A   1      40.636  34.138  38.163  1.00  0.00    -0.237 OA
ATOM     71  O   UNL A   1      39.443  32.079  37.548  1.00  0.00    -0.744 OA
ENDBRANCH  65  68
ENDBRANCH  47  61
BRANCH  48  72
ATOM     72  C   UNL A   1      42.527  24.467  27.398  1.00  0.00     0.023 A 
ATOM     73  C   UNL A   1      43.233  24.735  26.210  1.00  0.00     0.012 A 
ATOM     74  C   UNL A   1      41.884  23.223  27.550  1.00  0.00     0.148 A 
ATOM     75  C   UNL A   1      43.263  23.800  25.174  1.00  0.00     0.002 A 
ATOM     76  C   UNL A   1      41.969  22.273  26.539  1.00  0.00     0.091 A 
ATOM     77  F   UNL A   1      41.209  22.991  28.684  1.00  0.00    -0.205 F 
ATOM     78  C   UNL A   1      42.639  22.566  25.342  1.00  0.00     0.022 A 
BRANCH  76  79
ATOM     79  S   UNL A   1      41.315  20.611  26.728  1.00  0.00     0.127 S 
ATOM     80  O   UNL A   1      41.858  19.941  25.549  1.00  0.00    -0.237 OA
ATOM     81  O   UNL A   1      41.906  20.197  28.001  1.00  0.00    -0.237 OA
ATOM     82  O   UNL A   1      39.867  20.761  26.761  1.00  0.00    -0.744 OA
ENDBRANCH  76  79
ENDBRANCH  48  72
BRANCH  60  83
ATOM     83  C   UNL A   1      46.531  25.753  32.965  1.00  0.00     0.023 A 
ATOM     84  C   UNL A   1      47.821  26.201  32.616  1.00  0.00     0.012 A 
ATOM     85  C   UNL A   1      46.395  24.685  33.874  1.00  0.00     0.148 A 
ATOM     86  C   UNL A   1      48.954  25.566  33.122  1.00  0.00     0.002 A 
ATOM     87  C   UNL A   1      47.528  24.094  34.419  1.00  0.00     0.091 A 
ATOM     88  F   UNL A   1      45.161  24.260  34.183  1.00  0.00    -0.205 F 
ATOM     89  C   UNL A   1      48.808  24.520  34.031  1.00  0.00     0.022 A 
BRANCH  87  90
ATOM     90  S   UNL A   1      47.434  22.809  35.670  1.00  0.00     0.127 S 
ATOM     91  O   UNL A   1      48.844  22.475  35.861  1.00  0.00    -0.237 OA
ATOM     92  O   UNL A   1      46.816  23.515  36.794  1.00  0.00    -0.237 OA
ATOM     93  O   UNL A   1      46.610  21.752  35.098  1.00  0.00    -0.744 OA
ENDBRANCH  87  90
ENDBRANCH  60  83
ENDBRANCH  34  35
ENDBRANCH  26  29
ENDBRANCH  24  25
ENDBRANCH  23  24
ENDBRANCH   1  23
TORSDOF 20
ENDMDL
MODEL 2
REMARK VINA RESULT:     -10.7      2.036      2.695
REMARK SMILES CCCN(CC(=O)NCCCCNC(=O)c1ccc(-c2c3nc(c(-c4cccc(S(=O)(=O)[O-])c4F)c4ccc([nH]4)c(-c4cccc(S(=O)(=O)[O-])c4F)c4nc(c(-c5cccc(S(=O)(=O)[O-])c5F)c5ccc2[nH]5)C=C4)C=C3)cc1)C(=O)Cc1ccc(F)c(F)c1
REMARK SMILES IDX 10 1 9 2 8 3 6 4 7 5 5 7 4 8 3 9 2 10 1 11 79 12 80 13 81 14
REMARK SMILES IDX 82 15 83 16 89 17 84 18 87 19 85 20 88 21 86 22 11 23 12 24
REMARK SMILES IDX 13 25 14 26 15 28 16 29 17 30 78 31 18 32 77 33 19 34 20 35
REMARK SMILES IDX 21 36 71 37 22 38 76 39 70 40 72 41 23 42 75 43 69 44 68 45
REMARK SMILES IDX 24 47 56 48 36 49 55 50 37 51 40 52 54 53 73 54 38 55 39 56
REMARK SMILES IDX 53 58 74 59 41 60 25 61 26 62 34 63 27 64 29 65 35 66 28 67
REMARK SMILES IDX 30 68 31 69 32 70 33 71 57 72 58 73 66 74 59 75 61 76 67 77
REMARK SMILES IDX 60 78 62 79 63 80 64 81 65 82 42 83 43 84 51 85 44 86 46 87
REMARK SMILES IDX 52 88 45 89 47 90 48 91 49 92 50 93
REMARK H PARENT 8 6 13 27 72 46 40 57
REMARK Flexibility Score: inf
ROOT
ATOM      1  C   UNL A   1      31.276  27.664  26.003  1.00  0.00     0.023 C 
ENDROOT
BRANCH   1   2
ATOM      2  C   UNL A   1      30.955  26.444  25.145  1.00  0.00     0.116 C 
BRANCH   2   3
ATOM      3  N   UNL A   1      30.570  25.300  25.935  1.00  0.00    -0.355 N 
ATOM      4  C   UNL A   1      31.342  24.284  26.401  1.00  0.00     0.239 C 
ATOM      5  O   UNL A   1      30.838  23.516  27.224  1.00  0.00    -0.273 OA
ATOM      6  H   UNL A   1      29.614  25.249  26.168  1.00  0.00     0.163 HD
BRANCH   4   7
ATOM      7  C   UNL A   1      32.818  24.139  25.985  1.00  0.00     0.219 C 
BRANCH   7   8
ATOM      8  N   UNL A   1      33.038  23.498  24.680  1.00  0.00    -0.333 N 
BRANCH   8   9
ATOM      9  C   UNL A   1      34.106  24.041  23.828  1.00  0.00     0.120 C 
BRANCH   9  10
ATOM     10  C   UNL A   1      33.895  25.476  23.334  1.00  0.00     0.018 C 
ATOM     11  C   UNL A   1      33.070  25.584  22.062  1.00  0.00     0.006 C 
ENDBRANCH   9  10
ENDBRANCH   8   9
BRANCH   8  12
ATOM     12  C   UNL A   1      32.307  22.402  24.220  1.00  0.00     0.227 C 
ATOM     13  O   UNL A   1      31.709  22.449  23.140  1.00  0.00    -0.275 OA
BRANCH  12  14
ATOM     14  C   UNL A   1      32.176  21.138  25.069  1.00  0.00     0.135 C 
BRANCH  14  15
ATOM     15  C   UNL A   1      32.723  19.873  24.444  1.00  0.00    -0.036 A 
ATOM     16  C   UNL A   1      32.033  19.217  23.411  1.00  0.00     0.007 A 
ATOM     17  C   UNL A   1      33.928  19.317  24.907  1.00  0.00     0.046 A 
ATOM     18  C   UNL A   1      32.561  18.058  22.831  1.00  0.00     0.043 A 
ATOM     19  C   UNL A   1      34.465  18.189  24.297  1.00  0.00     0.159 A 
ATOM     20  C   UNL A   1      33.786  17.562  23.265  1.00  0.00     0.158 A 
ATOM     21  F   UNL A   1      35.653  17.723  24.708  1.00  0.00    -0.204 F 
ATOM     22  F   UNL A   1      34.303  16.473  22.680  1.00  0.00    -0.204 F 
ENDBRANCH  14  15
ENDBRANCH  12  14
ENDBRANCH   8  12
ENDBRANCH   7   8
ENDBRANCH   4   7
ENDBRANCH   2   3
ENDBRANCH   1   2
BRANCH   1  23
ATOM     23  C   UNL A   1      32.766  27.998  26.101  1.00  0.00     0.023 C 
BRANCH  23  24
ATOM     24  C   UNL A   1      33.212  29.220  25.306  1.00  0.00     0.116 C 
BRANCH  24  25
ATOM     25  N   UNL A   1      32.733  30.471  25.873  1.00  0.00    -0.352 N 
ATOM     26  C   UNL A   1      33.255  31.204  26.910  1.00  0.00     0.251 C 
ATOM     27  H   UNL A   1      31.924  30.845  25.455  1.00  0.00     0.163 HD
ATOM     28  O   UNL A   1      32.642  32.181  27.332  1.00  0.00    -0.269 OA
BRANCH  26  29
ATOM     29  C   UNL A   1      34.529  30.793  27.533  1.00  0.00     0.039 A 
ATOM     30  C   UNL A   1      35.536  31.747  27.683  1.00  0.00     0.014 A 
ATOM     31  C   UNL A   1      34.727  29.484  27.981  1.00  0.00     0.014 A 
ATOM     32  C   UNL A   1      36.723  31.401  28.328  1.00  0.00     0.010 A 
ATOM     33  C   UNL A   1      35.877  29.163  28.697  1.00  0.00     0.010 A 
ATOM     34  C   UNL A   1      36.891  30.114  28.871  1.00  0.00    -0.014 A 
BRANCH  34  35
ATOM     35  C   UNL A   1      38.119  29.777  29.635  1.00  0.00     0.031 A 
ATOM     36  C   UNL A   1      38.326  30.296  31.033  1.00  0.00     0.074 A 
ATOM     37  C   UNL A   1      39.077  29.034  29.046  1.00  0.00     0.049 A 
ATOM     38  N   UNL A   1      39.313  30.061  31.858  1.00  0.00    -0.248 NA
ATOM     39  C   UNL A   1      37.309  31.219  31.566  1.00  0.00     0.031 C 
ATOM     40  C   UNL A   1      39.044  28.556  27.661  1.00  0.00     0.029 A 
ATOM     41  N   UNL A   1      40.272  28.562  29.529  1.00  0.00    -0.354 N 
ATOM     42  C   UNL A   1      39.056  30.827  32.989  1.00  0.00     0.074 A 
ATOM     43  C   UNL A   1      37.836  31.561  32.733  1.00  0.00     0.031 C 
ATOM     44  C   UNL A   1      40.156  27.846  27.412  1.00  0.00     0.029 A 
ATOM     45  C   UNL A   1      40.993  27.839  28.607  1.00  0.00     0.049 A 
ATOM     46  H   UNL A   1      40.584  28.727  30.448  1.00  0.00     0.167 HD
ATOM     47  C   UNL A   1      39.755  30.893  34.147  1.00  0.00     0.034 A 
ATOM     48  C   UNL A   1      42.195  27.238  28.712  1.00  0.00     0.034 A 
ATOM     49  C   UNL A   1      40.947  30.132  34.411  1.00  0.00     0.049 A 
ATOM     50  C   UNL A   1      42.917  27.276  30.030  1.00  0.00     0.074 A 
ATOM     51  C   UNL A   1      41.667  30.046  35.590  1.00  0.00     0.029 A 
ATOM     52  N   UNL A   1      41.606  29.343  33.483  1.00  0.00    -0.354 N 
ATOM     53  N   UNL A   1      42.558  27.850  31.152  1.00  0.00    -0.248 NA
ATOM     54  C   UNL A   1      44.190  26.547  30.109  1.00  0.00     0.031 C 
ATOM     55  C   UNL A   1      42.784  29.236  35.362  1.00  0.00     0.029 A 
ATOM     56  C   UNL A   1      42.736  28.782  34.054  1.00  0.00     0.049 A 
ATOM     57  H   UNL A   1      41.315  29.201  32.553  1.00  0.00     0.167 HD
ATOM     58  C   UNL A   1      43.543  27.526  32.078  1.00  0.00     0.074 A 
ATOM     59  C   UNL A   1      44.496  26.678  31.392  1.00  0.00     0.031 C 
ATOM     60  C   UNL A   1      43.657  27.909  33.374  1.00  0.00     0.034 A 
BRANCH  47  61
ATOM     61  C   UNL A   1      39.231  31.790  35.238  1.00  0.00     0.023 A 
ATOM     62  C   UNL A   1      38.298  31.289  36.170  1.00  0.00     0.012 A 
ATOM     63  C   UNL A   1      39.719  33.103  35.388  1.00  0.00     0.148 A 
ATOM     64  C   UNL A   1      37.836  32.090  37.214  1.00  0.00     0.002 A 
ATOM     65  C   UNL A   1      39.291  33.879  36.458  1.00  0.00     0.091 A 
ATOM     66  F   UNL A   1      40.589  33.569  34.481  1.00  0.00    -0.205 F 
ATOM     67  C   UNL A   1      38.341  33.379  37.365  1.00  0.00     0.022 A 
BRANCH  65  68
ATOM     68  S   UNL A   1      39.943  35.519  36.790  1.00  0.00     0.127 S 
ATOM     69  O   UNL A   1      39.561  36.238  35.575  1.00  0.00    -0.237 OA
ATOM     70  O   UNL A   1      39.198  35.907  37.988  1.00  0.00    -0.237 OA
ATOM     71  O   UNL A   1      41.375  35.351  36.991  1.00  0.00    -0.744 OA
ENDBRANCH  65  68
ENDBRANCH  47  61
BRANCH  48  72
ATOM     72  C   UNL A   1      42.765  26.501  27.547  1.00  0.00     0.023 A 
ATOM     73  C   UNL A   1      43.714  27.129  26.718  1.00  0.00     0.012 A 
ATOM     74  C   UNL A   1      42.377  25.177  27.267  1.00  0.00     0.148 A 
ATOM     75  C   UNL A   1      44.237  26.466  25.607  1.00  0.00     0.002 A 
ATOM     76  C   UNL A   1      42.946  24.501  26.195  1.00  0.00     0.091 A 
ATOM     77  F   UNL A   1      41.465  24.601  28.062  1.00  0.00    -0.205 F 
ATOM     78  C   UNL A   1      43.860  25.150  25.351  1.00  0.00     0.022 A 
BRANCH  76  79
ATOM     79  S   UNL A   1      42.624  22.764  25.875  1.00  0.00     0.127 S 
ATOM     80  O   UNL A   1      41.168  22.705  25.988  1.00  0.00    -0.237 OA
ATOM     81  O   UNL A   1      43.145  22.605  24.517  1.00  0.00    -0.237 OA
ATOM     82  O   UNL A   1      43.369  22.034  26.892  1.00  0.00    -0.744 OA
ENDBRANCH  76  79
ENDBRANCH  48  72
BRANCH  60  83
ATOM     83  C   UNL A   1      44.841  27.388  34.149  1.00  0.00     0.023 A 
ATOM     84  C   UNL A   1      46.047  28.118  34.171  1.00  0.00     0.012 A 
ATOM     85  C   UNL A   1      44.744  26.193  34.890  1.00  0.00     0.148 A 
ATOM     86  C   UNL A   1      47.151  27.643  34.877  1.00  0.00     0.002 A 
ATOM     87  C   UNL A   1      45.831  25.756  35.637  1.00  0.00     0.091 A 
ATOM     88  F   UNL A   1      43.596  25.502  34.844  1.00  0.00    -0.205 F 
ATOM     89  C   UNL A   1      47.040  26.469  35.618  1.00  0.00     0.022 A 
BRANCH  87  90
ATOM     90  S   UNL A   1      45.746  24.310  36.699  1.00  0.00     0.127 S 
ATOM     91  O   UNL A   1      44.665  24.673  37.612  1.00  0.00    -0.237 OA
ATOM     92  O   UNL A   1      45.413  23.247  35.750  1.00  0.00    -0.237 OA
ATOM     93  O   UNL A   1      47.064  24.182  37.307  1.00  0.00    -0.744 OA
ENDBRANCH  87  90
ENDBRANCH  60  83
ENDBRANCH  34  35
ENDBRANCH  26  29
ENDBRANCH  24  25
ENDBRANCH  23  24
ENDBRANCH   1  23
TORSDOF 20
ENDMDL
MODEL 3
REMARK VINA RESULT:     -10.5      5.557     10.341
REMARK SMILES CCCN(CC(=O)NCCCCNC(=O)c1ccc(-c2c3nc(c(-c4cccc(S(=O)(=O)[O-])c4F)c4ccc([nH]4)c(-c4cccc(S(=O)(=O)[O-])c4F)c4nc(c(-c5cccc(S(=O)(=O)[O-])c5F)c5ccc2[nH]5)C=C4)C=C3)cc1)C(=O)Cc1ccc(F)c(F)c1
REMARK SMILES IDX 10 1 9 2 8 3 6 4 7 5 5 7 4 8 3 9 2 10 1 11 79 12 80 13 81 14
REMARK SMILES IDX 82 15 83 16 89 17 84 18 87 19 85 20 88 21 86 22 11 23 12 24
REMARK SMILES IDX 13 25 14 26 15 28 16 29 17 30 78 31 18 32 77 33 19 34 20 35
REMARK SMILES IDX 21 36 71 37 22 38 76 39 70 40 72 41 23 42 75 43 69 44 68 45
REMARK SMILES IDX 24 47 56 48 36 49 55 50 37 51 40 52 54 53 73 54 38 55 39 56
REMARK SMILES IDX 53 58 74 59 41 60 25 61 26 62 34 63 27 64 29 65 35 66 28 67
REMARK SMILES IDX 30 68 31 69 32 70 33 71 57 72 58 73 66 74 59 75 61 76 67 77
REMARK SMILES IDX 60 78 62 79 63 80 64 81 65 82 42 83 43 84 51 85 44 86 46 87
REMARK SMILES IDX 52 88 45 89 47 90 48 91 49 92 50 93
REMARK H PARENT 8 6 13 27 72 46 40 57
REMARK Flexibility Score: inf
ROOT
ATOM      1  C   UNL A   1      33.845  21.994  26.424  1.00  0.00     0.023 C 
ENDROOT
BRANCH   1   2
ATOM      2  C   UNL A   1      32.475  21.660  25.840  1.00  0.00     0.116 C 
BRANCH   2   3
ATOM      3  N   UNL A   1      31.394  22.213  26.619  1.00  0.00    -0.355 N 
ATOM      4  C   UNL A   1      30.923  23.489  26.642  1.00  0.00     0.239 C 
ATOM      5  O   UNL A   1      29.861  23.692  27.236  1.00  0.00    -0.273 OA
ATOM      6  H   UNL A   1      30.934  21.580  27.216  1.00  0.00     0.163 HD
BRANCH   4   7
ATOM      7  C   UNL A   1      31.639  24.625  25.889  1.00  0.00     0.219 C 
BRANCH   7   8
ATOM      8  N   UNL A   1      31.029  25.003  24.606  1.00  0.00    -0.333 N 
BRANCH   8   9
ATOM      9  C   UNL A   1      31.286  24.132  23.449  1.00  0.00     0.120 C 
BRANCH   9  10
ATOM     10  C   UNL A   1      32.762  23.891  23.116  1.00  0.00     0.018 C 
ATOM     11  C   UNL A   1      33.009  22.705  22.197  1.00  0.00     0.006 C 
ENDBRANCH   9  10
ENDBRANCH   8   9
BRANCH   8  12
ATOM     12  C   UNL A   1      30.214  26.122  24.434  1.00  0.00     0.227 C 
ATOM     13  O   UNL A   1      29.037  26.110  24.810  1.00  0.00    -0.275 OA
BRANCH  12  14
ATOM     14  C   UNL A   1      30.736  27.368  23.719  1.00  0.00     0.135 C 
BRANCH  14  15
ATOM     15  C   UNL A   1      31.516  28.336  24.582  1.00  0.00    -0.036 A 
ATOM     16  C   UNL A   1      31.012  29.614  24.873  1.00  0.00     0.007 A 
ATOM     17  C   UNL A   1      32.776  27.979  25.090  1.00  0.00     0.046 A 
ATOM     18  C   UNL A   1      31.736  30.493  25.688  1.00  0.00     0.043 A 
ATOM     19  C   UNL A   1      33.469  28.841  25.932  1.00  0.00     0.159 A 
ATOM     20  C   UNL A   1      32.953  30.092  26.229  1.00  0.00     0.158 A 
ATOM     21  F   UNL A   1      34.634  28.444  26.464  1.00  0.00    -0.204 F 
ATOM     22  F   UNL A   1      33.624  30.924  27.037  1.00  0.00    -0.204 F 
ENDBRANCH  14  15
ENDBRANCH  12  14
ENDBRANCH   8  12
ENDBRANCH   7   8
ENDBRANCH   4   7
ENDBRANCH   2   3
ENDBRANCH   1   2
BRANCH   1  23
ATOM     23  C   UNL A   1      35.017  21.759  25.469  1.00  0.00     0.023 C 
BRANCH  23  24
ATOM     24  C   UNL A   1      36.370  22.257  25.966  1.00  0.00     0.116 C 
BRANCH  24  25
ATOM     25  N   UNL A   1      37.420  21.258  25.849  1.00  0.00    -0.352 N 
ATOM     26  C   UNL A   1      38.770  21.397  26.055  1.00  0.00     0.251 C 
ATOM     27  H   UNL A   1      37.122  20.357  25.588  1.00  0.00     0.163 HD
ATOM     28  O   UNL A   1      39.525  20.464  25.790  1.00  0.00    -0.269 OA
BRANCH  26  29
ATOM     29  C   UNL A   1      39.310  22.676  26.559  1.00  0.00     0.039 A 
ATOM     30  C   UNL A   1      40.374  22.642  27.460  1.00  0.00     0.014 A 
ATOM     31  C   UNL A   1      38.784  23.900  26.136  1.00  0.00     0.014 A 
ATOM     32  C   UNL A   1      40.944  23.836  27.899  1.00  0.00     0.010 A 
ATOM     33  C   UNL A   1      39.407  25.088  26.510  1.00  0.00     0.010 A 
ATOM     34  C   UNL A   1      40.487  25.070  27.402  1.00  0.00    -0.014 A 
BRANCH  34  35
ATOM     35  C   UNL A   1      41.155  26.335  27.802  1.00  0.00     0.031 A 
ATOM     36  C   UNL A   1      42.577  26.618  27.399  1.00  0.00     0.074 A 
ATOM     37  C   UNL A   1      40.489  27.214  28.577  1.00  0.00     0.049 A 
ATOM     38  N   UNL A   1      43.296  27.688  27.620  1.00  0.00    -0.248 NA
ATOM     39  C   UNL A   1      43.297  25.555  26.675  1.00  0.00     0.031 C 
ATOM     40  C   UNL A   1      39.143  27.011  29.121  1.00  0.00     0.029 A 
ATOM     41  N   UNL A   1      40.855  28.447  29.055  1.00  0.00    -0.354 N 
ATOM     42  C   UNL A   1      44.554  27.419  27.097  1.00  0.00     0.074 A 
ATOM     43  C   UNL A   1      44.514  26.070  26.574  1.00  0.00     0.031 C 
ATOM     44  C   UNL A   1      38.791  28.087  29.842  1.00  0.00     0.029 A 
ATOM     45  C   UNL A   1      39.892  29.045  29.835  1.00  0.00     0.049 A 
ATOM     46  H   UNL A   1      41.725  28.865  28.858  1.00  0.00     0.167 HD
ATOM     47  C   UNL A   1      45.638  28.228  27.031  1.00  0.00     0.034 A 
ATOM     48  C   UNL A   1      39.895  30.232  30.474  1.00  0.00     0.034 A 
ATOM     49  C   UNL A   1      45.662  29.582  27.519  1.00  0.00     0.049 A 
ATOM     50  C   UNL A   1      41.088  31.135  30.328  1.00  0.00     0.074 A 
ATOM     51  C   UNL A   1      46.674  30.519  27.402  1.00  0.00     0.029 A 
ATOM     52  N   UNL A   1      44.639  30.186  28.231  1.00  0.00    -0.354 N 
ATOM     53  N   UNL A   1      42.198  30.936  29.662  1.00  0.00    -0.248 NA
ATOM     54  C   UNL A   1      41.011  32.446  30.989  1.00  0.00     0.031 C 
ATOM     55  C   UNL A   1      46.278  31.677  28.079  1.00  0.00     0.029 A 
ATOM     56  C   UNL A   1      45.001  31.477  28.579  1.00  0.00     0.049 A 
ATOM     57  H   UNL A   1      43.781  29.761  28.457  1.00  0.00     0.167 HD
ATOM     58  C   UNL A   1      42.938  32.105  29.796  1.00  0.00     0.074 A 
ATOM     59  C   UNL A   1      42.133  33.019  30.580  1.00  0.00     0.031 C 
ATOM     60  C   UNL A   1      44.178  32.391  29.327  1.00  0.00     0.034 A 
BRANCH  47  61
ATOM     61  C   UNL A   1      46.882  27.690  26.374  1.00  0.00     0.023 A 
ATOM     62  C   UNL A   1      47.772  26.882  27.113  1.00  0.00     0.012 A 
ATOM     63  C   UNL A   1      47.133  27.920  25.007  1.00  0.00     0.148 A 
ATOM     64  C   UNL A   1      48.906  26.338  26.509  1.00  0.00     0.002 A 
ATOM     65  C   UNL A   1      48.237  27.335  24.400  1.00  0.00     0.091 A 
ATOM     66  F   UNL A   1      46.287  28.707  24.326  1.00  0.00    -0.205 F 
ATOM     67  C   UNL A   1      49.131  26.554  25.152  1.00  0.00     0.022 A 
BRANCH  65  68
ATOM     68  S   UNL A   1      48.572  27.481  22.642  1.00  0.00     0.127 S 
ATOM     69  O   UNL A   1      49.872  28.149  22.645  1.00  0.00    -0.237 OA
ATOM     70  O   UNL A   1      48.606  26.081  22.219  1.00  0.00    -0.237 OA
ATOM     71  O   UNL A   1      47.473  28.259  22.086  1.00  0.00    -0.744 OA
ENDBRANCH  65  68
ENDBRANCH  47  61
BRANCH  48  72
ATOM     72  C   UNL A   1      38.704  30.657  31.263  1.00  0.00     0.023 A 
ATOM     73  C   UNL A   1      38.644  30.381  32.643  1.00  0.00     0.012 A 
ATOM     74  C   UNL A   1      37.637  31.344  30.653  1.00  0.00     0.148 A 
ATOM     75  C   UNL A   1      37.525  30.745  33.393  1.00  0.00     0.002 A 
ATOM     76  C   UNL A   1      36.552  31.757  31.418  1.00  0.00     0.091 A 
ATOM     77  F   UNL A   1      37.707  31.587  29.338  1.00  0.00    -0.205 F 
ATOM     78  C   UNL A   1      36.484  31.440  32.783  1.00  0.00     0.022 A 
BRANCH  76  79
ATOM     79  S   UNL A   1      35.236  32.776  30.744  1.00  0.00     0.127 S 
ATOM     80  O   UNL A   1      34.736  31.937  29.657  1.00  0.00    -0.237 OA
ATOM     81  O   UNL A   1      34.336  32.902  31.891  1.00  0.00    -0.237 OA
ATOM     82  O   UNL A   1      35.873  34.022  30.342  1.00  0.00    -0.744 OA
ENDBRANCH  76  79
ENDBRANCH  48  72
BRANCH  60  83
ATOM     83  C   UNL A   1      44.732  33.762  29.621  1.00  0.00     0.023 A 
ATOM     84  C   UNL A   1      45.487  33.982  30.790  1.00  0.00     0.012 A 
ATOM     85  C   UNL A   1      44.537  34.824  28.716  1.00  0.00     0.148 A 
ATOM     86  C   UNL A   1      45.998  35.246  31.078  1.00  0.00     0.002 A 
ATOM     87  C   UNL A   1      45.098  36.067  28.982  1.00  0.00     0.091 A 
ATOM     88  F   UNL A   1      43.801  34.603  27.616  1.00  0.00    -0.205 F 
ATOM     89  C   UNL A   1      45.813  36.286  30.170  1.00  0.00     0.022 A 
BRANCH  87  90
ATOM     90  S   UNL A   1      44.994  37.435  27.821  1.00  0.00     0.127 S 
ATOM     91  O   UNL A   1      45.698  36.895  26.660  1.00  0.00    -0.237 OA
ATOM     92  O   UNL A   1      43.548  37.583  27.644  1.00  0.00    -0.237 OA
ATOM     93  O   UNL A   1      45.639  38.566  28.476  1.00  0.00    -0.744 OA
ENDBRANCH  87  90
ENDBRANCH  60  83
ENDBRANCH  34  35
ENDBRANCH  26  29
ENDBRANCH  24  25
ENDBRANCH  23  24
ENDBRANCH   1  23
TORSDOF 20
ENDMDL
