MODEL 1
REMARK VINA RESULT:     -12.7      0.000      0.000
REMARK SMILES O=C(NCCCCNC(=O)[C@H](CO)NC(=O)[C@H](Cc1ccc(O)cc1)NC(=O)c1ccc(F)cc1)c1ccc(-c2c3nc(c(-c4cccc(S(=O)(=O)[O-])c4F)c4ccc([nH]4)c(-c4cccc(S(=O)(=O)[O-])c4F)c4nc(c(-c5cccc(S(=O)(=O)[O-])c5F)c5ccc2[nH]5)C=C4)C=C3)cc1
REMARK SMILES IDX 6 1 5 2 4 3 3 4 1 5 2 6 36 8 37 9 98 10 38 11 97 12 39 13
REMARK SMILES IDX 40 14 41 15 91 16 42 17 96 18 90 19 92 20 43 21 95 22 89 23
REMARK SMILES IDX 88 24 44 26 76 27 56 28 75 29 57 30 60 31 74 32 93 33 58 34
REMARK SMILES IDX 59 35 73 37 94 38 61 39 45 40 46 41 54 42 47 43 49 44 55 45
REMARK SMILES IDX 48 46 50 47 51 48 52 49 53 50 77 51 78 52 86 53 79 54 81 55
REMARK SMILES IDX 87 56 80 57 82 58 83 59 84 60 85 61 62 62 63 63 71 64 64 65
REMARK SMILES IDX 66 66 72 67 65 68 67 69 68 70 69 71 70 72 7 73 8 74 9 75
REMARK SMILES IDX 10 77 11 78 14 79 15 80 16 82 17 83 26 84 27 85 28 87 29 88
REMARK SMILES IDX 30 89 35 90 31 91 34 92 32 93 33 94 18 95 19 96 20 97 25 98
REMARK SMILES IDX 21 99 24 100 22 101 23 102 12 104 13 105
REMARK H PARENT 3 7 92 25 60 36 8 76 14 81 26 86 23 103 13 106
REMARK Flexibility Score: inf
ROOT
ATOM      1  C   UNL A   1      38.765  22.915  25.894  1.00  0.00     0.023 C 
ENDROOT
BRANCH   1   2
ATOM      2  C   UNL A   1      38.945  21.441  25.669  1.00  0.00     0.023 C 
BRANCH   2   3
ATOM      3  C   UNL A   1      39.719  20.797  26.790  1.00  0.00     0.116 C 
BRANCH   3   4
ATOM      4  N   UNL A   1      40.498  19.622  26.360  1.00  0.00    -0.352 N 
ATOM      5  O   UNL A   1      42.348  18.556  25.579  1.00  0.00    -0.269 OA
ATOM      6  C   UNL A   1      41.833  19.564  26.039  1.00  0.00     0.251 C 
ATOM      7  H   UNL A   1      40.001  18.774  26.294  1.00  0.00     0.163 HD
BRANCH   6   8
ATOM      8  C   UNL A   1      42.580  20.807  26.246  1.00  0.00     0.039 A 
ATOM      9  C   UNL A   1      42.829  21.169  27.569  1.00  0.00     0.014 A 
ATOM     10  C   UNL A   1      42.672  21.721  25.198  1.00  0.00     0.014 A 
ATOM     11  C   UNL A   1      42.882  22.514  27.866  1.00  0.00     0.010 A 
ATOM     12  C   UNL A   1      42.949  23.052  25.500  1.00  0.00     0.010 A 
ATOM     13  C   UNL A   1      43.001  23.467  26.839  1.00  0.00    -0.014 A 
BRANCH  13  14
ATOM     14  C   UNL A   1      43.276  24.870  27.223  1.00  0.00     0.031 A 
ATOM     15  C   UNL A   1      42.247  25.736  27.891  1.00  0.00     0.074 A 
ATOM     16  C   UNL A   1      44.512  25.342  26.960  1.00  0.00     0.049 A 
ATOM     17  N   UNL A   1      42.357  26.988  28.251  1.00  0.00    -0.248 NA
ATOM     18  C   UNL A   1      40.928  25.148  28.184  1.00  0.00     0.031 C 
ATOM     19  C   UNL A   1      45.576  24.582  26.289  1.00  0.00     0.029 A 
ATOM     20  N   UNL A   1      45.095  26.549  27.228  1.00  0.00    -0.354 N 
ATOM     21  C   UNL A   1      41.118  27.354  28.759  1.00  0.00     0.074 A 
ATOM     22  C   UNL A   1      40.262  26.191  28.663  1.00  0.00     0.031 C 
ATOM     23  C   UNL A   1      46.694  25.311  26.261  1.00  0.00     0.029 A 
ATOM     24  C   UNL A   1      46.394  26.632  26.785  1.00  0.00     0.049 A 
ATOM     25  H   UNL A   1      44.633  27.285  27.691  1.00  0.00     0.167 HD
ATOM     26  C   UNL A   1      40.741  28.552  29.262  1.00  0.00     0.034 A 
ATOM     27  C   UNL A   1      47.246  27.670  26.746  1.00  0.00     0.034 A 
ATOM     28  C   UNL A   1      41.621  29.686  29.376  1.00  0.00     0.049 A 
ATOM     29  C   UNL A   1      46.786  28.982  27.292  1.00  0.00     0.074 A 
ATOM     30  C   UNL A   1      41.348  30.925  29.926  1.00  0.00     0.029 A 
ATOM     31  N   UNL A   1      42.929  29.729  28.919  1.00  0.00    -0.354 N 
ATOM     32  N   UNL A   1      45.640  29.279  27.852  1.00  0.00    -0.248 NA
ATOM     33  C   UNL A   1      47.735  30.098  27.220  1.00  0.00     0.031 C 
ATOM     34  C   UNL A   1      42.470  31.736  29.752  1.00  0.00     0.029 A 
ATOM     35  C   UNL A   1      43.467  30.983  29.152  1.00  0.00     0.049 A 
ATOM     36  H   UNL A   1      43.404  28.980  28.493  1.00  0.00     0.167 HD
ATOM     37  C   UNL A   1      45.737  30.610  28.224  1.00  0.00     0.074 A 
ATOM     38  C   UNL A   1      47.064  31.055  27.847  1.00  0.00     0.031 C 
ATOM     39  C   UNL A   1      44.804  31.396  28.812  1.00  0.00     0.034 A 
BRANCH  26  40
ATOM     40  C   UNL A   1      39.326  28.721  29.754  1.00  0.00     0.023 A 
ATOM     41  C   UNL A   1      39.007  28.422  31.092  1.00  0.00     0.012 A 
ATOM     42  C   UNL A   1      38.352  29.317  28.926  1.00  0.00     0.148 A 
ATOM     43  C   UNL A   1      37.737  28.702  31.598  1.00  0.00     0.002 A 
ATOM     44  C   UNL A   1      37.107  29.639  29.450  1.00  0.00     0.091 A 
ATOM     45  F   UNL A   1      38.673  29.581  27.652  1.00  0.00    -0.205 F 
ATOM     46  C   UNL A   1      36.794  29.325  30.783  1.00  0.00     0.022 A 
BRANCH  44  47
ATOM     47  S   UNL A   1      35.856  30.524  28.512  1.00  0.00     0.127 S 
ATOM     48  O   UNL A   1      36.678  31.303  27.588  1.00  0.00    -0.237 OA
ATOM     49  O   UNL A   1      35.110  29.430  27.892  1.00  0.00    -0.237 OA
ATOM     50  O   UNL A   1      35.104  31.310  29.481  1.00  0.00    -0.744 OA
ENDBRANCH  44  47
ENDBRANCH  26  40
BRANCH  27  51
ATOM     51  C   UNL A   1      48.599  27.485  26.158  1.00  0.00     0.023 A 
ATOM     52  C   UNL A   1      49.658  27.048  26.975  1.00  0.00     0.012 A 
ATOM     53  C   UNL A   1      48.824  27.674  24.778  1.00  0.00     0.148 A 
ATOM     54  C   UNL A   1      50.924  26.832  26.432  1.00  0.00     0.002 A 
ATOM     55  C   UNL A   1      50.068  27.392  24.234  1.00  0.00     0.091 A 
ATOM     56  F   UNL A   1      47.798  28.086  24.019  1.00  0.00    -0.205 F 
ATOM     57  C   UNL A   1      51.127  26.991  25.064  1.00  0.00     0.022 A 
BRANCH  55  58
ATOM     58  S   UNL A   1      50.377  27.425  22.466  1.00  0.00     0.127 S 
ATOM     59  O   UNL A   1      51.700  26.810  22.385  1.00  0.00    -0.237 OA
ATOM     60  O   UNL A   1      49.279  26.602  21.957  1.00  0.00    -0.237 OA
ATOM     61  O   UNL A   1      50.309  28.826  22.076  1.00  0.00    -0.744 OA
ENDBRANCH  55  58
ENDBRANCH  27  51
BRANCH  39  62
ATOM     62  C   UNL A   1      45.182  32.817  29.127  1.00  0.00     0.023 A 
ATOM     63  C   UNL A   1      45.832  33.120  30.338  1.00  0.00     0.012 A 
ATOM     64  C   UNL A   1      45.006  33.824  28.157  1.00  0.00     0.148 A 
ATOM     65  C   UNL A   1      46.292  34.411  30.585  1.00  0.00     0.002 A 
ATOM     66  C   UNL A   1      45.520  35.092  28.386  1.00  0.00     0.091 A 
ATOM     67  F   UNL A   1      44.369  33.511  27.020  1.00  0.00    -0.205 F 
ATOM     68  C   UNL A   1      46.153  35.391  29.603  1.00  0.00     0.022 A 
BRANCH  66  69
ATOM     69  S   UNL A   1      45.486  36.385  27.141  1.00  0.00     0.127 S 
ATOM     70  O   UNL A   1      46.070  35.702  25.987  1.00  0.00    -0.237 OA
ATOM     71  O   UNL A   1      44.055  36.661  27.026  1.00  0.00    -0.237 OA
ATOM     72  O   UNL A   1      46.281  37.483  27.673  1.00  0.00    -0.744 OA
ENDBRANCH  66  69
ENDBRANCH  39  62
ENDBRANCH  13  14
ENDBRANCH   6   8
ENDBRANCH   3   4
ENDBRANCH   2   3
ENDBRANCH   1   2
BRANCH   1  73
ATOM     73  C   UNL A   1      37.315  23.393  25.831  1.00  0.00     0.116 C 
BRANCH  73  74
ATOM     74  N   UNL A   1      36.502  22.983  24.652  1.00  0.00    -0.354 N 
ATOM     75  C   UNL A   1      35.125  22.529  24.345  1.00  0.00     0.244 C 
ATOM     76  H   UNL A   1      37.042  23.025  23.830  1.00  0.00     0.163 HD
ATOM     77  O   UNL A   1      35.149  22.972  23.140  1.00  0.00    -0.273 OA
BRANCH  75  78
ATOM     78  C   UNL A   1      33.584  21.430  25.466  1.00  0.00     0.197 C 
BRANCH  78  79
ATOM     79  N   UNL A   1      32.503  21.942  26.593  1.00  0.00    -0.340 N 
ATOM     80  C   UNL A   1      31.711  23.054  26.592  1.00  0.00     0.243 C 
ATOM     81  H   UNL A   1      32.412  21.362  27.383  1.00  0.00     0.164 HD
ATOM     82  O   UNL A   1      31.042  23.294  27.599  1.00  0.00    -0.273 OA
BRANCH  80  83
ATOM     83  C   UNL A   1      31.775  24.032  25.400  1.00  0.00     0.176 C 
BRANCH  83  84
ATOM     84  N   UNL A   1      33.205  24.389  25.277  1.00  0.00    -0.340 N 
ATOM     85  C   UNL A   1      33.843  25.560  25.601  1.00  0.00     0.251 C 
ATOM     86  H   UNL A   1      33.784  23.684  24.908  1.00  0.00     0.164 HD
ATOM     87  O   UNL A   1      35.068  25.619  25.630  1.00  0.00    -0.269 OA
BRANCH  85  88
ATOM     88  C   UNL A   1      33.046  26.788  25.768  1.00  0.00     0.040 A 
ATOM     89  C   UNL A   1      33.317  27.952  25.042  1.00  0.00     0.017 A 
ATOM     90  C   UNL A   1      32.085  26.787  26.784  1.00  0.00     0.017 A 
ATOM     91  C   UNL A   1      32.752  29.158  25.450  1.00  0.00     0.040 A 
ATOM     92  C   UNL A   1      31.486  27.987  27.157  1.00  0.00     0.040 A 
ATOM     93  C   UNL A   1      31.857  29.166  26.515  1.00  0.00     0.123 A 
ATOM     94  F   UNL A   1      31.353  30.332  26.939  1.00  0.00    -0.207 F 
ENDBRANCH  85  88
ENDBRANCH  83  84
BRANCH  83  95
ATOM     95  C   UNL A   1      31.060  23.586  24.102  1.00  0.00     0.070 C 
BRANCH  95  96
ATOM     96  C   UNL A   1      30.746  24.762  23.206  1.00  0.00    -0.045 A 
ATOM     97  C   UNL A   1      32.026  25.273  22.039  1.00  0.00     0.007 A 
ATOM     98  C   UNL A   1      29.563  25.920  23.860  1.00  0.00     0.007 A 
ATOM     99  C   UNL A   1      32.224  26.995  21.622  1.00  0.00     0.046 A 
ATOM    100  C   UNL A   1      29.822  27.651  23.537  1.00  0.00     0.046 A 
ATOM    101  C   UNL A   1      31.146  28.200  22.373  1.00  0.00     0.115 A 
BRANCH 101 102
ATOM    102  O   UNL A   1      31.393  29.520  22.164  1.00  0.00    -0.508 OA
ATOM    103  H   UNL A   1      32.090  29.944  22.624  1.00  0.00     0.293 HD
ENDBRANCH 101 102
ENDBRANCH  95  96
ENDBRANCH  83  95
ENDBRANCH  80  83
ENDBRANCH  78  79
BRANCH  78 104
ATOM    104  C   UNL A   1      32.419  20.141  24.943  1.00  0.00     0.191 C 
BRANCH 104 105
ATOM    105  O   UNL A   1      32.164  18.950  25.691  1.00  0.00    -0.394 OA
ATOM    106  H   UNL A   1      32.691  18.221  25.329  1.00  0.00     0.210 HD
ENDBRANCH 104 105
ENDBRANCH  78 104
ENDBRANCH  75  78
ENDBRANCH  73  74
ENDBRANCH   1  73
TORSDOF 23
ENDMDL
MODEL 2
REMARK VINA RESULT:     -12.5      1.266      2.257
REMARK SMILES O=C(NCCCCNC(=O)[C@H](CO)NC(=O)[C@H](Cc1ccc(O)cc1)NC(=O)c1ccc(F)cc1)c1ccc(-c2c3nc(c(-c4cccc(S(=O)(=O)[O-])c4F)c4ccc([nH]4)c(-c4cccc(S(=O)(=O)[O-])c4F)c4nc(c(-c5cccc(S(=O)(=O)[O-])c5F)c5ccc2[nH]5)C=C4)C=C3)cc1
REMARK SMILES IDX 6 1 5 2 4 3 3 4 1 5 2 6 36 8 37 9 98 10 38 11 97 12 39 13
REMARK SMILES IDX 40 14 41 15 91 16 42 17 96 18 90 19 92 20 43 21 95 22 89 23
REMARK SMILES IDX 88 24 44 26 76 27 56 28 75 29 57 30 60 31 74 32 93 33 58 34
REMARK SMILES IDX 59 35 73 37 94 38 61 39 45 40 46 41 54 42 47 43 49 44 55 45
REMARK SMILES IDX 48 46 50 47 51 48 52 49 53 50 77 51 78 52 86 53 79 54 81 55
REMARK SMILES IDX 87 56 80 57 82 58 83 59 84 60 85 61 62 62 63 63 71 64 64 65
REMARK SMILES IDX 66 66 72 67 65 68 67 69 68 70 69 71 70 72 7 73 8 74 9 75
REMARK SMILES IDX 10 77 11 78 14 79 15 80 16 82 17 83 26 84 27 85 28 87 29 88
REMARK SMILES IDX 30 89 35 90 31 91 34 92 32 93 33 94 18 95 19 96 20 97 25 98
REMARK SMILES IDX 21 99 24 100 22 101 23 102 12 104 13 105
REMARK H PARENT 3 7 92 25 60 36 8 76 14 81 26 86 23 103 13 106
REMARK Flexibility Score: inf
ROOT
ATOM      1  C   UNL A   1      38.269  22.921  25.758  1.00  0.00     0.023 C 
ENDROOT
BRANCH   1   2
ATOM      2  C   UNL A   1      38.694  21.494  25.562  1.00  0.00     0.023 C 
BRANCH   2   3
ATOM      3  C   UNL A   1      39.607  21.028  26.667  1.00  0.00     0.116 C 
BRANCH   3   4
ATOM      4  N   UNL A   1      40.321  19.780  26.345  1.00  0.00    -0.352 N 
ATOM      5  O   UNL A   1      42.130  18.546  25.736  1.00  0.00    -0.269 OA
ATOM      6  C   UNL A   1      41.665  19.612  26.112  1.00  0.00     0.251 C 
ATOM      7  H   UNL A   1      39.768  18.967  26.290  1.00  0.00     0.163 HD
BRANCH   6   8
ATOM      8  C   UNL A   1      42.488  20.809  26.304  1.00  0.00     0.039 A 
ATOM      9  C   UNL A   1      42.763  21.167  27.623  1.00  0.00     0.014 A 
ATOM     10  C   UNL A   1      42.632  21.704  25.247  1.00  0.00     0.014 A 
ATOM     11  C   UNL A   1      42.900  22.510  27.905  1.00  0.00     0.010 A 
ATOM     12  C   UNL A   1      42.991  23.018  25.533  1.00  0.00     0.010 A 
ATOM     13  C   UNL A   1      43.073  23.443  26.868  1.00  0.00    -0.014 A 
BRANCH  13  14
ATOM     14  C   UNL A   1      43.435  24.830  27.237  1.00  0.00     0.031 A 
ATOM     15  C   UNL A   1      42.476  25.753  27.932  1.00  0.00     0.074 A 
ATOM     16  C   UNL A   1      44.686  25.234  26.932  1.00  0.00     0.049 A 
ATOM     17  N   UNL A   1      42.665  26.998  28.283  1.00  0.00    -0.248 NA
ATOM     18  C   UNL A   1      41.137  25.237  28.270  1.00  0.00     0.031 C 
ATOM     19  C   UNL A   1      45.686  24.417  26.231  1.00  0.00     0.029 A 
ATOM     20  N   UNL A   1      45.341  26.409  27.176  1.00  0.00    -0.354 N 
ATOM     21  C   UNL A   1      41.464  27.431  28.829  1.00  0.00     0.074 A 
ATOM     22  C   UNL A   1      40.544  26.316  28.765  1.00  0.00     0.031 C 
ATOM     23  C   UNL A   1      46.840  25.084  26.164  1.00  0.00     0.029 A 
ATOM     24  C   UNL A   1      46.628  26.421  26.692  1.00  0.00     0.049 A 
ATOM     25  H   UNL A   1      44.934  27.170  27.650  1.00  0.00     0.167 HD
ATOM     26  C   UNL A   1      41.167  28.649  29.338  1.00  0.00     0.034 A 
ATOM     27  C   UNL A   1      47.532  27.411  26.621  1.00  0.00     0.034 A 
ATOM     28  C   UNL A   1      42.110  29.735  29.418  1.00  0.00     0.049 A 
ATOM     29  C   UNL A   1      47.161  28.748  27.175  1.00  0.00     0.074 A 
ATOM     30  C   UNL A   1      41.922  30.989  29.970  1.00  0.00     0.029 A 
ATOM     31  N   UNL A   1      43.404  29.706  28.920  1.00  0.00    -0.354 N 
ATOM     32  N   UNL A   1      46.051  29.107  27.769  1.00  0.00    -0.248 NA
ATOM     33  C   UNL A   1      48.166  29.811  27.068  1.00  0.00     0.031 C 
ATOM     34  C   UNL A   1      43.080  31.737  29.757  1.00  0.00     0.029 A 
ATOM     35  C   UNL A   1      44.016  30.930  29.130  1.00  0.00     0.049 A 
ATOM     36  H   UNL A   1      43.824  28.931  28.482  1.00  0.00     0.167 HD
ATOM     37  C   UNL A   1      46.231  30.433  28.132  1.00  0.00     0.074 A 
ATOM     38  C   UNL A   1      47.568  30.805  27.711  1.00  0.00     0.031 C 
ATOM     39  C   UNL A   1      45.361  31.269  28.745  1.00  0.00     0.034 A 
BRANCH  26  40
ATOM     40  C   UNL A   1      39.780  28.896  29.873  1.00  0.00     0.023 A 
ATOM     41  C   UNL A   1      39.391  28.331  31.103  1.00  0.00     0.012 A 
ATOM     42  C   UNL A   1      38.920  29.807  29.226  1.00  0.00     0.148 A 
ATOM     43  C   UNL A   1      38.163  28.660  31.677  1.00  0.00     0.002 A 
ATOM     44  C   UNL A   1      37.722  30.169  29.828  1.00  0.00     0.091 A 
ATOM     45  F   UNL A   1      39.305  30.323  28.051  1.00  0.00    -0.205 F 
ATOM     46  C   UNL A   1      37.337  29.591  31.049  1.00  0.00     0.022 A 
BRANCH  44  47
ATOM     47  S   UNL A   1      36.631  31.424  29.148  1.00  0.00     0.127 S 
ATOM     48  O   UNL A   1      35.498  31.360  30.071  1.00  0.00    -0.237 OA
ATOM     49  O   UNL A   1      37.447  32.632  29.268  1.00  0.00    -0.237 OA
ATOM     50  O   UNL A   1      36.339  31.011  27.782  1.00  0.00    -0.744 OA
ENDBRANCH  44  47
ENDBRANCH  26  40
BRANCH  27  51
ATOM     51  C   UNL A   1      48.855  27.152  25.992  1.00  0.00     0.023 A 
ATOM     52  C   UNL A   1      49.867  26.523  26.737  1.00  0.00     0.012 A 
ATOM     53  C   UNL A   1      49.087  27.466  24.636  1.00  0.00     0.148 A 
ATOM     54  C   UNL A   1      51.100  26.237  26.151  1.00  0.00     0.002 A 
ATOM     55  C   UNL A   1      50.291  27.116  24.042  1.00  0.00     0.091 A 
ATOM     56  F   UNL A   1      48.105  28.061  23.944  1.00  0.00    -0.205 F 
ATOM     57  C   UNL A   1      51.308  26.521  24.804  1.00  0.00     0.022 A 
BRANCH  55  58
ATOM     58  S   UNL A   1      50.588  27.309  22.281  1.00  0.00     0.127 S 
ATOM     59  O   UNL A   1      49.477  26.552  21.709  1.00  0.00    -0.237 OA
ATOM     60  O   UNL A   1      50.496  28.760  22.121  1.00  0.00    -0.237 OA
ATOM     61  O   UNL A   1      51.915  26.760  22.039  1.00  0.00    -0.744 OA
ENDBRANCH  55  58
ENDBRANCH  27  51
BRANCH  39  62
ATOM     62  C   UNL A   1      45.824  32.669  29.042  1.00  0.00     0.023 A 
ATOM     63  C   UNL A   1      46.563  32.932  30.210  1.00  0.00     0.012 A 
ATOM     64  C   UNL A   1      45.635  33.690  28.089  1.00  0.00     0.148 A 
ATOM     65  C   UNL A   1      47.098  34.200  30.433  1.00  0.00     0.002 A 
ATOM     66  C   UNL A   1      46.222  34.931  28.290  1.00  0.00     0.091 A 
ATOM     67  F   UNL A   1      44.914  33.415  26.993  1.00  0.00    -0.205 F 
ATOM     68  C   UNL A   1      46.943  35.191  29.466  1.00  0.00     0.022 A 
BRANCH  66  69
ATOM     69  S   UNL A   1      46.170  36.233  27.055  1.00  0.00     0.127 S 
ATOM     70  O   UNL A   1      46.766  35.567  25.897  1.00  0.00    -0.237 OA
ATOM     71  O   UNL A   1      44.735  36.489  26.941  1.00  0.00    -0.237 OA
ATOM     72  O   UNL A   1      46.948  37.339  27.596  1.00  0.00    -0.744 OA
ENDBRANCH  66  69
ENDBRANCH  39  62
ENDBRANCH  13  14
ENDBRANCH   6   8
ENDBRANCH   3   4
ENDBRANCH   2   3
ENDBRANCH   1   2
BRANCH   1  73
ATOM     73  C   UNL A   1      36.755  23.127  25.820  1.00  0.00     0.116 C 
BRANCH  73  74
ATOM     74  N   UNL A   1      36.051  23.463  24.552  1.00  0.00    -0.354 N 
ATOM     75  C   UNL A   1      34.724  23.265  23.921  1.00  0.00     0.244 C 
ATOM     76  H   UNL A   1      36.644  23.970  23.953  1.00  0.00     0.163 HD
ATOM     77  O   UNL A   1      34.810  24.317  23.191  1.00  0.00    -0.273 OA
BRANCH  75  78
ATOM     78  C   UNL A   1      33.167  21.718  24.075  1.00  0.00     0.197 C 
BRANCH  78  79
ATOM     79  N   UNL A   1      31.806  21.650  24.993  1.00  0.00    -0.340 N 
ATOM     80  C   UNL A   1      31.034  22.667  25.476  1.00  0.00     0.243 C 
ATOM     81  H   UNL A   1      31.502  20.744  25.227  1.00  0.00     0.164 HD
ATOM     82  O   UNL A   1      30.105  22.384  26.235  1.00  0.00    -0.273 OA
BRANCH  80  83
ATOM     83  C   UNL A   1      31.422  24.128  25.167  1.00  0.00     0.176 C 
BRANCH  83  84
ATOM     84  N   UNL A   1      30.134  24.827  24.958  1.00  0.00    -0.340 N 
ATOM     85  C   UNL A   1      29.765  25.694  23.960  1.00  0.00     0.251 C 
ATOM     86  H   UNL A   1      29.442  24.642  25.632  1.00  0.00     0.164 HD
ATOM     87  O   UNL A   1      28.592  26.024  23.819  1.00  0.00    -0.269 OA
BRANCH  85  88
ATOM     88  C   UNL A   1      30.812  26.347  23.153  1.00  0.00     0.040 A 
ATOM     89  C   UNL A   1      31.695  25.615  22.354  1.00  0.00     0.017 A 
ATOM     90  C   UNL A   1      30.974  27.726  23.321  1.00  0.00     0.017 A 
ATOM     91  C   UNL A   1      32.844  26.233  21.865  1.00  0.00     0.040 A 
ATOM     92  C   UNL A   1      32.099  28.349  22.790  1.00  0.00     0.040 A 
ATOM     93  C   UNL A   1      33.043  27.589  22.103  1.00  0.00     0.123 A 
ATOM     94  F   UNL A   1      34.171  28.171  21.676  1.00  0.00    -0.207 F 
ENDBRANCH  85  88
ENDBRANCH  83  84
BRANCH  83  95
ATOM     95  C   UNL A   1      32.421  24.798  26.139  1.00  0.00     0.070 C 
BRANCH  95  96
ATOM     96  C   UNL A   1      32.416  26.303  25.995  1.00  0.00    -0.045 A 
ATOM     97  C   UNL A   1      33.988  27.097  25.595  1.00  0.00     0.007 A 
ATOM     98  C   UNL A   1      31.151  27.150  26.916  1.00  0.00     0.007 A 
ATOM     99  C   UNL A   1      34.368  28.714  26.245  1.00  0.00     0.046 A 
ATOM    100  C   UNL A   1      31.563  28.714  27.660  1.00  0.00     0.046 A 
ATOM    101  C   UNL A   1      33.179  29.530  27.292  1.00  0.00     0.115 A 
BRANCH 101 102
ATOM    102  O   UNL A   1      33.531  30.693  27.899  1.00  0.00    -0.508 OA
ATOM    103  H   UNL A   1      33.374  30.808  28.816  1.00  0.00     0.293 HD
ENDBRANCH 101 102
ENDBRANCH  95  96
ENDBRANCH  83  95
ENDBRANCH  80  83
ENDBRANCH  78  79
BRANCH  78 104
ATOM    104  C   UNL A   1      32.352  20.715  22.802  1.00  0.00     0.191 C 
BRANCH 104 105
ATOM    105  O   UNL A   1      31.453  21.248  21.826  1.00  0.00    -0.394 OA
ATOM    106  H   UNL A   1      31.612  20.818  20.971  1.00  0.00     0.210 HD
ENDBRANCH 104 105
ENDBRANCH  78 104
ENDBRANCH  75  78
ENDBRANCH  73  74
ENDBRANCH   1  73
TORSDOF 23
ENDMDL
MODEL 3
REMARK VINA RESULT:     -12.2      5.639     10.907
REMARK SMILES O=C(NCCCCNC(=O)[C@H](CO)NC(=O)[C@H](Cc1ccc(O)cc1)NC(=O)c1ccc(F)cc1)c1ccc(-c2c3nc(c(-c4cccc(S(=O)(=O)[O-])c4F)c4ccc([nH]4)c(-c4cccc(S(=O)(=O)[O-])c4F)c4nc(c(-c5cccc(S(=O)(=O)[O-])c5F)c5ccc2[nH]5)C=C4)C=C3)cc1
REMARK SMILES IDX 6 1 5 2 4 3 3 4 1 5 2 6 36 8 37 9 98 10 38 11 97 12 39 13
REMARK SMILES IDX 40 14 41 15 91 16 42 17 96 18 90 19 92 20 43 21 95 22 89 23
REMARK SMILES IDX 88 24 44 26 76 27 56 28 75 29 57 30 60 31 74 32 93 33 58 34
REMARK SMILES IDX 59 35 73 37 94 38 61 39 45 40 46 41 54 42 47 43 49 44 55 45
REMARK SMILES IDX 48 46 50 47 51 48 52 49 53 50 77 51 78 52 86 53 79 54 81 55
REMARK SMILES IDX 87 56 80 57 82 58 83 59 84 60 85 61 62 62 63 63 71 64 64 65
REMARK SMILES IDX 66 66 72 67 65 68 67 69 68 70 69 71 70 72 7 73 8 74 9 75
REMARK SMILES IDX 10 77 11 78 14 79 15 80 16 82 17 83 26 84 27 85 28 87 29 88
REMARK SMILES IDX 30 89 35 90 31 91 34 92 32 93 33 94 18 95 19 96 20 97 25 98
REMARK SMILES IDX 21 99 24 100 22 101 23 102 12 104 13 105
REMARK H PARENT 3 7 92 25 60 36 8 76 14 81 26 86 23 103 13 106
REMARK Flexibility Score: inf
ROOT
ATOM      1  C   UNL A   1      31.442  30.609  26.471  1.00  0.00     0.023 C 
ENDROOT
BRANCH   1   2
ATOM      2  C   UNL A   1      32.937  30.701  26.360  1.00  0.00     0.023 C 
BRANCH   2   3
ATOM      3  C   UNL A   1      33.528  31.529  27.473  1.00  0.00     0.116 C 
BRANCH   3   4
ATOM      4  N   UNL A   1      33.024  32.913  27.499  1.00  0.00    -0.352 N 
ATOM      5  O   UNL A   1      32.837  35.017  28.340  1.00  0.00    -0.269 OA
ATOM      6  C   UNL A   1      33.411  33.938  28.329  1.00  0.00     0.251 C 
ATOM      7  H   UNL A   1      32.323  33.130  26.842  1.00  0.00     0.163 HD
BRANCH   6   8
ATOM      8  C   UNL A   1      34.528  33.628  29.225  1.00  0.00     0.039 A 
ATOM      9  C   UNL A   1      35.807  33.885  28.735  1.00  0.00     0.014 A 
ATOM     10  C   UNL A   1      34.306  32.785  30.312  1.00  0.00     0.014 A 
ATOM     11  C   UNL A   1      36.830  33.062  29.155  1.00  0.00     0.010 A 
ATOM     12  C   UNL A   1      35.395  32.124  30.873  1.00  0.00     0.010 A 
ATOM     13  C   UNL A   1      36.655  32.215  30.264  1.00  0.00    -0.014 A 
BRANCH  13  14
ATOM     14  C   UNL A   1      37.847  31.523  30.802  1.00  0.00     0.031 A 
ATOM     15  C   UNL A   1      38.624  30.518  30.001  1.00  0.00     0.074 A 
ATOM     16  C   UNL A   1      38.225  31.848  32.056  1.00  0.00     0.049 A 
ATOM     17  N   UNL A   1      39.669  29.825  30.371  1.00  0.00    -0.248 NA
ATOM     18  C   UNL A   1      38.181  30.236  28.624  1.00  0.00     0.031 C 
ATOM     19  C   UNL A   1      37.517  32.797  32.927  1.00  0.00     0.029 A 
ATOM     20  N   UNL A   1      39.287  31.442  32.815  1.00  0.00    -0.354 N 
ATOM     21  C   UNL A   1      39.975  28.990  29.304  1.00  0.00     0.074 A 
ATOM     22  C   UNL A   1      39.005  29.260  28.265  1.00  0.00     0.031 C 
ATOM     23  C   UNL A   1      38.198  32.952  34.064  1.00  0.00     0.029 A 
ATOM     24  C   UNL A   1      39.310  32.017  34.064  1.00  0.00     0.049 A 
ATOM     25  H   UNL A   1      39.965  30.802  32.501  1.00  0.00     0.167 HD
ATOM     26  C   UNL A   1      40.979  28.088  29.209  1.00  0.00     0.034 A 
ATOM     27  C   UNL A   1      40.101  31.785  35.124  1.00  0.00     0.034 A 
ATOM     28  C   UNL A   1      41.951  27.860  30.247  1.00  0.00     0.049 A 
ATOM     29  C   UNL A   1      41.186  30.768  34.988  1.00  0.00     0.074 A 
ATOM     30  C   UNL A   1      43.041  27.009  30.221  1.00  0.00     0.029 A 
ATOM     31  N   UNL A   1      41.943  28.464  31.494  1.00  0.00    -0.354 N 
ATOM     32  N   UNL A   1      41.514  30.058  33.938  1.00  0.00    -0.248 NA
ATOM     33  C   UNL A   1      42.022  30.529  36.169  1.00  0.00     0.031 C 
ATOM     34  C   UNL A   1      43.660  27.056  31.471  1.00  0.00     0.029 A 
ATOM     35  C   UNL A   1      42.995  27.985  32.255  1.00  0.00     0.049 A 
ATOM     36  H   UNL A   1      41.287  29.135  31.794  1.00  0.00     0.167 HD
ATOM     37  C   UNL A   1      42.612  29.303  34.322  1.00  0.00     0.074 A 
ATOM     38  C   UNL A   1      42.908  29.663  35.694  1.00  0.00     0.031 C 
ATOM     39  C   UNL A   1      43.302  28.386  33.604  1.00  0.00     0.034 A 
BRANCH  26  40
ATOM     40  C   UNL A   1      41.114  27.281  27.944  1.00  0.00     0.023 A 
ATOM     41  C   UNL A   1      41.757  27.836  26.821  1.00  0.00     0.012 A 
ATOM     42  C   UNL A   1      40.734  25.923  27.923  1.00  0.00     0.148 A 
ATOM     43  C   UNL A   1      42.011  27.057  25.692  1.00  0.00     0.002 A 
ATOM     44  C   UNL A   1      41.035  25.140  26.816  1.00  0.00     0.091 A 
ATOM     45  F   UNL A   1      40.111  25.419  28.998  1.00  0.00    -0.205 F 
ATOM     46  C   UNL A   1      41.665  25.707  25.696  1.00  0.00     0.022 A 
BRANCH  44  47
ATOM     47  S   UNL A   1      40.715  23.373  26.757  1.00  0.00     0.127 S 
ATOM     48  O   UNL A   1      41.085  22.963  28.111  1.00  0.00    -0.237 OA
ATOM     49  O   UNL A   1      39.280  23.333  26.478  1.00  0.00    -0.237 OA
ATOM     50  O   UNL A   1      41.564  22.843  25.699  1.00  0.00    -0.744 OA
ENDBRANCH  44  47
ENDBRANCH  26  40
BRANCH  27  51
ATOM     51  C   UNL A   1      39.869  32.533  36.388  1.00  0.00     0.023 A 
ATOM     52  C   UNL A   1      40.591  33.713  36.641  1.00  0.00     0.012 A 
ATOM     53  C   UNL A   1      38.884  32.115  37.308  1.00  0.00     0.148 A 
ATOM     54  C   UNL A   1      40.358  34.448  37.803  1.00  0.00     0.002 A 
ATOM     55  C   UNL A   1      38.610  32.888  38.428  1.00  0.00     0.091 A 
ATOM     56  F   UNL A   1      38.205  30.990  37.043  1.00  0.00    -0.205 F 
ATOM     57  C   UNL A   1      39.362  34.043  38.689  1.00  0.00     0.022 A 
BRANCH  55  58
ATOM     58  S   UNL A   1      37.248  32.524  39.539  1.00  0.00     0.127 S 
ATOM     59  O   UNL A   1      37.390  33.582  40.538  1.00  0.00    -0.237 OA
ATOM     60  O   UNL A   1      36.094  32.663  38.651  1.00  0.00    -0.237 OA
ATOM     61  O   UNL A   1      37.478  31.169  40.021  1.00  0.00    -0.744 OA
ENDBRANCH  55  58
ENDBRANCH  27  51
BRANCH  39  62
ATOM     62  C   UNL A   1      44.477  27.720  34.265  1.00  0.00     0.023 A 
ATOM     63  C   UNL A   1      45.729  28.363  34.288  1.00  0.00     0.012 A 
ATOM     64  C   UNL A   1      44.297  26.515  34.974  1.00  0.00     0.148 A 
ATOM     65  C   UNL A   1      46.791  27.809  35.000  1.00  0.00     0.002 A 
ATOM     66  C   UNL A   1      45.342  26.002  35.729  1.00  0.00     0.091 A 
ATOM     67  F   UNL A   1      43.099  25.916  34.921  1.00  0.00    -0.205 F 
ATOM     68  C   UNL A   1      46.592  26.641  35.734  1.00  0.00     0.022 A 
BRANCH  66  69
ATOM     69  S   UNL A   1      45.150  24.567  36.790  1.00  0.00     0.127 S 
ATOM     70  O   UNL A   1      44.634  23.570  35.852  1.00  0.00    -0.237 OA
ATOM     71  O   UNL A   1      46.522  24.331  37.237  1.00  0.00    -0.237 OA
ATOM     72  O   UNL A   1      44.222  24.960  37.842  1.00  0.00    -0.744 OA
ENDBRANCH  66  69
ENDBRANCH  39  62
ENDBRANCH  13  14
ENDBRANCH   6   8
ENDBRANCH   3   4
ENDBRANCH   2   3
ENDBRANCH   1   2
BRANCH   1  73
ATOM     73  C   UNL A   1      30.679  31.342  25.368  1.00  0.00     0.116 C 
BRANCH  73  74
ATOM     74  N   UNL A   1      30.112  30.525  24.260  1.00  0.00    -0.354 N 
ATOM     75  C   UNL A   1      30.438  29.302  23.489  1.00  0.00     0.244 C 
ATOM     76  H   UNL A   1      29.264  30.914  23.945  1.00  0.00     0.163 HD
ATOM     77  O   UNL A   1      29.213  29.037  23.213  1.00  0.00    -0.273 OA
BRANCH  75  78
ATOM     78  C   UNL A   1      32.313  28.299  22.924  1.00  0.00     0.197 C 
BRANCH  78  79
ATOM     79  N   UNL A   1      32.678  27.347  21.635  1.00  0.00    -0.340 N 
ATOM     80  C   UNL A   1      32.747  25.987  21.554  1.00  0.00     0.243 C 
ATOM     81  H   UNL A   1      32.875  27.829  20.799  1.00  0.00     0.164 HD
ATOM     82  O   UNL A   1      33.142  25.484  20.499  1.00  0.00    -0.273 OA
BRANCH  80  83
ATOM     83  C   UNL A   1      32.457  25.135  22.807  1.00  0.00     0.176 C 
BRANCH  83  84
ATOM     84  N   UNL A   1      32.974  25.934  23.939  1.00  0.00    -0.340 N 
ATOM     85  C   UNL A   1      34.075  25.717  24.729  1.00  0.00     0.251 C 
ATOM     86  H   UNL A   1      32.453  26.739  24.157  1.00  0.00     0.164 HD
ATOM     87  O   UNL A   1      34.481  26.588  25.491  1.00  0.00    -0.269 OA
BRANCH  85  88
ATOM     88  C   UNL A   1      34.678  24.373  24.765  1.00  0.00     0.040 A 
ATOM     89  C   UNL A   1      34.983  23.730  25.969  1.00  0.00     0.017 A 
ATOM     90  C   UNL A   1      35.059  23.816  23.540  1.00  0.00     0.017 A 
ATOM     91  C   UNL A   1      35.823  22.619  25.955  1.00  0.00     0.040 A 
ATOM     92  C   UNL A   1      35.859  22.677  23.529  1.00  0.00     0.040 A 
ATOM     93  C   UNL A   1      36.267  22.114  24.736  1.00  0.00     0.123 A 
ATOM     94  F   UNL A   1      37.114  21.077  24.725  1.00  0.00    -0.207 F 
ENDBRANCH  85  88
ENDBRANCH  83  84
BRANCH  83  95
ATOM     95  C   UNL A   1      31.018  24.585  22.950  1.00  0.00     0.070 C 
BRANCH  95  96
ATOM     96  C   UNL A   1      30.993  23.278  23.709  1.00  0.00    -0.045 A 
ATOM     97  C   UNL A   1      30.902  23.372  25.510  1.00  0.00     0.007 A 
ATOM     98  C   UNL A   1      31.772  21.907  22.885  1.00  0.00     0.007 A 
ATOM     99  C   UNL A   1      31.726  22.152  26.516  1.00  0.00     0.046 A 
ATOM    100  C   UNL A   1      32.690  20.748  23.877  1.00  0.00     0.046 A 
ATOM    101  C   UNL A   1      32.639  20.845  25.721  1.00  0.00     0.115 A 
BRANCH 101 102
ATOM    102  O   UNL A   1      33.383  20.005  26.487  1.00  0.00    -0.508 OA
ATOM    103  H   UNL A   1      33.022  19.189  26.771  1.00  0.00     0.293 HD
ENDBRANCH 101 102
ENDBRANCH  95  96
ENDBRANCH  83  95
ENDBRANCH  80  83
ENDBRANCH  78  79
BRANCH  78 104
ATOM    104  C   UNL A   1      34.036  28.867  22.984  1.00  0.00     0.191 C 
BRANCH 104 105
ATOM    105  O   UNL A   1      35.032  28.483  22.033  1.00  0.00    -0.394 OA
ATOM    106  H   UNL A   1      35.839  28.216  22.501  1.00  0.00     0.210 HD
ENDBRANCH 104 105
ENDBRANCH  78 104
ENDBRANCH  75  78
ENDBRANCH  73  74
ENDBRANCH   1  73
TORSDOF 23
ENDMDL
