MODEL 1
REMARK VINA RESULT:     -11.2      0.000      0.000
REMARK SMILES CC[C@H](C)CN(CC)C(=O)Nc1ccc(C(=O)NCCCCNC(=O)c2ccc(-c3c4nc(c(-c5cccc(S(=O)(=O)[O-])c5F)c5ccc([nH]5)c(-c5cccc(S(=O)(=O)[O-])c5F)c5nc(c(-c6cccc(S(=O)(=O)[O-])c6F)c6ccc3[nH]6)C=C5)C=C4)cc2)cc1Cl
REMARK SMILES IDX 19 1 18 2 16 3 17 4 15 6 12 7 13 8 90 9 14 10 89 11 91 12
REMARK SMILES IDX 11 13 9 14 10 15 6 17 5 18 3 19 4 20 2 21 1 22 7 23 8 24
REMARK SMILES IDX 20 25 21 26 22 27 23 28 24 29 25 31 26 32 27 33 88 34 28 35
REMARK SMILES IDX 87 36 29 37 30 38 31 39 81 40 32 41 86 42 80 43 82 44 33 45
REMARK SMILES IDX 85 46 79 47 78 48 34 50 66 51 46 52 65 53 47 54 50 55 64 56
REMARK SMILES IDX 83 57 48 58 49 59 63 61 84 62 51 63 35 64 36 65 44 66 37 67
REMARK SMILES IDX 39 68 45 69 38 70 40 71 41 72 42 73 43 74 67 75 68 76 76 77
REMARK SMILES IDX 69 78 71 79 77 80 70 81 72 82 73 83 74 84 75 85 52 86 53 87
REMARK SMILES IDX 61 88 54 89 56 90 62 91 55 92 57 93 58 94 59 95 60 96
REMARK H PARENT 18 5 11 16 23 30 82 49 50 60
REMARK Flexibility Score: inf
ROOT
ATOM      1  C   UNL A   1      35.667  21.121  25.358  1.00  0.00     0.116 C 
ENDROOT
BRANCH   1   2
ATOM      2  N   UNL A   1      34.960  19.870  25.134  1.00  0.00    -0.352 N 
ATOM      3  C   UNL A   1      33.685  19.628  24.682  1.00  0.00     0.251 C 
ATOM      4  O   UNL A   1      33.324  18.479  24.446  1.00  0.00    -0.269 OA
ATOM      5  H   UNL A   1      35.481  19.061  25.342  1.00  0.00     0.163 HD
BRANCH   3   6
ATOM      6  C   UNL A   1      32.763  20.746  24.385  1.00  0.00     0.041 A 
ATOM      7  C   UNL A   1      31.365  23.075  23.783  1.00  0.00     0.061 A 
ATOM      8  C   UNL A   1      31.940  22.328  22.751  1.00  0.00     0.028 A 
ATOM      9  C   UNL A   1      31.328  22.554  25.084  1.00  0.00     0.065 A 
ATOM     10  C   UNL A   1      32.667  21.179  23.057  1.00  0.00     0.016 A 
ATOM     11  C   UNL A   1      32.007  21.373  25.376  1.00  0.00     0.036 A 
ATOM     12  Cl  UNL A   1      30.395  23.280  26.345  1.00  0.00    -0.082 Cl
BRANCH   7  13
ATOM     13  N   UNL A   1      30.883  24.343  23.441  1.00  0.00    -0.306 N 
ATOM     14  C   UNL A   1      31.483  25.562  23.530  1.00  0.00     0.321 C 
ATOM     15  O   UNL A   1      30.765  26.512  23.852  1.00  0.00    -0.248 OA
ATOM     16  H   UNL A   1      29.967  24.355  23.080  1.00  0.00     0.171 HD
BRANCH  14  17
ATOM     17  N   UNL A   1      32.775  25.740  23.044  1.00  0.00    -0.325 N 
BRANCH  17  18
ATOM     18  C   UNL A   1      33.871  25.580  24.011  1.00  0.00     0.124 C 
BRANCH  18  19
ATOM     19  C   UNL A   1      33.401  25.567  25.496  1.00  0.00     0.005 C 
ATOM     20  C   UNL A   1      34.008  24.399  26.279  1.00  0.00     0.009 C 
BRANCH  19  21
ATOM     21  C   UNL A   1      33.720  26.942  26.130  1.00  0.00     0.002 C 
ATOM     22  C   UNL A   1      33.649  28.139  25.193  1.00  0.00     0.004 C 
ENDBRANCH  19  21
ENDBRANCH  18  19
ENDBRANCH  17  18
BRANCH  17  23
ATOM     23  C   UNL A   1      33.192  26.205  21.714  1.00  0.00     0.118 C 
ATOM     24  C   UNL A   1      32.375  25.570  20.592  1.00  0.00     0.027 C 
ENDBRANCH  17  23
ENDBRANCH  14  17
ENDBRANCH   7  13
ENDBRANCH   3   6
ENDBRANCH   1   2
BRANCH   1  25
ATOM     25  C   UNL A   1      36.990  21.162  24.592  1.00  0.00     0.023 C 
BRANCH  25  26
ATOM     26  C   UNL A   1      37.917  19.977  24.875  1.00  0.00     0.023 C 
BRANCH  26  27
ATOM     27  C   UNL A   1      38.953  20.210  25.970  1.00  0.00     0.116 C 
BRANCH  27  28
ATOM     28  N   UNL A   1      40.001  19.202  25.985  1.00  0.00    -0.352 N 
ATOM     29  C   UNL A   1      41.362  19.363  26.134  1.00  0.00     0.251 C 
ATOM     30  H   UNL A   1      39.695  18.273  25.870  1.00  0.00     0.163 HD
ATOM     31  O   UNL A   1      42.104  18.405  25.996  1.00  0.00    -0.269 OA
BRANCH  29  32
ATOM     32  C   UNL A   1      41.916  20.705  26.431  1.00  0.00     0.039 A 
ATOM     33  C   UNL A   1      42.150  21.583  25.370  1.00  0.00     0.014 A 
ATOM     34  C   UNL A   1      42.202  21.098  27.741  1.00  0.00     0.014 A 
ATOM     35  C   UNL A   1      42.610  22.878  25.627  1.00  0.00     0.010 A 
ATOM     36  C   UNL A   1      42.595  22.409  28.001  1.00  0.00     0.010 A 
ATOM     37  C   UNL A   1      42.806  23.312  26.949  1.00  0.00    -0.014 A 
BRANCH  37  38
ATOM     38  C   UNL A   1      43.210  24.711  27.250  1.00  0.00     0.031 A 
ATOM     39  C   UNL A   1      42.237  25.664  27.891  1.00  0.00     0.074 A 
ATOM     40  C   UNL A   1      44.420  25.153  26.851  1.00  0.00     0.049 A 
ATOM     41  N   UNL A   1      42.392  26.932  28.172  1.00  0.00    -0.248 NA
ATOM     42  C   UNL A   1      40.906  25.136  28.235  1.00  0.00     0.031 C 
ATOM     43  C   UNL A   1      45.417  24.358  26.131  1.00  0.00     0.029 A 
ATOM     44  N   UNL A   1      45.003  26.393  26.962  1.00  0.00    -0.354 N 
ATOM     45  C   UNL A   1      41.171  27.364  28.676  1.00  0.00     0.074 A 
ATOM     46  C   UNL A   1      40.278  26.227  28.648  1.00  0.00     0.031 C 
ATOM     47  C   UNL A   1      46.481  25.130  25.855  1.00  0.00     0.029 A 
ATOM     48  C   UNL A   1      46.237  26.478  26.358  1.00  0.00     0.049 A 
ATOM     49  H   UNL A   1      44.578  27.148  27.428  1.00  0.00     0.167 HD
ATOM     50  C   UNL A   1      40.831  28.588  29.144  1.00  0.00     0.034 A 
ATOM     51  C   UNL A   1      47.074  27.526  26.217  1.00  0.00     0.034 A 
ATOM     52  C   UNL A   1      41.741  29.698  29.237  1.00  0.00     0.049 A 
ATOM     53  C   UNL A   1      46.701  28.850  26.829  1.00  0.00     0.074 A 
ATOM     54  C   UNL A   1      41.527  30.936  29.818  1.00  0.00     0.029 A 
ATOM     55  N   UNL A   1      43.031  29.710  28.733  1.00  0.00    -0.354 N 
ATOM     56  N   UNL A   1      45.616  29.179  27.484  1.00  0.00    -0.248 NA
ATOM     57  C   UNL A   1      47.687  29.935  26.720  1.00  0.00     0.031 C 
ATOM     58  C   UNL A   1      42.683  31.704  29.647  1.00  0.00     0.029 A 
ATOM     59  C   UNL A   1      43.622  30.937  28.980  1.00  0.00     0.049 A 
ATOM     60  H   UNL A   1      43.463  28.956  28.270  1.00  0.00     0.167 HD
ATOM     61  C   UNL A   1      45.803  30.493  27.897  1.00  0.00     0.074 A 
ATOM     62  C   UNL A   1      47.116  30.892  27.439  1.00  0.00     0.031 C 
ATOM     63  C   UNL A   1      44.955  31.302  28.578  1.00  0.00     0.034 A 
BRANCH  50  64
ATOM     64  C   UNL A   1      39.429  28.789  29.654  1.00  0.00     0.023 A 
ATOM     65  C   UNL A   1      39.091  28.355  30.951  1.00  0.00     0.012 A 
ATOM     66  C   UNL A   1      38.477  29.493  28.889  1.00  0.00     0.148 A 
ATOM     67  C   UNL A   1      37.822  28.598  31.472  1.00  0.00     0.002 A 
ATOM     68  C   UNL A   1      37.228  29.768  29.431  1.00  0.00     0.091 A 
ATOM     69  F   UNL A   1      38.813  29.880  27.650  1.00  0.00    -0.205 F 
ATOM     70  C   UNL A   1      36.895  29.314  30.719  1.00  0.00     0.022 A 
BRANCH  68  71
ATOM     71  S   UNL A   1      35.992  30.751  28.575  1.00  0.00     0.127 S 
ATOM     72  O   UNL A   1      35.509  29.805  27.568  1.00  0.00    -0.237 OA
ATOM     73  O   UNL A   1      35.037  31.044  29.644  1.00  0.00    -0.237 OA
ATOM     74  O   UNL A   1      36.694  31.913  28.050  1.00  0.00    -0.744 OA
ENDBRANCH  68  71
ENDBRANCH  50  64
BRANCH  51  75
ATOM     75  C   UNL A   1      48.379  27.351  25.520  1.00  0.00     0.023 A 
ATOM     76  C   UNL A   1      49.524  27.006  26.265  1.00  0.00     0.012 A 
ATOM     77  C   UNL A   1      48.493  27.512  24.125  1.00  0.00     0.148 A 
ATOM     78  C   UNL A   1      50.765  26.867  25.642  1.00  0.00     0.002 A 
ATOM     79  C   UNL A   1      49.720  27.317  23.503  1.00  0.00     0.091 A 
ATOM     80  F   UNL A   1      47.398  27.856  23.432  1.00  0.00    -0.205 F 
ATOM     81  C   UNL A   1      50.861  27.012  24.261  1.00  0.00     0.022 A 
BRANCH  79  82
ATOM     82  S   UNL A   1      49.897  27.350  21.715  1.00  0.00     0.127 S 
ATOM     83  O   UNL A   1      48.808  26.475  21.291  1.00  0.00    -0.237 OA
ATOM     84  O   UNL A   1      49.701  28.768  21.412  1.00  0.00    -0.237 OA
ATOM     85  O   UNL A   1      51.246  26.868  21.454  1.00  0.00    -0.744 OA
ENDBRANCH  79  82
ENDBRANCH  51  75
BRANCH  63  86
ATOM     86  C   UNL A   1      45.428  32.693  28.910  1.00  0.00     0.023 A 
ATOM     87  C   UNL A   1      46.253  32.902  30.032  1.00  0.00     0.012 A 
ATOM     88  C   UNL A   1      45.119  33.778  28.066  1.00  0.00     0.148 A 
ATOM     89  C   UNL A   1      46.737  34.176  30.328  1.00  0.00     0.002 A 
ATOM     90  C   UNL A   1      45.645  35.035  28.340  1.00  0.00     0.091 A 
ATOM     91  F   UNL A   1      44.317  33.563  27.014  1.00  0.00    -0.205 F 
ATOM     92  C   UNL A   1      46.444  35.239  29.476  1.00  0.00     0.022 A 
BRANCH  90  93
ATOM     93  S   UNL A   1      45.397  36.435  27.242  1.00  0.00     0.127 S 
ATOM     94  O   UNL A   1      45.682  37.563  28.127  1.00  0.00    -0.237 OA
ATOM     95  O   UNL A   1      46.405  36.203  26.205  1.00  0.00    -0.237 OA
ATOM     96  O   UNL A   1      44.022  36.335  26.774  1.00  0.00    -0.744 OA
ENDBRANCH  90  93
ENDBRANCH  63  86
ENDBRANCH  37  38
ENDBRANCH  29  32
ENDBRANCH  27  28
ENDBRANCH  26  27
ENDBRANCH  25  26
ENDBRANCH   1  25
TORSDOF 20
ENDMDL
MODEL 2
REMARK VINA RESULT:     -11.1      6.290     11.457
REMARK SMILES CC[C@H](C)CN(CC)C(=O)Nc1ccc(C(=O)NCCCCNC(=O)c2ccc(-c3c4nc(c(-c5cccc(S(=O)(=O)[O-])c5F)c5ccc([nH]5)c(-c5cccc(S(=O)(=O)[O-])c5F)c5nc(c(-c6cccc(S(=O)(=O)[O-])c6F)c6ccc3[nH]6)C=C5)C=C4)cc2)cc1Cl
REMARK SMILES IDX 19 1 18 2 16 3 17 4 15 6 12 7 13 8 90 9 14 10 89 11 91 12
REMARK SMILES IDX 11 13 9 14 10 15 6 17 5 18 3 19 4 20 2 21 1 22 7 23 8 24
REMARK SMILES IDX 20 25 21 26 22 27 23 28 24 29 25 31 26 32 27 33 88 34 28 35
REMARK SMILES IDX 87 36 29 37 30 38 31 39 81 40 32 41 86 42 80 43 82 44 33 45
REMARK SMILES IDX 85 46 79 47 78 48 34 50 66 51 46 52 65 53 47 54 50 55 64 56
REMARK SMILES IDX 83 57 48 58 49 59 63 61 84 62 51 63 35 64 36 65 44 66 37 67
REMARK SMILES IDX 39 68 45 69 38 70 40 71 41 72 42 73 43 74 67 75 68 76 76 77
REMARK SMILES IDX 69 78 71 79 77 80 70 81 72 82 73 83 74 84 75 85 52 86 53 87
REMARK SMILES IDX 61 88 54 89 56 90 62 91 55 92 57 93 58 94 59 95 60 96
REMARK H PARENT 18 5 11 16 23 30 82 49 50 60
REMARK Flexibility Score: inf
ROOT
ATOM      1  C   UNL A   1      30.971  30.085  24.835  1.00  0.00     0.116 C 
ENDROOT
BRANCH   1   2
ATOM      2  N   UNL A   1      30.080  30.323  23.710  1.00  0.00    -0.352 N 
ATOM      3  C   UNL A   1      29.561  29.458  22.778  1.00  0.00     0.251 C 
ATOM      4  O   UNL A   1      28.719  29.850  21.976  1.00  0.00    -0.269 OA
ATOM      5  H   UNL A   1      29.802  31.261  23.598  1.00  0.00     0.163 HD
BRANCH   3   6
ATOM      6  C   UNL A   1      29.935  28.027  22.783  1.00  0.00     0.041 A 
ATOM      7  C   UNL A   1      30.814  25.412  23.153  1.00  0.00     0.061 A 
ATOM      8  C   UNL A   1      29.658  25.852  23.804  1.00  0.00     0.028 A 
ATOM      9  C   UNL A   1      31.412  26.220  22.175  1.00  0.00     0.065 A 
ATOM     10  C   UNL A   1      29.238  27.172  23.644  1.00  0.00     0.016 A 
ATOM     11  C   UNL A   1      30.952  27.518  21.973  1.00  0.00     0.036 A 
ATOM     12  Cl  UNL A   1      32.663  25.636  21.134  1.00  0.00    -0.082 Cl
BRANCH   7  13
ATOM     13  N   UNL A   1      31.327  24.177  23.559  1.00  0.00    -0.306 N 
ATOM     14  C   UNL A   1      32.331  23.889  24.433  1.00  0.00     0.321 C 
ATOM     15  O   UNL A   1      33.056  22.931  24.150  1.00  0.00    -0.248 OA
ATOM     16  H   UNL A   1      30.895  23.392  23.149  1.00  0.00     0.171 HD
BRANCH  14  17
ATOM     17  N   UNL A   1      32.364  24.500  25.683  1.00  0.00    -0.325 N 
BRANCH  17  18
ATOM     18  C   UNL A   1      33.498  25.398  25.948  1.00  0.00     0.124 C 
BRANCH  18  19
ATOM     19  C   UNL A   1      33.235  26.878  25.538  1.00  0.00     0.005 C 
ATOM     20  C   UNL A   1      33.594  27.856  26.661  1.00  0.00     0.009 C 
BRANCH  19  21
ATOM     21  C   UNL A   1      33.995  27.172  24.223  1.00  0.00     0.002 C 
ATOM     22  C   UNL A   1      33.990  28.622  23.762  1.00  0.00     0.004 C 
ENDBRANCH  19  21
ENDBRANCH  18  19
ENDBRANCH  17  18
BRANCH  17  23
ATOM     23  C   UNL A   1      31.485  24.263  26.837  1.00  0.00     0.118 C 
ATOM     24  C   UNL A   1      30.800  22.901  26.777  1.00  0.00     0.027 C 
ENDBRANCH  17  23
ENDBRANCH  14  17
ENDBRANCH   7  13
ENDBRANCH   3   6
ENDBRANCH   1   2
BRANCH   1  25
ATOM     25  C   UNL A   1      31.019  31.289  25.777  1.00  0.00     0.023 C 
BRANCH  25  26
ATOM     26  C   UNL A   1      31.950  31.109  26.979  1.00  0.00     0.023 C 
BRANCH  26  27
ATOM     27  C   UNL A   1      33.122  32.083  27.043  1.00  0.00     0.116 C 
BRANCH  27  28
ATOM     28  N   UNL A   1      32.724  33.426  27.436  1.00  0.00    -0.352 N 
ATOM     29  C   UNL A   1      33.220  34.220  28.448  1.00  0.00     0.251 C 
ATOM     30  H   UNL A   1      31.997  33.823  26.905  1.00  0.00     0.163 HD
ATOM     31  O   UNL A   1      32.674  35.280  28.709  1.00  0.00    -0.269 OA
BRANCH  29  32
ATOM     32  C   UNL A   1      34.394  33.768  29.231  1.00  0.00     0.039 A 
ATOM     33  C   UNL A   1      34.190  32.880  30.291  1.00  0.00     0.014 A 
ATOM     34  C   UNL A   1      35.683  34.210  28.926  1.00  0.00     0.014 A 
ATOM     35  C   UNL A   1      35.286  32.386  31.005  1.00  0.00     0.010 A 
ATOM     36  C   UNL A   1      36.779  33.665  29.593  1.00  0.00     0.010 A 
ATOM     37  C   UNL A   1      36.593  32.750  30.640  1.00  0.00    -0.014 A 
BRANCH  37  38
ATOM     38  C   UNL A   1      37.776  32.168  31.327  1.00  0.00     0.031 A 
ATOM     39  C   UNL A   1      38.556  31.051  30.688  1.00  0.00     0.074 A 
ATOM     40  C   UNL A   1      38.087  32.577  32.574  1.00  0.00     0.049 A 
ATOM     41  N   UNL A   1      39.575  30.382  31.163  1.00  0.00    -0.248 NA
ATOM     42  C   UNL A   1      38.118  30.602  29.356  1.00  0.00     0.031 C 
ATOM     43  C   UNL A   1      37.351  33.583  33.344  1.00  0.00     0.029 A 
ATOM     44  N   UNL A   1      39.083  32.170  33.429  1.00  0.00    -0.354 N 
ATOM     45  C   UNL A   1      39.868  29.408  30.217  1.00  0.00     0.074 A 
ATOM     46  C   UNL A   1      38.908  29.559  29.146  1.00  0.00     0.031 C 
ATOM     47  C   UNL A   1      37.911  33.704  34.559  1.00  0.00     0.029 A 
ATOM     48  C   UNL A   1      39.032  32.776  34.665  1.00  0.00     0.049 A 
ATOM     49  H   UNL A   1      39.767  31.507  33.183  1.00  0.00     0.167 HD
ATOM     50  C   UNL A   1      40.861  28.487  30.226  1.00  0.00     0.034 A 
ATOM     51  C   UNL A   1      39.796  32.597  35.761  1.00  0.00     0.034 A 
ATOM     52  C   UNL A   1      41.857  28.384  31.258  1.00  0.00     0.049 A 
ATOM     53  C   UNL A   1      40.946  31.628  35.704  1.00  0.00     0.074 A 
ATOM     54  C   UNL A   1      42.978  27.572  31.291  1.00  0.00     0.029 A 
ATOM     55  N   UNL A   1      41.852  29.106  32.440  1.00  0.00    -0.354 N 
ATOM     56  N   UNL A   1      41.328  30.859  34.715  1.00  0.00    -0.248 NA
ATOM     57  C   UNL A   1      41.799  31.535  36.898  1.00  0.00     0.031 C 
ATOM     58  C   UNL A   1      43.639  27.790  32.502  1.00  0.00     0.029 A 
ATOM     59  C   UNL A   1      42.943  28.752  33.213  1.00  0.00     0.049 A 
ATOM     60  H   UNL A   1      41.173  29.773  32.690  1.00  0.00     0.167 HD
ATOM     61  C   UNL A   1      42.482  30.220  35.153  1.00  0.00     0.074 A 
ATOM     62  C   UNL A   1      42.752  30.710  36.487  1.00  0.00     0.031 C 
ATOM     63  C   UNL A   1      43.240  29.295  34.513  1.00  0.00     0.034 A 
BRANCH  50  64
ATOM     64  C   UNL A   1      40.967  27.546  29.056  1.00  0.00     0.023 A 
ATOM     65  C   UNL A   1      40.109  26.430  28.980  1.00  0.00     0.012 A 
ATOM     66  C   UNL A   1      41.844  27.819  27.987  1.00  0.00     0.148 A 
ATOM     67  C   UNL A   1      40.137  25.588  27.870  1.00  0.00     0.002 A 
ATOM     68  C   UNL A   1      41.837  26.999  26.866  1.00  0.00     0.091 A 
ATOM     69  F   UNL A   1      42.665  28.874  28.088  1.00  0.00    -0.205 F 
ATOM     70  C   UNL A   1      40.991  25.878  26.809  1.00  0.00     0.022 A 
BRANCH  68  71
ATOM     71  S   UNL A   1      42.839  27.332  25.412  1.00  0.00     0.127 S 
ATOM     72  O   UNL A   1      42.705  26.079  24.669  1.00  0.00    -0.237 OA
ATOM     73  O   UNL A   1      42.146  28.473  24.815  1.00  0.00    -0.237 OA
ATOM     74  O   UNL A   1      44.179  27.622  25.904  1.00  0.00    -0.744 OA
ENDBRANCH  68  71
ENDBRANCH  50  64
BRANCH  51  75
ATOM     75  C   UNL A   1      39.538  33.400  36.990  1.00  0.00     0.023 A 
ATOM     76  C   UNL A   1      40.078  34.696  37.098  1.00  0.00     0.012 A 
ATOM     77  C   UNL A   1      38.753  32.895  38.045  1.00  0.00     0.148 A 
ATOM     78  C   UNL A   1      39.879  35.458  38.251  1.00  0.00     0.002 A 
ATOM     79  C   UNL A   1      38.512  33.680  39.166  1.00  0.00     0.091 A 
ATOM     80  F   UNL A   1      38.259  31.653  37.933  1.00  0.00    -0.205 F 
ATOM     81  C   UNL A   1      39.088  34.954  39.279  1.00  0.00     0.022 A 
BRANCH  79  82
ATOM     82  S   UNL A   1      37.391  33.157  40.470  1.00  0.00     0.127 S 
ATOM     83  O   UNL A   1      36.188  32.822  39.714  1.00  0.00    -0.237 OA
ATOM     84  O   UNL A   1      38.099  32.011  41.042  1.00  0.00    -0.237 OA
ATOM     85  O   UNL A   1      37.288  34.300  41.367  1.00  0.00    -0.744 OA
ENDBRANCH  79  82
ENDBRANCH  51  75
BRANCH  63  86
ATOM     86  C   UNL A   1      44.461  28.776  35.225  1.00  0.00     0.023 A 
ATOM     87  C   UNL A   1      45.684  29.465  35.111  1.00  0.00     0.012 A 
ATOM     88  C   UNL A   1      44.376  27.650  36.068  1.00  0.00     0.148 A 
ATOM     89  C   UNL A   1      46.813  29.023  35.800  1.00  0.00     0.002 A 
ATOM     90  C   UNL A   1      45.493  27.245  36.790  1.00  0.00     0.091 A 
ATOM     91  F   UNL A   1      43.209  26.996  36.149  1.00  0.00    -0.205 F 
ATOM     92  C   UNL A   1      46.715  27.921  36.648  1.00  0.00     0.022 A 
BRANCH  90  93
ATOM     93  S   UNL A   1      45.427  25.898  37.978  1.00  0.00     0.127 S 
ATOM     94  O   UNL A   1      45.087  24.762  37.123  1.00  0.00    -0.237 OA
ATOM     95  O   UNL A   1      46.793  25.877  38.504  1.00  0.00    -0.237 OA
ATOM     96  O   UNL A   1      44.414  26.277  38.953  1.00  0.00    -0.744 OA
ENDBRANCH  90  93
ENDBRANCH  63  86
ENDBRANCH  37  38
ENDBRANCH  29  32
ENDBRANCH  27  28
ENDBRANCH  26  27
ENDBRANCH  25  26
ENDBRANCH   1  25
TORSDOF 20
ENDMDL
MODEL 3
REMARK VINA RESULT:     -11.1      5.913     11.384
REMARK SMILES CC[C@H](C)CN(CC)C(=O)Nc1ccc(C(=O)NCCCCNC(=O)c2ccc(-c3c4nc(c(-c5cccc(S(=O)(=O)[O-])c5F)c5ccc([nH]5)c(-c5cccc(S(=O)(=O)[O-])c5F)c5nc(c(-c6cccc(S(=O)(=O)[O-])c6F)c6ccc3[nH]6)C=C5)C=C4)cc2)cc1Cl
REMARK SMILES IDX 19 1 18 2 16 3 17 4 15 6 12 7 13 8 90 9 14 10 89 11 91 12
REMARK SMILES IDX 11 13 9 14 10 15 6 17 5 18 3 19 4 20 2 21 1 22 7 23 8 24
REMARK SMILES IDX 20 25 21 26 22 27 23 28 24 29 25 31 26 32 27 33 88 34 28 35
REMARK SMILES IDX 87 36 29 37 30 38 31 39 81 40 32 41 86 42 80 43 82 44 33 45
REMARK SMILES IDX 85 46 79 47 78 48 34 50 66 51 46 52 65 53 47 54 50 55 64 56
REMARK SMILES IDX 83 57 48 58 49 59 63 61 84 62 51 63 35 64 36 65 44 66 37 67
REMARK SMILES IDX 39 68 45 69 38 70 40 71 41 72 42 73 43 74 67 75 68 76 76 77
REMARK SMILES IDX 69 78 71 79 77 80 70 81 72 82 73 83 74 84 75 85 52 86 53 87
REMARK SMILES IDX 61 88 54 89 56 90 62 91 55 92 57 93 58 94 59 95 60 96
REMARK H PARENT 18 5 11 16 23 30 82 49 50 60
REMARK Flexibility Score: inf
ROOT
ATOM      1  C   UNL A   1      31.949  29.334  25.398  1.00  0.00     0.116 C 
ENDROOT
BRANCH   1   2
ATOM      2  N   UNL A   1      30.990  29.920  24.475  1.00  0.00    -0.352 N 
ATOM      3  C   UNL A   1      30.248  29.349  23.471  1.00  0.00     0.251 C 
ATOM      4  O   UNL A   1      29.395  30.009  22.884  1.00  0.00    -0.269 OA
ATOM      5  H   UNL A   1      30.849  30.888  24.589  1.00  0.00     0.163 HD
BRANCH   3   6
ATOM      6  C   UNL A   1      30.396  27.914  23.142  1.00  0.00     0.041 A 
ATOM      7  C   UNL A   1      30.898  25.191  22.865  1.00  0.00     0.061 A 
ATOM      8  C   UNL A   1      29.902  25.625  23.745  1.00  0.00     0.028 A 
ATOM      9  C   UNL A   1      31.501  26.106  21.990  1.00  0.00     0.065 A 
ATOM     10  C   UNL A   1      29.675  26.990  23.907  1.00  0.00     0.016 A 
ATOM     11  C   UNL A   1      31.227  27.466  22.114  1.00  0.00     0.036 A 
ATOM     12  Cl  UNL A   1      32.525  25.605  20.691  1.00  0.00    -0.082 Cl
BRANCH   7  13
ATOM     13  N   UNL A   1      31.257  23.842  22.944  1.00  0.00    -0.306 N 
ATOM     14  C   UNL A   1      32.462  23.270  23.215  1.00  0.00     0.321 C 
ATOM     15  O   UNL A   1      32.740  22.240  22.596  1.00  0.00    -0.248 OA
ATOM     16  H   UNL A   1      30.523  23.206  22.779  1.00  0.00     0.171 HD
BRANCH  14  17
ATOM     17  N   UNL A   1      33.211  23.704  24.304  1.00  0.00    -0.325 N 
BRANCH  17  18
ATOM     18  C   UNL A   1      32.845  23.156  25.619  1.00  0.00     0.124 C 
BRANCH  18  19
ATOM     19  C   UNL A   1      33.794  22.022  26.111  1.00  0.00     0.005 C 
ATOM     20  C   UNL A   1      34.033  22.091  27.623  1.00  0.00     0.009 C 
BRANCH  19  21
ATOM     21  C   UNL A   1      33.217  20.660  25.658  1.00  0.00     0.002 C 
ATOM     22  C   UNL A   1      34.139  19.797  24.809  1.00  0.00     0.004 C 
ENDBRANCH  19  21
ENDBRANCH  18  19
ENDBRANCH  17  18
BRANCH  17  23
ATOM     23  C   UNL A   1      34.243  24.752  24.342  1.00  0.00     0.118 C 
ATOM     24  C   UNL A   1      33.753  26.027  25.023  1.00  0.00     0.027 C 
ENDBRANCH  17  23
ENDBRANCH  14  17
ENDBRANCH   7  13
ENDBRANCH   3   6
ENDBRANCH   1   2
BRANCH   1  25
ATOM     25  C   UNL A   1      31.867  29.984  26.780  1.00  0.00     0.023 C 
BRANCH  25  26
ATOM     26  C   UNL A   1      31.585  31.488  26.751  1.00  0.00     0.023 C 
BRANCH  26  27
ATOM     27  C   UNL A   1      32.815  32.382  26.873  1.00  0.00     0.116 C 
BRANCH  27  28
ATOM     28  N   UNL A   1      32.499  33.722  27.341  1.00  0.00    -0.352 N 
ATOM     29  C   UNL A   1      33.063  34.438  28.375  1.00  0.00     0.251 C 
ATOM     30  H   UNL A   1      31.780  34.183  26.850  1.00  0.00     0.163 HD
ATOM     31  O   UNL A   1      32.582  35.511  28.703  1.00  0.00    -0.269 OA
BRANCH  29  32
ATOM     32  C   UNL A   1      34.231  33.887  29.102  1.00  0.00     0.039 A 
ATOM     33  C   UNL A   1      34.010  32.937  30.102  1.00  0.00     0.014 A 
ATOM     34  C   UNL A   1      35.532  34.299  28.802  1.00  0.00     0.014 A 
ATOM     35  C   UNL A   1      35.097  32.352  30.758  1.00  0.00     0.010 A 
ATOM     36  C   UNL A   1      36.616  33.666  29.408  1.00  0.00     0.010 A 
ATOM     37  C   UNL A   1      36.412  32.688  30.393  1.00  0.00    -0.014 A 
BRANCH  37  38
ATOM     38  C   UNL A   1      37.582  32.015  31.014  1.00  0.00     0.031 A 
ATOM     39  C   UNL A   1      38.359  30.976  30.251  1.00  0.00     0.074 A 
ATOM     40  C   UNL A   1      37.884  32.265  32.305  1.00  0.00     0.049 A 
ATOM     41  N   UNL A   1      39.366  30.244  30.649  1.00  0.00    -0.248 NA
ATOM     42  C   UNL A   1      37.930  30.698  28.869  1.00  0.00     0.031 C 
ATOM     43  C   UNL A   1      37.149  33.176  33.185  1.00  0.00     0.029 A 
ATOM     44  N   UNL A   1      38.867  31.745  33.113  1.00  0.00    -0.354 N 
ATOM     45  C   UNL A   1      39.660  29.389  29.593  1.00  0.00     0.074 A 
ATOM     46  C   UNL A   1      38.713  29.681  28.540  1.00  0.00     0.031 C 
ATOM     47  C   UNL A   1      37.698  33.143  34.411  1.00  0.00     0.029 A 
ATOM     48  C   UNL A   1      38.809  32.196  34.412  1.00  0.00     0.049 A 
ATOM     49  H   UNL A   1      39.547  31.111  32.793  1.00  0.00     0.167 HD
ATOM     50  C   UNL A   1      40.644  28.464  29.499  1.00  0.00     0.034 A 
ATOM     51  C   UNL A   1      39.559  31.877  35.485  1.00  0.00     0.034 A 
ATOM     52  C   UNL A   1      41.628  28.225  30.519  1.00  0.00     0.049 A 
ATOM     53  C   UNL A   1      40.701  30.911  35.321  1.00  0.00     0.074 A 
ATOM     54  C   UNL A   1      42.741  27.404  30.463  1.00  0.00     0.029 A 
ATOM     55  N   UNL A   1      41.618  28.798  31.781  1.00  0.00    -0.354 N 
ATOM     56  N   UNL A   1      41.086  30.264  34.249  1.00  0.00    -0.248 NA
ATOM     57  C   UNL A   1      41.541  30.663  36.503  1.00  0.00     0.031 C 
ATOM     58  C   UNL A   1      43.392  27.465  31.698  1.00  0.00     0.029 A 
ATOM     59  C   UNL A   1      42.698  28.340  32.515  1.00  0.00     0.049 A 
ATOM     60  H   UNL A   1      40.942  29.436  32.105  1.00  0.00     0.167 HD
ATOM     61  C   UNL A   1      42.230  29.564  34.616  1.00  0.00     0.074 A 
ATOM     62  C   UNL A   1      42.491  29.885  36.002  1.00  0.00     0.031 C 
ATOM     63  C   UNL A   1      42.986  28.717  33.874  1.00  0.00     0.034 A 
BRANCH  50  64
ATOM     64  C   UNL A   1      40.754  27.673  28.223  1.00  0.00     0.023 A 
ATOM     65  C   UNL A   1      41.412  28.234  27.110  1.00  0.00     0.012 A 
ATOM     66  C   UNL A   1      40.294  26.342  28.157  1.00  0.00     0.148 A 
ATOM     67  C   UNL A   1      41.592  27.492  25.945  1.00  0.00     0.002 A 
ATOM     68  C   UNL A   1      40.514  25.595  27.006  1.00  0.00     0.091 A 
ATOM     69  F   UNL A   1      39.653  25.834  29.220  1.00  0.00    -0.205 F 
ATOM     70  C   UNL A   1      41.155  26.171  25.896  1.00  0.00     0.022 A 
BRANCH  68  71
ATOM     71  S   UNL A   1      40.062  23.862  26.872  1.00  0.00     0.127 S 
ATOM     72  O   UNL A   1      40.901  23.425  25.755  1.00  0.00    -0.237 OA
ATOM     73  O   UNL A   1      40.463  23.337  28.177  1.00  0.00    -0.237 OA
ATOM     74  O   UNL A   1      38.629  23.837  26.619  1.00  0.00    -0.744 OA
ENDBRANCH  68  71
ENDBRANCH  50  64
BRANCH  51  75
ATOM     75  C   UNL A   1      39.296  32.526  36.801  1.00  0.00     0.023 A 
ATOM     76  C   UNL A   1      39.960  33.725  37.129  1.00  0.00     0.012 A 
ATOM     77  C   UNL A   1      38.387  31.972  37.723  1.00  0.00     0.148 A 
ATOM     78  C   UNL A   1      39.756  34.337  38.366  1.00  0.00     0.002 A 
ATOM     79  C   UNL A   1      38.146  32.617  38.931  1.00  0.00     0.091 A 
ATOM     80  F   UNL A   1      37.776  30.823  37.403  1.00  0.00    -0.205 F 
ATOM     81  C   UNL A   1      38.842  33.789  39.262  1.00  0.00     0.022 A 
BRANCH  79  82
ATOM     82  S   UNL A   1      36.883  32.050  40.076  1.00  0.00     0.127 S 
ATOM     83  O   UNL A   1      36.670  33.237  40.899  1.00  0.00    -0.237 OA
ATOM     84  O   UNL A   1      35.777  31.718  39.177  1.00  0.00    -0.237 OA
ATOM     85  O   UNL A   1      37.467  30.898  40.750  1.00  0.00    -0.744 OA
ENDBRANCH  79  82
ENDBRANCH  51  75
BRANCH  63  86
ATOM     86  C   UNL A   1      44.195  28.101  34.528  1.00  0.00     0.023 A 
ATOM     87  C   UNL A   1      45.418  28.799  34.535  1.00  0.00     0.012 A 
ATOM     88  C   UNL A   1      44.097  26.869  35.204  1.00  0.00     0.148 A 
ATOM     89  C   UNL A   1      46.535  28.263  35.175  1.00  0.00     0.002 A 
ATOM     90  C   UNL A   1      45.200  26.365  35.881  1.00  0.00     0.091 A 
ATOM     91  F   UNL A   1      42.930  26.210  35.170  1.00  0.00    -0.205 F 
ATOM     92  C   UNL A   1      46.424  27.054  35.858  1.00  0.00     0.022 A 
BRANCH  90  93
ATOM     93  S   UNL A   1      45.116  24.865  36.866  1.00  0.00     0.127 S 
ATOM     94  O   UNL A   1      46.481  24.766  37.379  1.00  0.00    -0.237 OA
ATOM     95  O   UNL A   1      44.109  25.207  37.873  1.00  0.00    -0.237 OA
ATOM     96  O   UNL A   1      44.711  23.809  35.948  1.00  0.00    -0.744 OA
ENDBRANCH  90  93
ENDBRANCH  63  86
ENDBRANCH  37  38
ENDBRANCH  29  32
ENDBRANCH  27  28
ENDBRANCH  26  27
ENDBRANCH  25  26
ENDBRANCH   1  25
TORSDOF 20
ENDMDL
