MODEL 1
REMARK VINA RESULT:     -11.4      0.000      0.000
REMARK SMILES CC(C)N1C[C@@H](C(=O)N[C@@H](C)CC(=O)NCCCCNC(=O)c2ccc(-c3c4nc(c(-c5cccc(S(=O)(=O)[O-])c5F)c5ccc([nH]5)c(-c5cccc(S(=O)(=O)[O-])c5F)c5nc(c(-c6cccc(S(=O)(=O)[O-])c6F)c6ccc3[nH]6)C=C5)C=C4)cc2)CC1=O
REMARK SMILES IDX 17 1 16 2 15 3 13 4 14 5 12 7 10 8 11 9 9 10 7 11 8 12 6 14
REMARK SMILES IDX 4 15 5 16 87 17 86 18 88 19 2 20 1 21 3 22 18 23 19 24 20 25
REMARK SMILES IDX 21 26 22 28 23 29 24 30 85 31 25 32 84 33 26 34 27 35 28 36
REMARK SMILES IDX 78 37 29 38 83 39 77 40 79 41 30 42 82 43 76 44 75 45 31 47
REMARK SMILES IDX 63 48 43 49 62 50 44 51 47 52 61 53 80 54 45 55 46 56 60 58
REMARK SMILES IDX 81 59 48 60 32 61 33 62 41 63 34 64 36 65 42 66 35 67 37 68
REMARK SMILES IDX 38 69 39 70 40 71 64 72 65 73 73 74 66 75 68 76 74 77 67 78
REMARK SMILES IDX 69 79 70 80 71 81 72 82 49 83 50 84 58 85 51 86 53 87 59 88
REMARK SMILES IDX 52 89 54 90 55 91 56 92 57 93
REMARK H PARENT 15 6 9 13 20 27 79 46 47 57
REMARK Flexibility Score: inf
ROOT
ATOM      1  C   UNL A   1      31.918  30.028  25.709  1.00  0.00     0.023 C 
ENDROOT
BRANCH   1   2
ATOM      2  C   UNL A   1      32.382  28.691  25.141  1.00  0.00     0.116 C 
BRANCH   2   3
ATOM      3  N   UNL A   1      31.857  28.490  23.804  1.00  0.00    -0.356 N 
ATOM      4  C   UNL A   1      30.915  27.604  23.372  1.00  0.00     0.222 C 
ATOM      5  O   UNL A   1      30.715  27.491  22.161  1.00  0.00    -0.275 OA
ATOM      6  H   UNL A   1      32.234  29.076  23.108  1.00  0.00     0.163 HD
BRANCH   4   7
ATOM      7  C   UNL A   1      30.117  26.784  24.365  1.00  0.00     0.124 C 
BRANCH   7   8
ATOM      8  C   UNL A   1      30.700  25.394  24.665  1.00  0.00     0.088 C 
ATOM      9  C   UNL A   1      30.392  24.468  23.483  1.00  0.00     0.031 C 
BRANCH   8  10
ATOM     10  N   UNL A   1      30.103  24.779  25.850  1.00  0.00    -0.353 N 
ATOM     11  C   UNL A   1      30.447  23.714  26.615  1.00  0.00     0.225 C 
ATOM     12  O   UNL A   1      29.594  23.342  27.429  1.00  0.00    -0.275 OA
ATOM     13  H   UNL A   1      29.284  25.232  26.156  1.00  0.00     0.163 HD
BRANCH  11  14
ATOM     14  C   UNL A   1      31.760  22.963  26.521  1.00  0.00     0.107 C 
ATOM     15  N   UNL A   1      33.648  22.889  25.111  1.00  0.00    -0.339 N 
ATOM     16  C   UNL A   1      33.000  23.727  26.093  1.00  0.00     0.133 C 
ATOM     17  C   UNL A   1      32.966  21.707  24.883  1.00  0.00     0.223 C 
ATOM     18  C   UNL A   1      31.641  21.774  25.587  1.00  0.00     0.115 C 
ATOM     19  O   UNL A   1      33.314  20.766  24.193  1.00  0.00    -0.275 OA
BRANCH  15  20
ATOM     20  C   UNL A   1      34.981  23.228  24.598  1.00  0.00     0.078 C 
ATOM     21  C   UNL A   1      34.895  23.939  23.251  1.00  0.00     0.031 C 
ATOM     22  C   UNL A   1      35.811  24.044  25.592  1.00  0.00     0.031 C 
ENDBRANCH  15  20
ENDBRANCH  11  14
ENDBRANCH   8  10
ENDBRANCH   7   8
ENDBRANCH   4   7
ENDBRANCH   2   3
ENDBRANCH   1   2
BRANCH   1  23
ATOM     23  C   UNL A   1      32.344  30.335  27.132  1.00  0.00     0.023 C 
BRANCH  23  24
ATOM     24  C   UNL A   1      33.389  31.425  27.253  1.00  0.00     0.116 C 
BRANCH  24  25
ATOM     25  N   UNL A   1      32.825  32.766  27.359  1.00  0.00    -0.352 N 
ATOM     26  C   UNL A   1      33.185  33.786  28.213  1.00  0.00     0.251 C 
ATOM     27  H   UNL A   1      32.087  32.970  26.740  1.00  0.00     0.163 HD
ATOM     28  O   UNL A   1      32.549  34.833  28.241  1.00  0.00    -0.269 OA
BRANCH  26  29
ATOM     29  C   UNL A   1      34.324  33.571  29.127  1.00  0.00     0.039 A 
ATOM     30  C   UNL A   1      34.131  32.810  30.281  1.00  0.00     0.014 A 
ATOM     31  C   UNL A   1      35.599  34.012  28.770  1.00  0.00     0.014 A 
ATOM     32  C   UNL A   1      35.241  32.399  31.021  1.00  0.00     0.010 A 
ATOM     33  C   UNL A   1      36.704  33.504  29.437  1.00  0.00     0.010 A 
ATOM     34  C   UNL A   1      36.538  32.688  30.567  1.00  0.00    -0.014 A 
BRANCH  34  35
ATOM     35  C   UNL A   1      37.739  32.119  31.230  1.00  0.00     0.031 A 
ATOM     36  C   UNL A   1      38.488  30.985  30.588  1.00  0.00     0.074 A 
ATOM     37  C   UNL A   1      38.082  32.541  32.465  1.00  0.00     0.049 A 
ATOM     38  N   UNL A   1      39.500  30.299  31.052  1.00  0.00    -0.248 NA
ATOM     39  C   UNL A   1      38.016  30.537  29.267  1.00  0.00     0.031 C 
ATOM     40  C   UNL A   1      37.372  33.563  33.238  1.00  0.00     0.029 A 
ATOM     41  N   UNL A   1      39.090  32.134  33.304  1.00  0.00    -0.354 N 
ATOM     42  C   UNL A   1      39.754  29.315  30.106  1.00  0.00     0.074 A 
ATOM     43  C   UNL A   1      38.766  29.466  29.060  1.00  0.00     0.031 C 
ATOM     44  C   UNL A   1      37.965  33.702  34.433  1.00  0.00     0.029 A 
ATOM     45  C   UNL A   1      39.067  32.752  34.532  1.00  0.00     0.049 A 
ATOM     46  H   UNL A   1      39.765  31.464  33.050  1.00  0.00     0.167 HD
ATOM     47  C   UNL A   1      40.736  28.384  30.094  1.00  0.00     0.034 A 
ATOM     48  C   UNL A   1      39.830  32.560  35.627  1.00  0.00     0.034 A 
ATOM     49  C   UNL A   1      41.736  28.261  31.118  1.00  0.00     0.049 A 
ATOM     50  C   UNL A   1      40.939  31.547  35.577  1.00  0.00     0.074 A 
ATOM     51  C   UNL A   1      42.843  27.432  31.142  1.00  0.00     0.029 A 
ATOM     52  N   UNL A   1      41.737  28.966  32.311  1.00  0.00    -0.354 N 
ATOM     53  N   UNL A   1      41.283  30.752  34.593  1.00  0.00    -0.248 NA
ATOM     54  C   UNL A   1      41.786  31.426  36.772  1.00  0.00     0.031 C 
ATOM     55  C   UNL A   1      43.487  27.602  32.372  1.00  0.00     0.029 A 
ATOM     56  C   UNL A   1      42.808  28.569  33.095  1.00  0.00     0.049 A 
ATOM     57  H   UNL A   1      41.075  29.650  32.563  1.00  0.00     0.167 HD
ATOM     58  C   UNL A   1      42.395  30.049  35.041  1.00  0.00     0.074 A 
ATOM     59  C   UNL A   1      42.684  30.534  36.375  1.00  0.00     0.031 C 
ATOM     60  C   UNL A   1      43.103  29.080  34.410  1.00  0.00     0.034 A 
BRANCH  47  61
ATOM     61  C   UNL A   1      40.789  27.442  28.917  1.00  0.00     0.023 A 
ATOM     62  C   UNL A   1      39.865  26.381  28.823  1.00  0.00     0.012 A 
ATOM     63  C   UNL A   1      41.733  27.629  27.890  1.00  0.00     0.148 A 
ATOM     64  C   UNL A   1      39.911  25.492  27.751  1.00  0.00     0.002 A 
ATOM     65  C   UNL A   1      41.738  26.771  26.797  1.00  0.00     0.091 A 
ATOM     66  F   UNL A   1      42.618  28.628  28.007  1.00  0.00    -0.205 F 
ATOM     67  C   UNL A   1      40.840  25.693  26.734  1.00  0.00     0.022 A 
BRANCH  65  68
ATOM     68  S   UNL A   1      42.840  26.995  25.398  1.00  0.00     0.127 S 
ATOM     69  O   UNL A   1      42.259  28.171  24.751  1.00  0.00    -0.237 OA
ATOM     70  O   UNL A   1      44.125  27.235  26.055  1.00  0.00    -0.237 OA
ATOM     71  O   UNL A   1      42.772  25.761  24.631  1.00  0.00    -0.744 OA
ENDBRANCH  65  68
ENDBRANCH  47  61
BRANCH  48  72
ATOM     72  C   UNL A   1      39.574  33.369  36.852  1.00  0.00     0.023 A 
ATOM     73  C   UNL A   1      40.057  34.688  36.935  1.00  0.00     0.012 A 
ATOM     74  C   UNL A   1      38.804  32.850  37.912  1.00  0.00     0.148 A 
ATOM     75  C   UNL A   1      39.796  35.470  38.061  1.00  0.00     0.002 A 
ATOM     76  C   UNL A   1      38.499  33.653  39.003  1.00  0.00     0.091 A 
ATOM     77  F   UNL A   1      38.364  31.587  37.817  1.00  0.00    -0.205 F 
ATOM     78  C   UNL A   1      39.008  34.957  39.089  1.00  0.00     0.022 A 
BRANCH  76  79
ATOM     79  S   UNL A   1      37.376  33.126  40.302  1.00  0.00     0.127 S 
ATOM     80  O   UNL A   1      36.176  32.787  39.540  1.00  0.00    -0.237 OA
ATOM     81  O   UNL A   1      38.091  31.983  40.870  1.00  0.00    -0.237 OA
ATOM     82  O   UNL A   1      37.249  34.263  41.204  1.00  0.00    -0.744 OA
ENDBRANCH  76  79
ENDBRANCH  48  72
BRANCH  60  83
ATOM     83  C   UNL A   1      44.275  28.479  35.141  1.00  0.00     0.023 A 
ATOM     84  C   UNL A   1      45.575  28.963  34.899  1.00  0.00     0.012 A 
ATOM     85  C   UNL A   1      44.076  27.495  36.129  1.00  0.00     0.148 A 
ATOM     86  C   UNL A   1      46.664  28.457  35.610  1.00  0.00     0.002 A 
ATOM     87  C   UNL A   1      45.157  27.033  36.870  1.00  0.00     0.091 A 
ATOM     88  F   UNL A   1      42.832  27.038  36.334  1.00  0.00    -0.205 F 
ATOM     89  C   UNL A   1      46.453  27.504  36.602  1.00  0.00     0.022 A 
BRANCH  87  90
ATOM     90  S   UNL A   1      44.973  25.879  38.234  1.00  0.00     0.127 S 
ATOM     91  O   UNL A   1      44.424  24.704  37.558  1.00  0.00    -0.237 OA
ATOM     92  O   UNL A   1      46.353  25.728  38.698  1.00  0.00    -0.237 OA
ATOM     93  O   UNL A   1      44.078  26.519  39.188  1.00  0.00    -0.744 OA
ENDBRANCH  87  90
ENDBRANCH  60  83
ENDBRANCH  34  35
ENDBRANCH  26  29
ENDBRANCH  24  25
ENDBRANCH  23  24
ENDBRANCH   1  23
TORSDOF 18
ENDMDL
MODEL 2
REMARK VINA RESULT:     -11.2      2.181      2.849
REMARK SMILES CC(C)N1C[C@@H](C(=O)N[C@@H](C)CC(=O)NCCCCNC(=O)c2ccc(-c3c4nc(c(-c5cccc(S(=O)(=O)[O-])c5F)c5ccc([nH]5)c(-c5cccc(S(=O)(=O)[O-])c5F)c5nc(c(-c6cccc(S(=O)(=O)[O-])c6F)c6ccc3[nH]6)C=C5)C=C4)cc2)CC1=O
REMARK SMILES IDX 17 1 16 2 15 3 13 4 14 5 12 7 10 8 11 9 9 10 7 11 8 12 6 14
REMARK SMILES IDX 4 15 5 16 87 17 86 18 88 19 2 20 1 21 3 22 18 23 19 24 20 25
REMARK SMILES IDX 21 26 22 28 23 29 24 30 85 31 25 32 84 33 26 34 27 35 28 36
REMARK SMILES IDX 78 37 29 38 83 39 77 40 79 41 30 42 82 43 76 44 75 45 31 47
REMARK SMILES IDX 63 48 43 49 62 50 44 51 47 52 61 53 80 54 45 55 46 56 60 58
REMARK SMILES IDX 81 59 48 60 32 61 33 62 41 63 34 64 36 65 42 66 35 67 37 68
REMARK SMILES IDX 38 69 39 70 40 71 64 72 65 73 73 74 66 75 68 76 74 77 67 78
REMARK SMILES IDX 69 79 70 80 71 81 72 82 49 83 50 84 58 85 51 86 53 87 59 88
REMARK SMILES IDX 52 89 54 90 55 91 56 92 57 93
REMARK H PARENT 15 6 9 13 20 27 79 46 47 57
REMARK Flexibility Score: inf
ROOT
ATOM      1  C   UNL A   1      31.399  29.360  23.631  1.00  0.00     0.023 C 
ENDROOT
BRANCH   1   2
ATOM      2  C   UNL A   1      31.023  28.339  22.564  1.00  0.00     0.116 C 
BRANCH   2   3
ATOM      3  N   UNL A   1      32.198  27.627  22.097  1.00  0.00    -0.356 N 
ATOM      4  C   UNL A   1      32.519  26.310  22.239  1.00  0.00     0.222 C 
ATOM      5  O   UNL A   1      33.640  25.931  21.895  1.00  0.00    -0.275 OA
ATOM      6  H   UNL A   1      32.856  28.171  21.609  1.00  0.00     0.163 HD
BRANCH   4   7
ATOM      7  C   UNL A   1      31.510  25.326  22.793  1.00  0.00     0.124 C 
BRANCH   7   8
ATOM      8  C   UNL A   1      32.108  24.228  23.688  1.00  0.00     0.088 C 
ATOM      9  C   UNL A   1      31.532  22.876  23.253  1.00  0.00     0.031 C 
BRANCH   8  10
ATOM     10  N   UNL A   1      31.761  24.402  25.098  1.00  0.00    -0.353 N 
ATOM     11  C   UNL A   1      32.178  23.797  26.237  1.00  0.00     0.225 C 
ATOM     12  O   UNL A   1      31.517  24.050  27.251  1.00  0.00    -0.275 OA
ATOM     13  H   UNL A   1      31.087  25.103  25.252  1.00  0.00     0.163 HD
BRANCH  11  14
ATOM     14  C   UNL A   1      33.352  22.844  26.336  1.00  0.00     0.107 C 
ATOM     15  N   UNL A   1      35.043  21.983  24.936  1.00  0.00    -0.339 N 
ATOM     16  C   UNL A   1      34.633  23.197  25.603  1.00  0.00     0.133 C 
ATOM     17  C   UNL A   1      34.178  20.928  25.169  1.00  0.00     0.223 C 
ATOM     18  C   UNL A   1      32.962  21.450  25.878  1.00  0.00     0.115 C 
ATOM     19  O   UNL A   1      34.310  19.766  24.828  1.00  0.00    -0.275 OA
BRANCH  15  20
ATOM     20  C   UNL A   1      36.345  21.897  24.265  1.00  0.00     0.078 C 
ATOM     21  C   UNL A   1      36.473  22.945  23.163  1.00  0.00     0.031 C 
ATOM     22  C   UNL A   1      37.523  21.986  25.239  1.00  0.00     0.031 C 
ENDBRANCH  15  20
ENDBRANCH  11  14
ENDBRANCH   8  10
ENDBRANCH   7   8
ENDBRANCH   4   7
ENDBRANCH   2   3
ENDBRANCH   1   2
BRANCH   1  23
ATOM     23  C   UNL A   1      31.725  28.805  25.005  1.00  0.00     0.023 C 
BRANCH  23  24
ATOM     24  C   UNL A   1      32.854  29.519  25.718  1.00  0.00     0.116 C 
BRANCH  24  25
ATOM     25  N   UNL A   1      32.462  30.798  26.300  1.00  0.00    -0.352 N 
ATOM     26  C   UNL A   1      33.168  31.600  27.170  1.00  0.00     0.251 C 
ATOM     27  H   UNL A   1      31.574  31.132  26.038  1.00  0.00     0.163 HD
ATOM     28  O   UNL A   1      32.659  32.610  27.643  1.00  0.00    -0.269 OA
BRANCH  26  29
ATOM     29  C   UNL A   1      34.532  31.191  27.557  1.00  0.00     0.039 A 
ATOM     30  C   UNL A   1      35.529  32.164  27.650  1.00  0.00     0.014 A 
ATOM     31  C   UNL A   1      34.782  29.875  27.952  1.00  0.00     0.014 A 
ATOM     32  C   UNL A   1      36.749  31.836  28.243  1.00  0.00     0.010 A 
ATOM     33  C   UNL A   1      35.947  29.586  28.646  1.00  0.00     0.010 A 
ATOM     34  C   UNL A   1      36.942  30.563  28.804  1.00  0.00    -0.014 A 
BRANCH  34  35
ATOM     35  C   UNL A   1      38.156  30.237  29.595  1.00  0.00     0.031 A 
ATOM     36  C   UNL A   1      39.164  29.259  29.058  1.00  0.00     0.074 A 
ATOM     37  C   UNL A   1      38.290  30.728  30.843  1.00  0.00     0.049 A 
ATOM     38  N   UNL A   1      40.235  28.780  29.635  1.00  0.00    -0.248 NA
ATOM     39  C   UNL A   1      38.916  28.717  27.712  1.00  0.00     0.031 C 
ATOM     40  C   UNL A   1      37.330  31.606  31.517  1.00  0.00     0.029 A 
ATOM     41  N   UNL A   1      39.269  30.526  31.786  1.00  0.00    -0.354 N 
ATOM     42  C   UNL A   1      40.760  27.853  28.746  1.00  0.00     0.074 A 
ATOM     43  C   UNL A   1      39.870  27.805  27.607  1.00  0.00     0.031 C 
ATOM     44  C   UNL A   1      37.765  31.865  32.759  1.00  0.00     0.029 A 
ATOM     45  C   UNL A   1      39.011  31.141  32.988  1.00  0.00     0.049 A 
ATOM     46  H   UNL A   1      40.079  29.993  31.616  1.00  0.00     0.167 HD
ATOM     47  C   UNL A   1      41.896  27.124  28.853  1.00  0.00     0.034 A 
ATOM     48  C   UNL A   1      39.683  31.107  34.156  1.00  0.00     0.034 A 
ATOM     49  C   UNL A   1      42.795  27.202  29.971  1.00  0.00     0.049 A 
ATOM     50  C   UNL A   1      40.962  30.321  34.240  1.00  0.00     0.074 A 
ATOM     51  C   UNL A   1      44.029  26.597  30.123  1.00  0.00     0.029 A 
ATOM     52  N   UNL A   1      42.547  27.906  31.139  1.00  0.00    -0.354 N 
ATOM     53  N   UNL A   1      41.543  29.595  33.316  1.00  0.00    -0.248 NA
ATOM     54  C   UNL A   1      41.694  30.373  35.514  1.00  0.00     0.031 C 
ATOM     55  C   UNL A   1      44.506  26.897  31.404  1.00  0.00     0.029 A 
ATOM     56  C   UNL A   1      43.590  27.726  32.031  1.00  0.00     0.049 A 
ATOM     57  H   UNL A   1      41.747  28.455  31.307  1.00  0.00     0.167 HD
ATOM     58  C   UNL A   1      42.718  29.119  33.887  1.00  0.00     0.074 A 
ATOM     59  C   UNL A   1      42.778  29.664  35.229  1.00  0.00     0.031 C 
ATOM     60  C   UNL A   1      43.653  28.295  33.354  1.00  0.00     0.034 A 
BRANCH  47  61
ATOM     61  C   UNL A   1      42.239  26.198  27.714  1.00  0.00     0.023 A 
ATOM     62  C   UNL A   1      43.007  26.671  26.630  1.00  0.00     0.012 A 
ATOM     63  C   UNL A   1      41.830  24.852  27.734  1.00  0.00     0.148 A 
ATOM     64  C   UNL A   1      43.320  25.833  25.561  1.00  0.00     0.002 A 
ATOM     65  C   UNL A   1      42.190  24.007  26.691  1.00  0.00     0.091 A 
ATOM     66  F   UNL A   1      41.081  24.425  28.760  1.00  0.00    -0.205 F 
ATOM     67  C   UNL A   1      42.921  24.500  25.596  1.00  0.00     0.022 A 
BRANCH  65  68
ATOM     68  S   UNL A   1      41.795  22.257  26.684  1.00  0.00     0.127 S 
ATOM     69  O   UNL A   1      42.584  21.772  27.816  1.00  0.00    -0.237 OA
ATOM     70  O   UNL A   1      40.350  22.268  26.910  1.00  0.00    -0.237 OA
ATOM     71  O   UNL A   1      42.202  21.758  25.379  1.00  0.00    -0.744 OA
ENDBRANCH  65  68
ENDBRANCH  47  61
BRANCH  48  72
ATOM     72  C   UNL A   1      39.161  31.865  35.328  1.00  0.00     0.023 A 
ATOM     73  C   UNL A   1      38.268  31.245  36.222  1.00  0.00     0.012 A 
ATOM     74  C   UNL A   1      39.592  33.181  35.587  1.00  0.00     0.148 A 
ATOM     75  C   UNL A   1      37.797  31.930  37.343  1.00  0.00     0.002 A 
ATOM     76  C   UNL A   1      39.165  33.835  36.735  1.00  0.00     0.091 A 
ATOM     77  F   UNL A   1      40.434  33.755  34.716  1.00  0.00    -0.205 F 
ATOM     78  C   UNL A   1      38.254  33.219  37.606  1.00  0.00     0.022 A 
BRANCH  76  79
ATOM     79  S   UNL A   1      39.812  35.437  37.227  1.00  0.00     0.127 S 
ATOM     80  O   UNL A   1      39.367  36.290  36.127  1.00  0.00    -0.237 OA
ATOM     81  O   UNL A   1      39.124  35.659  38.499  1.00  0.00    -0.237 OA
ATOM     82  O   UNL A   1      41.253  35.264  37.345  1.00  0.00    -0.744 OA
ENDBRANCH  76  79
ENDBRANCH  48  72
BRANCH  60  83
ATOM     83  C   UNL A   1      44.839  27.933  34.210  1.00  0.00     0.023 A 
ATOM     84  C   UNL A   1      46.010  28.713  34.151  1.00  0.00     0.012 A 
ATOM     85  C   UNL A   1      44.759  26.873  35.134  1.00  0.00     0.148 A 
ATOM     86  C   UNL A   1      47.096  28.426  34.979  1.00  0.00     0.002 A 
ATOM     87  C   UNL A   1      45.824  26.625  35.992  1.00  0.00     0.091 A 
ATOM     88  F   UNL A   1      43.640  26.134  35.164  1.00  0.00    -0.205 F 
ATOM     89  C   UNL A   1      46.997  27.392  35.906  1.00  0.00     0.022 A 
BRANCH  87  90
ATOM     90  S   UNL A   1      45.755  25.380  37.284  1.00  0.00     0.127 S 
ATOM     91  O   UNL A   1      44.457  25.659  37.898  1.00  0.00    -0.237 OA
ATOM     92  O   UNL A   1      45.812  24.136  36.516  1.00  0.00    -0.237 OA
ATOM     93  O   UNL A   1      46.909  25.619  38.140  1.00  0.00    -0.744 OA
ENDBRANCH  87  90
ENDBRANCH  60  83
ENDBRANCH  34  35
ENDBRANCH  26  29
ENDBRANCH  24  25
ENDBRANCH  23  24
ENDBRANCH   1  23
TORSDOF 18
ENDMDL
MODEL 3
REMARK VINA RESULT:     -11.2      1.172      2.022
REMARK SMILES CC(C)N1C[C@@H](C(=O)N[C@@H](C)CC(=O)NCCCCNC(=O)c2ccc(-c3c4nc(c(-c5cccc(S(=O)(=O)[O-])c5F)c5ccc([nH]5)c(-c5cccc(S(=O)(=O)[O-])c5F)c5nc(c(-c6cccc(S(=O)(=O)[O-])c6F)c6ccc3[nH]6)C=C5)C=C4)cc2)CC1=O
REMARK SMILES IDX 17 1 16 2 15 3 13 4 14 5 12 7 10 8 11 9 9 10 7 11 8 12 6 14
REMARK SMILES IDX 4 15 5 16 87 17 86 18 88 19 2 20 1 21 3 22 18 23 19 24 20 25
REMARK SMILES IDX 21 26 22 28 23 29 24 30 85 31 25 32 84 33 26 34 27 35 28 36
REMARK SMILES IDX 78 37 29 38 83 39 77 40 79 41 30 42 82 43 76 44 75 45 31 47
REMARK SMILES IDX 63 48 43 49 62 50 44 51 47 52 61 53 80 54 45 55 46 56 60 58
REMARK SMILES IDX 81 59 48 60 32 61 33 62 41 63 34 64 36 65 42 66 35 67 37 68
REMARK SMILES IDX 38 69 39 70 40 71 64 72 65 73 73 74 66 75 68 76 74 77 67 78
REMARK SMILES IDX 69 79 70 80 71 81 72 82 49 83 50 84 58 85 51 86 53 87 59 88
REMARK SMILES IDX 52 89 54 90 55 91 56 92 57 93
REMARK H PARENT 15 6 9 13 20 27 79 46 47 57
REMARK Flexibility Score: inf
ROOT
ATOM      1  C   UNL A   1      32.699  30.098  25.833  1.00  0.00     0.023 C 
ENDROOT
BRANCH   1   2
ATOM      2  C   UNL A   1      31.507  29.233  25.444  1.00  0.00     0.116 C 
BRANCH   2   3
ATOM      3  N   UNL A   1      31.396  28.083  26.321  1.00  0.00    -0.356 N 
ATOM      4  C   UNL A   1      31.222  26.769  26.002  1.00  0.00     0.222 C 
ATOM      5  O   UNL A   1      31.003  25.961  26.906  1.00  0.00    -0.275 OA
ATOM      6  H   UNL A   1      31.454  28.278  27.284  1.00  0.00     0.163 HD
BRANCH   4   7
ATOM      7  C   UNL A   1      31.314  26.308  24.562  1.00  0.00     0.124 C 
BRANCH   7   8
ATOM      8  C   UNL A   1      32.531  25.422  24.248  1.00  0.00     0.088 C 
ATOM      9  C   UNL A   1      33.804  26.187  24.624  1.00  0.00     0.031 C 
BRANCH   8  10
ATOM     10  N   UNL A   1      32.637  25.098  22.826  1.00  0.00    -0.353 N 
ATOM     11  C   UNL A   1      33.300  24.134  22.141  1.00  0.00     0.225 C 
ATOM     12  O   UNL A   1      33.337  24.279  20.913  1.00  0.00    -0.275 OA
ATOM     13  H   UNL A   1      32.120  25.704  22.246  1.00  0.00     0.163 HD
BRANCH  11  14
ATOM     14  C   UNL A   1      33.993  22.942  22.769  1.00  0.00     0.107 C 
ATOM     15  N   UNL A   1      34.284  22.003  24.912  1.00  0.00    -0.339 N 
ATOM     16  C   UNL A   1      33.284  22.201  23.888  1.00  0.00     0.133 C 
ATOM     17  C   UNL A   1      35.517  22.525  24.563  1.00  0.00     0.223 C 
ATOM     18  C   UNL A   1      35.360  23.327  23.303  1.00  0.00     0.115 C 
ATOM     19  O   UNL A   1      36.568  22.426  25.170  1.00  0.00    -0.275 OA
BRANCH  15  20
ATOM     20  C   UNL A   1      34.005  21.161  26.081  1.00  0.00     0.078 C 
ATOM     21  C   UNL A   1      33.508  21.993  27.260  1.00  0.00     0.031 C 
ATOM     22  C   UNL A   1      33.033  20.019  25.773  1.00  0.00     0.031 C 
ENDBRANCH  15  20
ENDBRANCH  11  14
ENDBRANCH   8  10
ENDBRANCH   7   8
ENDBRANCH   4   7
ENDBRANCH   2   3
ENDBRANCH   1   2
BRANCH   1  23
ATOM     23  C   UNL A   1      32.608  30.800  27.174  1.00  0.00     0.023 C 
BRANCH  23  24
ATOM     24  C   UNL A   1      33.592  31.938  27.355  1.00  0.00     0.116 C 
BRANCH  24  25
ATOM     25  N   UNL A   1      32.955  33.235  27.561  1.00  0.00    -0.352 N 
ATOM     26  C   UNL A   1      33.251  34.199  28.498  1.00  0.00     0.251 C 
ATOM     27  H   UNL A   1      32.213  33.447  26.950  1.00  0.00     0.163 HD
ATOM     28  O   UNL A   1      32.559  35.206  28.602  1.00  0.00    -0.269 OA
BRANCH  26  29
ATOM     29  C   UNL A   1      34.392  33.973  29.407  1.00  0.00     0.039 A 
ATOM     30  C   UNL A   1      34.186  33.249  30.583  1.00  0.00     0.014 A 
ATOM     31  C   UNL A   1      35.677  34.364  29.027  1.00  0.00     0.014 A 
ATOM     32  C   UNL A   1      35.290  32.823  31.323  1.00  0.00     0.010 A 
ATOM     33  C   UNL A   1      36.772  33.839  29.698  1.00  0.00     0.010 A 
ATOM     34  C   UNL A   1      36.591  33.059  30.850  1.00  0.00    -0.014 A 
BRANCH  34  35
ATOM     35  C   UNL A   1      37.780  32.470  31.518  1.00  0.00     0.031 A 
ATOM     36  C   UNL A   1      38.512  31.323  30.878  1.00  0.00     0.074 A 
ATOM     37  C   UNL A   1      38.126  32.887  32.753  1.00  0.00     0.049 A 
ATOM     38  N   UNL A   1      39.510  30.620  31.346  1.00  0.00    -0.248 NA
ATOM     39  C   UNL A   1      38.036  30.883  29.557  1.00  0.00     0.031 C 
ATOM     40  C   UNL A   1      37.431  33.921  33.524  1.00  0.00     0.029 A 
ATOM     41  N   UNL A   1      39.124  32.462  33.595  1.00  0.00    -0.354 N 
ATOM     42  C   UNL A   1      39.750  29.631  30.401  1.00  0.00     0.074 A 
ATOM     43  C   UNL A   1      38.769  29.799  29.353  1.00  0.00     0.031 C 
ATOM     44  C   UNL A   1      38.023  34.051  34.720  1.00  0.00     0.029 A 
ATOM     45  C   UNL A   1      39.109  33.082  34.823  1.00  0.00     0.049 A 
ATOM     46  H   UNL A   1      39.789  31.781  33.344  1.00  0.00     0.167 HD
ATOM     47  C   UNL A   1      40.716  28.683  30.392  1.00  0.00     0.034 A 
ATOM     48  C   UNL A   1      39.864  32.877  35.920  1.00  0.00     0.034 A 
ATOM     49  C   UNL A   1      41.711  28.544  31.420  1.00  0.00     0.049 A 
ATOM     50  C   UNL A   1      40.956  31.846  35.875  1.00  0.00     0.074 A 
ATOM     51  C   UNL A   1      42.803  27.696  31.448  1.00  0.00     0.029 A 
ATOM     52  N   UNL A   1      41.721  29.250  32.613  1.00  0.00    -0.354 N 
ATOM     53  N   UNL A   1      41.289  31.044  34.893  1.00  0.00    -0.248 NA
ATOM     54  C   UNL A   1      41.797  31.711  37.073  1.00  0.00     0.031 C 
ATOM     55  C   UNL A   1      43.447  27.856  32.680  1.00  0.00     0.029 A 
ATOM     56  C   UNL A   1      42.781  28.835  33.400  1.00  0.00     0.049 A 
ATOM     57  H   UNL A   1      41.069  29.945  32.862  1.00  0.00     0.167 HD
ATOM     58  C   UNL A   1      42.388  30.323  35.344  1.00  0.00     0.074 A 
ATOM     59  C   UNL A   1      42.681  30.804  36.679  1.00  0.00     0.031 C 
ATOM     60  C   UNL A   1      43.081  29.342  34.716  1.00  0.00     0.034 A 
BRANCH  47  61
ATOM     61  C   UNL A   1      40.757  27.741  29.217  1.00  0.00     0.023 A 
ATOM     62  C   UNL A   1      39.929  26.599  29.201  1.00  0.00     0.012 A 
ATOM     63  C   UNL A   1      41.591  28.003  28.114  1.00  0.00     0.148 A 
ATOM     64  C   UNL A   1      39.967  25.708  28.130  1.00  0.00     0.002 A 
ATOM     65  C   UNL A   1      41.584  27.140  27.025  1.00  0.00     0.091 A 
ATOM     66  F   UNL A   1      42.388  29.080  28.155  1.00  0.00    -0.205 F 
ATOM     67  C   UNL A   1      40.785  25.984  27.038  1.00  0.00     0.022 A 
BRANCH  65  68
ATOM     68  S   UNL A   1      42.541  27.452  25.539  1.00  0.00     0.127 S 
ATOM     69  O   UNL A   1      43.908  27.422  26.057  1.00  0.00    -0.237 OA
ATOM     70  O   UNL A   1      42.183  26.308  24.699  1.00  0.00    -0.237 OA
ATOM     71  O   UNL A   1      42.091  28.740  25.034  1.00  0.00    -0.744 OA
ENDBRANCH  65  68
ENDBRANCH  47  61
BRANCH  48  72
ATOM     72  C   UNL A   1      39.618  33.691  37.145  1.00  0.00     0.023 A 
ATOM     73  C   UNL A   1      40.098  35.013  37.216  1.00  0.00     0.012 A 
ATOM     74  C   UNL A   1      38.861  33.175  38.215  1.00  0.00     0.148 A 
ATOM     75  C   UNL A   1      39.846  35.798  38.342  1.00  0.00     0.002 A 
ATOM     76  C   UNL A   1      38.565  33.982  39.305  1.00  0.00     0.091 A 
ATOM     77  F   UNL A   1      38.423  31.910  38.130  1.00  0.00    -0.205 F 
ATOM     78  C   UNL A   1      39.070  35.288  39.380  1.00  0.00     0.022 A 
BRANCH  76  79
ATOM     79  S   UNL A   1      37.456  33.458  40.618  1.00  0.00     0.127 S 
ATOM     80  O   UNL A   1      38.270  32.468  41.320  1.00  0.00    -0.237 OA
ATOM     81  O   UNL A   1      37.240  34.709  41.344  1.00  0.00    -0.237 OA
ATOM     82  O   UNL A   1      36.269  32.938  39.951  1.00  0.00    -0.744 OA
ENDBRANCH  76  79
ENDBRANCH  48  72
BRANCH  60  83
ATOM     83  C   UNL A   1      44.241  28.721  35.452  1.00  0.00     0.023 A 
ATOM     84  C   UNL A   1      45.537  29.248  35.288  1.00  0.00     0.012 A 
ATOM     85  C   UNL A   1      44.030  27.673  36.368  1.00  0.00     0.148 A 
ATOM     86  C   UNL A   1      46.611  28.722  36.005  1.00  0.00     0.002 A 
ATOM     87  C   UNL A   1      45.095  27.189  37.118  1.00  0.00     0.091 A 
ATOM     88  F   UNL A   1      42.791  27.177  36.498  1.00  0.00    -0.205 F 
ATOM     89  C   UNL A   1      46.388  27.703  36.929  1.00  0.00     0.022 A 
BRANCH  87  90
ATOM     90  S   UNL A   1      44.890  25.947  38.400  1.00  0.00     0.127 S 
ATOM     91  O   UNL A   1      46.219  25.924  39.008  1.00  0.00    -0.237 OA
ATOM     92  O   UNL A   1      43.845  26.538  39.237  1.00  0.00    -0.237 OA
ATOM     93  O   UNL A   1      44.499  24.721  37.717  1.00  0.00    -0.744 OA
ENDBRANCH  87  90
ENDBRANCH  60  83
ENDBRANCH  34  35
ENDBRANCH  26  29
ENDBRANCH  24  25
ENDBRANCH  23  24
ENDBRANCH   1  23
TORSDOF 18
ENDMDL
