MODEL 1
REMARK VINA RESULT:     -11.4      0.000      0.000
REMARK SMILES CCOC(=O)c1c(NC(=O)/C=C/C(=O)NCCCCNC(=O)c2ccc(-c3c4nc(c(-c5cccc(S(=O)(=O)[O-])c5F)c5ccc([nH]5)c(-c5cccc(S(=O)(=O)[O-])c5F)c5nc(c(-c6cccc(S(=O)(=O)[O-])c6F)c6ccc3[nH]6)C=C5)C=C4)cc2)sc(C)c1-c1ccc(C)c(C)c1
REMARK SMILES IDX 16 1 15 2 13 3 14 4 12 6 11 7 9 8 8 9 10 11 7 12 6 13 89 14
REMARK SMILES IDX 86 15 87 16 88 17 4 18 5 19 3 20 2 21 1 22 90 23 91 24 97 25
REMARK SMILES IDX 92 26 95 27 93 28 96 29 94 30 17 31 18 32 19 33 20 34 21 35
REMARK SMILES IDX 22 37 23 38 24 39 85 40 25 41 84 42 26 43 27 44 28 45 78 46
REMARK SMILES IDX 29 47 83 48 77 49 79 50 30 51 82 52 76 53 75 54 31 56 63 57
REMARK SMILES IDX 43 58 62 59 44 60 47 61 61 62 80 63 45 64 46 65 60 67 81 68
REMARK SMILES IDX 48 69 32 70 33 71 41 72 34 73 36 74 42 75 35 76 37 77 38 78
REMARK SMILES IDX 39 79 40 80 64 81 65 82 73 83 66 84 68 85 74 86 67 87 69 88
REMARK SMILES IDX 70 89 71 90 72 91 49 92 50 93 58 94 51 95 53 96 59 97 52 98
REMARK SMILES IDX 54 99 55 100 56 101 57 102
REMARK H PARENT 15 5 8 10 20 36 79 55 47 66
REMARK Flexibility Score: inf
ROOT
ATOM      1  C   UNL A   1      37.000  23.056  24.684  1.00  0.00     0.116 C 
ENDROOT
BRANCH   1   2
ATOM      2  N   UNL A   1      37.331  21.656  24.510  1.00  0.00    -0.353 N 
ATOM      3  C   UNL A   1      36.596  20.587  24.922  1.00  0.00     0.244 C 
ATOM      4  O   UNL A   1      37.094  19.472  25.021  1.00  0.00    -0.270 OA
ATOM      5  H   UNL A   1      38.176  21.457  24.045  1.00  0.00     0.163 HD
BRANCH   3   6
ATOM      6  C   UNL A   1      35.174  20.800  25.252  1.00  0.00     0.077 C 
ATOM      7  C   UNL A   1      34.273  20.027  24.627  1.00  0.00     0.077 C 
BRANCH   7   8
ATOM      8  C   UNL A   1      32.879  19.979  25.083  1.00  0.00     0.249 C 
ATOM      9  N   UNL A   1      32.078  21.083  25.024  1.00  0.00    -0.313 N 
ATOM     10  H   UNL A   1      31.173  20.940  25.385  1.00  0.00     0.171 HD
ATOM     11  O   UNL A   1      32.441  18.919  25.528  1.00  0.00    -0.270 OA
BRANCH   9  12
ATOM     12  C   UNL A   1      32.299  22.369  24.552  1.00  0.00     0.111 A 
ATOM     13  C   UNL A   1      32.236  23.538  25.293  1.00  0.00     0.102 A 
ATOM     14  C   UNL A   1      32.286  24.702  24.432  1.00  0.00     0.012 A 
ATOM     15  S   UNL A   1      32.758  22.690  22.956  1.00  0.00    -0.122 S 
ATOM     16  C   UNL A   1      32.456  24.355  23.101  1.00  0.00     0.012 A 
ATOM     17  C   UNL A   1      32.455  25.181  21.855  1.00  0.00     0.057 C 
BRANCH  13  18
ATOM     18  C   UNL A   1      32.078  23.517  26.740  1.00  0.00     0.341 C 
ATOM     19  O   UNL A   1      32.792  22.830  27.465  1.00  0.00    -0.246 OA
BRANCH  18  20
ATOM     20  O   UNL A   1      31.031  24.265  27.180  1.00  0.00    -0.462 OA
BRANCH  20  21
ATOM     21  C   UNL A   1      29.735  23.857  26.719  1.00  0.00     0.230 C 
ATOM     22  C   UNL A   1      29.282  22.550  27.351  1.00  0.00     0.049 C 
ENDBRANCH  20  21
ENDBRANCH  18  20
ENDBRANCH  13  18
BRANCH  14  23
ATOM     23  C   UNL A   1      32.238  26.093  24.847  1.00  0.00    -0.016 A 
ATOM     24  C   UNL A   1      31.086  26.839  24.591  1.00  0.00     0.009 A 
ATOM     25  C   UNL A   1      33.320  26.687  25.503  1.00  0.00     0.012 A 
ATOM     26  C   UNL A   1      31.021  28.170  24.991  1.00  0.00     0.004 A 
ATOM     27  C   UNL A   1      33.261  28.027  25.921  1.00  0.00    -0.048 A 
ATOM     28  C   UNL A   1      32.097  28.778  25.659  1.00  0.00    -0.048 A 
ATOM     29  C   UNL A   1      34.444  28.612  26.642  1.00  0.00     0.044 C 
ATOM     30  C   UNL A   1      31.946  30.224  26.042  1.00  0.00     0.044 C 
ENDBRANCH  14  23
ENDBRANCH   9  12
ENDBRANCH   7   8
ENDBRANCH   3   6
ENDBRANCH   1   2
BRANCH   1  31
ATOM     31  C   UNL A   1      37.345  23.513  26.100  1.00  0.00     0.023 C 
BRANCH  31  32
ATOM     32  C   UNL A   1      38.838  23.770  26.322  1.00  0.00     0.023 C 
BRANCH  32  33
ATOM     33  C   UNL A   1      39.616  22.580  26.873  1.00  0.00     0.116 C 
BRANCH  33  34
ATOM     34  N   UNL A   1      40.758  22.214  26.046  1.00  0.00    -0.352 N 
ATOM     35  C   UNL A   1      41.913  22.913  25.815  1.00  0.00     0.251 C 
ATOM     36  H   UNL A   1      40.690  21.343  25.592  1.00  0.00     0.163 HD
ATOM     37  O   UNL A   1      42.739  22.482  25.016  1.00  0.00    -0.269 OA
BRANCH  35  38
ATOM     38  C   UNL A   1      42.135  24.198  26.502  1.00  0.00     0.039 A 
ATOM     39  C   UNL A   1      42.043  25.373  25.755  1.00  0.00     0.014 A 
ATOM     40  C   UNL A   1      42.424  24.243  27.869  1.00  0.00     0.014 A 
ATOM     41  C   UNL A   1      42.210  26.603  26.389  1.00  0.00     0.010 A 
ATOM     42  C   UNL A   1      42.519  25.472  28.512  1.00  0.00     0.010 A 
ATOM     43  C   UNL A   1      42.434  26.662  27.774  1.00  0.00    -0.014 A 
BRANCH  43  44
ATOM     44  C   UNL A   1      42.616  27.965  28.454  1.00  0.00     0.031 A 
ATOM     45  C   UNL A   1      43.998  28.521  28.652  1.00  0.00     0.074 A 
ATOM     46  C   UNL A   1      41.541  28.618  28.935  1.00  0.00     0.049 A 
ATOM     47  N   UNL A   1      44.359  29.654  29.196  1.00  0.00    -0.248 NA
ATOM     48  C   UNL A   1      45.127  27.685  28.207  1.00  0.00     0.031 C 
ATOM     49  C   UNL A   1      40.161  28.128  28.887  1.00  0.00     0.029 A 
ATOM     50  N   UNL A   1      41.443  29.828  29.571  1.00  0.00    -0.354 N 
ATOM     51  C   UNL A   1      45.748  29.652  29.189  1.00  0.00     0.074 A 
ATOM     52  C   UNL A   1      46.169  28.388  28.626  1.00  0.00     0.031 C 
ATOM     53  C   UNL A   1      39.353  29.037  29.457  1.00  0.00     0.029 A 
ATOM     54  C   UNL A   1      40.155  30.168  29.912  1.00  0.00     0.049 A 
ATOM     55  H   UNL A   1      42.220  30.400  29.765  1.00  0.00     0.167 HD
ATOM     56  C   UNL A   1      46.599  30.631  29.577  1.00  0.00     0.034 A 
ATOM     57  C   UNL A   1      39.676  31.280  30.504  1.00  0.00     0.034 A 
ATOM     58  C   UNL A   1      46.171  31.908  30.079  1.00  0.00     0.049 A 
ATOM     59  C   UNL A   1      40.633  32.395  30.829  1.00  0.00     0.074 A 
ATOM     60  C   UNL A   1      46.943  33.000  30.428  1.00  0.00     0.029 A 
ATOM     61  N   UNL A   1      44.849  32.266  30.292  1.00  0.00    -0.354 N 
ATOM     62  N   UNL A   1      41.933  32.445  30.658  1.00  0.00    -0.248 NA
ATOM     63  C   UNL A   1      40.053  33.630  31.378  1.00  0.00     0.031 C 
ATOM     64  C   UNL A   1      46.085  34.022  30.851  1.00  0.00     0.029 A 
ATOM     65  C   UNL A   1      44.780  33.568  30.755  1.00  0.00     0.049 A 
ATOM     66  H   UNL A   1      44.073  31.680  30.136  1.00  0.00     0.167 HD
ATOM     67  C   UNL A   1      42.319  33.725  31.035  1.00  0.00     0.074 A 
ATOM     68  C   UNL A   1      41.113  34.425  31.426  1.00  0.00     0.031 C 
ATOM     69  C   UNL A   1      43.561  34.268  31.070  1.00  0.00     0.034 A 
BRANCH  56  70
ATOM     70  C   UNL A   1      48.072  30.381  29.398  1.00  0.00     0.023 A 
ATOM     71  C   UNL A   1      48.827  29.901  30.489  1.00  0.00     0.012 A 
ATOM     72  C   UNL A   1      48.706  30.583  28.157  1.00  0.00     0.148 A 
ATOM     73  C   UNL A   1      50.194  29.661  30.358  1.00  0.00     0.002 A 
ATOM     74  C   UNL A   1      50.061  30.300  28.022  1.00  0.00     0.091 A 
ATOM     75  F   UNL A   1      47.980  31.064  27.137  1.00  0.00    -0.205 F 
ATOM     76  C   UNL A   1      50.808  29.850  29.124  1.00  0.00     0.022 A 
BRANCH  74  77
ATOM     77  S   UNL A   1      50.926  30.443  26.454  1.00  0.00     0.127 S 
ATOM     78  O   UNL A   1      52.304  30.159  26.850  1.00  0.00    -0.237 OA
ATOM     79  O   UNL A   1      50.293  29.394  25.654  1.00  0.00    -0.237 OA
ATOM     80  O   UNL A   1      50.673  31.798  25.983  1.00  0.00    -0.744 OA
ENDBRANCH  74  77
ENDBRANCH  56  70
BRANCH  57  81
ATOM     81  C   UNL A   1      38.209  31.439  30.708  1.00  0.00     0.023 A 
ATOM     82  C   UNL A   1      37.657  31.153  31.972  1.00  0.00     0.012 A 
ATOM     83  C   UNL A   1      37.367  31.902  29.680  1.00  0.00     0.148 A 
ATOM     84  C   UNL A   1      36.288  31.295  32.201  1.00  0.00     0.002 A 
ATOM     85  C   UNL A   1      36.011  32.090  29.929  1.00  0.00     0.091 A 
ATOM     86  F   UNL A   1      37.908  32.159  28.481  1.00  0.00    -0.205 F 
ATOM     87  C   UNL A   1      35.467  31.772  31.184  1.00  0.00     0.022 A 
BRANCH  85  88
ATOM     88  S   UNL A   1      34.907  32.821  28.715  1.00  0.00     0.127 S 
ATOM     89  O   UNL A   1      34.049  31.691  28.370  1.00  0.00    -0.237 OA
ATOM     90  O   UNL A   1      34.254  33.876  29.489  1.00  0.00    -0.237 OA
ATOM     91  O   UNL A   1      35.772  33.312  27.651  1.00  0.00    -0.744 OA
ENDBRANCH  85  88
ENDBRANCH  57  81
BRANCH  69  92
ATOM     92  C   UNL A   1      43.681  35.704  31.506  1.00  0.00     0.023 A 
ATOM     93  C   UNL A   1      43.773  36.012  32.877  1.00  0.00     0.012 A 
ATOM     94  C   UNL A   1      43.774  36.738  30.554  1.00  0.00     0.148 A 
ATOM     95  C   UNL A   1      43.923  37.333  33.296  1.00  0.00     0.002 A 
ATOM     96  C   UNL A   1      43.968  38.048  30.979  1.00  0.00     0.091 A 
ATOM     97  F   UNL A   1      43.659  36.430  29.254  1.00  0.00    -0.205 F 
ATOM     98  C   UNL A   1      44.032  38.348  32.349  1.00  0.00     0.022 A 
BRANCH  96  99
ATOM     99  S   UNL A   1      44.212  39.392  29.812  1.00  0.00     0.127 S 
ATOM    100  O   UNL A   1      42.924  39.430  29.124  1.00  0.00    -0.237 OA
ATOM    101  O   UNL A   1      44.467  40.534  30.692  1.00  0.00    -0.237 OA
ATOM    102  O   UNL A   1      45.355  38.999  28.999  1.00  0.00    -0.744 OA
ENDBRANCH  96  99
ENDBRANCH  69  92
ENDBRANCH  43  44
ENDBRANCH  35  38
ENDBRANCH  33  34
ENDBRANCH  32  33
ENDBRANCH  31  32
ENDBRANCH   1  31
TORSDOF 20
ENDMDL
MODEL 2
REMARK VINA RESULT:     -10.9      4.339      8.900
REMARK SMILES CCOC(=O)c1c(NC(=O)/C=C/C(=O)NCCCCNC(=O)c2ccc(-c3c4nc(c(-c5cccc(S(=O)(=O)[O-])c5F)c5ccc([nH]5)c(-c5cccc(S(=O)(=O)[O-])c5F)c5nc(c(-c6cccc(S(=O)(=O)[O-])c6F)c6ccc3[nH]6)C=C5)C=C4)cc2)sc(C)c1-c1ccc(C)c(C)c1
REMARK SMILES IDX 16 1 15 2 13 3 14 4 12 6 11 7 9 8 8 9 10 11 7 12 6 13 89 14
REMARK SMILES IDX 86 15 87 16 88 17 4 18 5 19 3 20 2 21 1 22 90 23 91 24 97 25
REMARK SMILES IDX 92 26 95 27 93 28 96 29 94 30 17 31 18 32 19 33 20 34 21 35
REMARK SMILES IDX 22 37 23 38 24 39 85 40 25 41 84 42 26 43 27 44 28 45 78 46
REMARK SMILES IDX 29 47 83 48 77 49 79 50 30 51 82 52 76 53 75 54 31 56 63 57
REMARK SMILES IDX 43 58 62 59 44 60 47 61 61 62 80 63 45 64 46 65 60 67 81 68
REMARK SMILES IDX 48 69 32 70 33 71 41 72 34 73 36 74 42 75 35 76 37 77 38 78
REMARK SMILES IDX 39 79 40 80 64 81 65 82 73 83 66 84 68 85 74 86 67 87 69 88
REMARK SMILES IDX 70 89 71 90 72 91 49 92 50 93 58 94 51 95 53 96 59 97 52 98
REMARK SMILES IDX 54 99 55 100 56 101 57 102
REMARK H PARENT 15 5 8 10 20 36 79 55 47 66
REMARK Flexibility Score: inf
ROOT
ATOM      1  C   UNL A   1      33.926  24.896  26.086  1.00  0.00     0.116 C 
ENDROOT
BRANCH   1   2
ATOM      2  N   UNL A   1      35.260  24.332  26.103  1.00  0.00    -0.353 N 
ATOM      3  C   UNL A   1      35.662  23.169  25.521  1.00  0.00     0.244 C 
ATOM      4  O   UNL A   1      36.705  22.618  25.852  1.00  0.00    -0.270 OA
ATOM      5  H   UNL A   1      35.949  24.843  26.586  1.00  0.00     0.163 HD
BRANCH   3   6
ATOM      6  C   UNL A   1      34.807  22.577  24.475  1.00  0.00     0.077 C 
ATOM      7  C   UNL A   1      33.479  22.685  24.628  1.00  0.00     0.077 C 
BRANCH   7   8
ATOM      8  C   UNL A   1      32.567  22.372  23.522  1.00  0.00     0.249 C 
ATOM      9  N   UNL A   1      32.025  23.360  22.751  1.00  0.00    -0.313 N 
ATOM     10  H   UNL A   1      31.405  23.033  22.060  1.00  0.00     0.171 HD
ATOM     11  O   UNL A   1      32.291  21.193  23.301  1.00  0.00    -0.270 OA
BRANCH   9  12
ATOM     12  C   UNL A   1      32.183  24.738  22.759  1.00  0.00     0.111 A 
ATOM     13  C   UNL A   1      31.241  25.671  23.164  1.00  0.00     0.102 A 
ATOM     14  C   UNL A   1      31.656  27.013  22.815  1.00  0.00     0.012 A 
ATOM     15  S   UNL A   1      33.630  25.494  22.317  1.00  0.00    -0.122 S 
ATOM     16  C   UNL A   1      32.913  27.032  22.231  1.00  0.00     0.012 A 
ATOM     17  C   UNL A   1      33.701  28.143  21.614  1.00  0.00     0.057 C 
BRANCH  13  18
ATOM     18  C   UNL A   1      29.994  25.269  23.799  1.00  0.00     0.341 C 
ATOM     19  O   UNL A   1      28.946  25.885  23.628  1.00  0.00    -0.246 OA
BRANCH  18  20
ATOM     20  O   UNL A   1      30.133  24.207  24.638  1.00  0.00    -0.462 OA
BRANCH  20  21
ATOM     21  C   UNL A   1      30.384  24.529  26.014  1.00  0.00     0.230 C 
ATOM     22  C   UNL A   1      30.687  23.296  26.850  1.00  0.00     0.049 C 
ENDBRANCH  20  21
ENDBRANCH  18  20
ENDBRANCH  13  18
BRANCH  14  23
ATOM     23  C   UNL A   1      30.928  28.244  23.071  1.00  0.00    -0.016 A 
ATOM     24  C   UNL A   1      31.203  28.967  24.232  1.00  0.00     0.009 A 
ATOM     25  C   UNL A   1      29.967  28.713  22.170  1.00  0.00     0.012 A 
ATOM     26  C   UNL A   1      30.521  30.153  24.488  1.00  0.00     0.004 A 
ATOM     27  C   UNL A   1      29.280  29.915  22.412  1.00  0.00    -0.048 A 
ATOM     28  C   UNL A   1      29.559  30.641  23.587  1.00  0.00    -0.048 A 
ATOM     29  C   UNL A   1      28.272  30.387  21.401  1.00  0.00     0.044 C 
ATOM     30  C   UNL A   1      28.861  31.923  23.949  1.00  0.00     0.044 C 
ENDBRANCH  14  23
ENDBRANCH   9  12
ENDBRANCH   7   8
ENDBRANCH   3   6
ENDBRANCH   1   2
BRANCH   1  31
ATOM     31  C   UNL A   1      33.934  26.263  25.404  1.00  0.00     0.023 C 
BRANCH  31  32
ATOM     32  C   UNL A   1      33.729  27.436  26.367  1.00  0.00     0.023 C 
BRANCH  32  33
ATOM     33  C   UNL A   1      34.428  28.728  25.957  1.00  0.00     0.116 C 
BRANCH  33  34
ATOM     34  N   UNL A   1      33.962  29.889  26.701  1.00  0.00    -0.352 N 
ATOM     35  C   UNL A   1      34.572  30.551  27.733  1.00  0.00     0.251 C 
ATOM     36  H   UNL A   1      33.088  30.247  26.424  1.00  0.00     0.163 HD
ATOM     37  O   UNL A   1      33.989  31.469  28.301  1.00  0.00    -0.269 OA
BRANCH  35  38
ATOM     38  C   UNL A   1      35.913  30.129  28.176  1.00  0.00     0.039 A 
ATOM     39  C   UNL A   1      36.029  29.461  29.397  1.00  0.00     0.014 A 
ATOM     40  C   UNL A   1      37.044  30.382  27.393  1.00  0.00     0.014 A 
ATOM     41  C   UNL A   1      37.280  29.017  29.819  1.00  0.00     0.010 A 
ATOM     42  C   UNL A   1      38.278  29.875  27.783  1.00  0.00     0.010 A 
ATOM     43  C   UNL A   1      38.411  29.207  29.009  1.00  0.00    -0.014 A 
BRANCH  43  44
ATOM     44  C   UNL A   1      39.744  28.740  29.454  1.00  0.00     0.031 A 
ATOM     45  C   UNL A   1      40.456  29.456  30.567  1.00  0.00     0.074 A 
ATOM     46  C   UNL A   1      40.330  27.707  28.821  1.00  0.00     0.049 A 
ATOM     47  N   UNL A   1      41.612  29.183  31.113  1.00  0.00    -0.248 NA
ATOM     48  C   UNL A   1      39.801  30.654  31.121  1.00  0.00     0.031 C 
ATOM     49  C   UNL A   1      39.776  26.997  27.664  1.00  0.00     0.029 A 
ATOM     50  N   UNL A   1      41.527  27.081  29.052  1.00  0.00    -0.354 N 
ATOM     51  C   UNL A   1      41.836  30.187  32.048  1.00  0.00     0.074 A 
ATOM     52  C   UNL A   1      40.718  31.101  31.966  1.00  0.00     0.031 C 
ATOM     53  C   UNL A   1      40.627  26.025  27.298  1.00  0.00     0.029 A 
ATOM     54  C   UNL A   1      41.784  26.044  28.187  1.00  0.00     0.049 A 
ATOM     55  H   UNL A   1      42.146  27.349  29.770  1.00  0.00     0.167 HD
ATOM     56  C   UNL A   1      42.858  30.315  32.926  1.00  0.00     0.034 A 
ATOM     57  C   UNL A   1      42.826  25.192  28.135  1.00  0.00     0.034 A 
ATOM     58  C   UNL A   1      43.934  29.369  33.041  1.00  0.00     0.049 A 
ATOM     59  C   UNL A   1      43.897  25.293  29.188  1.00  0.00     0.074 A 
ATOM     60  C   UNL A   1      44.980  29.359  33.946  1.00  0.00     0.029 A 
ATOM     61  N   UNL A   1      44.094  28.257  32.230  1.00  0.00    -0.354 N 
ATOM     62  N   UNL A   1      44.005  26.150  30.175  1.00  0.00    -0.248 NA
ATOM     63  C   UNL A   1      44.959  24.278  29.155  1.00  0.00     0.031 C 
ATOM     64  C   UNL A   1      45.772  28.235  33.682  1.00  0.00     0.029 A 
ATOM     65  C   UNL A   1      45.213  27.543  32.620  1.00  0.00     0.049 A 
ATOM     66  H   UNL A   1      43.498  28.010  31.486  1.00  0.00     0.167 HD
ATOM     67  C   UNL A   1      45.119  25.752  30.905  1.00  0.00     0.074 A 
ATOM     68  C   UNL A   1      45.640  24.566  30.257  1.00  0.00     0.031 C 
ATOM     69  C   UNL A   1      45.671  26.324  32.003  1.00  0.00     0.034 A 
BRANCH  56  70
ATOM     70  C   UNL A   1      42.815  31.480  33.877  1.00  0.00     0.023 A 
ATOM     71  C   UNL A   1      43.341  32.724  33.468  1.00  0.00     0.012 A 
ATOM     72  C   UNL A   1      42.228  31.366  35.152  1.00  0.00     0.148 A 
ATOM     73  C   UNL A   1      43.318  33.823  34.326  1.00  0.00     0.002 A 
ATOM     74  C   UNL A   1      42.170  32.478  35.985  1.00  0.00     0.091 A 
ATOM     75  F   UNL A   1      41.756  30.171  35.535  1.00  0.00    -0.205 F 
ATOM     76  C   UNL A   1      42.724  33.703  35.578  1.00  0.00     0.022 A 
BRANCH  74  77
ATOM     77  S   UNL A   1      41.360  32.442  37.589  1.00  0.00     0.127 S 
ATOM     78  O   UNL A   1      42.212  31.513  38.329  1.00  0.00    -0.237 OA
ATOM     79  O   UNL A   1      41.462  33.838  38.018  1.00  0.00    -0.237 OA
ATOM     80  O   UNL A   1      40.001  31.986  37.336  1.00  0.00    -0.744 OA
ENDBRANCH  74  77
ENDBRANCH  56  70
BRANCH  57  81
ATOM     81  C   UNL A   1      42.837  24.094  27.127  1.00  0.00     0.023 A 
ATOM     82  C   UNL A   1      43.572  24.264  25.937  1.00  0.00     0.012 A 
ATOM     83  C   UNL A   1      42.163  22.880  27.350  1.00  0.00     0.148 A 
ATOM     84  C   UNL A   1      43.610  23.256  24.973  1.00  0.00     0.002 A 
ATOM     85  C   UNL A   1      42.245  21.860  26.407  1.00  0.00     0.091 A 
ATOM     86  F   UNL A   1      41.460  22.741  28.483  1.00  0.00    -0.205 F 
ATOM     87  C   UNL A   1      42.955  22.052  25.211  1.00  0.00     0.022 A 
BRANCH  85  88
ATOM     88  S   UNL A   1      41.538  20.233  26.693  1.00  0.00     0.127 S 
ATOM     89  O   UNL A   1      42.268  19.793  27.879  1.00  0.00    -0.237 OA
ATOM     90  O   UNL A   1      40.127  20.547  26.919  1.00  0.00    -0.237 OA
ATOM     91  O   UNL A   1      41.793  19.480  25.472  1.00  0.00    -0.744 OA
ENDBRANCH  85  88
ENDBRANCH  57  81
BRANCH  69  92
ATOM     92  C   UNL A   1      46.879  25.657  32.604  1.00  0.00     0.023 A 
ATOM     93  C   UNL A   1      46.728  24.823  33.729  1.00  0.00     0.012 A 
ATOM     94  C   UNL A   1      48.148  25.799  32.010  1.00  0.00     0.148 A 
ATOM     95  C   UNL A   1      47.830  24.166  34.275  1.00  0.00     0.002 A 
ATOM     96  C   UNL A   1      49.233  25.105  32.534  1.00  0.00     0.091 A 
ATOM     97  F   UNL A   1      48.278  26.615  30.955  1.00  0.00    -0.205 F 
ATOM     98  C   UNL A   1      49.078  24.298  33.672  1.00  0.00     0.022 A 
BRANCH  96  99
ATOM     99  S   UNL A   1      50.850  25.152  31.752  1.00  0.00     0.127 S 
ATOM    100  O   UNL A   1      51.423  23.875  32.170  1.00  0.00    -0.237 OA
ATOM    101  O   UNL A   1      50.514  25.234  30.330  1.00  0.00    -0.237 OA
ATOM    102  O   UNL A   1      51.503  26.343  32.280  1.00  0.00    -0.744 OA
ENDBRANCH  96  99
ENDBRANCH  69  92
ENDBRANCH  43  44
ENDBRANCH  35  38
ENDBRANCH  33  34
ENDBRANCH  32  33
ENDBRANCH  31  32
ENDBRANCH   1  31
TORSDOF 20
ENDMDL
MODEL 3
REMARK VINA RESULT:     -10.7      2.292      4.400
REMARK SMILES CCOC(=O)c1c(NC(=O)/C=C/C(=O)NCCCCNC(=O)c2ccc(-c3c4nc(c(-c5cccc(S(=O)(=O)[O-])c5F)c5ccc([nH]5)c(-c5cccc(S(=O)(=O)[O-])c5F)c5nc(c(-c6cccc(S(=O)(=O)[O-])c6F)c6ccc3[nH]6)C=C5)C=C4)cc2)sc(C)c1-c1ccc(C)c(C)c1
REMARK SMILES IDX 16 1 15 2 13 3 14 4 12 6 11 7 9 8 8 9 10 11 7 12 6 13 89 14
REMARK SMILES IDX 86 15 87 16 88 17 4 18 5 19 3 20 2 21 1 22 90 23 91 24 97 25
REMARK SMILES IDX 92 26 95 27 93 28 96 29 94 30 17 31 18 32 19 33 20 34 21 35
REMARK SMILES IDX 22 37 23 38 24 39 85 40 25 41 84 42 26 43 27 44 28 45 78 46
REMARK SMILES IDX 29 47 83 48 77 49 79 50 30 51 82 52 76 53 75 54 31 56 63 57
REMARK SMILES IDX 43 58 62 59 44 60 47 61 61 62 80 63 45 64 46 65 60 67 81 68
REMARK SMILES IDX 48 69 32 70 33 71 41 72 34 73 36 74 42 75 35 76 37 77 38 78
REMARK SMILES IDX 39 79 40 80 64 81 65 82 73 83 66 84 68 85 74 86 67 87 69 88
REMARK SMILES IDX 70 89 71 90 72 91 49 92 50 93 58 94 51 95 53 96 59 97 52 98
REMARK SMILES IDX 54 99 55 100 56 101 57 102
REMARK H PARENT 15 5 8 10 20 36 79 55 47 66
REMARK Flexibility Score: inf
ROOT
ATOM      1  C   UNL A   1      34.389  25.607  25.351  1.00  0.00     0.116 C 
ENDROOT
BRANCH   1   2
ATOM      2  N   UNL A   1      34.543  26.734  26.248  1.00  0.00    -0.353 N 
ATOM      3  C   UNL A   1      33.891  27.926  26.179  1.00  0.00     0.244 C 
ATOM      4  O   UNL A   1      34.309  28.916  26.768  1.00  0.00    -0.270 OA
ATOM      5  H   UNL A   1      35.187  26.626  26.985  1.00  0.00     0.163 HD
BRANCH   3   6
ATOM      6  C   UNL A   1      32.659  28.005  25.371  1.00  0.00     0.077 C 
ATOM      7  C   UNL A   1      32.767  27.766  24.056  1.00  0.00     0.077 C 
BRANCH   7   8
ATOM      8  C   UNL A   1      31.573  27.558  23.229  1.00  0.00     0.249 C 
ATOM      9  N   UNL A   1      30.886  26.379  23.264  1.00  0.00    -0.313 N 
ATOM     10  H   UNL A   1      30.120  26.344  22.646  1.00  0.00     0.171 HD
ATOM     11  O   UNL A   1      31.199  28.471  22.493  1.00  0.00    -0.270 OA
BRANCH   9  12
ATOM     12  C   UNL A   1      31.063  25.220  24.006  1.00  0.00     0.111 A 
ATOM     13  C   UNL A   1      31.800  24.108  23.628  1.00  0.00     0.102 A 
ATOM     14  C   UNL A   1      31.571  23.002  24.536  1.00  0.00     0.012 A 
ATOM     15  S   UNL A   1      30.432  25.027  25.563  1.00  0.00    -0.122 S 
ATOM     16  C   UNL A   1      30.736  23.355  25.584  1.00  0.00     0.012 A 
ATOM     17  C   UNL A   1      30.134  22.544  26.686  1.00  0.00     0.057 C 
BRANCH  13  18
ATOM     18  C   UNL A   1      32.625  24.110  22.430  1.00  0.00     0.341 C 
ATOM     19  O   UNL A   1      33.789  23.722  22.437  1.00  0.00    -0.246 OA
BRANCH  18  20
ATOM     20  O   UNL A   1      32.001  24.646  21.346  1.00  0.00    -0.462 OA
BRANCH  20  21
ATOM     21  C   UNL A   1      32.808  25.496  20.519  1.00  0.00     0.230 C 
ATOM     22  C   UNL A   1      32.364  25.479  19.065  1.00  0.00     0.049 C 
ENDBRANCH  20  21
ENDBRANCH  18  20
ENDBRANCH  13  18
BRANCH  14  23
ATOM     23  C   UNL A   1      32.162  21.677  24.458  1.00  0.00    -0.016 A 
ATOM     24  C   UNL A   1      32.924  21.209  25.529  1.00  0.00     0.009 A 
ATOM     25  C   UNL A   1      31.968  20.868  23.335  1.00  0.00     0.012 A 
ATOM     26  C   UNL A   1      33.487  19.938  25.474  1.00  0.00     0.004 A 
ATOM     27  C   UNL A   1      32.523  19.578  23.273  1.00  0.00    -0.048 A 
ATOM     28  C   UNL A   1      33.295  19.110  24.355  1.00  0.00    -0.048 A 
ATOM     29  C   UNL A   1      32.268  18.739  22.051  1.00  0.00     0.044 C 
ATOM     30  C   UNL A   1      33.952  17.758  24.375  1.00  0.00     0.044 C 
ENDBRANCH  14  23
ENDBRANCH   9  12
ENDBRANCH   7   8
ENDBRANCH   3   6
ENDBRANCH   1   2
BRANCH   1  31
ATOM     31  C   UNL A   1      34.549  24.293  26.114  1.00  0.00     0.023 C 
BRANCH  31  32
ATOM     32  C   UNL A   1      35.469  23.283  25.423  1.00  0.00     0.023 C 
BRANCH  32  33
ATOM     33  C   UNL A   1      36.919  23.733  25.283  1.00  0.00     0.116 C 
BRANCH  33  34
ATOM     34  N   UNL A   1      37.874  22.716  25.703  1.00  0.00    -0.352 N 
ATOM     35  C   UNL A   1      39.050  22.871  26.387  1.00  0.00     0.251 C 
ATOM     36  H   UNL A   1      37.640  21.791  25.462  1.00  0.00     0.163 HD
ATOM     37  O   UNL A   1      39.775  21.900  26.584  1.00  0.00    -0.269 OA
BRANCH  35  38
ATOM     38  C   UNL A   1      39.453  24.211  26.848  1.00  0.00     0.039 A 
ATOM     39  C   UNL A   1      39.203  24.559  28.176  1.00  0.00     0.014 A 
ATOM     40  C   UNL A   1      40.076  25.114  25.981  1.00  0.00     0.014 A 
ATOM     41  C   UNL A   1      39.610  25.806  28.647  1.00  0.00     0.010 A 
ATOM     42  C   UNL A   1      40.544  26.328  26.472  1.00  0.00     0.010 A 
ATOM     43  C   UNL A   1      40.296  26.693  27.803  1.00  0.00    -0.014 A 
BRANCH  43  44
ATOM     44  C   UNL A   1      40.728  28.020  28.296  1.00  0.00     0.031 A 
ATOM     45  C   UNL A   1      42.187  28.384  28.288  1.00  0.00     0.074 A 
ATOM     46  C   UNL A   1      39.814  28.873  28.795  1.00  0.00     0.049 A 
ATOM     47  N   UNL A   1      42.757  29.503  28.651  1.00  0.00    -0.248 NA
ATOM     48  C   UNL A   1      43.134  27.347  27.842  1.00  0.00     0.031 C 
ATOM     49  C   UNL A   1      38.384  28.590  28.943  1.00  0.00     0.029 A 
ATOM     50  N   UNL A   1      39.953  30.146  29.283  1.00  0.00    -0.354 N 
ATOM     51  C   UNL A   1      44.124  29.296  28.510  1.00  0.00     0.074 A 
ATOM     52  C   UNL A   1      44.302  27.930  28.068  1.00  0.00     0.031 C 
ATOM     53  C   UNL A   1      37.777  29.665  29.472  1.00  0.00     0.029 A 
ATOM     54  C   UNL A   1      38.771  30.708  29.704  1.00  0.00     0.049 A 
ATOM     55  H   UNL A   1      40.818  30.614  29.329  1.00  0.00     0.167 HD
ATOM     56  C   UNL A   1      45.138  30.174  28.689  1.00  0.00     0.034 A 
ATOM     57  C   UNL A   1      38.518  31.935  30.198  1.00  0.00     0.034 A 
ATOM     58  C   UNL A   1      44.946  31.547  29.069  1.00  0.00     0.049 A 
ATOM     59  C   UNL A   1      39.648  32.926  30.288  1.00  0.00     0.074 A 
ATOM     60  C   UNL A   1      45.895  32.544  29.205  1.00  0.00     0.029 A 
ATOM     61  N   UNL A   1      43.718  32.117  29.364  1.00  0.00    -0.354 N 
ATOM     62  N   UNL A   1      40.914  32.764  29.987  1.00  0.00    -0.248 NA
ATOM     63  C   UNL A   1      39.307  34.284  30.735  1.00  0.00     0.031 C 
ATOM     64  C   UNL A   1      45.236  33.722  29.579  1.00  0.00     0.029 A 
ATOM     65  C   UNL A   1      43.880  33.457  29.668  1.00  0.00     0.049 A 
ATOM     66  H   UNL A   1      42.857  31.639  29.357  1.00  0.00     0.167 HD
ATOM     67  C   UNL A   1      41.511  34.006  30.164  1.00  0.00     0.074 A 
ATOM     68  C   UNL A   1      40.463  34.915  30.580  1.00  0.00     0.031 C 
ATOM     69  C   UNL A   1      42.810  34.360  30.011  1.00  0.00     0.034 A 
BRANCH  56  70
ATOM     70  C   UNL A   1      46.534  29.691  28.400  1.00  0.00     0.023 A 
ATOM     71  C   UNL A   1      46.979  29.629  27.063  1.00  0.00     0.012 A 
ATOM     72  C   UNL A   1      47.417  29.336  29.438  1.00  0.00     0.148 A 
ATOM     73  C   UNL A   1      48.266  29.186  26.761  1.00  0.00     0.002 A 
ATOM     74  C   UNL A   1      48.713  28.935  29.131  1.00  0.00     0.091 A 
ATOM     75  F   UNL A   1      46.971  29.376  30.702  1.00  0.00    -0.205 F 
ATOM     76  C   UNL A   1      49.135  28.850  27.794  1.00  0.00     0.022 A 
BRANCH  74  77
ATOM     77  S   UNL A   1      49.930  28.551  30.396  1.00  0.00     0.127 S 
ATOM     78  O   UNL A   1      50.348  29.886  30.819  1.00  0.00    -0.237 OA
ATOM     79  O   UNL A   1      49.132  27.821  31.382  1.00  0.00    -0.237 OA
ATOM     80  O   UNL A   1      50.951  27.752  29.734  1.00  0.00    -0.744 OA
ENDBRANCH  74  77
ENDBRANCH  56  70
BRANCH  57  81
ATOM     81  C   UNL A   1      37.119  32.331  30.522  1.00  0.00     0.023 A 
ATOM     82  C   UNL A   1      36.641  32.149  31.835  1.00  0.00     0.012 A 
ATOM     83  C   UNL A   1      36.274  32.914  29.559  1.00  0.00     0.148 A 
ATOM     84  C   UNL A   1      35.338  32.512  32.176  1.00  0.00     0.002 A 
ATOM     85  C   UNL A   1      34.993  33.320  29.918  1.00  0.00     0.091 A 
ATOM     86  F   UNL A   1      36.742  33.070  28.313  1.00  0.00    -0.205 F 
ATOM     87  C   UNL A   1      34.517  33.105  31.222  1.00  0.00     0.022 A 
BRANCH  85  88
ATOM     88  S   UNL A   1      33.918  34.209  28.786  1.00  0.00     0.127 S 
ATOM     89  O   UNL A   1      33.466  33.139  27.900  1.00  0.00    -0.237 OA
ATOM     90  O   UNL A   1      32.892  34.737  29.686  1.00  0.00    -0.237 OA
ATOM     91  O   UNL A   1      34.757  35.230  28.175  1.00  0.00    -0.744 OA
ENDBRANCH  85  88
ENDBRANCH  57  81
BRANCH  69  92
ATOM     92  C   UNL A   1      43.172  35.801  30.253  1.00  0.00     0.023 A 
ATOM     93  C   UNL A   1      43.745  36.180  31.482  1.00  0.00     0.012 A 
ATOM     94  C   UNL A   1      43.011  36.762  29.236  1.00  0.00     0.148 A 
ATOM     95  C   UNL A   1      44.122  37.503  31.708  1.00  0.00     0.002 A 
ATOM     96  C   UNL A   1      43.430  38.070  29.454  1.00  0.00     0.091 A 
ATOM     97  F   UNL A   1      42.441  36.390  28.081  1.00  0.00    -0.205 F 
ATOM     98  C   UNL A   1      43.976  38.444  30.692  1.00  0.00     0.022 A 
BRANCH  96  99
ATOM     99  S   UNL A   1      43.359  39.312  28.159  1.00  0.00     0.127 S 
ATOM    100  O   UNL A   1      41.956  39.718  28.208  1.00  0.00    -0.237 OA
ATOM    101  O   UNL A   1      44.303  40.325  28.636  1.00  0.00    -0.237 OA
ATOM    102  O   UNL A   1      43.780  38.631  26.942  1.00  0.00    -0.744 OA
ENDBRANCH  96  99
ENDBRANCH  69  92
ENDBRANCH  43  44
ENDBRANCH  35  38
ENDBRANCH  33  34
ENDBRANCH  32  33
ENDBRANCH  31  32
ENDBRANCH   1  31
TORSDOF 20
ENDMDL
