MODEL 1
REMARK VINA RESULT:     -11.8      0.000      0.000
REMARK SMILES CC1=C(C(=O)NCCCCNC(=O)c2ccc(-c3c4nc(c(-c5cccc(S(=O)(=O)[O-])c5F)c5ccc([nH]5)c(-c5cccc(S(=O)(=O)[O-])c5F)c5nc(c(-c6cccc(S(=O)(=O)[O-])c6F)c6ccc3[nH]6)C=C5)C=C4)cc2)N2C(=O)[C@H](NC(=O)c3c(Cl)c(C(F)(F)F)nn3C)[C@@H]2SC1
REMARK SMILES IDX 8 1 7 2 6 3 4 4 5 5 3 7 1 8 2 9 97 10 77 11 96 12 78 13
REMARK SMILES IDX 95 14 79 15 80 16 81 17 82 18 83 20 84 21 85 22 93 23 86 24
REMARK SMILES IDX 87 25 92 26 94 27 88 28 89 29 90 30 91 31 9 32 10 33 11 34
REMARK SMILES IDX 12 35 13 37 14 38 15 39 76 40 16 41 75 42 17 43 18 44 19 45
REMARK SMILES IDX 69 46 20 47 74 48 68 49 70 50 21 51 73 52 67 53 66 54 22 56
REMARK SMILES IDX 54 57 34 58 53 59 35 60 38 61 52 62 71 63 36 64 37 65 51 67
REMARK SMILES IDX 72 68 39 69 23 70 24 71 32 72 25 73 27 74 33 75 26 76 28 77
REMARK SMILES IDX 29 78 30 79 31 80 55 81 56 82 64 83 57 84 59 85 65 86 58 87
REMARK SMILES IDX 60 88 61 89 62 90 63 91 40 92 41 93 49 94 42 95 44 96 50 97
REMARK SMILES IDX 43 98 45 99 46 100 47 101 48 102
REMARK H PARENT 6 6 81 19 11 36 70 55 38 66
REMARK Flexibility Score: inf
ROOT
ATOM      1  C   UNL A   1      38.447  21.693  25.701  1.00  0.00     0.023 C 
ENDROOT
BRANCH   1   2
ATOM      2  C   UNL A   1      36.992  22.017  25.371  1.00  0.00     0.116 C 
BRANCH   2   3
ATOM      3  N   UNL A   1      36.073  22.082  26.495  1.00  0.00    -0.351 N 
ATOM      4  C   UNL A   1      34.706  21.906  26.526  1.00  0.00     0.268 C 
ATOM      5  O   UNL A   1      34.155  21.733  27.608  1.00  0.00    -0.268 OA
ATOM      6  H   UNL A   1      36.489  22.281  27.364  1.00  0.00     0.163 HD
BRANCH   4   7
ATOM      7  C   UNL A   1      33.914  22.002  25.240  1.00  0.00     0.110 C 
ATOM      8  C   UNL A   1      32.899  19.703  25.541  1.00  0.00     0.043 C 
ATOM      9  C   UNL A   1      33.212  20.950  24.750  1.00  0.00    -0.034 C 
ATOM     10  C   UNL A   1      32.563  20.947  23.389  1.00  0.00     0.104 C 
ATOM     11  N   UNL A   1      33.820  23.228  24.632  1.00  0.00    -0.290 N 
ATOM     12  S   UNL A   1      31.810  22.531  22.980  1.00  0.00    -0.129 SA
ATOM     13  C   UNL A   1      33.815  24.518  25.040  1.00  0.00     0.253 C 
ATOM     14  C   UNL A   1      33.332  23.472  23.294  1.00  0.00     0.181 C 
ATOM     15  O   UNL A   1      34.087  25.092  26.074  1.00  0.00    -0.272 OA
ATOM     16  C   UNL A   1      33.128  24.968  23.709  1.00  0.00     0.206 C 
BRANCH  16  17
ATOM     17  N   UNL A   1      31.709  25.416  23.835  1.00  0.00    -0.336 N 
ATOM     18  C   UNL A   1      31.178  26.619  24.221  1.00  0.00     0.271 C 
ATOM     19  H   UNL A   1      31.042  24.730  23.602  1.00  0.00     0.164 HD
ATOM     20  O   UNL A   1      29.959  26.758  24.169  1.00  0.00    -0.267 OA
BRANCH  18  21
ATOM     21  C   UNL A   1      32.048  27.658  24.692  1.00  0.00     0.145 A 
ATOM     22  C   UNL A   1      32.244  28.066  25.999  1.00  0.00     0.104 A 
ATOM     23  N   UNL A   1      32.744  28.567  23.942  1.00  0.00    -0.261 N 
ATOM     24  Cl  UNL A   1      31.543  27.420  27.406  1.00  0.00    -0.079 Cl
ATOM     25  C   UNL A   1      33.164  29.140  25.949  1.00  0.00     0.185 A 
ATOM     26  N   UNL A   1      33.494  29.417  24.669  1.00  0.00    -0.166 NA
ATOM     27  C   UNL A   1      32.712  28.755  22.509  1.00  0.00     0.174 C 
BRANCH  25  28
ATOM     28  C   UNL A   1      33.700  29.906  27.123  1.00  0.00     0.436 C 
ATOM     29  F   UNL A   1      34.262  29.081  28.049  1.00  0.00    -0.164 F 
ATOM     30  F   UNL A   1      34.662  30.796  26.761  1.00  0.00    -0.164 F 
ATOM     31  F   UNL A   1      32.746  30.622  27.778  1.00  0.00    -0.164 F 
ENDBRANCH  25  28
ENDBRANCH  18  21
ENDBRANCH  16  17
ENDBRANCH   4   7
ENDBRANCH   2   3
ENDBRANCH   1   2
BRANCH   1  32
ATOM     32  C   UNL A   1      38.982  20.343  25.223  1.00  0.00     0.023 C 
BRANCH  32  33
ATOM     33  C   UNL A   1      39.623  19.437  26.272  1.00  0.00     0.116 C 
BRANCH  33  34
ATOM     34  N   UNL A   1      40.889  18.846  25.857  1.00  0.00    -0.352 N 
ATOM     35  C   UNL A   1      42.152  19.400  25.812  1.00  0.00     0.251 C 
ATOM     36  H   UNL A   1      40.835  17.908  25.564  1.00  0.00     0.163 HD
ATOM     37  O   UNL A   1      43.090  18.747  25.365  1.00  0.00    -0.269 OA
BRANCH  35  38
ATOM     38  C   UNL A   1      42.368  20.794  26.259  1.00  0.00     0.039 A 
ATOM     39  C   UNL A   1      42.561  21.049  27.621  1.00  0.00     0.014 A 
ATOM     40  C   UNL A   1      42.424  21.840  25.337  1.00  0.00     0.014 A 
ATOM     41  C   UNL A   1      42.929  22.331  28.043  1.00  0.00     0.010 A 
ATOM     42  C   UNL A   1      42.869  23.093  25.748  1.00  0.00     0.010 A 
ATOM     43  C   UNL A   1      43.145  23.349  27.102  1.00  0.00    -0.014 A 
BRANCH  43  44
ATOM     44  C   UNL A   1      43.688  24.684  27.476  1.00  0.00     0.031 A 
ATOM     45  C   UNL A   1      42.756  25.756  27.969  1.00  0.00     0.074 A 
ATOM     46  C   UNL A   1      44.980  24.977  27.225  1.00  0.00     0.049 A 
ATOM     47  N   UNL A   1      42.980  27.033  28.136  1.00  0.00    -0.248 NA
ATOM     48  C   UNL A   1      41.377  25.342  28.279  1.00  0.00     0.031 C 
ATOM     49  C   UNL A   1      45.976  24.046  26.688  1.00  0.00     0.029 A 
ATOM     50  N   UNL A   1      45.670  26.162  27.343  1.00  0.00    -0.354 N 
ATOM     51  C   UNL A   1      41.760  27.586  28.508  1.00  0.00     0.074 A 
ATOM     52  C   UNL A   1      40.795  26.507  28.527  1.00  0.00     0.031 C 
ATOM     53  C   UNL A   1      47.138  24.694  26.512  1.00  0.00     0.029 A 
ATOM     54  C   UNL A   1      46.965  26.096  26.881  1.00  0.00     0.049 A 
ATOM     55  H   UNL A   1      45.274  26.980  27.722  1.00  0.00     0.167 HD
ATOM     56  C   UNL A   1      41.471  28.869  28.825  1.00  0.00     0.034 A 
ATOM     57  C   UNL A   1      47.901  27.057  26.748  1.00  0.00     0.034 A 
ATOM     58  C   UNL A   1      42.446  29.924  28.873  1.00  0.00     0.049 A 
ATOM     59  C   UNL A   1      47.570  28.466  27.164  1.00  0.00     0.074 A 
ATOM     60  C   UNL A   1      42.271  31.238  29.270  1.00  0.00     0.029 A 
ATOM     61  N   UNL A   1      43.778  29.786  28.521  1.00  0.00    -0.354 N 
ATOM     62  N   UNL A   1      46.445  28.941  27.639  1.00  0.00    -0.248 NA
ATOM     63  C   UNL A   1      48.643  29.466  27.054  1.00  0.00     0.031 C 
ATOM     64  C   UNL A   1      43.500  31.896  29.152  1.00  0.00     0.029 A 
ATOM     65  C   UNL A   1      44.440  30.988  28.696  1.00  0.00     0.049 A 
ATOM     66  H   UNL A   1      44.193  28.955  28.193  1.00  0.00     0.167 HD
ATOM     67  C   UNL A   1      46.687  30.279  27.929  1.00  0.00     0.074 A 
ATOM     68  C   UNL A   1      48.069  30.540  27.581  1.00  0.00     0.031 C 
ATOM     69  C   UNL A   1      45.837  31.210  28.426  1.00  0.00     0.034 A 
BRANCH  56  70
ATOM     70  C   UNL A   1      40.052  29.196  29.207  1.00  0.00     0.023 A 
ATOM     71  C   UNL A   1      39.112  29.482  28.197  1.00  0.00     0.012 A 
ATOM     72  C   UNL A   1      39.633  29.162  30.552  1.00  0.00     0.148 A 
ATOM     73  C   UNL A   1      37.786  29.766  28.519  1.00  0.00     0.002 A 
ATOM     74  C   UNL A   1      38.300  29.403  30.862  1.00  0.00     0.091 A 
ATOM     75  F   UNL A   1      40.545  28.909  31.501  1.00  0.00    -0.205 F 
ATOM     76  C   UNL A   1      37.378  29.716  29.850  1.00  0.00     0.022 A 
BRANCH  74  77
ATOM     77  S   UNL A   1      37.662  29.283  32.537  1.00  0.00     0.127 S 
ATOM     78  O   UNL A   1      36.281  29.728  32.359  1.00  0.00    -0.237 OA
ATOM     79  O   UNL A   1      37.809  27.856  32.824  1.00  0.00    -0.237 OA
ATOM     80  O   UNL A   1      38.504  30.152  33.347  1.00  0.00    -0.744 OA
ENDBRANCH  74  77
ENDBRANCH  56  70
BRANCH  57  81
ATOM     81  C   UNL A   1      49.266  26.706  26.259  1.00  0.00     0.023 A 
ATOM     82  C   UNL A   1      50.092  25.893  27.060  1.00  0.00     0.012 A 
ATOM     83  C   UNL A   1      49.740  27.140  25.006  1.00  0.00     0.148 A 
ATOM     84  C   UNL A   1      51.374  25.542  26.637  1.00  0.00     0.002 A 
ATOM     85  C   UNL A   1      50.999  26.742  24.566  1.00  0.00     0.091 A 
ATOM     86  F   UNL A   1      48.947  27.924  24.263  1.00  0.00    -0.205 F 
ATOM     87  C   UNL A   1      51.823  25.957  25.387  1.00  0.00     0.022 A 
BRANCH  85  88
ATOM     88  S   UNL A   1      51.605  27.118  22.917  1.00  0.00     0.127 S 
ATOM     89  O   UNL A   1      52.764  26.237  22.815  1.00  0.00    -0.237 OA
ATOM     90  O   UNL A   1      50.466  26.738  22.080  1.00  0.00    -0.237 OA
ATOM     91  O   UNL A   1      51.889  28.548  22.923  1.00  0.00    -0.744 OA
ENDBRANCH  85  88
ENDBRANCH  57  81
BRANCH  69  92
ATOM     92  C   UNL A   1      46.373  32.591  28.692  1.00  0.00     0.023 A 
ATOM     93  C   UNL A   1      46.878  32.914  29.964  1.00  0.00     0.012 A 
ATOM     94  C   UNL A   1      46.488  33.522  27.640  1.00  0.00     0.148 A 
ATOM     95  C   UNL A   1      47.481  34.151  30.191  1.00  0.00     0.002 A 
ATOM     96  C   UNL A   1      47.128  34.735  27.862  1.00  0.00     0.091 A 
ATOM     97  F   UNL A   1      45.983  33.197  26.441  1.00  0.00    -0.205 F 
ATOM     98  C   UNL A   1      47.618  35.054  29.139  1.00  0.00     0.022 A 
BRANCH  96  99
ATOM     99  S   UNL A   1      47.439  35.916  26.544  1.00  0.00     0.127 S 
ATOM    100  O   UNL A   1      48.001  35.058  25.502  1.00  0.00    -0.237 OA
ATOM    101  O   UNL A   1      46.096  36.423  26.259  1.00  0.00    -0.237 OA
ATOM    102  O   UNL A   1      48.354  36.906  27.097  1.00  0.00    -0.744 OA
ENDBRANCH  96  99
ENDBRANCH  69  92
ENDBRANCH  43  44
ENDBRANCH  35  38
ENDBRANCH  33  34
ENDBRANCH  32  33
ENDBRANCH   1  32
TORSDOF 17
ENDMDL
MODEL 2
REMARK VINA RESULT:     -11.6      3.339      8.033
REMARK SMILES CC1=C(C(=O)NCCCCNC(=O)c2ccc(-c3c4nc(c(-c5cccc(S(=O)(=O)[O-])c5F)c5ccc([nH]5)c(-c5cccc(S(=O)(=O)[O-])c5F)c5nc(c(-c6cccc(S(=O)(=O)[O-])c6F)c6ccc3[nH]6)C=C5)C=C4)cc2)N2C(=O)[C@H](NC(=O)c3c(Cl)c(C(F)(F)F)nn3C)[C@@H]2SC1
REMARK SMILES IDX 8 1 7 2 6 3 4 4 5 5 3 7 1 8 2 9 97 10 77 11 96 12 78 13
REMARK SMILES IDX 95 14 79 15 80 16 81 17 82 18 83 20 84 21 85 22 93 23 86 24
REMARK SMILES IDX 87 25 92 26 94 27 88 28 89 29 90 30 91 31 9 32 10 33 11 34
REMARK SMILES IDX 12 35 13 37 14 38 15 39 76 40 16 41 75 42 17 43 18 44 19 45
REMARK SMILES IDX 69 46 20 47 74 48 68 49 70 50 21 51 73 52 67 53 66 54 22 56
REMARK SMILES IDX 54 57 34 58 53 59 35 60 38 61 52 62 71 63 36 64 37 65 51 67
REMARK SMILES IDX 72 68 39 69 23 70 24 71 32 72 25 73 27 74 33 75 26 76 28 77
REMARK SMILES IDX 29 78 30 79 31 80 55 81 56 82 64 83 57 84 59 85 65 86 58 87
REMARK SMILES IDX 60 88 61 89 62 90 63 91 40 92 41 93 49 94 42 95 44 96 50 97
REMARK SMILES IDX 43 98 45 99 46 100 47 101 48 102
REMARK H PARENT 6 6 81 19 11 36 70 55 38 66
REMARK Flexibility Score: inf
ROOT
ATOM      1  C   UNL A   1      37.025  21.550  24.229  1.00  0.00     0.023 C 
ENDROOT
BRANCH   1   2
ATOM      2  C   UNL A   1      36.350  20.526  25.137  1.00  0.00     0.116 C 
BRANCH   2   3
ATOM      3  N   UNL A   1      35.598  21.055  26.262  1.00  0.00    -0.351 N 
ATOM      4  C   UNL A   1      34.299  21.515  26.317  1.00  0.00     0.268 C 
ATOM      5  O   UNL A   1      33.768  21.664  27.411  1.00  0.00    -0.268 OA
ATOM      6  H   UNL A   1      36.089  21.090  27.114  1.00  0.00     0.163 HD
BRANCH   4   7
ATOM      7  C   UNL A   1      33.590  21.891  25.034  1.00  0.00     0.110 C 
ATOM      8  C   UNL A   1      32.269  19.733  24.979  1.00  0.00     0.043 C 
ATOM      9  C   UNL A   1      32.781  21.021  24.381  1.00  0.00    -0.034 C 
ATOM     10  C   UNL A   1      32.203  21.291  23.014  1.00  0.00     0.104 C 
ATOM     11  N   UNL A   1      33.687  23.189  24.601  1.00  0.00    -0.290 N 
ATOM     12  S   UNL A   1      31.686  23.003  22.809  1.00  0.00    -0.129 SA
ATOM     13  C   UNL A   1      33.831  24.400  25.186  1.00  0.00     0.253 C 
ATOM     14  C   UNL A   1      33.301  23.676  23.297  1.00  0.00     0.181 C 
ATOM     15  O   UNL A   1      34.127  24.787  26.298  1.00  0.00    -0.272 OA
ATOM     16  C   UNL A   1      33.274  25.116  23.911  1.00  0.00     0.206 C 
BRANCH  16  17
ATOM     17  N   UNL A   1      31.923  25.732  24.057  1.00  0.00    -0.336 N 
ATOM     18  C   UNL A   1      31.545  26.979  24.484  1.00  0.00     0.271 C 
ATOM     19  H   UNL A   1      31.176  25.143  23.804  1.00  0.00     0.164 HD
ATOM     20  O   UNL A   1      30.352  27.270  24.441  1.00  0.00    -0.267 OA
BRANCH  18  21
ATOM     21  C   UNL A   1      32.537  27.885  24.987  1.00  0.00     0.145 A 
ATOM     22  C   UNL A   1      32.682  28.343  26.284  1.00  0.00     0.104 A 
ATOM     23  N   UNL A   1      33.446  28.610  24.264  1.00  0.00    -0.261 N 
ATOM     24  Cl  UNL A   1      31.754  27.923  27.644  1.00  0.00    -0.079 Cl
ATOM     25  C   UNL A   1      33.776  29.240  26.271  1.00  0.00     0.185 A 
ATOM     26  N   UNL A   1      34.264  29.369  25.019  1.00  0.00    -0.166 NA
ATOM     27  C   UNL A   1      33.577  28.701  22.828  1.00  0.00     0.174 C 
BRANCH  25  28
ATOM     28  C   UNL A   1      34.329  29.983  27.451  1.00  0.00     0.436 C 
ATOM     29  F   UNL A   1      33.378  30.746  28.058  1.00  0.00    -0.164 F 
ATOM     30  F   UNL A   1      34.819  29.146  28.404  1.00  0.00    -0.164 F 
ATOM     31  F   UNL A   1      35.346  30.828  27.126  1.00  0.00    -0.164 F 
ENDBRANCH  25  28
ENDBRANCH  18  21
ENDBRANCH  16  17
ENDBRANCH   4   7
ENDBRANCH   2   3
ENDBRANCH   1   2
BRANCH   1  32
ATOM     32  C   UNL A   1      37.783  22.689  24.912  1.00  0.00     0.023 C 
BRANCH  32  33
ATOM     33  C   UNL A   1      38.541  22.350  26.194  1.00  0.00     0.116 C 
BRANCH  33  34
ATOM     34  N   UNL A   1      39.929  21.955  25.981  1.00  0.00    -0.352 N 
ATOM     35  C   UNL A   1      41.090  22.679  26.151  1.00  0.00     0.251 C 
ATOM     36  H   UNL A   1      40.056  21.031  25.666  1.00  0.00     0.163 HD
ATOM     37  O   UNL A   1      42.171  22.180  25.851  1.00  0.00    -0.269 OA
BRANCH  35  38
ATOM     38  C   UNL A   1      41.032  24.070  26.652  1.00  0.00     0.039 A 
ATOM     39  C   UNL A   1      41.214  24.310  28.018  1.00  0.00     0.014 A 
ATOM     40  C   UNL A   1      40.844  25.139  25.774  1.00  0.00     0.014 A 
ATOM     41  C   UNL A   1      41.326  25.624  28.485  1.00  0.00     0.010 A 
ATOM     42  C   UNL A   1      41.038  26.441  26.226  1.00  0.00     0.010 A 
ATOM     43  C   UNL A   1      41.300  26.698  27.583  1.00  0.00    -0.014 A 
BRANCH  43  44
ATOM     44  C   UNL A   1      41.571  28.101  28.000  1.00  0.00     0.031 A 
ATOM     45  C   UNL A   1      42.992  28.578  28.132  1.00  0.00     0.074 A 
ATOM     46  C   UNL A   1      40.556  28.889  28.407  1.00  0.00     0.049 A 
ATOM     47  N   UNL A   1      43.449  29.671  28.683  1.00  0.00    -0.248 NA
ATOM     48  C   UNL A   1      44.039  27.685  27.608  1.00  0.00     0.031 C 
ATOM     49  C   UNL A   1      39.137  28.526  28.390  1.00  0.00     0.029 A 
ATOM     50  N   UNL A   1      40.565  30.148  28.963  1.00  0.00    -0.354 N 
ATOM     51  C   UNL A   1      44.835  29.571  28.630  1.00  0.00     0.074 A 
ATOM     52  C   UNL A   1      45.143  28.302  28.007  1.00  0.00     0.031 C 
ATOM     53  C   UNL A   1      38.417  29.528  28.920  1.00  0.00     0.029 A 
ATOM     54  C   UNL A   1      39.320  30.587  29.356  1.00  0.00     0.049 A 
ATOM     55  H   UNL A   1      41.384  30.682  29.071  1.00  0.00     0.167 HD
ATOM     56  C   UNL A   1      45.766  30.462  29.043  1.00  0.00     0.034 A 
ATOM     57  C   UNL A   1      38.950  31.705  30.011  1.00  0.00     0.034 A 
ATOM     58  C   UNL A   1      45.455  31.751  29.597  1.00  0.00     0.049 A 
ATOM     59  C   UNL A   1      40.002  32.707  30.406  1.00  0.00     0.074 A 
ATOM     60  C   UNL A   1      46.327  32.762  29.962  1.00  0.00     0.029 A 
ATOM     61  N   UNL A   1      44.175  32.211  29.859  1.00  0.00    -0.354 N 
ATOM     62  N   UNL A   1      41.299  32.652  30.227  1.00  0.00    -0.248 NA
ATOM     63  C   UNL A   1      39.541  33.938  31.068  1.00  0.00     0.031 C 
ATOM     64  C   UNL A   1      45.572  33.833  30.451  1.00  0.00     0.029 A 
ATOM     65  C   UNL A   1      44.231  33.493  30.376  1.00  0.00     0.049 A 
ATOM     66  H   UNL A   1      43.348  31.701  29.702  1.00  0.00     0.167 HD
ATOM     67  C   UNL A   1      41.803  33.855  30.709  1.00  0.00     0.074 A 
ATOM     68  C   UNL A   1      40.671  34.624  31.182  1.00  0.00     0.031 C 
ATOM     69  C   UNL A   1      43.089  34.279  30.764  1.00  0.00     0.034 A 
BRANCH  56  70
ATOM     70  C   UNL A   1      47.215  30.100  28.854  1.00  0.00     0.023 A 
ATOM     71  C   UNL A   1      47.881  30.498  27.678  1.00  0.00     0.012 A 
ATOM     72  C   UNL A   1      47.933  29.422  29.859  1.00  0.00     0.148 A 
ATOM     73  C   UNL A   1      49.228  30.197  27.486  1.00  0.00     0.002 A 
ATOM     74  C   UNL A   1      49.286  29.163  29.680  1.00  0.00     0.091 A 
ATOM     75  F   UNL A   1      47.278  29.032  30.962  1.00  0.00    -0.205 F 
ATOM     76  C   UNL A   1      49.932  29.539  28.491  1.00  0.00     0.022 A 
BRANCH  74  77
ATOM     77  S   UNL A   1      50.298  28.392  30.950  1.00  0.00     0.127 S 
ATOM     78  O   UNL A   1      51.640  28.546  30.391  1.00  0.00    -0.237 OA
ATOM     79  O   UNL A   1      50.025  29.232  32.116  1.00  0.00    -0.237 OA
ATOM     80  O   UNL A   1      49.818  27.023  31.065  1.00  0.00    -0.744 OA
ENDBRANCH  74  77
ENDBRANCH  56  70
BRANCH  57  81
ATOM     81  C   UNL A   1      37.506  31.971  30.275  1.00  0.00     0.023 A 
ATOM     82  C   UNL A   1      36.903  31.409  31.418  1.00  0.00     0.012 A 
ATOM     83  C   UNL A   1      36.736  32.794  29.429  1.00  0.00     0.148 A 
ATOM     84  C   UNL A   1      35.557  31.636  31.699  1.00  0.00     0.002 A 
ATOM     85  C   UNL A   1      35.407  33.061  29.745  1.00  0.00     0.091 A 
ATOM     86  F   UNL A   1      37.320  33.310  28.339  1.00  0.00    -0.205 F 
ATOM     87  C   UNL A   1      34.812  32.470  30.870  1.00  0.00     0.022 A 
BRANCH  85  88
ATOM     88  S   UNL A   1      34.412  34.228  28.809  1.00  0.00     0.127 S 
ATOM     89  O   UNL A   1      34.243  33.527  27.539  1.00  0.00    -0.237 OA
ATOM     90  O   UNL A   1      33.202  34.322  29.628  1.00  0.00    -0.237 OA
ATOM     91  O   UNL A   1      35.195  35.456  28.760  1.00  0.00    -0.744 OA
ENDBRANCH  85  88
ENDBRANCH  57  81
BRANCH  69  92
ATOM     92  C   UNL A   1      43.359  35.660  31.297  1.00  0.00     0.023 A 
ATOM     93  C   UNL A   1      43.609  35.846  32.669  1.00  0.00     0.012 A 
ATOM     94  C   UNL A   1      43.489  36.750  30.412  1.00  0.00     0.148 A 
ATOM     95  C   UNL A   1      43.974  37.101  33.156  1.00  0.00     0.002 A 
ATOM     96  C   UNL A   1      43.893  37.986  30.898  1.00  0.00     0.091 A 
ATOM     97  F   UNL A   1      43.228  36.551  29.111  1.00  0.00    -0.205 F 
ATOM     98  C   UNL A   1      44.129  38.165  32.271  1.00  0.00     0.022 A 
BRANCH  96  99
ATOM     99  S   UNL A   1      44.216  39.387  29.820  1.00  0.00     0.127 S 
ATOM    100  O   UNL A   1      44.414  40.466  30.788  1.00  0.00    -0.237 OA
ATOM    101  O   UNL A   1      45.429  38.966  29.119  1.00  0.00    -0.237 OA
ATOM    102  O   UNL A   1      43.041  39.522  28.970  1.00  0.00    -0.744 OA
ENDBRANCH  96  99
ENDBRANCH  69  92
ENDBRANCH  43  44
ENDBRANCH  35  38
ENDBRANCH  33  34
ENDBRANCH  32  33
ENDBRANCH   1  32
TORSDOF 17
ENDMDL
MODEL 3
REMARK VINA RESULT:     -11.5      5.414      8.793
REMARK SMILES CC1=C(C(=O)NCCCCNC(=O)c2ccc(-c3c4nc(c(-c5cccc(S(=O)(=O)[O-])c5F)c5ccc([nH]5)c(-c5cccc(S(=O)(=O)[O-])c5F)c5nc(c(-c6cccc(S(=O)(=O)[O-])c6F)c6ccc3[nH]6)C=C5)C=C4)cc2)N2C(=O)[C@H](NC(=O)c3c(Cl)c(C(F)(F)F)nn3C)[C@@H]2SC1
REMARK SMILES IDX 8 1 7 2 6 3 4 4 5 5 3 7 1 8 2 9 97 10 77 11 96 12 78 13
REMARK SMILES IDX 95 14 79 15 80 16 81 17 82 18 83 20 84 21 85 22 93 23 86 24
REMARK SMILES IDX 87 25 92 26 94 27 88 28 89 29 90 30 91 31 9 32 10 33 11 34
REMARK SMILES IDX 12 35 13 37 14 38 15 39 76 40 16 41 75 42 17 43 18 44 19 45
REMARK SMILES IDX 69 46 20 47 74 48 68 49 70 50 21 51 73 52 67 53 66 54 22 56
REMARK SMILES IDX 54 57 34 58 53 59 35 60 38 61 52 62 71 63 36 64 37 65 51 67
REMARK SMILES IDX 72 68 39 69 23 70 24 71 32 72 25 73 27 74 33 75 26 76 28 77
REMARK SMILES IDX 29 78 30 79 31 80 55 81 56 82 64 83 57 84 59 85 65 86 58 87
REMARK SMILES IDX 60 88 61 89 62 90 63 91 40 92 41 93 49 94 42 95 44 96 50 97
REMARK SMILES IDX 43 98 45 99 46 100 47 101 48 102
REMARK H PARENT 6 6 81 19 11 36 70 55 38 66
REMARK Flexibility Score: inf
ROOT
ATOM      1  C   UNL A   1      32.911  29.172  26.977  1.00  0.00     0.023 C 
ENDROOT
BRANCH   1   2
ATOM      2  C   UNL A   1      32.507  29.992  25.755  1.00  0.00     0.116 C 
BRANCH   2   3
ATOM      3  N   UNL A   1      33.195  29.682  24.512  1.00  0.00    -0.351 N 
ATOM      4  C   UNL A   1      32.794  28.889  23.457  1.00  0.00     0.268 C 
ATOM      5  O   UNL A   1      33.394  28.974  22.391  1.00  0.00    -0.268 OA
ATOM      6  H   UNL A   1      34.079  30.101  24.407  1.00  0.00     0.163 HD
BRANCH   4   7
ATOM      7  C   UNL A   1      31.677  27.889  23.661  1.00  0.00     0.110 C 
ATOM      8  C   UNL A   1      30.006  29.298  22.385  1.00  0.00     0.043 C 
ATOM      9  C   UNL A   1      30.401  28.153  23.286  1.00  0.00    -0.034 C 
ATOM     10  C   UNL A   1      29.233  27.264  23.633  1.00  0.00     0.104 C 
ATOM     11  N   UNL A   1      32.006  26.643  24.131  1.00  0.00    -0.290 N 
ATOM     12  S   UNL A   1      29.639  25.514  23.519  1.00  0.00    -0.129 SA
ATOM     13  C   UNL A   1      33.080  25.824  24.044  1.00  0.00     0.253 C 
ATOM     14  C   UNL A   1      31.077  25.652  24.621  1.00  0.00     0.181 C 
ATOM     15  O   UNL A   1      34.232  25.954  23.686  1.00  0.00    -0.272 OA
ATOM     16  C   UNL A   1      32.199  24.582  24.405  1.00  0.00     0.206 C 
BRANCH  16  17
ATOM     17  N   UNL A   1      31.964  23.615  23.292  1.00  0.00    -0.336 N 
ATOM     18  C   UNL A   1      32.508  22.380  23.045  1.00  0.00     0.271 C 
ATOM     19  H   UNL A   1      31.307  23.913  22.623  1.00  0.00     0.164 HD
ATOM     20  O   UNL A   1      32.085  21.742  22.084  1.00  0.00    -0.267 OA
BRANCH  18  21
ATOM     21  C   UNL A   1      33.558  21.888  23.889  1.00  0.00     0.145 A 
ATOM     22  C   UNL A   1      34.901  22.214  23.841  1.00  0.00     0.104 A 
ATOM     23  N   UNL A   1      33.484  20.878  24.810  1.00  0.00    -0.261 N 
ATOM     24  Cl  UNL A   1      35.666  23.319  22.800  1.00  0.00    -0.079 Cl
ATOM     25  C   UNL A   1      35.535  21.447  24.847  1.00  0.00     0.185 A 
ATOM     26  N   UNL A   1      34.638  20.649  25.465  1.00  0.00    -0.166 NA
ATOM     27  C   UNL A   1      32.362  20.014  25.100  1.00  0.00     0.174 C 
BRANCH  25  28
ATOM     28  C   UNL A   1      36.995  21.467  25.192  1.00  0.00     0.436 C 
ATOM     29  F   UNL A   1      37.245  22.243  26.282  1.00  0.00    -0.164 F 
ATOM     30  F   UNL A   1      37.473  20.227  25.480  1.00  0.00    -0.164 F 
ATOM     31  F   UNL A   1      37.777  21.953  24.189  1.00  0.00    -0.164 F 
ENDBRANCH  25  28
ENDBRANCH  18  21
ENDBRANCH  16  17
ENDBRANCH   4   7
ENDBRANCH   2   3
ENDBRANCH   1   2
BRANCH   1  32
ATOM     32  C   UNL A   1      34.254  29.511  27.626  1.00  0.00     0.023 C 
BRANCH  32  33
ATOM     33  C   UNL A   1      34.681  30.977  27.618  1.00  0.00     0.116 C 
BRANCH  33  34
ATOM     34  N   UNL A   1      34.515  31.653  28.899  1.00  0.00    -0.352 N 
ATOM     35  C   UNL A   1      35.317  31.633  30.021  1.00  0.00     0.251 C 
ATOM     36  H   UNL A   1      33.706  32.210  28.975  1.00  0.00     0.163 HD
ATOM     37  O   UNL A   1      34.965  32.227  31.035  1.00  0.00    -0.269 OA
BRANCH  35  38
ATOM     38  C   UNL A   1      36.578  30.859  30.018  1.00  0.00     0.039 A 
ATOM     39  C   UNL A   1      37.712  31.409  29.411  1.00  0.00     0.014 A 
ATOM     40  C   UNL A   1      36.657  29.616  30.649  1.00  0.00     0.014 A 
ATOM     41  C   UNL A   1      38.950  30.769  29.540  1.00  0.00     0.010 A 
ATOM     42  C   UNL A   1      37.901  29.024  30.847  1.00  0.00     0.010 A 
ATOM     43  C   UNL A   1      39.064  29.603  30.312  1.00  0.00    -0.014 A 
BRANCH  43  44
ATOM     44  C   UNL A   1      40.376  28.968  30.615  1.00  0.00     0.031 A 
ATOM     45  C   UNL A   1      41.259  29.554  31.683  1.00  0.00     0.074 A 
ATOM     46  C   UNL A   1      40.838  27.972  29.832  1.00  0.00     0.049 A 
ATOM     47  N   UNL A   1      42.511  29.299  31.952  1.00  0.00    -0.248 NA
ATOM     48  C   UNL A   1      40.660  30.595  32.536  1.00  0.00     0.031 C 
ATOM     49  C   UNL A   1      40.108  27.354  28.722  1.00  0.00     0.029 A 
ATOM     50  N   UNL A   1      42.056  27.333  29.819  1.00  0.00    -0.354 N 
ATOM     51  C   UNL A   1      42.871  30.187  32.959  1.00  0.00     0.074 A 
ATOM     52  C   UNL A   1      41.707  30.999  33.242  1.00  0.00     0.031 C 
ATOM     53  C   UNL A   1      40.893  26.440  28.131  1.00  0.00     0.029 A 
ATOM     54  C   UNL A   1      42.196  26.432  28.787  1.00  0.00     0.049 A 
ATOM     55  H   UNL A   1      42.761  27.505  30.483  1.00  0.00     0.167 HD
ATOM     56  C   UNL A   1      44.054  30.304  33.605  1.00  0.00     0.034 A 
ATOM     57  C   UNL A   1      43.259  25.700  28.398  1.00  0.00     0.034 A 
ATOM     58  C   UNL A   1      45.186  29.449  33.370  1.00  0.00     0.049 A 
ATOM     59  C   UNL A   1      44.546  25.806  29.172  1.00  0.00     0.074 A 
ATOM     60  C   UNL A   1      46.399  29.428  34.035  1.00  0.00     0.029 A 
ATOM     61  N   UNL A   1      45.242  28.461  32.401  1.00  0.00    -0.354 N 
ATOM     62  N   UNL A   1      44.824  26.559  30.208  1.00  0.00    -0.248 NA
ATOM     63  C   UNL A   1      45.659  24.943  28.745  1.00  0.00     0.031 C 
ATOM     64  C   UNL A   1      47.192  28.428  33.464  1.00  0.00     0.029 A 
ATOM     65  C   UNL A   1      46.467  27.818  32.453  1.00  0.00     0.049 A 
ATOM     66  H   UNL A   1      44.519  28.247  31.769  1.00  0.00     0.167 HD
ATOM     67  C   UNL A   1      46.121  26.229  30.585  1.00  0.00     0.074 A 
ATOM     68  C   UNL A   1      46.574  25.202  29.670  1.00  0.00     0.031 C 
ATOM     69  C   UNL A   1      46.872  26.739  31.590  1.00  0.00     0.034 A 
BRANCH  56  70
ATOM     70  C   UNL A   1      44.169  31.356  34.675  1.00  0.00     0.023 A 
ATOM     71  C   UNL A   1      44.554  32.665  34.320  1.00  0.00     0.012 A 
ATOM     72  C   UNL A   1      43.842  31.071  36.015  1.00  0.00     0.148 A 
ATOM     73  C   UNL A   1      44.647  33.666  35.286  1.00  0.00     0.002 A 
ATOM     74  C   UNL A   1      43.895  32.084  36.965  1.00  0.00     0.091 A 
ATOM     75  F   UNL A   1      43.499  29.816  36.338  1.00  0.00    -0.205 F 
ATOM     76  C   UNL A   1      44.308  33.378  36.606  1.00  0.00     0.022 A 
BRANCH  74  77
ATOM     77  S   UNL A   1      43.401  31.832  38.674  1.00  0.00     0.127 S 
ATOM     78  O   UNL A   1      43.756  33.116  39.277  1.00  0.00    -0.237 OA
ATOM     79  O   UNL A   1      41.962  31.596  38.549  1.00  0.00    -0.237 OA
ATOM     80  O   UNL A   1      44.163  30.684  39.144  1.00  0.00    -0.744 OA
ENDBRANCH  74  77
ENDBRANCH  56  70
BRANCH  57  81
ATOM     81  C   UNL A   1      43.130  24.746  27.259  1.00  0.00     0.023 A 
ATOM     82  C   UNL A   1      43.685  25.092  26.010  1.00  0.00     0.012 A 
ATOM     83  C   UNL A   1      42.497  23.496  27.404  1.00  0.00     0.148 A 
ATOM     84  C   UNL A   1      43.588  24.226  24.921  1.00  0.00     0.002 A 
ATOM     85  C   UNL A   1      42.450  22.614  26.328  1.00  0.00     0.091 A 
ATOM     86  F   UNL A   1      41.962  23.188  28.594  1.00  0.00    -0.205 F 
ATOM     87  C   UNL A   1      42.981  22.984  25.083  1.00  0.00     0.022 A 
BRANCH  85  88
ATOM     88  S   UNL A   1      41.807  20.943  26.482  1.00  0.00     0.127 S 
ATOM     89  O   UNL A   1      42.473  20.263  25.376  1.00  0.00    -0.237 OA
ATOM     90  O   UNL A   1      42.275  20.558  27.815  1.00  0.00    -0.237 OA
ATOM     91  O   UNL A   1      40.360  21.072  26.373  1.00  0.00    -0.744 OA
ENDBRANCH  85  88
ENDBRANCH  57  81
BRANCH  69  92
ATOM     92  C   UNL A   1      48.245  26.165  31.813  1.00  0.00     0.023 A 
ATOM     93  C   UNL A   1      49.348  26.697  31.120  1.00  0.00     0.012 A 
ATOM     94  C   UNL A   1      48.452  25.184  32.804  1.00  0.00     0.148 A 
ATOM     95  C   UNL A   1      50.639  26.252  31.402  1.00  0.00     0.002 A 
ATOM     96  C   UNL A   1      49.744  24.777  33.109  1.00  0.00     0.091 A 
ATOM     97  F   UNL A   1      47.383  24.681  33.437  1.00  0.00    -0.205 F 
ATOM     98  C   UNL A   1      50.839  25.305  32.404  1.00  0.00     0.022 A 
BRANCH  96  99
ATOM     99  S   UNL A   1      50.105  23.637  34.450  1.00  0.00     0.127 S 
ATOM    100  O   UNL A   1      51.567  23.598  34.421  1.00  0.00    -0.237 OA
ATOM    101  O   UNL A   1      49.536  24.329  35.607  1.00  0.00    -0.237 OA
ATOM    102  O   UNL A   1      49.442  22.387  34.106  1.00  0.00    -0.744 OA
ENDBRANCH  96  99
ENDBRANCH  69  92
ENDBRANCH  43  44
ENDBRANCH  35  38
ENDBRANCH  33  34
ENDBRANCH  32  33
ENDBRANCH   1  32
TORSDOF 17
ENDMDL
