MODEL 1
REMARK VINA RESULT:     -12.1      0.000      0.000
REMARK SMILES COc1ccc2c(c1)C=C(C(=O)NCCCCNC(=O)c1ccc(-c3c4nc(c(-c5cccc(S(=O)(=O)[O-])c5F)c5ccc([nH]5)c(-c5cccc(S(=O)(=O)[O-])c5F)c5nc(c(-c6cccc(S(=O)(=O)[O-])c6F)c6ccc3[nH]6)C=C5)C=C4)cc1)[C@H](C(F)(F)F)O2
REMARK SMILES IDX 16 1 15 2 14 3 13 4 11 5 12 6 10 8 3 9 4 10 8 11 5 12 7 13
REMARK SMILES IDX 6 14 9 15 89 16 84 17 2 18 1 19 85 20 86 21 87 22 88 23
REMARK SMILES IDX 17 24 18 25 19 26 20 28 21 29 22 30 83 31 23 32 82 33 24 34
REMARK SMILES IDX 25 35 26 36 76 37 27 38 81 39 75 40 77 41 28 42 80 43 74 44
REMARK SMILES IDX 73 45 29 47 61 48 41 49 60 50 42 51 45 52 59 53 78 54 43 55
REMARK SMILES IDX 44 56 58 58 79 59 46 60 30 61 31 62 39 63 32 64 34 65 40 66
REMARK SMILES IDX 33 67 35 68 36 69 37 70 38 71 62 72 63 73 71 74 64 75 66 76
REMARK SMILES IDX 72 77 65 78 67 79 68 80 69 81 70 82 47 83 48 84 56 85 49 86
REMARK SMILES IDX 51 87 57 88 50 89 52 90 53 91 54 92 55 93
REMARK H PARENT 13 7 18 27 77 46 45 57
REMARK Flexibility Score: inf
ROOT
ATOM      1  C   UNL A   1      31.783  30.112  25.475  1.00  0.00     0.023 C 
ENDROOT
BRANCH   1   2
ATOM      2  C   UNL A   1      31.389  28.632  25.429  1.00  0.00     0.023 C 
BRANCH   2   3
ATOM      3  C   UNL A   1      31.970  27.788  26.570  1.00  0.00     0.116 C 
BRANCH   3   4
ATOM      4  N   UNL A   1      31.160  26.601  26.781  1.00  0.00    -0.352 N 
ATOM      5  C   UNL A   1      31.236  25.335  26.294  1.00  0.00     0.251 C 
ATOM      6  O   UNL A   1      30.316  24.560  26.541  1.00  0.00    -0.270 OA
ATOM      7  H   UNL A   1      30.406  26.741  27.399  1.00  0.00     0.163 HD
BRANCH   5   8
ATOM      8  C   UNL A   1      32.410  24.825  25.535  1.00  0.00     0.067 C 
ATOM      9  C   UNL A   1      36.569  22.417  25.082  1.00  0.00     0.119 A 
ATOM     10  C   UNL A   1      36.536  22.593  23.700  1.00  0.00     0.050 A 
ATOM     11  C   UNL A   1      35.556  22.939  25.882  1.00  0.00     0.058 A 
ATOM     12  C   UNL A   1      35.491  23.319  23.122  1.00  0.00     0.051 A 
ATOM     13  C   UNL A   1      34.513  23.669  25.301  1.00  0.00     0.021 A 
ATOM     14  C   UNL A   1      34.484  23.857  23.923  1.00  0.00     0.128 A 
ATOM     15  C   UNL A   1      33.418  24.160  26.117  1.00  0.00     0.025 C 
ATOM     16  O   UNL A   1      33.468  24.496  23.279  1.00  0.00    -0.475 OA
ATOM     17  C   UNL A   1      32.499  25.250  24.070  1.00  0.00     0.314 C 
BRANCH   9  18
ATOM     18  O   UNL A   1      37.519  21.653  25.703  1.00  0.00    -0.497 OA
ATOM     19  C   UNL A   1      37.769  20.436  25.006  1.00  0.00     0.278 C 
ENDBRANCH   9  18
BRANCH  17  20
ATOM     20  C   UNL A   1      31.172  25.252  23.275  1.00  0.00     0.429 C 
ATOM     21  F   UNL A   1      30.325  26.230  23.659  1.00  0.00    -0.167 F 
ATOM     22  F   UNL A   1      31.405  25.479  21.951  1.00  0.00    -0.167 F 
ATOM     23  F   UNL A   1      30.520  24.069  23.352  1.00  0.00    -0.167 F 
ENDBRANCH  17  20
ENDBRANCH   5   8
ENDBRANCH   3   4
ENDBRANCH   2   3
ENDBRANCH   1   2
BRANCH   1  24
ATOM     24  C   UNL A   1      32.166  30.630  26.857  1.00  0.00     0.116 C 
BRANCH  24  25
ATOM     25  N   UNL A   1      32.233  32.081  26.925  1.00  0.00    -0.352 N 
ATOM     26  C   UNL A   1      33.224  32.868  27.469  1.00  0.00     0.251 C 
ATOM     27  H   UNL A   1      31.471  32.565  26.532  1.00  0.00     0.163 HD
ATOM     28  O   UNL A   1      33.082  34.078  27.540  1.00  0.00    -0.269 OA
BRANCH  26  29
ATOM     29  C   UNL A   1      34.442  32.220  28.003  1.00  0.00     0.039 A 
ATOM     30  C   UNL A   1      35.594  32.991  28.170  1.00  0.00     0.014 A 
ATOM     31  C   UNL A   1      34.431  30.872  28.372  1.00  0.00     0.014 A 
ATOM     32  C   UNL A   1      36.719  32.426  28.774  1.00  0.00     0.010 A 
ATOM     33  C   UNL A   1      35.530  30.330  29.030  1.00  0.00     0.010 A 
ATOM     34  C   UNL A   1      36.683  31.102  29.240  1.00  0.00    -0.014 A 
BRANCH  34  35
ATOM     35  C   UNL A   1      37.831  30.507  29.968  1.00  0.00     0.031 A 
ATOM     36  C   UNL A   1      38.147  30.953  31.369  1.00  0.00     0.074 A 
ATOM     37  C   UNL A   1      38.642  29.638  29.333  1.00  0.00     0.049 A 
ATOM     38  N   UNL A   1      39.151  30.615  32.135  1.00  0.00    -0.248 NA
ATOM     39  C   UNL A   1      37.228  31.928  31.981  1.00  0.00     0.031 C 
ATOM     40  C   UNL A   1      38.486  29.192  27.946  1.00  0.00     0.029 A 
ATOM     41  N   UNL A   1      39.780  29.001  29.759  1.00  0.00    -0.354 N 
ATOM     42  C   UNL A   1      39.002  31.350  33.304  1.00  0.00     0.074 A 
ATOM     43  C   UNL A   1      37.832  32.183  33.133  1.00  0.00     0.031 C 
ATOM     44  C   UNL A   1      39.492  28.360  27.635  1.00  0.00     0.029 A 
ATOM     45  C   UNL A   1      40.378  28.231  28.788  1.00  0.00     0.049 A 
ATOM     46  H   UNL A   1      40.136  29.087  30.673  1.00  0.00     0.167 HD
ATOM     47  C   UNL A   1      39.749  31.309  34.433  1.00  0.00     0.034 A 
ATOM     48  C   UNL A   1      41.515  27.509  28.822  1.00  0.00     0.034 A 
ATOM     49  C   UNL A   1      40.886  30.448  34.615  1.00  0.00     0.049 A 
ATOM     50  C   UNL A   1      42.302  27.449  30.103  1.00  0.00     0.074 A 
ATOM     51  C   UNL A   1      41.671  30.288  35.742  1.00  0.00     0.029 A 
ATOM     52  N   UNL A   1      41.397  29.599  33.645  1.00  0.00    -0.354 N 
ATOM     53  N   UNL A   1      42.058  28.036  31.250  1.00  0.00    -0.248 NA
ATOM     54  C   UNL A   1      43.499  26.595  30.110  1.00  0.00     0.031 C 
ATOM     55  C   UNL A   1      42.661  29.341  35.453  1.00  0.00     0.029 A 
ATOM     56  C   UNL A   1      42.483  28.906  34.150  1.00  0.00     0.049 A 
ATOM     57  H   UNL A   1      41.040  29.503  32.734  1.00  0.00     0.167 HD
ATOM     58  C   UNL A   1      43.047  27.597  32.122  1.00  0.00     0.074 A 
ATOM     59  C   UNL A   1      43.881  26.675  31.378  1.00  0.00     0.031 C 
ATOM     60  C   UNL A   1      43.260  27.941  33.415  1.00  0.00     0.034 A 
BRANCH  47  61
ATOM     61  C   UNL A   1      39.309  32.164  35.591  1.00  0.00     0.023 A 
ATOM     62  C   UNL A   1      38.461  31.606  36.569  1.00  0.00     0.012 A 
ATOM     63  C   UNL A   1      39.772  33.484  35.749  1.00  0.00     0.148 A 
ATOM     64  C   UNL A   1      38.056  32.356  37.672  1.00  0.00     0.002 A 
ATOM     65  C   UNL A   1      39.396  34.214  36.872  1.00  0.00     0.091 A 
ATOM     66  F   UNL A   1      40.560  34.005  34.798  1.00  0.00    -0.205 F 
ATOM     67  C   UNL A   1      38.531  33.655  37.828  1.00  0.00     0.022 A 
BRANCH  65  68
ATOM     68  S   UNL A   1      40.009  35.869  37.204  1.00  0.00     0.127 S 
ATOM     69  O   UNL A   1      41.433  35.618  37.424  1.00  0.00    -0.237 OA
ATOM     70  O   UNL A   1      39.700  36.569  35.956  1.00  0.00    -0.237 OA
ATOM     71  O   UNL A   1      39.271  36.345  38.366  1.00  0.00    -0.744 OA
ENDBRANCH  65  68
ENDBRANCH  47  61
BRANCH  48  72
ATOM     72  C   UNL A   1      41.941  26.726  27.626  1.00  0.00     0.023 A 
ATOM     73  C   UNL A   1      42.599  27.386  26.569  1.00  0.00     0.012 A 
ATOM     74  C   UNL A   1      41.717  25.340  27.535  1.00  0.00     0.148 A 
ATOM     75  C   UNL A   1      42.991  26.685  25.427  1.00  0.00     0.002 A 
ATOM     76  C   UNL A   1      42.159  24.638  26.418  1.00  0.00     0.091 A 
ATOM     77  F   UNL A   1      41.075  24.729  28.542  1.00  0.00    -0.205 F 
ATOM     78  C   UNL A   1      42.780  25.311  25.356  1.00  0.00     0.022 A 
BRANCH  76  79
ATOM     79  S   UNL A   1      42.045  22.848  26.316  1.00  0.00     0.127 S 
ATOM     80  O   UNL A   1      42.625  22.585  25.002  1.00  0.00    -0.237 OA
ATOM     81  O   UNL A   1      42.866  22.420  27.450  1.00  0.00    -0.237 OA
ATOM     82  O   UNL A   1      40.626  22.548  26.464  1.00  0.00    -0.744 OA
ENDBRANCH  76  79
ENDBRANCH  48  72
BRANCH  60  83
ATOM     83  C   UNL A   1      44.420  27.296  34.127  1.00  0.00     0.023 A 
ATOM     84  C   UNL A   1      45.656  27.967  34.192  1.00  0.00     0.012 A 
ATOM     85  C   UNL A   1      44.260  26.067  34.797  1.00  0.00     0.148 A 
ATOM     86  C   UNL A   1      46.727  27.411  34.891  1.00  0.00     0.002 A 
ATOM     87  C   UNL A   1      45.319  25.540  35.528  1.00  0.00     0.091 A 
ATOM     88  F   UNL A   1      43.080  25.435  34.704  1.00  0.00    -0.205 F 
ATOM     89  C   UNL A   1      46.554  26.205  35.568  1.00  0.00     0.022 A 
BRANCH  87  90
ATOM     90  S   UNL A   1      45.158  24.041  36.504  1.00  0.00     0.127 S 
ATOM     91  O   UNL A   1      46.548  23.779  36.878  1.00  0.00    -0.237 OA
ATOM     92  O   UNL A   1      44.302  24.476  37.607  1.00  0.00    -0.237 OA
ATOM     93  O   UNL A   1      44.550  23.053  35.623  1.00  0.00    -0.744 OA
ENDBRANCH  87  90
ENDBRANCH  60  83
ENDBRANCH  34  35
ENDBRANCH  26  29
ENDBRANCH  24  25
ENDBRANCH   1  24
TORSDOF 16
ENDMDL
MODEL 2
REMARK VINA RESULT:     -12.1      2.169      4.030
REMARK SMILES COc1ccc2c(c1)C=C(C(=O)NCCCCNC(=O)c1ccc(-c3c4nc(c(-c5cccc(S(=O)(=O)[O-])c5F)c5ccc([nH]5)c(-c5cccc(S(=O)(=O)[O-])c5F)c5nc(c(-c6cccc(S(=O)(=O)[O-])c6F)c6ccc3[nH]6)C=C5)C=C4)cc1)[C@H](C(F)(F)F)O2
REMARK SMILES IDX 16 1 15 2 14 3 13 4 11 5 12 6 10 8 3 9 4 10 8 11 5 12 7 13
REMARK SMILES IDX 6 14 9 15 89 16 84 17 2 18 1 19 85 20 86 21 87 22 88 23
REMARK SMILES IDX 17 24 18 25 19 26 20 28 21 29 22 30 83 31 23 32 82 33 24 34
REMARK SMILES IDX 25 35 26 36 76 37 27 38 81 39 75 40 77 41 28 42 80 43 74 44
REMARK SMILES IDX 73 45 29 47 61 48 41 49 60 50 42 51 45 52 59 53 78 54 43 55
REMARK SMILES IDX 44 56 58 58 79 59 46 60 30 61 31 62 39 63 32 64 34 65 40 66
REMARK SMILES IDX 33 67 35 68 36 69 37 70 38 71 62 72 63 73 71 74 64 75 66 76
REMARK SMILES IDX 72 77 65 78 67 79 68 80 69 81 70 82 47 83 48 84 56 85 49 86
REMARK SMILES IDX 51 87 57 88 50 89 52 90 53 91 54 92 55 93
REMARK H PARENT 13 7 18 27 77 46 45 57
REMARK Flexibility Score: inf
ROOT
ATOM      1  C   UNL A   1      33.337  29.514  25.895  1.00  0.00     0.023 C 
ENDROOT
BRANCH   1   2
ATOM      2  C   UNL A   1      34.211  28.286  26.167  1.00  0.00     0.023 C 
BRANCH   2   3
ATOM      3  C   UNL A   1      33.728  27.002  25.482  1.00  0.00     0.116 C 
BRANCH   3   4
ATOM      4  N   UNL A   1      34.021  27.049  24.059  1.00  0.00    -0.352 N 
ATOM      5  C   UNL A   1      33.238  27.223  22.963  1.00  0.00     0.251 C 
ATOM      6  O   UNL A   1      33.747  27.075  21.855  1.00  0.00    -0.270 OA
ATOM      7  H   UNL A   1      34.975  26.930  23.848  1.00  0.00     0.163 HD
BRANCH   5   8
ATOM      8  C   UNL A   1      31.814  27.651  23.039  1.00  0.00     0.067 C 
ATOM      9  C   UNL A   1      28.214  30.838  22.611  1.00  0.00     0.119 A 
ATOM     10  C   UNL A   1      27.278  29.833  22.852  1.00  0.00     0.050 A 
ATOM     11  C   UNL A   1      29.575  30.545  22.609  1.00  0.00     0.058 A 
ATOM     12  C   UNL A   1      27.716  28.533  23.117  1.00  0.00     0.051 A 
ATOM     13  C   UNL A   1      30.011  29.243  22.879  1.00  0.00     0.021 A 
ATOM     14  C   UNL A   1      29.080  28.241  23.133  1.00  0.00     0.128 A 
ATOM     15  C   UNL A   1      31.422  28.913  22.814  1.00  0.00     0.025 C 
ATOM     16  O   UNL A   1      29.423  26.938  23.336  1.00  0.00    -0.475 OA
ATOM     17  C   UNL A   1      30.827  26.609  23.563  1.00  0.00     0.314 C 
BRANCH   9  18
ATOM     18  O   UNL A   1      27.853  32.112  22.268  1.00  0.00    -0.497 OA
ATOM     19  C   UNL A   1      28.779  33.080  22.754  1.00  0.00     0.278 C 
ENDBRANCH   9  18
BRANCH  17  20
ATOM     20  C   UNL A   1      31.036  25.158  23.069  1.00  0.00     0.429 C 
ATOM     21  F   UNL A   1      29.913  24.411  23.130  1.00  0.00    -0.167 F 
ATOM     22  F   UNL A   1      31.404  25.145  21.757  1.00  0.00    -0.167 F 
ATOM     23  F   UNL A   1      32.013  24.515  23.748  1.00  0.00    -0.167 F 
ENDBRANCH  17  20
ENDBRANCH   5   8
ENDBRANCH   3   4
ENDBRANCH   2   3
ENDBRANCH   1   2
BRANCH   1  24
ATOM     24  C   UNL A   1      32.696  30.130  27.133  1.00  0.00     0.116 C 
BRANCH  24  25
ATOM     25  N   UNL A   1      32.804  31.580  27.173  1.00  0.00    -0.352 N 
ATOM     26  C   UNL A   1      33.835  32.349  27.664  1.00  0.00     0.251 C 
ATOM     27  H   UNL A   1      32.041  32.078  26.799  1.00  0.00     0.163 HD
ATOM     28  O   UNL A   1      33.728  33.564  27.718  1.00  0.00    -0.269 OA
BRANCH  26  29
ATOM     29  C   UNL A   1      35.054  31.677  28.165  1.00  0.00     0.039 A 
ATOM     30  C   UNL A   1      36.275  32.351  28.081  1.00  0.00     0.014 A 
ATOM     31  C   UNL A   1      34.984  30.409  28.748  1.00  0.00     0.014 A 
ATOM     32  C   UNL A   1      37.417  31.781  28.646  1.00  0.00     0.010 A 
ATOM     33  C   UNL A   1      36.109  29.872  29.366  1.00  0.00     0.010 A 
ATOM     34  C   UNL A   1      37.335  30.553  29.323  1.00  0.00    -0.014 A 
BRANCH  34  35
ATOM     35  C   UNL A   1      38.512  29.971  30.013  1.00  0.00     0.031 A 
ATOM     36  C   UNL A   1      38.911  30.469  31.375  1.00  0.00     0.074 A 
ATOM     37  C   UNL A   1      39.275  29.063  29.372  1.00  0.00     0.049 A 
ATOM     38  N   UNL A   1      39.950  30.146  32.098  1.00  0.00    -0.248 NA
ATOM     39  C   UNL A   1      38.040  31.483  31.993  1.00  0.00     0.031 C 
ATOM     40  C   UNL A   1      39.037  28.562  28.016  1.00  0.00     0.029 A 
ATOM     41  N   UNL A   1      40.426  28.426  29.762  1.00  0.00    -0.354 N 
ATOM     42  C   UNL A   1      39.876  30.931  33.242  1.00  0.00     0.074 A 
ATOM     43  C   UNL A   1      38.710  31.776  33.099  1.00  0.00     0.031 C 
ATOM     44  C   UNL A   1      40.013  27.702  27.686  1.00  0.00     0.029 A 
ATOM     45  C   UNL A   1      40.958  27.606  28.794  1.00  0.00     0.049 A 
ATOM     46  H   UNL A   1      40.832  28.543  30.652  1.00  0.00     0.167 HD
ATOM     47  C   UNL A   1      40.682  30.925  34.329  1.00  0.00     0.034 A 
ATOM     48  C   UNL A   1      42.085  26.867  28.797  1.00  0.00     0.034 A 
ATOM     49  C   UNL A   1      41.815  30.054  34.486  1.00  0.00     0.049 A 
ATOM     50  C   UNL A   1      42.940  26.847  30.035  1.00  0.00     0.074 A 
ATOM     51  C   UNL A   1      42.659  29.928  35.575  1.00  0.00     0.029 A 
ATOM     52  N   UNL A   1      42.261  29.158  33.527  1.00  0.00    -0.354 N 
ATOM     53  N   UNL A   1      42.768  27.486  31.167  1.00  0.00    -0.248 NA
ATOM     54  C   UNL A   1      44.124  25.975  30.013  1.00  0.00     0.031 C 
ATOM     55  C   UNL A   1      43.618  28.954  35.273  1.00  0.00     0.029 A 
ATOM     56  C   UNL A   1      43.363  28.468  34.001  1.00  0.00     0.049 A 
ATOM     57  H   UNL A   1      41.853  29.029  32.641  1.00  0.00     0.167 HD
ATOM     58  C   UNL A   1      43.796  27.067  32.002  1.00  0.00     0.074 A 
ATOM     59  C   UNL A   1      44.575  26.101  31.255  1.00  0.00     0.031 C 
ATOM     60  C   UNL A   1      44.085  27.461  33.267  1.00  0.00     0.034 A 
BRANCH  47  61
ATOM     61  C   UNL A   1      40.318  31.835  35.472  1.00  0.00     0.023 A 
ATOM     62  C   UNL A   1      41.082  33.000  35.688  1.00  0.00     0.012 A 
ATOM     63  C   UNL A   1      39.201  31.579  36.289  1.00  0.00     0.148 A 
ATOM     64  C   UNL A   1      40.758  33.883  36.717  1.00  0.00     0.002 A 
ATOM     65  C   UNL A   1      38.860  32.485  37.288  1.00  0.00     0.091 A 
ATOM     66  F   UNL A   1      38.499  30.456  36.082  1.00  0.00    -0.205 F 
ATOM     67  C   UNL A   1      39.642  33.631  37.510  1.00  0.00     0.022 A 
BRANCH  65  68
ATOM     68  S   UNL A   1      37.401  32.290  38.319  1.00  0.00     0.127 S 
ATOM     69  O   UNL A   1      37.213  30.840  38.292  1.00  0.00    -0.237 OA
ATOM     70  O   UNL A   1      37.858  32.822  39.604  1.00  0.00    -0.237 OA
ATOM     71  O   UNL A   1      36.350  33.069  37.678  1.00  0.00    -0.744 OA
ENDBRANCH  65  68
ENDBRANCH  47  61
BRANCH  48  72
ATOM     72  C   UNL A   1      42.434  26.029  27.614  1.00  0.00     0.023 A 
ATOM     73  C   UNL A   1      43.263  26.566  26.609  1.00  0.00     0.012 A 
ATOM     74  C   UNL A   1      41.969  24.707  27.486  1.00  0.00     0.148 A 
ATOM     75  C   UNL A   1      43.590  25.814  25.479  1.00  0.00     0.002 A 
ATOM     76  C   UNL A   1      42.344  23.944  26.384  1.00  0.00     0.091 A 
ATOM     77  F   UNL A   1      41.167  24.216  28.442  1.00  0.00    -0.205 F 
ATOM     78  C   UNL A   1      43.139  24.501  25.371  1.00  0.00     0.022 A 
BRANCH  76  79
ATOM     79  S   UNL A   1      41.915  22.206  26.243  1.00  0.00     0.127 S 
ATOM     80  O   UNL A   1      42.653  21.810  25.047  1.00  0.00    -0.237 OA
ATOM     81  O   UNL A   1      42.430  21.657  27.498  1.00  0.00    -0.237 OA
ATOM     82  O   UNL A   1      40.460  22.180  26.138  1.00  0.00    -0.744 OA
ENDBRANCH  76  79
ENDBRANCH  48  72
BRANCH  60  83
ATOM     83  C   UNL A   1      45.273  26.827  33.941  1.00  0.00     0.023 A 
ATOM     84  C   UNL A   1      46.534  27.448  33.858  1.00  0.00     0.012 A 
ATOM     85  C   UNL A   1      45.121  25.664  34.722  1.00  0.00     0.148 A 
ATOM     86  C   UNL A   1      47.635  26.906  34.519  1.00  0.00     0.002 A 
ATOM     87  C   UNL A   1      46.214  25.154  35.413  1.00  0.00     0.091 A 
ATOM     88  F   UNL A   1      43.916  25.077  34.771  1.00  0.00    -0.205 F 
ATOM     89  C   UNL A   1      47.472  25.767  35.306  1.00  0.00     0.022 A 
BRANCH  87  90
ATOM     90  S   UNL A   1      46.077  23.746  36.520  1.00  0.00     0.127 S 
ATOM     91  O   UNL A   1      45.678  22.682  35.600  1.00  0.00    -0.237 OA
ATOM     92  O   UNL A   1      47.438  23.623  37.041  1.00  0.00    -0.237 OA
ATOM     93  O   UNL A   1      45.082  24.117  37.518  1.00  0.00    -0.744 OA
ENDBRANCH  87  90
ENDBRANCH  60  83
ENDBRANCH  34  35
ENDBRANCH  26  29
ENDBRANCH  24  25
ENDBRANCH   1  24
TORSDOF 16
ENDMDL
MODEL 3
REMARK VINA RESULT:     -12.1      2.448      7.998
REMARK SMILES COc1ccc2c(c1)C=C(C(=O)NCCCCNC(=O)c1ccc(-c3c4nc(c(-c5cccc(S(=O)(=O)[O-])c5F)c5ccc([nH]5)c(-c5cccc(S(=O)(=O)[O-])c5F)c5nc(c(-c6cccc(S(=O)(=O)[O-])c6F)c6ccc3[nH]6)C=C5)C=C4)cc1)[C@H](C(F)(F)F)O2
REMARK SMILES IDX 16 1 15 2 14 3 13 4 11 5 12 6 10 8 3 9 4 10 8 11 5 12 7 13
REMARK SMILES IDX 6 14 9 15 89 16 84 17 2 18 1 19 85 20 86 21 87 22 88 23
REMARK SMILES IDX 17 24 18 25 19 26 20 28 21 29 22 30 83 31 23 32 82 33 24 34
REMARK SMILES IDX 25 35 26 36 76 37 27 38 81 39 75 40 77 41 28 42 80 43 74 44
REMARK SMILES IDX 73 45 29 47 61 48 41 49 60 50 42 51 45 52 59 53 78 54 43 55
REMARK SMILES IDX 44 56 58 58 79 59 46 60 30 61 31 62 39 63 32 64 34 65 40 66
REMARK SMILES IDX 33 67 35 68 36 69 37 70 38 71 62 72 63 73 71 74 64 75 66 76
REMARK SMILES IDX 72 77 65 78 67 79 68 80 69 81 70 82 47 83 48 84 56 85 49 86
REMARK SMILES IDX 51 87 57 88 50 89 52 90 53 91 54 92 55 93
REMARK H PARENT 13 7 18 27 77 46 45 57
REMARK Flexibility Score: inf
ROOT
ATOM      1  C   UNL A   1      31.861  31.686  26.542  1.00  0.00     0.023 C 
ENDROOT
BRANCH   1   2
ATOM      2  C   UNL A   1      31.869  30.165  26.726  1.00  0.00     0.023 C 
BRANCH   2   3
ATOM      3  C   UNL A   1      33.188  29.488  26.333  1.00  0.00     0.116 C 
BRANCH   3   4
ATOM      4  N   UNL A   1      33.432  29.648  24.909  1.00  0.00    -0.352 N 
ATOM      5  C   UNL A   1      33.522  28.760  23.885  1.00  0.00     0.251 C 
ATOM      6  O   UNL A   1      33.882  29.174  22.786  1.00  0.00    -0.270 OA
ATOM      7  H   UNL A   1      33.558  30.585  24.632  1.00  0.00     0.163 HD
BRANCH   5   8
ATOM      8  C   UNL A   1      33.141  27.327  24.014  1.00  0.00     0.067 C 
ATOM      9  C   UNL A   1      33.804  22.777  25.484  1.00  0.00     0.119 A 
ATOM     10  C   UNL A   1      32.523  22.437  25.051  1.00  0.00     0.050 A 
ATOM     11  C   UNL A   1      34.278  24.077  25.323  1.00  0.00     0.058 A 
ATOM     12  C   UNL A   1      31.726  23.403  24.431  1.00  0.00     0.051 A 
ATOM     13  C   UNL A   1      33.479  25.041  24.697  1.00  0.00     0.021 A 
ATOM     14  C   UNL A   1      32.206  24.700  24.252  1.00  0.00     0.128 A 
ATOM     15  C   UNL A   1      33.938  26.412  24.584  1.00  0.00     0.025 C 
ATOM     16  O   UNL A   1      31.345  25.598  23.697  1.00  0.00    -0.475 OA
ATOM     17  C   UNL A   1      31.856  26.908  23.302  1.00  0.00     0.314 C 
BRANCH   9  18
ATOM     18  O   UNL A   1      34.605  21.905  26.168  1.00  0.00    -0.497 OA
ATOM     19  C   UNL A   1      34.023  21.497  27.403  1.00  0.00     0.278 C 
ENDBRANCH   9  18
BRANCH  17  20
ATOM     20  C   UNL A   1      30.670  27.898  23.389  1.00  0.00     0.429 C 
ATOM     21  F   UNL A   1      30.865  29.023  22.667  1.00  0.00    -0.167 F 
ATOM     22  F   UNL A   1      29.537  27.338  22.879  1.00  0.00    -0.167 F 
ATOM     23  F   UNL A   1      30.383  28.253  24.662  1.00  0.00    -0.167 F 
ENDBRANCH  17  20
ENDBRANCH   5   8
ENDBRANCH   3   4
ENDBRANCH   2   3
ENDBRANCH   1   2
BRANCH   1  24
ATOM     24  C   UNL A   1      32.910  32.435  27.357  1.00  0.00     0.116 C 
BRANCH  24  25
ATOM     25  N   UNL A   1      32.552  33.821  27.613  1.00  0.00    -0.352 N 
ATOM     26  C   UNL A   1      33.105  34.694  28.524  1.00  0.00     0.251 C 
ATOM     27  H   UNL A   1      31.820  34.184  27.064  1.00  0.00     0.163 HD
ATOM     28  O   UNL A   1      32.620  35.802  28.690  1.00  0.00    -0.269 OA
BRANCH  26  29
ATOM     29  C   UNL A   1      34.266  34.251  29.327  1.00  0.00     0.039 A 
ATOM     30  C   UNL A   1      34.033  33.577  30.528  1.00  0.00     0.014 A 
ATOM     31  C   UNL A   1      35.571  34.466  28.876  1.00  0.00     0.014 A 
ATOM     32  C   UNL A   1      35.111  33.055  31.245  1.00  0.00     0.010 A 
ATOM     33  C   UNL A   1      36.638  33.891  29.559  1.00  0.00     0.010 A 
ATOM     34  C   UNL A   1      36.419  33.179  30.748  1.00  0.00    -0.014 A 
BRANCH  34  35
ATOM     35  C   UNL A   1      37.572  32.553  31.441  1.00  0.00     0.031 A 
ATOM     36  C   UNL A   1      38.291  31.393  30.811  1.00  0.00     0.074 A 
ATOM     37  C   UNL A   1      37.907  32.969  32.679  1.00  0.00     0.049 A 
ATOM     38  N   UNL A   1      39.261  30.663  31.296  1.00  0.00    -0.248 NA
ATOM     39  C   UNL A   1      37.843  30.981  29.470  1.00  0.00     0.031 C 
ATOM     40  C   UNL A   1      37.231  34.031  33.428  1.00  0.00     0.029 A 
ATOM     41  N   UNL A   1      38.879  32.525  33.539  1.00  0.00    -0.354 N 
ATOM     42  C   UNL A   1      39.523  29.693  30.337  1.00  0.00     0.074 A 
ATOM     43  C   UNL A   1      38.583  29.902  29.257  1.00  0.00     0.031 C 
ATOM     44  C   UNL A   1      37.805  34.152  34.636  1.00  0.00     0.029 A 
ATOM     45  C   UNL A   1      38.871  33.163  34.758  1.00  0.00     0.049 A 
ATOM     46  H   UNL A   1      39.523  31.817  33.306  1.00  0.00     0.167 HD
ATOM     47  C   UNL A   1      40.483  28.738  30.336  1.00  0.00     0.034 A 
ATOM     48  C   UNL A   1      39.632  32.968  35.853  1.00  0.00     0.034 A 
ATOM     49  C   UNL A   1      41.444  28.562  31.392  1.00  0.00     0.049 A 
ATOM     50  C   UNL A   1      40.719  31.928  35.807  1.00  0.00     0.074 A 
ATOM     51  C   UNL A   1      42.493  27.664  31.458  1.00  0.00     0.029 A 
ATOM     52  N   UNL A   1      41.473  29.300  32.565  1.00  0.00    -0.354 N 
ATOM     53  N   UNL A   1      41.049  31.121  34.829  1.00  0.00    -0.248 NA
ATOM     54  C   UNL A   1      41.566  31.798  37.003  1.00  0.00     0.031 C 
ATOM     55  C   UNL A   1      43.158  27.858  32.674  1.00  0.00     0.029 A 
ATOM     56  C   UNL A   1      42.527  28.884  33.358  1.00  0.00     0.049 A 
ATOM     57  H   UNL A   1      40.838  30.015  32.798  1.00  0.00     0.167 HD
ATOM     58  C   UNL A   1      42.159  30.414  35.274  1.00  0.00     0.074 A 
ATOM     59  C   UNL A   1      42.462  30.905  36.603  1.00  0.00     0.031 C 
ATOM     60  C   UNL A   1      42.854  29.432  34.650  1.00  0.00     0.034 A 
BRANCH  47  61
ATOM     61  C   UNL A   1      40.594  27.862  29.117  1.00  0.00     0.023 A 
ATOM     62  C   UNL A   1      39.745  26.742  29.000  1.00  0.00     0.012 A 
ATOM     63  C   UNL A   1      41.481  28.170  28.068  1.00  0.00     0.148 A 
ATOM     64  C   UNL A   1      39.797  25.924  27.873  1.00  0.00     0.002 A 
ATOM     65  C   UNL A   1      41.498  27.372  26.928  1.00  0.00     0.091 A 
ATOM     66  F   UNL A   1      42.294  29.226  28.205  1.00  0.00    -0.205 F 
ATOM     67  C   UNL A   1      40.665  26.245  26.834  1.00  0.00     0.022 A 
BRANCH  65  68
ATOM     68  S   UNL A   1      42.528  27.738  25.503  1.00  0.00     0.127 S 
ATOM     69  O   UNL A   1      42.294  26.565  24.661  1.00  0.00    -0.237 OA
ATOM     70  O   UNL A   1      41.932  28.977  25.001  1.00  0.00    -0.237 OA
ATOM     71  O   UNL A   1      43.884  27.881  26.013  1.00  0.00    -0.744 OA
ENDBRANCH  65  68
ENDBRANCH  47  61
BRANCH  48  72
ATOM     72  C   UNL A   1      39.442  33.823  37.059  1.00  0.00     0.023 A 
ATOM     73  C   UNL A   1      39.918  35.149  37.046  1.00  0.00     0.012 A 
ATOM     74  C   UNL A   1      38.783  33.342  38.206  1.00  0.00     0.148 A 
ATOM     75  C   UNL A   1      39.774  35.969  38.167  1.00  0.00     0.002 A 
ATOM     76  C   UNL A   1      38.594  34.181  39.300  1.00  0.00     0.091 A 
ATOM     77  F   UNL A   1      38.351  32.073  38.209  1.00  0.00    -0.205 F 
ATOM     78  C   UNL A   1      39.104  35.488  39.290  1.00  0.00     0.022 A 
BRANCH  76  79
ATOM     79  S   UNL A   1      37.624  33.678  40.725  1.00  0.00     0.127 S 
ATOM     80  O   UNL A   1      38.501  32.695  41.354  1.00  0.00    -0.237 OA
ATOM     81  O   UNL A   1      37.479  34.935  41.460  1.00  0.00    -0.237 OA
ATOM     82  O   UNL A   1      36.375  33.166  40.174  1.00  0.00    -0.744 OA
ENDBRANCH  76  79
ENDBRANCH  48  72
BRANCH  60  83
ATOM     83  C   UNL A   1      44.033  28.841  35.377  1.00  0.00     0.023 A 
ATOM     84  C   UNL A   1      45.318  29.378  35.170  1.00  0.00     0.012 A 
ATOM     85  C   UNL A   1      43.854  27.810  36.321  1.00  0.00     0.148 A 
ATOM     86  C   UNL A   1      46.414  28.880  35.873  1.00  0.00     0.002 A 
ATOM     87  C   UNL A   1      44.945  27.349  37.049  1.00  0.00     0.091 A 
ATOM     88  F   UNL A   1      42.625  27.300  36.487  1.00  0.00    -0.205 F 
ATOM     89  C   UNL A   1      46.226  27.875  36.820  1.00  0.00     0.022 A 
BRANCH  87  90
ATOM     90  S   UNL A   1      44.779  26.123  38.352  1.00  0.00     0.127 S 
ATOM     91  O   UNL A   1      44.297  24.961  37.607  1.00  0.00    -0.237 OA
ATOM     92  O   UNL A   1      46.151  26.004  38.845  1.00  0.00    -0.237 OA
ATOM     93  O   UNL A   1      43.841  26.686  39.314  1.00  0.00    -0.744 OA
ENDBRANCH  87  90
ENDBRANCH  60  83
ENDBRANCH  34  35
ENDBRANCH  26  29
ENDBRANCH  24  25
ENDBRANCH   1  24
TORSDOF 16
ENDMDL
