MODEL 1
REMARK VINA RESULT:     -11.6      0.000      0.000
REMARK SMILES CC[C@](C)([NH3+])C(=O)N1CC[NH+]([C@H](C)C(=O)NCCCCNC(=O)c2ccc(-c3c4nc(c(-c5cccc(S(=O)(=O)[O-])c5F)c5ccc([nH]5)c(-c5cccc(S(=O)(=O)[O-])c5F)c5nc(c(-c6cccc(S(=O)(=O)[O-])c6F)c6ccc3[nH]6)C=C5)C=C4)cc2)CC1
REMARK SMILES IDX 18 1 17 2 16 3 14 4 15 5 12 7 13 8 11 9 6 10 7 11 8 12 9 13
REMARK SMILES IDX 88 14 10 15 87 16 3 18 4 19 2 20 1 21 5 22 19 26 20 27 21 28
REMARK SMILES IDX 22 29 23 31 24 32 25 33 86 34 26 35 85 36 27 37 28 38 29 39
REMARK SMILES IDX 79 40 30 41 84 42 78 43 80 44 31 45 83 46 77 47 76 48 32 50
REMARK SMILES IDX 64 51 44 52 63 53 45 54 48 55 62 56 81 57 46 58 47 59 61 61
REMARK SMILES IDX 82 62 49 63 33 64 34 65 42 66 35 67 37 68 43 69 36 70 38 71
REMARK SMILES IDX 39 72 40 73 41 74 65 75 66 76 74 77 67 78 69 79 75 80 68 81
REMARK SMILES IDX 70 82 71 83 72 84 73 85 50 86 51 87 59 88 52 89 54 90 60 91
REMARK SMILES IDX 53 92 55 93 56 94 57 95 58 96
REMARK H PARENT 16 6 11 17 5 23 5 24 5 25 21 30 80 49 48 60
REMARK Flexibility Score: inf
ROOT
ATOM      1  C   UNL A   1      32.147  28.780  24.362  1.00  0.00     0.023 C 
ENDROOT
BRANCH   1   2
ATOM      2  C   UNL A   1      31.177  27.915  23.571  1.00  0.00     0.116 C 
BRANCH   2   3
ATOM      3  N   UNL A   1      31.688  26.604  23.228  1.00  0.00    -0.351 N 
ATOM      4  C   UNL A   1      31.772  25.465  23.980  1.00  0.00     0.278 C 
ATOM      5  O   UNL A   1      32.017  24.414  23.377  1.00  0.00    -0.268 OA
ATOM      6  H   UNL A   1      32.029  26.520  22.309  1.00  0.00     0.163 HD
BRANCH   4   7
ATOM      7  C   UNL A   1      31.600  25.462  25.521  1.00  0.00     0.271 C 
ATOM      8  C   UNL A   1      30.133  25.402  25.963  1.00  0.00     0.086 C 
BRANCH   7   9
ATOM      9  N   UNL A   1      32.584  24.607  26.250  1.00  0.00    -0.322 N 
ATOM     10  C   UNL A   1      34.480  21.037  25.901  1.00  0.00     0.283 C 
ATOM     11  O   UNL A   1      35.619  20.987  25.407  1.00  0.00    -0.268 OA
ATOM     12  N   UNL A   1      34.111  22.173  26.600  1.00  0.00    -0.326 N 
ATOM     13  C   UNL A   1      34.818  23.417  26.310  1.00  0.00     0.181 C 
ATOM     14  C   UNL A   1      32.965  22.413  27.468  1.00  0.00     0.181 C 
ATOM     15  C   UNL A   1      33.850  24.342  25.541  1.00  0.00     0.284 C 
ATOM     16  C   UNL A   1      31.968  23.370  26.783  1.00  0.00     0.284 C 
ATOM     17  H   UNL A   1      32.866  25.184  27.042  1.00  0.00     0.348 HD
BRANCH  10  18
ATOM     18  C   UNL A   1      33.453  19.917  25.489  1.00  0.00     0.171 C 
ATOM     19  C   UNL A   1      34.190  18.956  24.531  1.00  0.00     0.090 C 
BRANCH  18  20
ATOM     20  C   UNL A   1      32.258  20.622  24.784  1.00  0.00     0.075 C 
ATOM     21  C   UNL A   1      32.391  20.818  23.278  1.00  0.00     0.011 C 
ENDBRANCH  18  20
BRANCH  18  22
ATOM     22  N   UNL A   1      32.971  19.087  26.616  1.00  0.00    -0.345 N 
ATOM     23  H   UNL A   1      32.899  18.115  26.315  1.00  0.00     0.345 HD
ATOM     24  H   UNL A   1      32.056  19.420  26.917  1.00  0.00     0.345 HD
ATOM     25  H   UNL A   1      33.630  19.154  27.393  1.00  0.00     0.345 HD
ENDBRANCH  18  22
ENDBRANCH  10  18
ENDBRANCH   7   9
ENDBRANCH   4   7
ENDBRANCH   2   3
ENDBRANCH   1   2
BRANCH   1  26
ATOM     26  C   UNL A   1      31.501  29.782  25.315  1.00  0.00     0.023 C 
BRANCH  26  27
ATOM     27  C   UNL A   1      32.337  30.188  26.525  1.00  0.00     0.116 C 
BRANCH  27  28
ATOM     28  N   UNL A   1      32.320  31.619  26.796  1.00  0.00    -0.352 N 
ATOM     29  C   UNL A   1      33.257  32.399  27.439  1.00  0.00     0.251 C 
ATOM     30  H   UNL A   1      31.524  32.099  26.473  1.00  0.00     0.163 HD
ATOM     31  O   UNL A   1      33.028  33.580  27.660  1.00  0.00    -0.269 OA
BRANCH  29  32
ATOM     32  C   UNL A   1      34.520  31.784  27.899  1.00  0.00     0.039 A 
ATOM     33  C   UNL A   1      35.651  32.593  28.043  1.00  0.00     0.014 A 
ATOM     34  C   UNL A   1      34.570  30.432  28.244  1.00  0.00     0.014 A 
ATOM     35  C   UNL A   1      36.806  32.064  28.626  1.00  0.00     0.010 A 
ATOM     36  C   UNL A   1      35.690  29.932  28.901  1.00  0.00     0.010 A 
ATOM     37  C   UNL A   1      36.817  30.743  29.105  1.00  0.00    -0.014 A 
BRANCH  37  38
ATOM     38  C   UNL A   1      37.981  30.198  29.850  1.00  0.00     0.031 A 
ATOM     39  C   UNL A   1      38.264  30.663  31.253  1.00  0.00     0.074 A 
ATOM     40  C   UNL A   1      38.846  29.374  29.226  1.00  0.00     0.049 A 
ATOM     41  N   UNL A   1      39.276  30.372  32.028  1.00  0.00    -0.248 NA
ATOM     42  C   UNL A   1      37.302  31.603  31.851  1.00  0.00     0.031 C 
ATOM     43  C   UNL A   1      38.735  28.923  27.836  1.00  0.00     0.029 A 
ATOM     44  N   UNL A   1      40.010  28.794  29.668  1.00  0.00    -0.354 N 
ATOM     45  C   UNL A   1      39.098  31.125  33.183  1.00  0.00     0.074 A 
ATOM     46  C   UNL A   1      37.898  31.911  32.994  1.00  0.00     0.031 C 
ATOM     47  C   UNL A   1      39.783  28.136  27.542  1.00  0.00     0.029 A 
ATOM     48  C   UNL A   1      40.655  28.047  28.710  1.00  0.00     0.049 A 
ATOM     49  H   UNL A   1      40.350  28.902  30.585  1.00  0.00     0.167 HD
ATOM     50  C   UNL A   1      39.845  31.138  34.312  1.00  0.00     0.034 A 
ATOM     51  C   UNL A   1      41.819  27.370  28.761  1.00  0.00     0.034 A 
ATOM     52  C   UNL A   1      41.001  30.310  34.522  1.00  0.00     0.049 A 
ATOM     53  C   UNL A   1      42.593  27.346  30.053  1.00  0.00     0.074 A 
ATOM     54  C   UNL A   1      41.764  30.173  35.667  1.00  0.00     0.029 A 
ATOM     55  N   UNL A   1      41.560  29.477  33.566  1.00  0.00    -0.354 N 
ATOM     56  N   UNL A   1      42.314  27.930  31.193  1.00  0.00    -0.248 NA
ATOM     57  C   UNL A   1      43.821  26.537  30.078  1.00  0.00     0.031 C 
ATOM     58  C   UNL A   1      42.792  29.264  35.400  1.00  0.00     0.029 A 
ATOM     59  C   UNL A   1      42.661  28.824  34.093  1.00  0.00     0.049 A 
ATOM     60  H   UNL A   1      41.225  29.366  32.647  1.00  0.00     0.167 HD
ATOM     61  C   UNL A   1      43.308  27.534  32.078  1.00  0.00     0.074 A 
ATOM     62  C   UNL A   1      44.186  26.641  31.349  1.00  0.00     0.031 C 
ATOM     63  C   UNL A   1      43.489  27.890  33.374  1.00  0.00     0.034 A 
BRANCH  50  64
ATOM     64  C   UNL A   1      39.392  32.030  35.438  1.00  0.00     0.023 A 
ATOM     65  C   UNL A   1      38.507  31.520  36.410  1.00  0.00     0.012 A 
ATOM     66  C   UNL A   1      39.878  33.345  35.567  1.00  0.00     0.148 A 
ATOM     67  C   UNL A   1      38.083  32.317  37.473  1.00  0.00     0.002 A 
ATOM     68  C   UNL A   1      39.486  34.118  36.654  1.00  0.00     0.091 A 
ATOM     69  F   UNL A   1      40.701  33.820  34.621  1.00  0.00    -0.205 F 
ATOM     70  C   UNL A   1      38.580  33.610  37.601  1.00  0.00     0.022 A 
BRANCH  68  71
ATOM     71  S   UNL A   1      40.131  35.769  36.950  1.00  0.00     0.127 S 
ATOM     72  O   UNL A   1      39.664  36.485  35.764  1.00  0.00    -0.237 OA
ATOM     73  O   UNL A   1      39.459  36.146  38.194  1.00  0.00    -0.237 OA
ATOM     74  O   UNL A   1      41.575  35.618  37.065  1.00  0.00    -0.744 OA
ENDBRANCH  68  71
ENDBRANCH  50  64
BRANCH  51  75
ATOM     75  C   UNL A   1      42.281  26.589  27.579  1.00  0.00     0.023 A 
ATOM     76  C   UNL A   1      43.086  27.221  26.610  1.00  0.00     0.012 A 
ATOM     77  C   UNL A   1      41.962  25.226  27.423  1.00  0.00     0.148 A 
ATOM     78  C   UNL A   1      43.537  26.519  25.492  1.00  0.00     0.002 A 
ATOM     79  C   UNL A   1      42.459  24.520  26.333  1.00  0.00     0.091 A 
ATOM     80  F   UNL A   1      41.185  24.645  28.348  1.00  0.00    -0.205 F 
ATOM     81  C   UNL A   1      43.234  25.167  25.358  1.00  0.00     0.022 A 
BRANCH  79  82
ATOM     82  S   UNL A   1      42.229  22.746  26.152  1.00  0.00     0.127 S 
ATOM     83  O   UNL A   1      42.909  22.485  24.885  1.00  0.00    -0.237 OA
ATOM     84  O   UNL A   1      42.912  22.227  27.337  1.00  0.00    -0.237 OA
ATOM     85  O   UNL A   1      40.787  22.539  26.156  1.00  0.00    -0.744 OA
ENDBRANCH  79  82
ENDBRANCH  51  75
BRANCH  63  86
ATOM     86  C   UNL A   1      44.658  27.292  34.109  1.00  0.00     0.023 A 
ATOM     87  C   UNL A   1      45.891  27.972  34.132  1.00  0.00     0.012 A 
ATOM     88  C   UNL A   1      44.511  26.101  34.848  1.00  0.00     0.148 A 
ATOM     89  C   UNL A   1      46.968  27.465  34.857  1.00  0.00     0.002 A 
ATOM     90  C   UNL A   1      45.576  25.625  35.605  1.00  0.00     0.091 A 
ATOM     91  F   UNL A   1      43.336  25.456  34.797  1.00  0.00    -0.205 F 
ATOM     92  C   UNL A   1      46.807  26.299  35.603  1.00  0.00     0.022 A 
BRANCH  90  93
ATOM     93  S   UNL A   1      45.427  24.185  36.670  1.00  0.00     0.127 S 
ATOM     94  O   UNL A   1      46.794  24.035  37.163  1.00  0.00    -0.237 OA
ATOM     95  O   UNL A   1      44.463  24.637  37.674  1.00  0.00    -0.237 OA
ATOM     96  O   UNL A   1      44.946  23.106  35.816  1.00  0.00    -0.744 OA
ENDBRANCH  90  93
ENDBRANCH  63  86
ENDBRANCH  37  38
ENDBRANCH  29  32
ENDBRANCH  27  28
ENDBRANCH  26  27
ENDBRANCH   1  26
TORSDOF 18
ENDMDL
MODEL 2
REMARK VINA RESULT:     -11.6      5.027     10.276
REMARK SMILES CC[C@](C)([NH3+])C(=O)N1CC[NH+]([C@H](C)C(=O)NCCCCNC(=O)c2ccc(-c3c4nc(c(-c5cccc(S(=O)(=O)[O-])c5F)c5ccc([nH]5)c(-c5cccc(S(=O)(=O)[O-])c5F)c5nc(c(-c6cccc(S(=O)(=O)[O-])c6F)c6ccc3[nH]6)C=C5)C=C4)cc2)CC1
REMARK SMILES IDX 18 1 17 2 16 3 14 4 15 5 12 7 13 8 11 9 6 10 7 11 8 12 9 13
REMARK SMILES IDX 88 14 10 15 87 16 3 18 4 19 2 20 1 21 5 22 19 26 20 27 21 28
REMARK SMILES IDX 22 29 23 31 24 32 25 33 86 34 26 35 85 36 27 37 28 38 29 39
REMARK SMILES IDX 79 40 30 41 84 42 78 43 80 44 31 45 83 46 77 47 76 48 32 50
REMARK SMILES IDX 64 51 44 52 63 53 45 54 48 55 62 56 81 57 46 58 47 59 61 61
REMARK SMILES IDX 82 62 49 63 33 64 34 65 42 66 35 67 37 68 43 69 36 70 38 71
REMARK SMILES IDX 39 72 40 73 41 74 65 75 66 76 74 77 67 78 69 79 75 80 68 81
REMARK SMILES IDX 70 82 71 83 72 84 73 85 50 86 51 87 59 88 52 89 54 90 60 91
REMARK SMILES IDX 53 92 55 93 56 94 57 95 58 96
REMARK H PARENT 16 6 11 17 5 23 5 24 5 25 21 30 80 49 48 60
REMARK Flexibility Score: inf
ROOT
ATOM      1  C   UNL A   1      35.049  20.194  24.932  1.00  0.00     0.023 C 
ENDROOT
BRANCH   1   2
ATOM      2  C   UNL A   1      33.595  20.443  25.306  1.00  0.00     0.116 C 
BRANCH   2   3
ATOM      3  N   UNL A   1      32.681  20.447  24.183  1.00  0.00    -0.351 N 
ATOM      4  C   UNL A   1      32.397  21.434  23.280  1.00  0.00     0.278 C 
ATOM      5  O   UNL A   1      31.767  21.101  22.270  1.00  0.00    -0.268 OA
ATOM      6  H   UNL A   1      32.186  19.607  24.049  1.00  0.00     0.163 HD
BRANCH   4   7
ATOM      7  C   UNL A   1      32.808  22.913  23.497  1.00  0.00     0.271 C 
ATOM      8  C   UNL A   1      33.684  23.466  22.367  1.00  0.00     0.086 C 
BRANCH   7   9
ATOM      9  N   UNL A   1      31.715  23.785  24.024  1.00  0.00    -0.322 N 
ATOM     10  C   UNL A   1      31.013  27.657  25.014  1.00  0.00     0.283 C 
ATOM     11  O   UNL A   1      30.489  28.422  24.187  1.00  0.00    -0.268 OA
ATOM     12  N   UNL A   1      30.680  26.314  24.979  1.00  0.00    -0.326 N 
ATOM     13  C   UNL A   1      30.168  25.767  23.725  1.00  0.00     0.181 C 
ATOM     14  C   UNL A   1      30.941  25.254  25.944  1.00  0.00     0.181 C 
ATOM     15  C   UNL A   1      31.265  24.862  23.122  1.00  0.00     0.284 C 
ATOM     16  C   UNL A   1      32.000  24.278  25.392  1.00  0.00     0.284 C 
ATOM     17  H   UNL A   1      30.911  23.161  24.077  1.00  0.00     0.348 HD
BRANCH  10  18
ATOM     18  C   UNL A   1      32.203  28.218  25.879  1.00  0.00     0.171 C 
ATOM     19  C   UNL A   1      31.789  28.084  27.361  1.00  0.00     0.090 C 
BRANCH  18  20
ATOM     20  C   UNL A   1      32.408  29.706  25.474  1.00  0.00     0.075 C 
ATOM     21  C   UNL A   1      31.850  30.745  26.442  1.00  0.00     0.011 C 
ENDBRANCH  18  20
BRANCH  18  22
ATOM     22  N   UNL A   1      33.469  27.465  25.735  1.00  0.00    -0.345 N 
ATOM     23  H   UNL A   1      33.968  27.466  26.625  1.00  0.00     0.345 HD
ATOM     24  H   UNL A   1      34.048  27.905  25.020  1.00  0.00     0.345 HD
ATOM     25  H   UNL A   1      33.264  26.504  25.462  1.00  0.00     0.345 HD
ENDBRANCH  18  22
ENDBRANCH  10  18
ENDBRANCH   7   9
ENDBRANCH   4   7
ENDBRANCH   2   3
ENDBRANCH   1   2
BRANCH   1  26
ATOM     26  C   UNL A   1      35.881  21.446  24.672  1.00  0.00     0.023 C 
BRANCH  26  27
ATOM     27  C   UNL A   1      36.914  21.795  25.739  1.00  0.00     0.116 C 
BRANCH  27  28
ATOM     28  N   UNL A   1      38.062  20.899  25.759  1.00  0.00    -0.352 N 
ATOM     29  C   UNL A   1      39.361  21.150  26.144  1.00  0.00     0.251 C 
ATOM     30  H   UNL A   1      37.884  19.980  25.452  1.00  0.00     0.163 HD
ATOM     31  O   UNL A   1      40.222  20.292  26.004  1.00  0.00    -0.269 OA
BRANCH  29  32
ATOM     32  C   UNL A   1      39.713  22.480  26.687  1.00  0.00     0.039 A 
ATOM     33  C   UNL A   1      40.709  22.568  27.662  1.00  0.00     0.014 A 
ATOM     34  C   UNL A   1      39.106  23.635  26.190  1.00  0.00     0.014 A 
ATOM     35  C   UNL A   1      41.165  23.825  28.069  1.00  0.00     0.010 A 
ATOM     36  C   UNL A   1      39.619  24.881  26.534  1.00  0.00     0.010 A 
ATOM     37  C   UNL A   1      40.658  24.991  27.471  1.00  0.00    -0.014 A 
BRANCH  37  38
ATOM     38  C   UNL A   1      41.217  26.331  27.784  1.00  0.00     0.031 A 
ATOM     39  C   UNL A   1      42.659  26.638  27.476  1.00  0.00     0.074 A 
ATOM     40  C   UNL A   1      40.465  27.230  28.448  1.00  0.00     0.049 A 
ATOM     41  N   UNL A   1      43.349  27.712  27.755  1.00  0.00    -0.248 NA
ATOM     42  C   UNL A   1      43.433  25.586  26.795  1.00  0.00     0.031 C 
ATOM     43  C   UNL A   1      39.083  27.019  28.888  1.00  0.00     0.029 A 
ATOM     44  N   UNL A   1      40.765  28.491  28.900  1.00  0.00    -0.354 N 
ATOM     45  C   UNL A   1      44.646  27.451  27.327  1.00  0.00     0.074 A 
ATOM     46  C   UNL A   1      44.653  26.104  26.799  1.00  0.00     0.031 C 
ATOM     47  C   UNL A   1      38.655  28.112  29.541  1.00  0.00     0.029 A 
ATOM     48  C   UNL A   1      39.738  29.090  29.593  1.00  0.00     0.049 A 
ATOM     49  H   UNL A   1      41.633  28.927  28.743  1.00  0.00     0.167 HD
ATOM     50  C   UNL A   1      45.725  28.268  27.341  1.00  0.00     0.034 A 
ATOM     51  C   UNL A   1      39.674  30.290  30.204  1.00  0.00     0.034 A 
ATOM     52  C   UNL A   1      45.700  29.626  27.808  1.00  0.00     0.049 A 
ATOM     53  C   UNL A   1      40.867  31.205  30.142  1.00  0.00     0.074 A 
ATOM     54  C   UNL A   1      46.712  30.569  27.768  1.00  0.00     0.029 A 
ATOM     55  N   UNL A   1      44.607  30.239  28.400  1.00  0.00    -0.354 N 
ATOM     56  N   UNL A   1      42.034  31.003  29.578  1.00  0.00    -0.248 NA
ATOM     57  C   UNL A   1      40.725  32.529  30.765  1.00  0.00     0.031 C 
ATOM     58  C   UNL A   1      46.233  31.749  28.345  1.00  0.00     0.029 A 
ATOM     59  C   UNL A   1      44.918  31.546  28.731  1.00  0.00     0.049 A 
ATOM     60  H   UNL A   1      43.736  29.808  28.560  1.00  0.00     0.167 HD
ATOM     61  C   UNL A   1      42.749  32.182  29.748  1.00  0.00     0.074 A 
ATOM     62  C   UNL A   1      41.877  33.103  30.448  1.00  0.00     0.031 C 
ATOM     63  C   UNL A   1      44.019  32.471  29.372  1.00  0.00     0.034 A 
BRANCH  50  64
ATOM     64  C   UNL A   1      47.011  27.733  26.769  1.00  0.00     0.023 A 
ATOM     65  C   UNL A   1      47.954  27.134  27.630  1.00  0.00     0.012 A 
ATOM     66  C   UNL A   1      47.266  27.772  25.385  1.00  0.00     0.148 A 
ATOM     67  C   UNL A   1      49.146  26.614  27.128  1.00  0.00     0.002 A 
ATOM     68  C   UNL A   1      48.438  27.213  24.886  1.00  0.00     0.091 A 
ATOM     69  F   UNL A   1      46.370  28.366  24.585  1.00  0.00    -0.205 F 
ATOM     70  C   UNL A   1      49.383  26.644  25.757  1.00  0.00     0.022 A 
BRANCH  68  71
ATOM     71  S   UNL A   1      48.798  27.130  23.128  1.00  0.00     0.127 S 
ATOM     72  O   UNL A   1      50.259  27.197  23.124  1.00  0.00    -0.237 OA
ATOM     73  O   UNL A   1      48.247  25.826  22.759  1.00  0.00    -0.237 OA
ATOM     74  O   UNL A   1      48.116  28.268  22.527  1.00  0.00    -0.744 OA
ENDBRANCH  68  71
ENDBRANCH  50  64
BRANCH  51  75
ATOM     75  C   UNL A   1      38.406  30.729  30.854  1.00  0.00     0.023 A 
ATOM     76  C   UNL A   1      38.218  30.482  32.229  1.00  0.00     0.012 A 
ATOM     77  C   UNL A   1      37.408  31.416  30.137  1.00  0.00     0.148 A 
ATOM     78  C   UNL A   1      37.045  30.881  32.870  1.00  0.00     0.002 A 
ATOM     79  C   UNL A   1      36.265  31.857  30.795  1.00  0.00     0.091 A 
ATOM     80  F   UNL A   1      37.599  31.632  28.829  1.00  0.00    -0.205 F 
ATOM     81  C   UNL A   1      36.074  31.577  32.157  1.00  0.00     0.022 A 
BRANCH  79  82
ATOM     82  S   UNL A   1      35.024  32.876  29.986  1.00  0.00     0.127 S 
ATOM     83  O   UNL A   1      34.477  31.952  28.996  1.00  0.00    -0.237 OA
ATOM     84  O   UNL A   1      34.124  33.197  31.094  1.00  0.00    -0.237 OA
ATOM     85  O   UNL A   1      35.749  34.023  29.455  1.00  0.00    -0.744 OA
ENDBRANCH  79  82
ENDBRANCH  51  75
BRANCH  63  86
ATOM     86  C   UNL A   1      44.543  33.850  29.674  1.00  0.00     0.023 A 
ATOM     87  C   UNL A   1      45.207  34.093  30.892  1.00  0.00     0.012 A 
ATOM     88  C   UNL A   1      44.454  34.880  28.717  1.00  0.00     0.148 A 
ATOM     89  C   UNL A   1      45.753  35.347  31.164  1.00  0.00     0.002 A 
ATOM     90  C   UNL A   1      45.039  36.114  28.976  1.00  0.00     0.091 A 
ATOM     91  F   UNL A   1      43.799  34.635  27.572  1.00  0.00    -0.205 F 
ATOM     92  C   UNL A   1      45.679  36.352  30.202  1.00  0.00     0.022 A 
BRANCH  90  93
ATOM     93  S   UNL A   1      45.075  37.433  27.757  1.00  0.00     0.127 S 
ATOM     94  O   UNL A   1      45.734  38.507  28.498  1.00  0.00    -0.237 OA
ATOM     95  O   UNL A   1      45.882  36.847  26.686  1.00  0.00    -0.237 OA
ATOM     96  O   UNL A   1      43.685  37.681  27.397  1.00  0.00    -0.744 OA
ENDBRANCH  90  93
ENDBRANCH  63  86
ENDBRANCH  37  38
ENDBRANCH  29  32
ENDBRANCH  27  28
ENDBRANCH  26  27
ENDBRANCH   1  26
TORSDOF 18
ENDMDL
MODEL 3
REMARK VINA RESULT:     -11.4      4.510      9.809
REMARK SMILES CC[C@](C)([NH3+])C(=O)N1CC[NH+]([C@H](C)C(=O)NCCCCNC(=O)c2ccc(-c3c4nc(c(-c5cccc(S(=O)(=O)[O-])c5F)c5ccc([nH]5)c(-c5cccc(S(=O)(=O)[O-])c5F)c5nc(c(-c6cccc(S(=O)(=O)[O-])c6F)c6ccc3[nH]6)C=C5)C=C4)cc2)CC1
REMARK SMILES IDX 18 1 17 2 16 3 14 4 15 5 12 7 13 8 11 9 6 10 7 11 8 12 9 13
REMARK SMILES IDX 88 14 10 15 87 16 3 18 4 19 2 20 1 21 5 22 19 26 20 27 21 28
REMARK SMILES IDX 22 29 23 31 24 32 25 33 86 34 26 35 85 36 27 37 28 38 29 39
REMARK SMILES IDX 79 40 30 41 84 42 78 43 80 44 31 45 83 46 77 47 76 48 32 50
REMARK SMILES IDX 64 51 44 52 63 53 45 54 48 55 62 56 81 57 46 58 47 59 61 61
REMARK SMILES IDX 82 62 49 63 33 64 34 65 42 66 35 67 37 68 43 69 36 70 38 71
REMARK SMILES IDX 39 72 40 73 41 74 65 75 66 76 74 77 67 78 69 79 75 80 68 81
REMARK SMILES IDX 70 82 71 83 72 84 73 85 50 86 51 87 59 88 52 89 54 90 60 91
REMARK SMILES IDX 53 92 55 93 56 94 57 95 58 96
REMARK H PARENT 16 6 11 17 5 23 5 24 5 25 21 30 80 49 48 60
REMARK Flexibility Score: inf
ROOT
ATOM      1  C   UNL A   1      35.910  21.024  24.979  1.00  0.00     0.023 C 
ENDROOT
BRANCH   1   2
ATOM      2  C   UNL A   1      35.002  21.407  26.139  1.00  0.00     0.116 C 
BRANCH   2   3
ATOM      3  N   UNL A   1      33.671  20.842  26.067  1.00  0.00    -0.351 N 
ATOM      4  C   UNL A   1      32.634  21.132  25.224  1.00  0.00     0.278 C 
ATOM      5  O   UNL A   1      31.689  20.334  25.207  1.00  0.00    -0.268 OA
ATOM      6  H   UNL A   1      33.483  20.139  26.729  1.00  0.00     0.163 HD
BRANCH   4   7
ATOM      7  C   UNL A   1      32.601  22.405  24.339  1.00  0.00     0.271 C 
ATOM      8  C   UNL A   1      32.519  22.094  22.840  1.00  0.00     0.086 C 
BRANCH   7   9
ATOM      9  N   UNL A   1      31.742  23.504  24.873  1.00  0.00    -0.322 N 
ATOM     10  C   UNL A   1      31.407  27.546  24.748  1.00  0.00     0.283 C 
ATOM     11  O   UNL A   1      30.643  28.078  23.926  1.00  0.00    -0.268 OA
ATOM     12  N   UNL A   1      31.078  26.297  25.246  1.00  0.00    -0.326 N 
ATOM     13  C   UNL A   1      30.185  25.456  24.453  1.00  0.00     0.181 C 
ATOM     14  C   UNL A   1      31.638  25.553  26.367  1.00  0.00     0.181 C 
ATOM     15  C   UNL A   1      31.024  24.302  23.861  1.00  0.00     0.284 C 
ATOM     16  C   UNL A   1      32.458  24.351  25.854  1.00  0.00     0.284 C 
ATOM     17  H   UNL A   1      30.998  23.013  25.366  1.00  0.00     0.348 HD
BRANCH  10  18
ATOM     18  C   UNL A   1      32.814  28.212  24.978  1.00  0.00     0.171 C 
ATOM     19  C   UNL A   1      33.864  27.297  24.311  1.00  0.00     0.090 C 
BRANCH  18  20
ATOM     20  C   UNL A   1      33.035  28.310  26.515  1.00  0.00     0.075 C 
ATOM     21  C   UNL A   1      32.162  29.321  27.253  1.00  0.00     0.011 C 
ENDBRANCH  18  20
BRANCH  18  22
ATOM     22  N   UNL A   1      32.969  29.543  24.349  1.00  0.00    -0.345 N 
ATOM     23  H   UNL A   1      32.817  29.463  23.343  1.00  0.00     0.345 HD
ATOM     24  H   UNL A   1      33.910  29.896  24.524  1.00  0.00     0.345 HD
ATOM     25  H   UNL A   1      32.285  30.188  24.745  1.00  0.00     0.345 HD
ENDBRANCH  18  22
ENDBRANCH  10  18
ENDBRANCH   7   9
ENDBRANCH   4   7
ENDBRANCH   2   3
ENDBRANCH   1   2
BRANCH   1  26
ATOM     26  C   UNL A   1      36.562  22.193  24.245  1.00  0.00     0.023 C 
BRANCH  26  27
ATOM     27  C   UNL A   1      37.569  23.010  25.050  1.00  0.00     0.116 C 
BRANCH  27  28
ATOM     28  N   UNL A   1      38.586  22.202  25.709  1.00  0.00    -0.352 N 
ATOM     29  C   UNL A   1      39.617  22.596  26.534  1.00  0.00     0.251 C 
ATOM     30  H   UNL A   1      38.529  21.233  25.541  1.00  0.00     0.163 HD
ATOM     31  O   UNL A   1      40.439  21.779  26.925  1.00  0.00    -0.269 OA
BRANCH  29  32
ATOM     32  C   UNL A   1      39.746  24.021  26.904  1.00  0.00     0.039 A 
ATOM     33  C   UNL A   1      39.466  24.404  28.219  1.00  0.00     0.014 A 
ATOM     34  C   UNL A   1      40.197  24.961  25.975  1.00  0.00     0.014 A 
ATOM     35  C   UNL A   1      39.735  25.714  28.626  1.00  0.00     0.010 A 
ATOM     36  C   UNL A   1      40.543  26.238  26.404  1.00  0.00     0.010 A 
ATOM     37  C   UNL A   1      40.322  26.627  27.734  1.00  0.00    -0.014 A 
BRANCH  37  38
ATOM     38  C   UNL A   1      40.743  27.982  28.176  1.00  0.00     0.031 A 
ATOM     39  C   UNL A   1      42.205  28.336  28.235  1.00  0.00     0.074 A 
ATOM     40  C   UNL A   1      39.821  28.852  28.631  1.00  0.00     0.049 A 
ATOM     41  N   UNL A   1      42.770  29.429  28.675  1.00  0.00    -0.248 NA
ATOM     42  C   UNL A   1      43.158  27.315  27.767  1.00  0.00     0.031 C 
ATOM     43  C   UNL A   1      38.381  28.595  28.715  1.00  0.00     0.029 A 
ATOM     44  N   UNL A   1      39.959  30.119  29.143  1.00  0.00    -0.354 N 
ATOM     45  C   UNL A   1      44.140  29.212  28.583  1.00  0.00     0.074 A 
ATOM     46  C   UNL A   1      44.322  27.870  28.074  1.00  0.00     0.031 C 
ATOM     47  C   UNL A   1      37.769  29.669  29.241  1.00  0.00     0.029 A 
ATOM     48  C   UNL A   1      38.773  30.680  29.559  1.00  0.00     0.049 A 
ATOM     49  H   UNL A   1      40.824  30.582  29.206  1.00  0.00     0.167 HD
ATOM     50  C   UNL A   1      45.155  30.063  28.863  1.00  0.00     0.034 A 
ATOM     51  C   UNL A   1      38.521  31.873  30.134  1.00  0.00     0.034 A 
ATOM     52  C   UNL A   1      44.971  31.417  29.309  1.00  0.00     0.049 A 
ATOM     53  C   UNL A   1      39.662  32.826  30.370  1.00  0.00     0.074 A 
ATOM     54  C   UNL A   1      45.931  32.391  29.520  1.00  0.00     0.029 A 
ATOM     55  N   UNL A   1      43.746  31.990  29.610  1.00  0.00    -0.354 N 
ATOM     56  N   UNL A   1      40.938  32.664  30.113  1.00  0.00    -0.248 NA
ATOM     57  C   UNL A   1      39.327  34.140  30.938  1.00  0.00     0.031 C 
ATOM     58  C   UNL A   1      45.286  33.550  29.960  1.00  0.00     0.029 A 
ATOM     59  C   UNL A   1      43.923  33.304  30.008  1.00  0.00     0.049 A 
ATOM     60  H   UNL A   1      42.877  31.531  29.550  1.00  0.00     0.167 HD
ATOM     61  C   UNL A   1      41.550  33.864  30.454  1.00  0.00     0.074 A 
ATOM     62  C   UNL A   1      40.503  34.752  30.916  1.00  0.00     0.031 C 
ATOM     63  C   UNL A   1      42.864  34.196  30.405  1.00  0.00     0.034 A 
BRANCH  50  64
ATOM     64  C   UNL A   1      46.560  29.573  28.629  1.00  0.00     0.023 A 
ATOM     65  C   UNL A   1      47.184  29.832  27.391  1.00  0.00     0.012 A 
ATOM     66  C   UNL A   1      47.280  28.910  29.641  1.00  0.00     0.148 A 
ATOM     67  C   UNL A   1      48.490  29.406  27.151  1.00  0.00     0.002 A 
ATOM     68  C   UNL A   1      48.596  28.528  29.409  1.00  0.00     0.091 A 
ATOM     69  F   UNL A   1      46.662  28.653  30.803  1.00  0.00    -0.205 F 
ATOM     70  C   UNL A   1      49.198  28.764  28.162  1.00  0.00     0.022 A 
BRANCH  68  71
ATOM     71  S   UNL A   1      49.619  27.766  30.675  1.00  0.00     0.127 S 
ATOM     72  O   UNL A   1      50.889  27.603  29.968  1.00  0.00    -0.237 OA
ATOM     73  O   UNL A   1      49.632  28.789  31.721  1.00  0.00    -0.237 OA
ATOM     74  O   UNL A   1      48.943  26.530  31.044  1.00  0.00    -0.744 OA
ENDBRANCH  68  71
ENDBRANCH  50  64
BRANCH  51  75
ATOM     75  C   UNL A   1      37.118  32.267  30.450  1.00  0.00     0.023 A 
ATOM     76  C   UNL A   1      36.623  32.058  31.752  1.00  0.00     0.012 A 
ATOM     77  C   UNL A   1      36.288  32.874  29.488  1.00  0.00     0.148 A 
ATOM     78  C   UNL A   1      35.316  32.417  32.082  1.00  0.00     0.002 A 
ATOM     79  C   UNL A   1      35.004  33.278  29.839  1.00  0.00     0.091 A 
ATOM     80  F   UNL A   1      36.773  33.054  28.252  1.00  0.00    -0.205 F 
ATOM     81  C   UNL A   1      34.510  33.037  31.131  1.00  0.00     0.022 A 
BRANCH  79  82
ATOM     82  S   UNL A   1      33.947  34.201  28.717  1.00  0.00     0.127 S 
ATOM     83  O   UNL A   1      34.821  35.301  28.318  1.00  0.00    -0.237 OA
ATOM     84  O   UNL A   1      33.679  33.215  27.670  1.00  0.00    -0.237 OA
ATOM     85  O   UNL A   1      32.776  34.570  29.502  1.00  0.00    -0.744 OA
ENDBRANCH  79  82
ENDBRANCH  51  75
BRANCH  63  86
ATOM     86  C   UNL A   1      43.252  35.588  30.827  1.00  0.00     0.023 A 
ATOM     87  C   UNL A   1      43.609  35.837  32.166  1.00  0.00     0.012 A 
ATOM     88  C   UNL A   1      43.346  36.627  29.880  1.00  0.00     0.148 A 
ATOM     89  C   UNL A   1      44.029  37.106  32.563  1.00  0.00     0.002 A 
ATOM     90  C   UNL A   1      43.810  37.877  30.274  1.00  0.00     0.091 A 
ATOM     91  F   UNL A   1      42.983  36.374  28.614  1.00  0.00    -0.205 F 
ATOM     92  C   UNL A   1      44.141  38.122  31.616  1.00  0.00     0.022 A 
BRANCH  90  93
ATOM     93  S   UNL A   1      44.075  39.214  29.102  1.00  0.00     0.127 S 
ATOM     94  O   UNL A   1      42.712  39.500  28.662  1.00  0.00    -0.237 OA
ATOM     95  O   UNL A   1      44.675  40.251  29.943  1.00  0.00    -0.237 OA
ATOM     96  O   UNL A   1      44.966  38.678  28.081  1.00  0.00    -0.744 OA
ENDBRANCH  90  93
ENDBRANCH  63  86
ENDBRANCH  37  38
ENDBRANCH  29  32
ENDBRANCH  27  28
ENDBRANCH  26  27
ENDBRANCH   1  26
TORSDOF 18
ENDMDL
