MODEL 1
REMARK VINA RESULT:     -13.2      0.000      0.000
REMARK SMILES C[C@@H]1CCC[C@H](C)[N@H+]1Cc1cc2c(cc1Cl)C=C(C(=O)NCCCCNC(=O)c1ccc(-c3c4nc(c(-c5cccc(S(=O)(=O)[O-])c5F)c5ccc([nH]5)c(-c5cccc(S(=O)(=O)[O-])c5F)c5nc(c(-c6cccc(S(=O)(=O)[O-])c6F)c6ccc3[nH]6)C=C5)C=C4)cc1)[C@@H](C(F)(F)F)O2
REMARK SMILES IDX 24 1 23 2 22 3 21 4 19 5 20 6 18 8 10 9 11 10 15 11 12 12
REMARK SMILES IDX 14 13 16 14 13 15 97 16 17 17 92 18 9 19 8 20 7 21 6 22 5 23
REMARK SMILES IDX 4 24 2 25 3 27 1 28 93 29 94 30 95 31 96 32 25 33 26 34
REMARK SMILES IDX 27 35 28 37 29 38 30 39 91 40 31 41 90 42 32 43 33 44 34 45
REMARK SMILES IDX 84 46 35 47 89 48 83 49 85 50 36 51 88 52 82 53 81 54 37 56
REMARK SMILES IDX 69 57 49 58 68 59 50 60 53 61 67 62 86 63 51 64 52 65 66 67
REMARK SMILES IDX 87 68 54 69 38 70 39 71 47 72 40 73 42 74 48 75 41 76 43 77
REMARK SMILES IDX 44 78 45 79 46 80 70 81 71 82 79 83 72 84 74 85 80 86 73 87
REMARK SMILES IDX 75 88 76 89 77 90 78 91 55 92 56 93 64 94 57 95 59 96 65 97
REMARK SMILES IDX 58 98 60 99 61 100 62 101 63 102
REMARK H PARENT 21 7 8 26 26 36 85 55 53 66
REMARK Flexibility Score: inf
ROOT
ATOM      1  C   UNL A   1      36.471  21.362  24.550  1.00  0.00     0.023 C 
ENDROOT
BRANCH   1   2
ATOM      2  C   UNL A   1      35.927  20.148  25.307  1.00  0.00     0.023 C 
BRANCH   2   3
ATOM      3  C   UNL A   1      35.397  19.034  24.408  1.00  0.00     0.116 C 
BRANCH   3   4
ATOM      4  N   UNL A   1      34.092  18.566  24.838  1.00  0.00    -0.352 N 
ATOM      5  C   UNL A   1      32.894  19.130  25.114  1.00  0.00     0.251 C 
ATOM      6  O   UNL A   1      31.986  18.342  25.392  1.00  0.00    -0.270 OA
ATOM      7  H   UNL A   1      34.074  17.589  24.958  1.00  0.00     0.163 HD
BRANCH   5   8
ATOM      8  C   UNL A   1      32.622  20.595  25.137  1.00  0.00     0.067 C 
ATOM      9  C   UNL A   1      31.107  25.139  23.563  1.00  0.00     0.029 A 
ATOM     10  C   UNL A   1      30.907  24.380  24.729  1.00  0.00     0.058 A 
ATOM     11  C   UNL A   1      32.082  24.699  22.651  1.00  0.00     0.050 A 
ATOM     12  C   UNL A   1      31.524  23.144  24.882  1.00  0.00     0.128 A 
ATOM     13  C   UNL A   1      32.676  23.439  22.793  1.00  0.00     0.033 A 
ATOM     14  Cl  UNL A   1      32.591  25.650  21.301  1.00  0.00    -0.084 Cl
ATOM     15  C   UNL A   1      32.354  22.635  23.885  1.00  0.00     0.019 A 
ATOM     16  O   UNL A   1      31.208  22.430  26.006  1.00  0.00    -0.475 OA
ATOM     17  C   UNL A   1      32.767  21.239  23.963  1.00  0.00     0.025 C 
ATOM     18  C   UNL A   1      32.151  21.370  26.336  1.00  0.00     0.314 C 
BRANCH   9  19
ATOM     19  C   UNL A   1      30.197  26.325  23.317  1.00  0.00     0.301 C 
BRANCH  19  20
ATOM     20  N   UNL A   1      30.614  27.612  23.923  1.00  0.00    -0.327 N 
ATOM     21  C   UNL A   1      30.008  29.998  23.670  1.00  0.00     0.075 C 
ATOM     22  C   UNL A   1      30.639  28.765  23.007  1.00  0.00     0.181 C 
ATOM     23  C   UNL A   1      32.028  29.114  22.441  1.00  0.00     0.065 C 
ATOM     24  C   UNL A   1      33.122  29.131  23.499  1.00  0.00     0.012 C 
ATOM     25  C   UNL A   1      31.727  27.505  24.880  1.00  0.00     0.181 C 
ATOM     26  H   UNL A   1      29.831  27.864  24.527  1.00  0.00     0.348 HD
ATOM     27  C   UNL A   1      33.108  27.832  24.292  1.00  0.00     0.065 C 
ATOM     28  C   UNL A   1      31.455  28.341  26.138  1.00  0.00     0.075 C 
ENDBRANCH  19  20
ENDBRANCH   9  19
BRANCH  18  29
ATOM     29  C   UNL A   1      33.332  21.945  27.150  1.00  0.00     0.429 C 
ATOM     30  F   UNL A   1      32.876  22.665  28.205  1.00  0.00    -0.167 F 
ATOM     31  F   UNL A   1      34.128  20.973  27.657  1.00  0.00    -0.167 F 
ATOM     32  F   UNL A   1      34.131  22.758  26.422  1.00  0.00    -0.167 F 
ENDBRANCH  18  29
ENDBRANCH   5   8
ENDBRANCH   3   4
ENDBRANCH   2   3
ENDBRANCH   1   2
BRANCH   1  33
ATOM     33  C   UNL A   1      37.864  21.821  24.971  1.00  0.00     0.116 C 
BRANCH  33  34
ATOM     34  N   UNL A   1      38.754  20.745  25.387  1.00  0.00    -0.352 N 
ATOM     35  C   UNL A   1      39.793  20.822  26.288  1.00  0.00     0.251 C 
ATOM     36  H   UNL A   1      38.594  19.864  24.978  1.00  0.00     0.163 HD
ATOM     37  O   UNL A   1      40.507  19.850  26.511  1.00  0.00    -0.269 OA
BRANCH  35  38
ATOM     38  C   UNL A   1      40.054  22.124  26.931  1.00  0.00     0.039 A 
ATOM     39  C   UNL A   1      39.455  23.278  26.421  1.00  0.00     0.014 A 
ATOM     40  C   UNL A   1      41.020  22.202  27.937  1.00  0.00     0.014 A 
ATOM     41  C   UNL A   1      39.954  24.520  26.792  1.00  0.00     0.010 A 
ATOM     42  C   UNL A   1      41.464  23.454  28.362  1.00  0.00     0.010 A 
ATOM     43  C   UNL A   1      40.982  24.620  27.745  1.00  0.00    -0.014 A 
BRANCH  43  44
ATOM     44  C   UNL A   1      41.557  25.952  28.057  1.00  0.00     0.031 A 
ATOM     45  C   UNL A   1      42.926  26.338  27.563  1.00  0.00     0.074 A 
ATOM     46  C   UNL A   1      40.815  26.839  28.747  1.00  0.00     0.049 A 
ATOM     47  N   UNL A   1      43.565  27.469  27.720  1.00  0.00    -0.248 NA
ATOM     48  C   UNL A   1      43.681  25.330  26.800  1.00  0.00     0.031 C 
ATOM     49  C   UNL A   1      39.482  26.574  29.291  1.00  0.00     0.029 A 
ATOM     50  N   UNL A   1      41.068  28.141  29.096  1.00  0.00    -0.354 N 
ATOM     51  C   UNL A   1      44.808  27.293  27.126  1.00  0.00     0.074 A 
ATOM     52  C   UNL A   1      44.837  25.949  26.596  1.00  0.00     0.031 C 
ATOM     53  C   UNL A   1      39.015  27.691  29.867  1.00  0.00     0.029 A 
ATOM     54  C   UNL A   1      40.033  28.735  29.776  1.00  0.00     0.049 A 
ATOM     55  H   UNL A   1      41.909  28.604  28.881  1.00  0.00     0.167 HD
ATOM     56  C   UNL A   1      45.825  28.179  27.015  1.00  0.00     0.034 A 
ATOM     57  C   UNL A   1      39.911  29.980  30.275  1.00  0.00     0.034 A 
ATOM     58  C   UNL A   1      45.769  29.540  27.474  1.00  0.00     0.049 A 
ATOM     59  C   UNL A   1      41.038  30.953  30.105  1.00  0.00     0.074 A 
ATOM     60  C   UNL A   1      46.729  30.530  27.343  1.00  0.00     0.029 A 
ATOM     61  N   UNL A   1      44.697  30.107  28.143  1.00  0.00    -0.354 N 
ATOM     62  N   UNL A   1      42.171  30.791  29.467  1.00  0.00    -0.248 NA
ATOM     63  C   UNL A   1      40.869  32.282  30.711  1.00  0.00     0.031 C 
ATOM     64  C   UNL A   1      46.235  31.697  27.933  1.00  0.00     0.029 A 
ATOM     65  C   UNL A   1      44.971  31.431  28.435  1.00  0.00     0.049 A 
ATOM     66  H   UNL A   1      43.865  29.637  28.377  1.00  0.00     0.167 HD
ATOM     67  C   UNL A   1      42.853  31.994  29.594  1.00  0.00     0.074 A 
ATOM     68  C   UNL A   1      41.994  32.887  30.345  1.00  0.00     0.031 C 
ATOM     69  C   UNL A   1      44.091  32.319  29.148  1.00  0.00     0.034 A 
BRANCH  56  70
ATOM     70  C   UNL A   1      47.080  27.732  26.318  1.00  0.00     0.023 A 
ATOM     71  C   UNL A   1      48.064  27.042  27.050  1.00  0.00     0.012 A 
ATOM     72  C   UNL A   1      47.239  27.908  24.929  1.00  0.00     0.148 A 
ATOM     73  C   UNL A   1      49.195  26.537  26.412  1.00  0.00     0.002 A 
ATOM     74  C   UNL A   1      48.358  27.381  24.296  1.00  0.00     0.091 A 
ATOM     75  F   UNL A   1      46.297  28.587  24.259  1.00  0.00    -0.205 F 
ATOM     76  C   UNL A   1      49.338  26.697  25.035  1.00  0.00     0.022 A 
BRANCH  74  77
ATOM     77  S   UNL A   1      48.612  27.490  22.520  1.00  0.00     0.127 S 
ATOM     78  O   UNL A   1      47.436  28.252  22.102  1.00  0.00    -0.237 OA
ATOM     79  O   UNL A   1      49.875  28.223  22.434  1.00  0.00    -0.237 OA
ATOM     80  O   UNL A   1      48.670  26.118  22.038  1.00  0.00    -0.744 OA
ENDBRANCH  74  77
ENDBRANCH  56  70
BRANCH  57  81
ATOM     81  C   UNL A   1      38.636  30.365  30.935  1.00  0.00     0.023 A 
ATOM     82  C   UNL A   1      38.492  30.164  32.320  1.00  0.00     0.012 A 
ATOM     83  C   UNL A   1      37.622  31.032  30.220  1.00  0.00     0.148 A 
ATOM     84  C   UNL A   1      37.358  30.627  32.986  1.00  0.00     0.002 A 
ATOM     85  C   UNL A   1      36.518  31.531  30.899  1.00  0.00     0.091 A 
ATOM     86  F   UNL A   1      37.784  31.203  28.901  1.00  0.00    -0.205 F 
ATOM     87  C   UNL A   1      36.379  31.321  32.280  1.00  0.00     0.022 A 
BRANCH  85  88
ATOM     88  S   UNL A   1      35.274  32.552  30.101  1.00  0.00     0.127 S 
ATOM     89  O   UNL A   1      36.055  33.722  29.708  1.00  0.00    -0.237 OA
ATOM     90  O   UNL A   1      34.848  31.694  28.995  1.00  0.00    -0.237 OA
ATOM     91  O   UNL A   1      34.249  32.791  31.109  1.00  0.00    -0.744 OA
ENDBRANCH  85  88
ENDBRANCH  57  81
BRANCH  69  92
ATOM     92  C   UNL A   1      44.612  33.691  29.466  1.00  0.00     0.023 A 
ATOM     93  C   UNL A   1      45.268  33.901  30.694  1.00  0.00     0.012 A 
ATOM     94  C   UNL A   1      44.562  34.727  28.515  1.00  0.00     0.148 A 
ATOM     95  C   UNL A   1      45.863  35.130  30.976  1.00  0.00     0.002 A 
ATOM     96  C   UNL A   1      45.182  35.940  28.790  1.00  0.00     0.091 A 
ATOM     97  F   UNL A   1      43.920  34.501  27.359  1.00  0.00    -0.205 F 
ATOM     98  C   UNL A   1      45.830  36.143  30.020  1.00  0.00     0.022 A 
BRANCH  96  99
ATOM     99  S   UNL A   1      45.255  37.280  27.597  1.00  0.00     0.127 S 
ATOM    100  O   UNL A   1      43.837  37.584  27.405  1.00  0.00    -0.237 OA
ATOM    101  O   UNL A   1      46.005  38.302  28.325  1.00  0.00    -0.237 OA
ATOM    102  O   UNL A   1      45.939  36.742  26.428  1.00  0.00    -0.744 OA
ENDBRANCH  96  99
ENDBRANCH  69  92
ENDBRANCH  43  44
ENDBRANCH  35  38
ENDBRANCH  33  34
ENDBRANCH   1  33
TORSDOF 17
ENDMDL
MODEL 2
REMARK VINA RESULT:     -12.9      1.986      2.845
REMARK SMILES C[C@@H]1CCC[C@H](C)[N@H+]1Cc1cc2c(cc1Cl)C=C(C(=O)NCCCCNC(=O)c1ccc(-c3c4nc(c(-c5cccc(S(=O)(=O)[O-])c5F)c5ccc([nH]5)c(-c5cccc(S(=O)(=O)[O-])c5F)c5nc(c(-c6cccc(S(=O)(=O)[O-])c6F)c6ccc3[nH]6)C=C5)C=C4)cc1)[C@@H](C(F)(F)F)O2
REMARK SMILES IDX 24 1 23 2 22 3 21 4 19 5 20 6 18 8 10 9 11 10 15 11 12 12
REMARK SMILES IDX 14 13 16 14 13 15 97 16 17 17 92 18 9 19 8 20 7 21 6 22 5 23
REMARK SMILES IDX 4 24 2 25 3 27 1 28 93 29 94 30 95 31 96 32 25 33 26 34
REMARK SMILES IDX 27 35 28 37 29 38 30 39 91 40 31 41 90 42 32 43 33 44 34 45
REMARK SMILES IDX 84 46 35 47 89 48 83 49 85 50 36 51 88 52 82 53 81 54 37 56
REMARK SMILES IDX 69 57 49 58 68 59 50 60 53 61 67 62 86 63 51 64 52 65 66 67
REMARK SMILES IDX 87 68 54 69 38 70 39 71 47 72 40 73 42 74 48 75 41 76 43 77
REMARK SMILES IDX 44 78 45 79 46 80 70 81 71 82 79 83 72 84 74 85 80 86 73 87
REMARK SMILES IDX 75 88 76 89 77 90 78 91 55 92 56 93 64 94 57 95 59 96 65 97
REMARK SMILES IDX 58 98 60 99 61 100 62 101 63 102
REMARK H PARENT 21 7 8 26 26 36 85 55 53 66
REMARK Flexibility Score: inf
ROOT
ATOM      1  C   UNL A   1      37.332  21.374  25.043  1.00  0.00     0.023 C 
ENDROOT
BRANCH   1   2
ATOM      2  C   UNL A   1      37.040  22.502  24.051  1.00  0.00     0.023 C 
BRANCH   2   3
ATOM      3  C   UNL A   1      36.220  23.651  24.632  1.00  0.00     0.116 C 
BRANCH   3   4
ATOM      4  N   UNL A   1      35.563  23.276  25.870  1.00  0.00    -0.352 N 
ATOM      5  C   UNL A   1      34.363  23.509  26.450  1.00  0.00     0.251 C 
ATOM      6  O   UNL A   1      34.167  22.925  27.520  1.00  0.00    -0.270 OA
ATOM      7  H   UNL A   1      36.137  22.706  26.432  1.00  0.00     0.163 HD
BRANCH   5   8
ATOM      8  C   UNL A   1      33.315  24.421  25.912  1.00  0.00     0.067 C 
ATOM      9  C   UNL A   1      31.225  28.562  23.935  1.00  0.00     0.029 A 
ATOM     10  C   UNL A   1      31.161  27.188  23.645  1.00  0.00     0.058 A 
ATOM     11  C   UNL A   1      31.834  28.951  25.140  1.00  0.00     0.050 A 
ATOM     12  C   UNL A   1      31.837  26.266  24.436  1.00  0.00     0.128 A 
ATOM     13  C   UNL A   1      32.541  28.025  25.916  1.00  0.00     0.033 A 
ATOM     14  Cl  UNL A   1      31.777  30.575  25.730  1.00  0.00    -0.084 Cl
ATOM     15  C   UNL A   1      32.588  26.686  25.532  1.00  0.00     0.019 A 
ATOM     16  O   UNL A   1      31.797  24.959  24.035  1.00  0.00    -0.475 OA
ATOM     17  C   UNL A   1      33.486  25.732  26.172  1.00  0.00     0.025 C 
ATOM     18  C   UNL A   1      32.145  23.996  25.070  1.00  0.00     0.314 C 
BRANCH   9  19
ATOM     19  C   UNL A   1      30.722  29.537  22.891  1.00  0.00     0.301 C 
BRANCH  19  20
ATOM     20  N   UNL A   1      29.330  30.020  23.056  1.00  0.00    -0.327 N 
ATOM     21  C   UNL A   1      27.060  29.046  22.906  1.00  0.00     0.075 C 
ATOM     22  C   UNL A   1      28.339  29.422  22.145  1.00  0.00     0.181 C 
ATOM     23  C   UNL A   1      27.995  30.275  20.910  1.00  0.00     0.065 C 
ATOM     24  C   UNL A   1      27.738  31.738  21.242  1.00  0.00     0.012 C 
ATOM     25  C   UNL A   1      29.210  31.465  23.306  1.00  0.00     0.181 C 
ATOM     26  H   UNL A   1      29.036  29.620  23.948  1.00  0.00     0.348 HD
ATOM     27  C   UNL A   1      28.891  32.304  22.057  1.00  0.00     0.065 C 
ATOM     28  C   UNL A   1      28.203  31.750  24.428  1.00  0.00     0.075 C 
ENDBRANCH  19  20
ENDBRANCH   9  19
BRANCH  18  29
ATOM     29  C   UNL A   1      30.905  23.669  25.931  1.00  0.00     0.429 C 
ATOM     30  F   UNL A   1      30.425  22.439  25.626  1.00  0.00    -0.167 F 
ATOM     31  F   UNL A   1      31.186  23.659  27.256  1.00  0.00    -0.167 F 
ATOM     32  F   UNL A   1      29.893  24.551  25.758  1.00  0.00    -0.167 F 
ENDBRANCH  18  29
ENDBRANCH   5   8
ENDBRANCH   3   4
ENDBRANCH   2   3
ENDBRANCH   1   2
BRANCH   1  33
ATOM     33  C   UNL A   1      38.683  21.458  25.747  1.00  0.00     0.116 C 
BRANCH  33  34
ATOM     34  N   UNL A   1      39.440  20.213  25.748  1.00  0.00    -0.352 N 
ATOM     35  C   UNL A   1      40.763  20.041  26.091  1.00  0.00     0.251 C 
ATOM     36  H   UNL A   1      38.951  19.404  25.473  1.00  0.00     0.163 HD
ATOM     37  O   UNL A   1      41.302  18.943  25.994  1.00  0.00    -0.269 OA
BRANCH  35  38
ATOM     38  C   UNL A   1      41.526  21.229  26.520  1.00  0.00     0.039 A 
ATOM     39  C   UNL A   1      41.618  21.536  27.880  1.00  0.00     0.014 A 
ATOM     40  C   UNL A   1      42.007  22.112  25.552  1.00  0.00     0.014 A 
ATOM     41  C   UNL A   1      42.027  22.807  28.260  1.00  0.00     0.010 A 
ATOM     42  C   UNL A   1      42.490  23.360  25.945  1.00  0.00     0.010 A 
ATOM     43  C   UNL A   1      42.441  23.741  27.295  1.00  0.00    -0.014 A 
BRANCH  43  44
ATOM     44  C   UNL A   1      42.788  25.120  27.721  1.00  0.00     0.031 A 
ATOM     45  C   UNL A   1      44.187  25.651  27.555  1.00  0.00     0.074 A 
ATOM     46  C   UNL A   1      41.820  25.916  28.215  1.00  0.00     0.049 A 
ATOM     47  N   UNL A   1      44.653  26.838  27.847  1.00  0.00    -0.248 NA
ATOM     48  C   UNL A   1      45.198  24.737  26.996  1.00  0.00     0.031 C 
ATOM     49  C   UNL A   1      40.432  25.508  28.437  1.00  0.00     0.029 A 
ATOM     50  N   UNL A   1      41.851  27.230  28.603  1.00  0.00    -0.354 N 
ATOM     51  C   UNL A   1      46.011  26.799  27.559  1.00  0.00     0.074 A 
ATOM     52  C   UNL A   1      46.300  25.473  27.060  1.00  0.00     0.031 C 
ATOM     53  C   UNL A   1      39.733  26.562  28.880  1.00  0.00     0.029 A 
ATOM     54  C   UNL A   1      40.631  27.705  29.019  1.00  0.00     0.049 A 
ATOM     55  H   UNL A   1      42.666  27.780  28.585  1.00  0.00     0.167 HD
ATOM     56  C   UNL A   1      46.930  27.785  27.680  1.00  0.00     0.034 A 
ATOM     57  C   UNL A   1      40.270  28.923  29.467  1.00  0.00     0.034 A 
ATOM     58  C   UNL A   1      46.630  29.126  28.104  1.00  0.00     0.049 A 
ATOM     59  C   UNL A   1      41.300  30.008  29.555  1.00  0.00     0.074 A 
ATOM     60  C   UNL A   1      47.488  30.210  28.191  1.00  0.00     0.029 A 
ATOM     61  N   UNL A   1      45.380  29.570  28.502  1.00  0.00    -0.354 N 
ATOM     62  N   UNL A   1      42.560  29.972  29.199  1.00  0.00    -0.248 NA
ATOM     63  C   UNL A   1      40.860  31.303  30.096  1.00  0.00     0.031 C 
ATOM     64  C   UNL A   1      46.754  31.311  28.642  1.00  0.00     0.029 A 
ATOM     65  C   UNL A   1      45.442  30.910  28.839  1.00  0.00     0.049 A 
ATOM     66  H   UNL A   1      44.569  29.014  28.540  1.00  0.00     0.167 HD
ATOM     67  C   UNL A   1      43.067  31.236  29.471  1.00  0.00     0.074 A 
ATOM     68  C   UNL A   1      41.971  32.025  29.997  1.00  0.00     0.031 C 
ATOM     69  C   UNL A   1      44.334  31.692  29.322  1.00  0.00     0.034 A 
BRANCH  56  70
ATOM     70  C   UNL A   1      48.351  27.480  27.296  1.00  0.00     0.023 A 
ATOM     71  C   UNL A   1      49.215  26.914  28.253  1.00  0.00     0.012 A 
ATOM     72  C   UNL A   1      48.799  27.660  25.973  1.00  0.00     0.148 A 
ATOM     73  C   UNL A   1      50.510  26.537  27.901  1.00  0.00     0.002 A 
ATOM     74  C   UNL A   1      50.083  27.259  25.623  1.00  0.00     0.091 A 
ATOM     75  F   UNL A   1      47.963  28.220  25.087  1.00  0.00    -0.205 F 
ATOM     76  C   UNL A   1      50.940  26.700  26.586  1.00  0.00     0.022 A 
BRANCH  74  77
ATOM     77  S   UNL A   1      50.716  27.381  23.946  1.00  0.00     0.127 S 
ATOM     78  O   UNL A   1      50.915  28.823  23.811  1.00  0.00    -0.237 OA
ATOM     79  O   UNL A   1      51.951  26.600  24.025  1.00  0.00    -0.237 OA
ATOM     80  O   UNL A   1      49.689  26.810  23.087  1.00  0.00    -0.744 OA
ENDBRANCH  74  77
ENDBRANCH  56  70
BRANCH  57  81
ATOM     81  C   UNL A   1      38.844  29.166  29.811  1.00  0.00     0.023 A 
ATOM     82  C   UNL A   1      38.394  28.883  31.114  1.00  0.00     0.012 A 
ATOM     83  C   UNL A   1      37.971  29.781  28.893  1.00  0.00     0.148 A 
ATOM     84  C   UNL A   1      37.097  29.215  31.500  1.00  0.00     0.002 A 
ATOM     85  C   UNL A   1      36.696  30.151  29.299  1.00  0.00     0.091 A 
ATOM     86  F   UNL A   1      38.425  30.032  27.657  1.00  0.00    -0.205 F 
ATOM     87  C   UNL A   1      36.253  29.860  30.599  1.00  0.00     0.022 A 
BRANCH  85  88
ATOM     88  S   UNL A   1      35.587  31.103  28.255  1.00  0.00     0.127 S 
ATOM     89  O   UNL A   1      36.465  32.172  27.784  1.00  0.00    -0.237 OA
ATOM     90  O   UNL A   1      35.215  30.118  27.238  1.00  0.00    -0.237 OA
ATOM     91  O   UNL A   1      34.491  31.523  29.117  1.00  0.00    -0.744 OA
ENDBRANCH  85  88
ENDBRANCH  57  81
BRANCH  69  92
ATOM     92  C   UNL A   1      44.625  33.104  29.742  1.00  0.00     0.023 A 
ATOM     93  C   UNL A   1      45.126  33.339  31.037  1.00  0.00     0.012 A 
ATOM     94  C   UNL A   1      44.518  34.171  28.830  1.00  0.00     0.148 A 
ATOM     95  C   UNL A   1      45.512  34.622  31.422  1.00  0.00     0.002 A 
ATOM     96  C   UNL A   1      44.933  35.442  29.211  1.00  0.00     0.091 A 
ATOM     97  F   UNL A   1      44.027  33.919  27.608  1.00  0.00    -0.205 F 
ATOM     98  C   UNL A   1      45.427  35.669  30.507  1.00  0.00     0.022 A 
BRANCH  96  99
ATOM     99  S   UNL A   1      44.927  36.839  28.082  1.00  0.00     0.127 S 
ATOM    100  O   UNL A   1      45.440  37.911  28.935  1.00  0.00    -0.237 OA
ATOM    101  O   UNL A   1      45.849  36.396  27.037  1.00  0.00    -0.237 OA
ATOM    102  O   UNL A   1      43.547  36.998  27.645  1.00  0.00    -0.744 OA
ENDBRANCH  96  99
ENDBRANCH  69  92
ENDBRANCH  43  44
ENDBRANCH  35  38
ENDBRANCH  33  34
ENDBRANCH   1  33
TORSDOF 17
ENDMDL
MODEL 3
REMARK VINA RESULT:     -12.9      1.794      2.478
REMARK SMILES C[C@@H]1CCC[C@H](C)[N@H+]1Cc1cc2c(cc1Cl)C=C(C(=O)NCCCCNC(=O)c1ccc(-c3c4nc(c(-c5cccc(S(=O)(=O)[O-])c5F)c5ccc([nH]5)c(-c5cccc(S(=O)(=O)[O-])c5F)c5nc(c(-c6cccc(S(=O)(=O)[O-])c6F)c6ccc3[nH]6)C=C5)C=C4)cc1)[C@@H](C(F)(F)F)O2
REMARK SMILES IDX 24 1 23 2 22 3 21 4 19 5 20 6 18 8 10 9 11 10 15 11 12 12
REMARK SMILES IDX 14 13 16 14 13 15 97 16 17 17 92 18 9 19 8 20 7 21 6 22 5 23
REMARK SMILES IDX 4 24 2 25 3 27 1 28 93 29 94 30 95 31 96 32 25 33 26 34
REMARK SMILES IDX 27 35 28 37 29 38 30 39 91 40 31 41 90 42 32 43 33 44 34 45
REMARK SMILES IDX 84 46 35 47 89 48 83 49 85 50 36 51 88 52 82 53 81 54 37 56
REMARK SMILES IDX 69 57 49 58 68 59 50 60 53 61 67 62 86 63 51 64 52 65 66 67
REMARK SMILES IDX 87 68 54 69 38 70 39 71 47 72 40 73 42 74 48 75 41 76 43 77
REMARK SMILES IDX 44 78 45 79 46 80 70 81 71 82 79 83 72 84 74 85 80 86 73 87
REMARK SMILES IDX 75 88 76 89 77 90 78 91 55 92 56 93 64 94 57 95 59 96 65 97
REMARK SMILES IDX 58 98 60 99 61 100 62 101 63 102
REMARK H PARENT 21 7 8 26 26 36 85 55 53 66
REMARK Flexibility Score: inf
ROOT
ATOM      1  C   UNL A   1      35.670  21.939  25.672  1.00  0.00     0.023 C 
ENDROOT
BRANCH   1   2
ATOM      2  C   UNL A   1      34.873  20.670  25.364  1.00  0.00     0.023 C 
BRANCH   2   3
ATOM      3  C   UNL A   1      33.361  20.875  25.312  1.00  0.00     0.116 C 
BRANCH   3   4
ATOM      4  N   UNL A   1      32.845  20.760  23.960  1.00  0.00    -0.352 N 
ATOM      5  C   UNL A   1      32.284  21.594  23.054  1.00  0.00     0.251 C 
ATOM      6  O   UNL A   1      32.040  21.095  21.952  1.00  0.00    -0.270 OA
ATOM      7  H   UNL A   1      32.924  19.842  23.614  1.00  0.00     0.163 HD
BRANCH   5   8
ATOM      8  C   UNL A   1      31.924  23.017  23.308  1.00  0.00     0.067 C 
ATOM      9  C   UNL A   1      31.613  28.002  22.616  1.00  0.00     0.029 A 
ATOM     10  C   UNL A   1      30.690  26.988  22.930  1.00  0.00     0.058 A 
ATOM     11  C   UNL A   1      32.981  27.685  22.669  1.00  0.00     0.050 A 
ATOM     12  C   UNL A   1      31.116  25.676  23.108  1.00  0.00     0.128 A 
ATOM     13  C   UNL A   1      33.402  26.357  22.816  1.00  0.00     0.033 A 
ATOM     14  Cl  UNL A   1      34.220  28.882  22.535  1.00  0.00    -0.084 Cl
ATOM     15  C   UNL A   1      32.462  25.342  22.981  1.00  0.00     0.019 A 
ATOM     16  O   UNL A   1      30.145  24.736  23.323  1.00  0.00    -0.475 OA
ATOM     17  C   UNL A   1      32.830  23.933  22.913  1.00  0.00     0.025 C 
ATOM     18  C   UNL A   1      30.627  23.490  23.902  1.00  0.00     0.314 C 
BRANCH   9  19
ATOM     19  C   UNL A   1      31.074  29.339  22.150  1.00  0.00     0.301 C 
BRANCH  19  20
ATOM     20  N   UNL A   1      29.797  29.783  22.757  1.00  0.00    -0.327 N 
ATOM     21  C   UNL A   1      27.571  28.791  23.189  1.00  0.00     0.075 C 
ATOM     22  C   UNL A   1      28.577  29.254  22.124  1.00  0.00     0.181 C 
ATOM     23  C   UNL A   1      27.897  30.208  21.126  1.00  0.00     0.065 C 
ATOM     24  C   UNL A   1      27.764  31.631  21.649  1.00  0.00     0.012 C 
ATOM     25  C   UNL A   1      29.771  31.198  23.160  1.00  0.00     0.181 C 
ATOM     26  H   UNL A   1      29.772  29.300  23.656  1.00  0.00     0.348 HD
ATOM     27  C   UNL A   1      29.111  32.140  22.140  1.00  0.00     0.065 C 
ATOM     28  C   UNL A   1      29.139  31.365  24.549  1.00  0.00     0.075 C 
ENDBRANCH  19  20
ENDBRANCH   9  19
BRANCH  18  29
ATOM     29  C   UNL A   1      30.711  23.616  25.440  1.00  0.00     0.429 C 
ATOM     30  F   UNL A   1      30.397  22.436  26.031  1.00  0.00    -0.167 F 
ATOM     31  F   UNL A   1      31.955  23.943  25.862  1.00  0.00    -0.167 F 
ATOM     32  F   UNL A   1      29.874  24.553  25.940  1.00  0.00    -0.167 F 
ENDBRANCH  18  29
ENDBRANCH   5   8
ENDBRANCH   3   4
ENDBRANCH   2   3
ENDBRANCH   1   2
BRANCH   1  33
ATOM     33  C   UNL A   1      37.005  22.064  24.943  1.00  0.00     0.116 C 
BRANCH  33  34
ATOM     34  N   UNL A   1      37.917  20.948  25.161  1.00  0.00    -0.352 N 
ATOM     35  C   UNL A   1      39.064  20.944  25.923  1.00  0.00     0.251 C 
ATOM     36  H   UNL A   1      37.687  20.103  24.712  1.00  0.00     0.163 HD
ATOM     37  O   UNL A   1      39.780  19.950  25.979  1.00  0.00    -0.269 OA
BRANCH  35  38
ATOM     38  C   UNL A   1      39.435  22.191  26.620  1.00  0.00     0.039 A 
ATOM     39  C   UNL A   1      38.844  23.397  26.238  1.00  0.00     0.014 A 
ATOM     40  C   UNL A   1      40.485  22.167  27.540  1.00  0.00     0.014 A 
ATOM     41  C   UNL A   1      39.424  24.593  26.640  1.00  0.00     0.010 A 
ATOM     42  C   UNL A   1      41.017  23.372  28.001  1.00  0.00     0.010 A 
ATOM     43  C   UNL A   1      40.534  24.592  27.503  1.00  0.00    -0.014 A 
BRANCH  43  44
ATOM     44  C   UNL A   1      41.189  25.879  27.845  1.00  0.00     0.031 A 
ATOM     45  C   UNL A   1      42.572  26.199  27.345  1.00  0.00     0.074 A 
ATOM     46  C   UNL A   1      40.508  26.787  28.571  1.00  0.00     0.049 A 
ATOM     47  N   UNL A   1      43.278  27.286  27.526  1.00  0.00    -0.248 NA
ATOM     48  C   UNL A   1      43.259  25.172  26.545  1.00  0.00     0.031 C 
ATOM     49  C   UNL A   1      39.168  26.584  29.123  1.00  0.00     0.029 A 
ATOM     50  N   UNL A   1      40.840  28.061  28.953  1.00  0.00    -0.354 N 
ATOM     51  C   UNL A   1      44.502  27.056  26.912  1.00  0.00     0.074 A 
ATOM     52  C   UNL A   1      44.446  25.728  26.343  1.00  0.00     0.031 C 
ATOM     53  C   UNL A   1      38.773  27.709  29.737  1.00  0.00     0.029 A 
ATOM     54  C   UNL A   1      39.849  28.694  29.662  1.00  0.00     0.049 A 
ATOM     55  H   UNL A   1      41.704  28.481  28.740  1.00  0.00     0.167 HD
ATOM     56  C   UNL A   1      45.568  27.884  26.813  1.00  0.00     0.034 A 
ATOM     57  C   UNL A   1      39.805  29.929  30.199  1.00  0.00     0.034 A 
ATOM     58  C   UNL A   1      45.596  29.232  27.312  1.00  0.00     0.049 A 
ATOM     59  C   UNL A   1      40.986  30.840  30.042  1.00  0.00     0.074 A 
ATOM     60  C   UNL A   1      46.612  30.167  27.197  1.00  0.00     0.029 A 
ATOM     61  N   UNL A   1      44.567  29.840  28.010  1.00  0.00    -0.354 N 
ATOM     62  N   UNL A   1      42.100  30.631  29.386  1.00  0.00    -0.248 NA
ATOM     63  C   UNL A   1      40.902  32.158  30.688  1.00  0.00     0.031 C 
ATOM     64  C   UNL A   1      46.193  31.343  27.826  1.00  0.00     0.029 A 
ATOM     65  C   UNL A   1      44.921  31.137  28.337  1.00  0.00     0.049 A 
ATOM     66  H   UNL A   1      43.711  29.412  28.242  1.00  0.00     0.167 HD
ATOM     67  C   UNL A   1      42.852  31.788  29.538  1.00  0.00     0.074 A 
ATOM     68  C   UNL A   1      42.055  32.707  30.326  1.00  0.00     0.031 C 
ATOM     69  C   UNL A   1      44.102  32.053  29.086  1.00  0.00     0.034 A 
BRANCH  56  70
ATOM     70  C   UNL A   1      46.786  27.386  26.088  1.00  0.00     0.023 A 
ATOM     71  C   UNL A   1      46.939  27.678  24.719  1.00  0.00     0.012 A 
ATOM     72  C   UNL A   1      47.817  26.718  26.777  1.00  0.00     0.148 A 
ATOM     73  C   UNL A   1      48.100  27.307  24.042  1.00  0.00     0.002 A 
ATOM     74  C   UNL A   1      48.982  26.372  26.101  1.00  0.00     0.091 A 
ATOM     75  F   UNL A   1      47.638  26.434  28.075  1.00  0.00    -0.205 F 
ATOM     76  C   UNL A   1      49.124  26.664  24.734  1.00  0.00     0.022 A 
BRANCH  74  77
ATOM     77  S   UNL A   1      50.379  25.586  26.913  1.00  0.00     0.127 S 
ATOM     78  O   UNL A   1      51.305  25.407  25.796  1.00  0.00    -0.237 OA
ATOM     79  O   UNL A   1      50.785  26.604  27.883  1.00  0.00    -0.237 OA
ATOM     80  O   UNL A   1      49.863  24.358  27.500  1.00  0.00    -0.744 OA
ENDBRANCH  74  77
ENDBRANCH  56  70
BRANCH  57  81
ATOM     81  C   UNL A   1      38.563  30.368  30.886  1.00  0.00     0.023 A 
ATOM     82  C   UNL A   1      38.464  30.230  32.282  1.00  0.00     0.012 A 
ATOM     83  C   UNL A   1      37.536  31.024  30.179  1.00  0.00     0.148 A 
ATOM     84  C   UNL A   1      37.365  30.743  32.967  1.00  0.00     0.002 A 
ATOM     85  C   UNL A   1      36.466  31.574  30.873  1.00  0.00     0.091 A 
ATOM     86  F   UNL A   1      37.653  31.135  28.848  1.00  0.00    -0.205 F 
ATOM     87  C   UNL A   1      36.374  31.427  32.267  1.00  0.00     0.022 A 
BRANCH  85  88
ATOM     88  S   UNL A   1      35.214  32.585  30.076  1.00  0.00     0.127 S 
ATOM     89  O   UNL A   1      34.297  32.851  31.181  1.00  0.00    -0.237 OA
ATOM     90  O   UNL A   1      35.998  33.738  29.634  1.00  0.00    -0.237 OA
ATOM     91  O   UNL A   1      34.676  31.771  28.994  1.00  0.00    -0.744 OA
ENDBRANCH  85  88
ENDBRANCH  57  81
BRANCH  69  92
ATOM     92  C   UNL A   1      44.706  33.382  29.437  1.00  0.00     0.023 A 
ATOM     93  C   UNL A   1      45.568  33.466  30.547  1.00  0.00     0.012 A 
ATOM     94  C   UNL A   1      44.521  34.506  28.610  1.00  0.00     0.148 A 
ATOM     95  C   UNL A   1      46.234  34.656  30.835  1.00  0.00     0.002 A 
ATOM     96  C   UNL A   1      45.211  35.681  28.886  1.00  0.00     0.091 A 
ATOM     97  F   UNL A   1      43.686  34.400  27.566  1.00  0.00    -0.205 F 
ATOM     98  C   UNL A   1      46.065  35.757  30.000  1.00  0.00     0.022 A 
BRANCH  96  99
ATOM     99  S   UNL A   1      45.114  37.130  27.829  1.00  0.00     0.127 S 
ATOM    100  O   UNL A   1      43.669  37.336  27.740  1.00  0.00    -0.237 OA
ATOM    101  O   UNL A   1      45.827  38.135  28.616  1.00  0.00    -0.237 OA
ATOM    102  O   UNL A   1      45.768  36.762  26.581  1.00  0.00    -0.744 OA
ENDBRANCH  96  99
ENDBRANCH  69  92
ENDBRANCH  43  44
ENDBRANCH  35  38
ENDBRANCH  33  34
ENDBRANCH   1  33
TORSDOF 17
ENDMDL
