MODEL 1
REMARK VINA RESULT:     -12.4      0.000      0.000
REMARK SMILES CC[NH+]1CCC2(CC1)OC[C@H](C(=O)NCCCCNC(=O)c1ccc(-c3c4nc(c(-c5cccc(S(=O)(=O)[O-])c5F)c5ccc([nH]5)c(-c5cccc(S(=O)(=O)[O-])c5F)c5nc(c(-c6cccc(S(=O)(=O)[O-])c6F)c6ccc3[nH]6)C=C5)C=C4)cc1)N2C(=O)c1ccccc1
REMARK SMILES IDX 17 1 16 2 15 3 14 4 12 5 13 6 11 8 3 9 4 10 8 11 5 13 7 14
REMARK SMILES IDX 6 15 9 16 85 17 10 18 2 19 1 20 86 21 87 22 88 23 89 24
REMARK SMILES IDX 93 25 90 26 92 27 91 28 18 29 19 30 20 31 21 33 22 34 23 35
REMARK SMILES IDX 84 36 24 37 83 38 25 39 26 40 27 41 77 42 28 43 82 44 76 45
REMARK SMILES IDX 78 46 29 47 81 48 75 49 74 50 30 52 62 53 42 54 61 55 43 56
REMARK SMILES IDX 46 57 60 58 79 59 44 60 45 61 59 63 80 64 47 65 31 66 32 67
REMARK SMILES IDX 40 68 33 69 35 70 41 71 34 72 36 73 37 74 38 75 39 76 63 77
REMARK SMILES IDX 64 78 72 79 65 80 67 81 73 82 66 83 68 84 69 85 70 86 71 87
REMARK SMILES IDX 48 88 49 89 57 90 50 91 52 92 58 93 51 94 53 95 54 96 55 97
REMARK SMILES IDX 56 98
REMARK H PARENT 14 7 3 12 19 32 78 51 46 62
REMARK Flexibility Score: inf
ROOT
ATOM      1  C   UNL A   1      31.623  29.069  24.972  1.00  0.00     0.023 C 
ENDROOT
BRANCH   1   2
ATOM      2  C   UNL A   1      32.052  28.990  23.506  1.00  0.00     0.023 C 
BRANCH   2   3
ATOM      3  C   UNL A   1      31.038  28.328  22.575  1.00  0.00     0.116 C 
BRANCH   3   4
ATOM      4  N   UNL A   1      31.591  27.150  21.935  1.00  0.00    -0.354 N 
ATOM      5  C   UNL A   1      32.007  25.970  22.472  1.00  0.00     0.245 C 
ATOM      6  O   UNL A   1      32.582  25.188  21.708  1.00  0.00    -0.273 OA
ATOM      7  H   UNL A   1      31.678  27.214  20.957  1.00  0.00     0.163 HD
BRANCH   5   8
ATOM      8  C   UNL A   1      31.735  25.632  23.950  1.00  0.00     0.203 C 
ATOM      9  N   UNL A   1      33.082  20.618  24.693  1.00  0.00    -0.335 N 
ATOM     10  C   UNL A   1      33.205  21.351  23.438  1.00  0.00     0.267 C 
ATOM     11  C   UNL A   1      32.581  21.376  25.835  1.00  0.00     0.267 C 
ATOM     12  H   UNL A   1      34.057  20.462  24.947  1.00  0.00     0.348 HD
ATOM     13  C   UNL A   1      32.097  22.334  23.137  1.00  0.00     0.120 C 
ATOM     14  C   UNL A   1      31.529  22.441  25.570  1.00  0.00     0.120 C 
ATOM     15  C   UNL A   1      31.747  23.263  24.303  1.00  0.00     0.155 C 
ATOM     16  O   UNL A   1      30.390  23.720  23.964  1.00  0.00    -0.352 OA
ATOM     17  N   UNL A   1      32.530  24.516  24.436  1.00  0.00    -0.295 N 
ATOM     18  C   UNL A   1      30.322  25.138  24.097  1.00  0.00     0.198 C 
BRANCH   9  19
ATOM     19  C   UNL A   1      32.516  19.281  24.561  1.00  0.00     0.258 C 
ATOM     20  C   UNL A   1      33.621  18.266  24.274  1.00  0.00     0.071 C 
ENDBRANCH   9  19
BRANCH  17  21
ATOM     21  C   UNL A   1      33.773  24.869  24.948  1.00  0.00     0.256 C 
ATOM     22  O   UNL A   1      33.927  25.873  25.649  1.00  0.00    -0.269 OA
BRANCH  21  23
ATOM     23  C   UNL A   1      34.977  24.048  24.799  1.00  0.00     0.040 A 
ATOM     24  C   UNL A   1      35.454  23.767  23.512  1.00  0.00     0.014 A 
ATOM     25  C   UNL A   1      35.542  23.412  25.904  1.00  0.00     0.014 A 
ATOM     26  C   UNL A   1      36.600  22.982  23.353  1.00  0.00     0.001 A 
ATOM     27  C   UNL A   1      36.706  22.657  25.746  1.00  0.00     0.001 A 
ATOM     28  C   UNL A   1      37.246  22.461  24.474  1.00  0.00     0.000 A 
ENDBRANCH  21  23
ENDBRANCH  17  21
ENDBRANCH   5   8
ENDBRANCH   3   4
ENDBRANCH   2   3
ENDBRANCH   1   2
BRANCH   1  29
ATOM     29  C   UNL A   1      32.680  29.600  25.935  1.00  0.00     0.116 C 
BRANCH  29  30
ATOM     30  N   UNL A   1      32.472  30.996  26.286  1.00  0.00    -0.352 N 
ATOM     31  C   UNL A   1      33.196  31.794  27.143  1.00  0.00     0.251 C 
ATOM     32  H   UNL A   1      31.708  31.433  25.847  1.00  0.00     0.163 HD
ATOM     33  O   UNL A   1      32.796  32.915  27.421  1.00  0.00    -0.269 OA
BRANCH  31  34
ATOM     34  C   UNL A   1      34.441  31.270  27.748  1.00  0.00     0.039 A 
ATOM     35  C   UNL A   1      35.492  32.157  27.993  1.00  0.00     0.014 A 
ATOM     36  C   UNL A   1      34.563  29.922  28.090  1.00  0.00     0.014 A 
ATOM     37  C   UNL A   1      36.642  31.703  28.642  1.00  0.00     0.010 A 
ATOM     38  C   UNL A   1      35.677  29.488  28.804  1.00  0.00     0.010 A 
ATOM     39  C   UNL A   1      36.730  30.373  29.086  1.00  0.00    -0.014 A 
BRANCH  39  40
ATOM     40  C   UNL A   1      37.905  29.895  29.859  1.00  0.00     0.031 A 
ATOM     41  C   UNL A   1      38.162  30.414  31.249  1.00  0.00     0.074 A 
ATOM     42  C   UNL A   1      38.788  29.057  29.279  1.00  0.00     0.049 A 
ATOM     43  N   UNL A   1      39.163  30.159  32.052  1.00  0.00    -0.248 NA
ATOM     44  C   UNL A   1      37.182  31.366  31.802  1.00  0.00     0.031 C 
ATOM     45  C   UNL A   1      38.693  28.542  27.911  1.00  0.00     0.029 A 
ATOM     46  N   UNL A   1      39.955  28.512  29.756  1.00  0.00    -0.354 N 
ATOM     47  C   UNL A   1      38.955  30.941  33.181  1.00  0.00     0.074 A 
ATOM     48  C   UNL A   1      37.748  31.703  32.951  1.00  0.00     0.031 C 
ATOM     49  C   UNL A   1      39.753  27.756  27.662  1.00  0.00     0.029 A 
ATOM     50  C   UNL A   1      40.620  27.737  28.834  1.00  0.00     0.049 A 
ATOM     51  H   UNL A   1      40.284  28.663  30.672  1.00  0.00     0.167 HD
ATOM     52  C   UNL A   1      39.687  30.999  34.319  1.00  0.00     0.034 A 
ATOM     53  C   UNL A   1      41.802  27.093  28.919  1.00  0.00     0.034 A 
ATOM     54  C   UNL A   1      40.862  30.208  34.564  1.00  0.00     0.049 A 
ATOM     55  C   UNL A   1      42.575  27.152  30.210  1.00  0.00     0.074 A 
ATOM     56  C   UNL A   1      41.619  30.129  35.719  1.00  0.00     0.029 A 
ATOM     57  N   UNL A   1      41.459  29.368  33.637  1.00  0.00    -0.354 N 
ATOM     58  N   UNL A   1      42.273  27.768  31.326  1.00  0.00    -0.248 NA
ATOM     59  C   UNL A   1      43.834  26.393  30.266  1.00  0.00     0.031 C 
ATOM     60  C   UNL A   1      42.692  29.264  35.482  1.00  0.00     0.029 A 
ATOM     61  C   UNL A   1      42.581  28.776  34.190  1.00  0.00     0.049 A 
ATOM     62  H   UNL A   1      41.133  29.214  32.721  1.00  0.00     0.167 HD
ATOM     63  C   UNL A   1      43.280  27.439  32.227  1.00  0.00     0.074 A 
ATOM     64  C   UNL A   1      44.189  26.552  31.533  1.00  0.00     0.031 C 
ATOM     65  C   UNL A   1      43.445  27.847  33.509  1.00  0.00     0.034 A 
BRANCH  52  66
ATOM     66  C   UNL A   1      39.216  31.918  35.416  1.00  0.00     0.023 A 
ATOM     67  C   UNL A   1      38.322  31.436  36.393  1.00  0.00     0.012 A 
ATOM     68  C   UNL A   1      39.726  33.227  35.531  1.00  0.00     0.148 A 
ATOM     69  C   UNL A   1      37.920  32.250  37.451  1.00  0.00     0.002 A 
ATOM     70  C   UNL A   1      39.357  34.016  36.614  1.00  0.00     0.091 A 
ATOM     71  F   UNL A   1      40.562  33.672  34.582  1.00  0.00    -0.205 F 
ATOM     72  C   UNL A   1      38.447  33.533  37.568  1.00  0.00     0.022 A 
BRANCH  70  73
ATOM     73  S   UNL A   1      40.041  35.651  36.903  1.00  0.00     0.127 S 
ATOM     74  O   UNL A   1      39.405  36.018  38.168  1.00  0.00    -0.237 OA
ATOM     75  O   UNL A   1      41.474  35.370  37.001  1.00  0.00    -0.237 OA
ATOM     76  O   UNL A   1      39.655  36.460  35.756  1.00  0.00    -0.744 OA
ENDBRANCH  70  73
ENDBRANCH  52  66
BRANCH  53  77
ATOM     77  C   UNL A   1      42.309  26.295  27.765  1.00  0.00     0.023 A 
ATOM     78  C   UNL A   1      43.204  26.889  26.854  1.00  0.00     0.012 A 
ATOM     79  C   UNL A   1      41.912  24.960  27.566  1.00  0.00     0.148 A 
ATOM     80  C   UNL A   1      43.658  26.183  25.739  1.00  0.00     0.002 A 
ATOM     81  C   UNL A   1      42.415  24.243  26.487  1.00  0.00     0.091 A 
ATOM     82  F   UNL A   1      41.051  24.416  28.438  1.00  0.00    -0.205 F 
ATOM     83  C   UNL A   1      43.270  24.857  25.560  1.00  0.00     0.022 A 
BRANCH  81  84
ATOM     84  S   UNL A   1      42.071  22.496  26.251  1.00  0.00     0.127 S 
ATOM     85  O   UNL A   1      42.777  22.217  25.004  1.00  0.00    -0.237 OA
ATOM     86  O   UNL A   1      42.675  21.904  27.447  1.00  0.00    -0.237 OA
ATOM     87  O   UNL A   1      40.619  22.386  26.198  1.00  0.00    -0.744 OA
ENDBRANCH  81  84
ENDBRANCH  53  77
BRANCH  65  88
ATOM     88  C   UNL A   1      44.623  27.301  34.274  1.00  0.00     0.023 A 
ATOM     89  C   UNL A   1      45.850  27.992  34.268  1.00  0.00     0.012 A 
ATOM     90  C   UNL A   1      44.486  26.139  35.060  1.00  0.00     0.148 A 
ATOM     91  C   UNL A   1      46.935  27.515  35.004  1.00  0.00     0.002 A 
ATOM     92  C   UNL A   1      45.554  25.700  35.832  1.00  0.00     0.091 A 
ATOM     93  F   UNL A   1      43.316  25.486  35.039  1.00  0.00    -0.205 F 
ATOM     94  C   UNL A   1      46.783  26.378  35.795  1.00  0.00     0.022 A 
BRANCH  92  95
ATOM     95  S   UNL A   1      45.421  24.306  36.958  1.00  0.00     0.127 S 
ATOM     96  O   UNL A   1      46.783  24.213  37.480  1.00  0.00    -0.237 OA
ATOM     97  O   UNL A   1      44.429  24.782  37.923  1.00  0.00    -0.237 OA
ATOM     98  O   UNL A   1      44.983  23.176  36.150  1.00  0.00    -0.744 OA
ENDBRANCH  92  95
ENDBRANCH  65  88
ENDBRANCH  39  40
ENDBRANCH  31  34
ENDBRANCH  29  30
ENDBRANCH   1  29
TORSDOF 17
ENDMDL
MODEL 2
REMARK VINA RESULT:     -12.2      4.866     10.077
REMARK SMILES CC[NH+]1CCC2(CC1)OC[C@H](C(=O)NCCCCNC(=O)c1ccc(-c3c4nc(c(-c5cccc(S(=O)(=O)[O-])c5F)c5ccc([nH]5)c(-c5cccc(S(=O)(=O)[O-])c5F)c5nc(c(-c6cccc(S(=O)(=O)[O-])c6F)c6ccc3[nH]6)C=C5)C=C4)cc1)N2C(=O)c1ccccc1
REMARK SMILES IDX 17 1 16 2 15 3 14 4 12 5 13 6 11 8 3 9 4 10 8 11 5 13 7 14
REMARK SMILES IDX 6 15 9 16 85 17 10 18 2 19 1 20 86 21 87 22 88 23 89 24
REMARK SMILES IDX 93 25 90 26 92 27 91 28 18 29 19 30 20 31 21 33 22 34 23 35
REMARK SMILES IDX 84 36 24 37 83 38 25 39 26 40 27 41 77 42 28 43 82 44 76 45
REMARK SMILES IDX 78 46 29 47 81 48 75 49 74 50 30 52 62 53 42 54 61 55 43 56
REMARK SMILES IDX 46 57 60 58 79 59 44 60 45 61 59 63 80 64 47 65 31 66 32 67
REMARK SMILES IDX 40 68 33 69 35 70 41 71 34 72 36 73 37 74 38 75 39 76 63 77
REMARK SMILES IDX 64 78 72 79 65 80 67 81 73 82 66 83 68 84 69 85 70 86 71 87
REMARK SMILES IDX 48 88 49 89 57 90 50 91 52 92 58 93 51 94 53 95 54 96 55 97
REMARK SMILES IDX 56 98
REMARK H PARENT 14 7 3 12 19 32 78 51 46 62
REMARK Flexibility Score: inf
ROOT
ATOM      1  C   UNL A   1      36.423  21.635  24.507  1.00  0.00     0.023 C 
ENDROOT
BRANCH   1   2
ATOM      2  C   UNL A   1      35.112  20.968  24.927  1.00  0.00     0.023 C 
BRANCH   2   3
ATOM      3  C   UNL A   1      34.251  21.789  25.885  1.00  0.00     0.116 C 
BRANCH   3   4
ATOM      4  N   UNL A   1      32.923  22.015  25.349  1.00  0.00    -0.354 N 
ATOM      5  C   UNL A   1      32.463  22.991  24.518  1.00  0.00     0.245 C 
ATOM      6  O   UNL A   1      31.242  23.034  24.340  1.00  0.00    -0.273 OA
ATOM      7  H   UNL A   1      32.246  21.357  25.629  1.00  0.00     0.163 HD
BRANCH   5   8
ATOM      8  C   UNL A   1      33.435  23.960  23.820  1.00  0.00     0.203 C 
ATOM      9  N   UNL A   1      30.967  28.557  23.288  1.00  0.00    -0.335 N 
ATOM     10  C   UNL A   1      30.413  27.367  23.924  1.00  0.00     0.267 C 
ATOM     11  C   UNL A   1      32.341  28.450  22.807  1.00  0.00     0.267 C 
ATOM     12  H   UNL A   1      31.062  29.197  24.077  1.00  0.00     0.348 HD
ATOM     13  C   UNL A   1      30.784  26.047  23.288  1.00  0.00     0.120 C 
ATOM     14  C   UNL A   1      32.788  27.112  22.240  1.00  0.00     0.120 C 
ATOM     15  C   UNL A   1      32.278  25.888  22.994  1.00  0.00     0.155 C 
ATOM     16  O   UNL A   1      32.302  24.831  21.970  1.00  0.00    -0.352 OA
ATOM     17  N   UNL A   1      33.135  25.358  24.083  1.00  0.00    -0.295 N 
ATOM     18  C   UNL A   1      33.270  23.847  22.329  1.00  0.00     0.198 C 
BRANCH   9  19
ATOM     19  C   UNL A   1      30.057  29.233  22.373  1.00  0.00     0.258 C 
ATOM     20  C   UNL A   1      28.609  29.016  22.809  1.00  0.00     0.071 C 
ENDBRANCH   9  19
BRANCH  17  21
ATOM     21  C   UNL A   1      33.741  25.877  25.222  1.00  0.00     0.256 C 
ATOM     22  O   UNL A   1      34.791  25.409  25.671  1.00  0.00    -0.269 OA
BRANCH  21  23
ATOM     23  C   UNL A   1      33.265  27.071  25.923  1.00  0.00     0.040 A 
ATOM     24  C   UNL A   1      32.094  26.989  26.687  1.00  0.00     0.014 A 
ATOM     25  C   UNL A   1      33.865  28.310  25.702  1.00  0.00     0.014 A 
ATOM     26  C   UNL A   1      31.624  28.120  27.361  1.00  0.00     0.001 A 
ATOM     27  C   UNL A   1      33.415  29.431  26.403  1.00  0.00     0.001 A 
ATOM     28  C   UNL A   1      32.309  29.331  27.248  1.00  0.00     0.000 A 
ENDBRANCH  21  23
ENDBRANCH  17  21
ENDBRANCH   5   8
ENDBRANCH   3   4
ENDBRANCH   2   3
ENDBRANCH   1   2
BRANCH   1  29
ATOM     29  C   UNL A   1      37.308  22.114  25.652  1.00  0.00     0.116 C 
BRANCH  29  30
ATOM     30  N   UNL A   1      38.359  21.165  25.987  1.00  0.00    -0.352 N 
ATOM     31  C   UNL A   1      39.614  21.403  26.500  1.00  0.00     0.251 C 
ATOM     32  H   UNL A   1      38.141  20.219  25.827  1.00  0.00     0.163 HD
ATOM     33  O   UNL A   1      40.419  20.489  26.597  1.00  0.00    -0.269 OA
BRANCH  31  34
ATOM     34  C   UNL A   1      39.988  22.777  26.902  1.00  0.00     0.039 A 
ATOM     35  C   UNL A   1      40.859  22.947  27.979  1.00  0.00     0.014 A 
ATOM     36  C   UNL A   1      39.501  23.887  26.208  1.00  0.00     0.014 A 
ATOM     37  C   UNL A   1      41.294  24.230  28.321  1.00  0.00     0.010 A 
ATOM     38  C   UNL A   1      39.993  25.156  26.501  1.00  0.00     0.010 A 
ATOM     39  C   UNL A   1      40.893  25.342  27.561  1.00  0.00    -0.014 A 
BRANCH  39  40
ATOM     40  C   UNL A   1      41.418  26.702  27.851  1.00  0.00     0.031 A 
ATOM     41  C   UNL A   1      42.853  27.043  27.551  1.00  0.00     0.074 A 
ATOM     42  C   UNL A   1      40.625  27.605  28.463  1.00  0.00     0.049 A 
ATOM     43  N   UNL A   1      43.503  28.153  27.787  1.00  0.00    -0.248 NA
ATOM     44  C   UNL A   1      43.676  25.991  26.927  1.00  0.00     0.031 C 
ATOM     45  C   UNL A   1      39.239  27.372  28.876  1.00  0.00     0.029 A 
ATOM     46  N   UNL A   1      40.878  28.892  28.870  1.00  0.00    -0.354 N 
ATOM     47  C   UNL A   1      44.812  27.923  27.379  1.00  0.00     0.074 A 
ATOM     48  C   UNL A   1      44.873  26.558  26.906  1.00  0.00     0.031 C 
ATOM     49  C   UNL A   1      38.766  28.478  29.474  1.00  0.00     0.029 A 
ATOM     50  C   UNL A   1      39.820  29.485  29.519  1.00  0.00     0.049 A 
ATOM     51  H   UNL A   1      41.738  29.347  28.712  1.00  0.00     0.167 HD
ATOM     52  C   UNL A   1      45.861  28.779  27.372  1.00  0.00     0.034 A 
ATOM     53  C   UNL A   1      39.714  30.699  30.096  1.00  0.00     0.034 A 
ATOM     54  C   UNL A   1      45.787  30.149  27.802  1.00  0.00     0.049 A 
ATOM     55  C   UNL A   1      40.888  31.639  30.042  1.00  0.00     0.074 A 
ATOM     56  C   UNL A   1      46.770  31.121  27.747  1.00  0.00     0.029 A 
ATOM     57  N   UNL A   1      44.672  30.741  28.374  1.00  0.00    -0.354 N 
ATOM     58  N   UNL A   1      42.068  31.457  29.501  1.00  0.00    -0.248 NA
ATOM     59  C   UNL A   1      40.704  32.969  30.645  1.00  0.00     0.031 C 
ATOM     60  C   UNL A   1      46.261  32.292  28.316  1.00  0.00     0.029 A 
ATOM     61  C   UNL A   1      44.947  32.061  28.689  1.00  0.00     0.049 A 
ATOM     62  H   UNL A   1      43.811  30.290  28.533  1.00  0.00     0.167 HD
ATOM     63  C   UNL A   1      42.750  32.658  29.661  1.00  0.00     0.074 A 
ATOM     64  C   UNL A   1      41.844  33.568  30.330  1.00  0.00     0.031 C 
ATOM     65  C   UNL A   1      44.018  32.974  29.300  1.00  0.00     0.034 A 
BRANCH  52  66
ATOM     66  C   UNL A   1      47.178  28.279  26.841  1.00  0.00     0.023 A 
ATOM     67  C   UNL A   1      48.196  27.905  27.741  1.00  0.00     0.012 A 
ATOM     68  C   UNL A   1      47.377  28.095  25.458  1.00  0.00     0.148 A 
ATOM     69  C   UNL A   1      49.401  27.383  27.274  1.00  0.00     0.002 A 
ATOM     70  C   UNL A   1      48.562  27.530  25.002  1.00  0.00     0.091 A 
ATOM     71  F   UNL A   1      46.404  28.474  24.617  1.00  0.00    -0.205 F 
ATOM     72  C   UNL A   1      49.579  27.184  25.907  1.00  0.00     0.022 A 
BRANCH  70  73
ATOM     73  S   UNL A   1      48.858  27.156  23.271  1.00  0.00     0.127 S 
ATOM     74  O   UNL A   1      50.319  27.176  23.210  1.00  0.00    -0.237 OA
ATOM     75  O   UNL A   1      48.260  25.827  23.139  1.00  0.00    -0.237 OA
ATOM     76  O   UNL A   1      48.191  28.204  22.511  1.00  0.00    -0.744 OA
ENDBRANCH  70  73
ENDBRANCH  52  66
BRANCH  53  77
ATOM     77  C   UNL A   1      38.433  31.120  30.735  1.00  0.00     0.023 A 
ATOM     78  C   UNL A   1      38.246  30.908  32.115  1.00  0.00     0.012 A 
ATOM     79  C   UNL A   1      37.404  31.724  29.988  1.00  0.00     0.148 A 
ATOM     80  C   UNL A   1      37.041  31.248  32.730  1.00  0.00     0.002 A 
ATOM     81  C   UNL A   1      36.229  32.114  30.618  1.00  0.00     0.091 A 
ATOM     82  F   UNL A   1      37.596  31.906  28.673  1.00  0.00    -0.205 F 
ATOM     83  C   UNL A   1      36.036  31.858  31.984  1.00  0.00     0.022 A 
BRANCH  81  84
ATOM     84  S   UNL A   1      34.936  33.021  29.763  1.00  0.00     0.127 S 
ATOM     85  O   UNL A   1      34.426  32.014  28.837  1.00  0.00    -0.237 OA
ATOM     86  O   UNL A   1      34.030  33.364  30.861  1.00  0.00    -0.237 OA
ATOM     87  O   UNL A   1      35.598  34.167  29.155  1.00  0.00    -0.744 OA
ENDBRANCH  81  84
ENDBRANCH  53  77
BRANCH  65  88
ATOM     88  C   UNL A   1      44.494  34.379  29.568  1.00  0.00     0.023 A 
ATOM     89  C   UNL A   1      45.069  34.704  30.812  1.00  0.00     0.012 A 
ATOM     90  C   UNL A   1      44.439  35.357  28.554  1.00  0.00     0.148 A 
ATOM     91  C   UNL A   1      45.548  35.991  31.055  1.00  0.00     0.002 A 
ATOM     92  C   UNL A   1      44.967  36.620  28.786  1.00  0.00     0.091 A 
ATOM     93  F   UNL A   1      43.873  35.032  27.383  1.00  0.00    -0.205 F 
ATOM     94  C   UNL A   1      45.509  36.944  30.040  1.00  0.00     0.022 A 
BRANCH  92  95
ATOM     95  S   UNL A   1      45.053  37.878  27.506  1.00  0.00     0.127 S 
ATOM     96  O   UNL A   1      45.678  38.989  28.222  1.00  0.00    -0.237 OA
ATOM     97  O   UNL A   1      45.906  37.241  26.503  1.00  0.00    -0.237 OA
ATOM     98  O   UNL A   1      43.680  38.108  27.074  1.00  0.00    -0.744 OA
ENDBRANCH  92  95
ENDBRANCH  65  88
ENDBRANCH  39  40
ENDBRANCH  31  34
ENDBRANCH  29  30
ENDBRANCH   1  29
TORSDOF 17
ENDMDL
MODEL 3
REMARK VINA RESULT:     -12.2      5.308      8.664
REMARK SMILES CC[NH+]1CCC2(CC1)OC[C@H](C(=O)NCCCCNC(=O)c1ccc(-c3c4nc(c(-c5cccc(S(=O)(=O)[O-])c5F)c5ccc([nH]5)c(-c5cccc(S(=O)(=O)[O-])c5F)c5nc(c(-c6cccc(S(=O)(=O)[O-])c6F)c6ccc3[nH]6)C=C5)C=C4)cc1)N2C(=O)c1ccccc1
REMARK SMILES IDX 17 1 16 2 15 3 14 4 12 5 13 6 11 8 3 9 4 10 8 11 5 13 7 14
REMARK SMILES IDX 6 15 9 16 85 17 10 18 2 19 1 20 86 21 87 22 88 23 89 24
REMARK SMILES IDX 93 25 90 26 92 27 91 28 18 29 19 30 20 31 21 33 22 34 23 35
REMARK SMILES IDX 84 36 24 37 83 38 25 39 26 40 27 41 77 42 28 43 82 44 76 45
REMARK SMILES IDX 78 46 29 47 81 48 75 49 74 50 30 52 62 53 42 54 61 55 43 56
REMARK SMILES IDX 46 57 60 58 79 59 44 60 45 61 59 63 80 64 47 65 31 66 32 67
REMARK SMILES IDX 40 68 33 69 35 70 41 71 34 72 36 73 37 74 38 75 39 76 63 77
REMARK SMILES IDX 64 78 72 79 65 80 67 81 73 82 66 83 68 84 69 85 70 86 71 87
REMARK SMILES IDX 48 88 49 89 57 90 50 91 52 92 58 93 51 94 53 95 54 96 55 97
REMARK SMILES IDX 56 98
REMARK H PARENT 14 7 3 12 19 32 78 51 46 62
REMARK Flexibility Score: inf
ROOT
ATOM      1  C   UNL A   1      37.777  19.814  24.852  1.00  0.00     0.023 C 
ENDROOT
BRANCH   1   2
ATOM      2  C   UNL A   1      36.509  20.657  24.999  1.00  0.00     0.023 C 
BRANCH   2   3
ATOM      3  C   UNL A   1      36.748  22.159  25.134  1.00  0.00     0.116 C 
BRANCH   3   4
ATOM      4  N   UNL A   1      36.136  22.897  24.046  1.00  0.00    -0.354 N 
ATOM      5  C   UNL A   1      35.061  23.733  24.043  1.00  0.00     0.245 C 
ATOM      6  O   UNL A   1      34.658  24.111  22.940  1.00  0.00    -0.273 OA
ATOM      7  H   UNL A   1      36.567  22.774  23.170  1.00  0.00     0.163 HD
BRANCH   5   8
ATOM      8  C   UNL A   1      34.417  24.199  25.363  1.00  0.00     0.203 C 
ATOM      9  N   UNL A   1      29.452  25.518  24.311  1.00  0.00    -0.335 N 
ATOM     10  C   UNL A   1      30.412  24.998  23.345  1.00  0.00     0.267 C 
ATOM     11  C   UNL A   1      29.919  25.631  25.689  1.00  0.00     0.267 C 
ATOM     12  H   UNL A   1      28.775  24.757  24.372  1.00  0.00     0.348 HD
ATOM     13  C   UNL A   1      31.839  25.467  23.516  1.00  0.00     0.120 C 
ATOM     14  C   UNL A   1      31.374  26.012  25.911  1.00  0.00     0.120 C 
ATOM     15  C   UNL A   1      32.367  25.366  24.949  1.00  0.00     0.155 C 
ATOM     16  O   UNL A   1      33.496  26.308  24.953  1.00  0.00    -0.352 OA
ATOM     17  N   UNL A   1      32.968  24.075  25.365  1.00  0.00    -0.295 N 
ATOM     18  C   UNL A   1      34.637  25.677  25.532  1.00  0.00     0.198 C 
BRANCH   9  19
ATOM     19  C   UNL A   1      28.678  26.660  23.841  1.00  0.00     0.258 C 
ATOM     20  C   UNL A   1      29.595  27.679  23.166  1.00  0.00     0.071 C 
ENDBRANCH   9  19
BRANCH  17  21
ATOM     21  C   UNL A   1      32.493  22.841  25.794  1.00  0.00     0.256 C 
ATOM     22  O   UNL A   1      31.960  22.696  26.898  1.00  0.00    -0.269 OA
BRANCH  21  23
ATOM     23  C   UNL A   1      32.478  21.639  24.956  1.00  0.00     0.040 A 
ATOM     24  C   UNL A   1      32.977  20.440  25.480  1.00  0.00     0.014 A 
ATOM     25  C   UNL A   1      32.136  21.719  23.607  1.00  0.00     0.014 A 
ATOM     26  C   UNL A   1      32.973  19.284  24.693  1.00  0.00     0.001 A 
ATOM     27  C   UNL A   1      32.100  20.558  22.833  1.00  0.00     0.001 A 
ATOM     28  C   UNL A   1      32.497  19.339  23.382  1.00  0.00     0.000 A 
ENDBRANCH  21  23
ENDBRANCH  17  21
ENDBRANCH   5   8
ENDBRANCH   3   4
ENDBRANCH   2   3
ENDBRANCH   1   2
BRANCH   1  29
ATOM     29  C   UNL A   1      38.965  20.268  25.693  1.00  0.00     0.116 C 
BRANCH  29  30
ATOM     30  N   UNL A   1      39.950  19.217  25.893  1.00  0.00    -0.352 N 
ATOM     31  C   UNL A   1      41.290  19.326  26.187  1.00  0.00     0.251 C 
ATOM     32  H   UNL A   1      39.610  18.297  25.808  1.00  0.00     0.163 HD
ATOM     33  O   UNL A   1      41.999  18.331  26.189  1.00  0.00    -0.269 OA
BRANCH  31  34
ATOM     34  C   UNL A   1      41.868  20.659  26.467  1.00  0.00     0.039 A 
ATOM     35  C   UNL A   1      42.091  21.531  25.400  1.00  0.00     0.014 A 
ATOM     36  C   UNL A   1      42.167  21.053  27.773  1.00  0.00     0.014 A 
ATOM     37  C   UNL A   1      42.555  22.825  25.651  1.00  0.00     0.010 A 
ATOM     38  C   UNL A   1      42.556  22.366  28.027  1.00  0.00     0.010 A 
ATOM     39  C   UNL A   1      42.756  23.265  26.969  1.00  0.00    -0.014 A 
BRANCH  39  40
ATOM     40  C   UNL A   1      43.159  24.665  27.261  1.00  0.00     0.031 A 
ATOM     41  C   UNL A   1      42.184  25.620  27.898  1.00  0.00     0.074 A 
ATOM     42  C   UNL A   1      44.375  25.103  26.874  1.00  0.00     0.049 A 
ATOM     43  N   UNL A   1      42.335  26.890  28.174  1.00  0.00    -0.248 NA
ATOM     44  C   UNL A   1      40.856  25.087  28.249  1.00  0.00     0.031 C 
ATOM     45  C   UNL A   1      45.382  24.298  26.178  1.00  0.00     0.029 A 
ATOM     46  N   UNL A   1      44.961  26.339  26.987  1.00  0.00    -0.354 N 
ATOM     47  C   UNL A   1      41.117  27.314  28.692  1.00  0.00     0.074 A 
ATOM     48  C   UNL A   1      40.227  26.176  28.666  1.00  0.00     0.031 C 
ATOM     49  C   UNL A   1      46.459  25.060  25.929  1.00  0.00     0.029 A 
ATOM     50  C   UNL A   1      46.210  26.413  26.414  1.00  0.00     0.049 A 
ATOM     51  H   UNL A   1      44.528  27.102  27.435  1.00  0.00     0.167 HD
ATOM     52  C   UNL A   1      40.780  28.535  29.171  1.00  0.00     0.034 A 
ATOM     53  C   UNL A   1      47.055  27.455  26.283  1.00  0.00     0.034 A 
ATOM     54  C   UNL A   1      41.680  29.654  29.236  1.00  0.00     0.049 A 
ATOM     55  C   UNL A   1      46.662  28.791  26.856  1.00  0.00     0.074 A 
ATOM     56  C   UNL A   1      41.459  30.903  29.788  1.00  0.00     0.029 A 
ATOM     57  N   UNL A   1      42.968  29.666  28.724  1.00  0.00    -0.354 N 
ATOM     58  N   UNL A   1      45.567  29.128  27.492  1.00  0.00    -0.248 NA
ATOM     59  C   UNL A   1      47.640  29.883  26.729  1.00  0.00     0.031 C 
ATOM     60  C   UNL A   1      42.602  31.681  29.583  1.00  0.00     0.029 A 
ATOM     61  C   UNL A   1      43.549  30.904  28.937  1.00  0.00     0.049 A 
ATOM     62  H   UNL A   1      43.405  28.906  28.276  1.00  0.00     0.167 HD
ATOM     63  C   UNL A   1      45.739  30.453  27.875  1.00  0.00     0.074 A 
ATOM     64  C   UNL A   1      47.054  30.852  27.419  1.00  0.00     0.031 C 
ATOM     65  C   UNL A   1      44.881  31.271  28.531  1.00  0.00     0.034 A 
BRANCH  52  66
ATOM     66  C   UNL A   1      39.385  28.721  29.711  1.00  0.00     0.023 A 
ATOM     67  C   UNL A   1      39.102  28.364  31.045  1.00  0.00     0.012 A 
ATOM     68  C   UNL A   1      38.383  29.330  28.931  1.00  0.00     0.148 A 
ATOM     69  C   UNL A   1      37.835  28.582  31.585  1.00  0.00     0.002 A 
ATOM     70  C   UNL A   1      37.137  29.588  29.491  1.00  0.00     0.091 A 
ATOM     71  F   UNL A   1      38.668  29.647  27.660  1.00  0.00    -0.205 F 
ATOM     72  C   UNL A   1      36.858  29.205  30.812  1.00  0.00     0.022 A 
BRANCH  70  73
ATOM     73  S   UNL A   1      35.837  30.459  28.609  1.00  0.00     0.127 S 
ATOM     74  O   UNL A   1      35.093  29.352  28.010  1.00  0.00    -0.237 OA
ATOM     75  O   UNL A   1      35.139  31.147  29.696  1.00  0.00    -0.237 OA
ATOM     76  O   UNL A   1      36.509  31.339  27.663  1.00  0.00    -0.744 OA
ENDBRANCH  70  73
ENDBRANCH  52  66
BRANCH  53  77
ATOM     77  C   UNL A   1      48.380  27.273  25.623  1.00  0.00     0.023 A 
ATOM     78  C   UNL A   1      49.498  26.916  26.402  1.00  0.00     0.012 A 
ATOM     79  C   UNL A   1      48.539  27.451  24.235  1.00  0.00     0.148 A 
ATOM     80  C   UNL A   1      50.759  26.785  25.818  1.00  0.00     0.002 A 
ATOM     81  C   UNL A   1      49.785  27.261  23.652  1.00  0.00     0.091 A 
ATOM     82  F   UNL A   1      47.465  27.801  23.513  1.00  0.00    -0.205 F 
ATOM     83  C   UNL A   1      50.901  26.949  24.443  1.00  0.00     0.022 A 
BRANCH  81  84
ATOM     84  S   UNL A   1      50.033  27.325  21.874  1.00  0.00     0.127 S 
ATOM     85  O   UNL A   1      49.063  26.342  21.400  1.00  0.00    -0.237 OA
ATOM     86  O   UNL A   1      49.697  28.718  21.572  1.00  0.00    -0.237 OA
ATOM     87  O   UNL A   1      51.434  26.989  21.662  1.00  0.00    -0.744 OA
ENDBRANCH  81  84
ENDBRANCH  53  77
BRANCH  65  88
ATOM     88  C   UNL A   1      45.347  32.667  28.850  1.00  0.00     0.023 A 
ATOM     89  C   UNL A   1      46.069  32.918  30.034  1.00  0.00     0.012 A 
ATOM     90  C   UNL A   1      45.131  33.719  27.936  1.00  0.00     0.148 A 
ATOM     91  C   UNL A   1      46.539  34.200  30.319  1.00  0.00     0.002 A 
ATOM     92  C   UNL A   1      45.648  34.980  28.202  1.00  0.00     0.091 A 
ATOM     93  F   UNL A   1      44.427  33.464  26.824  1.00  0.00    -0.205 F 
ATOM     94  C   UNL A   1      46.340  35.226  29.399  1.00  0.00     0.022 A 
BRANCH  92  95
ATOM     95  S   UNL A   1      45.529  36.337  27.030  1.00  0.00     0.127 S 
ATOM     96  O   UNL A   1      46.328  35.836  25.913  1.00  0.00    -0.237 OA
ATOM     97  O   UNL A   1      44.090  36.396  26.771  1.00  0.00    -0.237 OA
ATOM     98  O   UNL A   1      46.069  37.506  27.710  1.00  0.00    -0.744 OA
ENDBRANCH  92  95
ENDBRANCH  65  88
ENDBRANCH  39  40
ENDBRANCH  31  34
ENDBRANCH  29  30
ENDBRANCH   1  29
TORSDOF 17
ENDMDL
