MODEL 1
REMARK VINA RESULT:     -11.7      0.000      0.000
REMARK SMILES C[NH2+][C@]1(C(=O)NCCCCNC(=O)c2ccc(-c3c4nc(c(-c5cccc(S(=O)(=O)[O-])c5F)c5ccc([nH]5)c(-c5cccc(S(=O)(=O)[O-])c5F)c5nc(c(-c6cccc(S(=O)(=O)[O-])c6F)c6ccc3[nH]6)C=C5)C=C4)cc2)CC[C@@H](OCCCc2ccccc2)C1
REMARK SMILES IDX 7 1 6 2 4 3 5 4 3 6 77 7 90 8 78 9 79 10 2 11 1 12 80 15
REMARK SMILES IDX 81 16 82 17 83 18 84 19 85 20 89 21 86 22 88 23 87 24 8 25
REMARK SMILES IDX 9 26 10 27 11 28 12 29 13 31 14 32 15 33 76 34 16 35 75 36
REMARK SMILES IDX 17 37 18 38 19 39 69 40 20 41 74 42 68 43 70 44 21 45 73 46
REMARK SMILES IDX 67 47 66 48 22 50 54 51 34 52 53 53 35 54 38 55 52 56 71 57
REMARK SMILES IDX 36 58 37 59 51 61 72 62 39 63 23 64 24 65 32 66 25 67 27 68
REMARK SMILES IDX 33 69 26 70 28 71 29 72 30 73 31 74 55 75 56 76 64 77 57 78
REMARK SMILES IDX 59 79 65 80 58 81 60 82 61 83 62 84 63 85 40 86 41 87 49 88
REMARK SMILES IDX 42 89 44 90 50 91 43 92 45 93 46 94 47 95 48 96
REMARK H PARENT 6 5 2 13 2 14 11 30 70 49 38 60
REMARK Flexibility Score: inf
ROOT
ATOM      1  C   UNL A   1      34.286  29.542  27.458  1.00  0.00     0.116 C 
ENDROOT
BRANCH   1   2
ATOM      2  N   UNL A   1      34.288  29.390  25.858  1.00  0.00    -0.351 N 
ATOM      3  C   UNL A   1      33.222  29.043  24.249  1.00  0.00     0.281 C 
ATOM      4  O   UNL A   1      33.591  29.238  23.038  1.00  0.00    -0.268 OA
ATOM      5  H   UNL A   1      35.216  29.530  25.559  1.00  0.00     0.163 HD
BRANCH   3   6
ATOM      6  C   UNL A   1      31.507  28.337  24.012  1.00  0.00     0.177 C 
ATOM      7  C   UNL A   1      30.996  27.663  22.682  1.00  0.00     0.082 C 
ATOM      8  C   UNL A   1      30.940  27.441  25.164  1.00  0.00     0.111 C 
ATOM      9  C   UNL A   1      30.012  26.558  23.078  1.00  0.00     0.039 C 
ATOM     10  C   UNL A   1      30.261  26.218  24.542  1.00  0.00     0.125 C 
BRANCH   6  11
ATOM     11  N   UNL A   1      30.586  29.582  23.923  1.00  0.00    -0.336 N 
ATOM     12  C   UNL A   1      29.860  29.857  22.694  1.00  0.00     0.331 C 
ATOM     13  H   UNL A   1      29.890  29.490  24.663  1.00  0.00     0.346 HD
ATOM     14  H   UNL A   1      31.237  30.365  23.994  1.00  0.00     0.346 HD
ENDBRANCH   6  11
BRANCH  10  15
ATOM     15  O   UNL A   1      30.783  24.896  24.644  1.00  0.00    -0.378 OA
BRANCH  15  16
ATOM     16  C   UNL A   1      31.179  24.350  25.883  1.00  0.00     0.161 C 
BRANCH  16  17
ATOM     17  C   UNL A   1      31.605  22.895  25.750  1.00  0.00     0.033 C 
BRANCH  17  18
ATOM     18  C   UNL A   1      31.981  22.432  24.346  1.00  0.00     0.038 C 
BRANCH  18  19
ATOM     19  C   UNL A   1      33.449  22.097  24.066  1.00  0.00    -0.048 A 
ATOM     20  C   UNL A   1      34.596  23.294  23.254  1.00  0.00     0.004 A 
ATOM     21  C   UNL A   1      34.185  20.656  24.965  1.00  0.00     0.004 A 
ATOM     22  C   UNL A   1      36.402  23.082  23.389  1.00  0.00     0.000 A 
ATOM     23  C   UNL A   1      35.998  20.467  25.086  1.00  0.00     0.000 A 
ATOM     24  C   UNL A   1      37.124  21.691  24.319  1.00  0.00     0.000 A 
ENDBRANCH  18  19
ENDBRANCH  17  18
ENDBRANCH  16  17
ENDBRANCH  15  16
ENDBRANCH  10  15
ENDBRANCH   3   6
ENDBRANCH   1   2
BRANCH   1  25
ATOM     25  C   UNL A   1      35.199  30.686  27.917  1.00  0.00     0.023 C 
BRANCH  25  26
ATOM     26  C   UNL A   1      34.693  32.044  27.456  1.00  0.00     0.023 C 
BRANCH  26  27
ATOM     27  C   UNL A   1      33.265  32.316  27.901  1.00  0.00     0.116 C 
BRANCH  27  28
ATOM     28  N   UNL A   1      32.935  33.746  27.863  1.00  0.00    -0.352 N 
ATOM     29  C   UNL A   1      33.351  34.720  28.730  1.00  0.00     0.251 C 
ATOM     30  H   UNL A   1      32.347  34.038  27.129  1.00  0.00     0.163 HD
ATOM     31  O   UNL A   1      32.870  35.845  28.726  1.00  0.00    -0.269 OA
BRANCH  29  32
ATOM     32  C   UNL A   1      34.412  34.327  29.655  1.00  0.00     0.039 A 
ATOM     33  C   UNL A   1      34.106  33.497  30.730  1.00  0.00     0.014 A 
ATOM     34  C   UNL A   1      35.729  34.607  29.276  1.00  0.00     0.014 A 
ATOM     35  C   UNL A   1      35.156  32.910  31.424  1.00  0.00     0.010 A 
ATOM     36  C   UNL A   1      36.755  33.917  29.886  1.00  0.00     0.010 A 
ATOM     37  C   UNL A   1      36.480  33.094  30.988  1.00  0.00    -0.014 A 
BRANCH  37  38
ATOM     38  C   UNL A   1      37.610  32.471  31.701  1.00  0.00     0.031 A 
ATOM     39  C   UNL A   1      38.355  31.347  31.039  1.00  0.00     0.074 A 
ATOM     40  C   UNL A   1      37.913  32.868  32.951  1.00  0.00     0.049 A 
ATOM     41  N   UNL A   1      39.352  30.642  31.497  1.00  0.00    -0.248 NA
ATOM     42  C   UNL A   1      37.894  30.930  29.700  1.00  0.00     0.031 C 
ATOM     43  C   UNL A   1      37.191  33.887  33.718  1.00  0.00     0.029 A 
ATOM     44  N   UNL A   1      38.901  32.449  33.803  1.00  0.00    -0.354 N 
ATOM     45  C   UNL A   1      39.606  29.681  30.527  1.00  0.00     0.074 A 
ATOM     46  C   UNL A   1      38.626  29.851  29.482  1.00  0.00     0.031 C 
ATOM     47  C   UNL A   1      37.775  34.031  34.918  1.00  0.00     0.029 A 
ATOM     48  C   UNL A   1      38.886  33.089  35.019  1.00  0.00     0.049 A 
ATOM     49  H   UNL A   1      39.558  31.757  33.566  1.00  0.00     0.167 HD
ATOM     50  C   UNL A   1      40.594  28.760  30.492  1.00  0.00     0.034 A 
ATOM     51  C   UNL A   1      39.678  32.924  36.095  1.00  0.00     0.034 A 
ATOM     52  C   UNL A   1      41.588  28.634  31.518  1.00  0.00     0.049 A 
ATOM     53  C   UNL A   1      40.798  31.923  36.014  1.00  0.00     0.074 A 
ATOM     54  C   UNL A   1      42.691  27.802  31.546  1.00  0.00     0.029 A 
ATOM     55  N   UNL A   1      41.590  29.349  32.706  1.00  0.00    -0.354 N 
ATOM     56  N   UNL A   1      41.124  31.129  35.021  1.00  0.00    -0.248 NA
ATOM     57  C   UNL A   1      41.682  31.821  37.181  1.00  0.00     0.031 C 
ATOM     58  C   UNL A   1      43.337  27.983  32.773  1.00  0.00     0.029 A 
ATOM     59  C   UNL A   1      42.665  28.966  33.485  1.00  0.00     0.049 A 
ATOM     60  H   UNL A   1      40.924  30.030  32.957  1.00  0.00     0.167 HD
ATOM     61  C   UNL A   1      42.269  30.458  35.431  1.00  0.00     0.074 A 
ATOM     62  C   UNL A   1      42.592  30.956  36.753  1.00  0.00     0.031 C 
ATOM     63  C   UNL A   1      42.986  29.509  34.780  1.00  0.00     0.034 A 
BRANCH  50  64
ATOM     64  C   UNL A   1      40.661  27.850  29.298  1.00  0.00     0.023 A 
ATOM     65  C   UNL A   1      39.841  26.703  29.236  1.00  0.00     0.012 A 
ATOM     66  C   UNL A   1      41.507  28.153  28.216  1.00  0.00     0.148 A 
ATOM     67  C   UNL A   1      39.892  25.852  28.132  1.00  0.00     0.002 A 
ATOM     68  C   UNL A   1      41.512  27.331  27.096  1.00  0.00     0.091 A 
ATOM     69  F   UNL A   1      42.299  29.231  28.307  1.00  0.00    -0.205 F 
ATOM     70  C   UNL A   1      40.716  26.174  27.058  1.00  0.00     0.022 A 
BRANCH  68  71
ATOM     71  S   UNL A   1      42.474  27.704  25.627  1.00  0.00     0.127 S 
ATOM     72  O   UNL A   1      43.828  27.775  26.174  1.00  0.00    -0.237 OA
ATOM     73  O   UNL A   1      42.215  26.533  24.790  1.00  0.00    -0.237 OA
ATOM     74  O   UNL A   1      41.948  28.957  25.106  1.00  0.00    -0.744 OA
ENDBRANCH  68  71
ENDBRANCH  50  64
BRANCH  51  75
ATOM     75  C   UNL A   1      39.469  33.755  37.312  1.00  0.00     0.023 A 
ATOM     76  C   UNL A   1      39.961  35.074  37.353  1.00  0.00     0.012 A 
ATOM     77  C   UNL A   1      38.758  33.253  38.419  1.00  0.00     0.148 A 
ATOM     78  C   UNL A   1      39.783  35.864  38.490  1.00  0.00     0.002 A 
ATOM     79  C   UNL A   1      38.534  34.064  39.525  1.00  0.00     0.091 A 
ATOM     80  F   UNL A   1      38.301  31.994  38.360  1.00  0.00    -0.205 F 
ATOM     81  C   UNL A   1      39.063  35.363  39.571  1.00  0.00     0.022 A 
BRANCH  79  82
ATOM     82  S   UNL A   1      37.507  33.548  40.904  1.00  0.00     0.127 S 
ATOM     83  O   UNL A   1      38.380  32.598  41.587  1.00  0.00    -0.237 OA
ATOM     84  O   UNL A   1      37.299  34.814  41.610  1.00  0.00    -0.237 OA
ATOM     85  O   UNL A   1      36.302  32.986  40.311  1.00  0.00    -0.744 OA
ENDBRANCH  79  82
ENDBRANCH  51  75
BRANCH  63  86
ATOM     86  C   UNL A   1      44.219  28.978  35.460  1.00  0.00     0.023 A 
ATOM     87  C   UNL A   1      45.466  29.595  35.248  1.00  0.00     0.012 A 
ATOM     88  C   UNL A   1      44.117  27.912  36.376  1.00  0.00     0.148 A 
ATOM     89  C   UNL A   1      46.603  29.133  35.908  1.00  0.00     0.002 A 
ATOM     90  C   UNL A   1      45.242  27.497  37.074  1.00  0.00     0.091 A 
ATOM     91  F   UNL A   1      42.921  27.332  36.552  1.00  0.00    -0.205 F 
ATOM     92  C   UNL A   1      46.489  28.095  36.830  1.00  0.00     0.022 A 
BRANCH  90  93
ATOM     93  S   UNL A   1      45.168  26.241  38.355  1.00  0.00     0.127 S 
ATOM     94  O   UNL A   1      46.493  26.360  38.964  1.00  0.00    -0.237 OA
ATOM     95  O   UNL A   1      44.067  26.719  39.191  1.00  0.00    -0.237 OA
ATOM     96  O   UNL A   1      44.909  24.981  37.672  1.00  0.00    -0.744 OA
ENDBRANCH  90  93
ENDBRANCH  63  86
ENDBRANCH  37  38
ENDBRANCH  29  32
ENDBRANCH  27  28
ENDBRANCH  26  27
ENDBRANCH  25  26
ENDBRANCH   1  25
TORSDOF 20
ENDMDL
MODEL 2
REMARK VINA RESULT:     -11.4      6.036     12.039
REMARK SMILES C[NH2+][C@]1(C(=O)NCCCCNC(=O)c2ccc(-c3c4nc(c(-c5cccc(S(=O)(=O)[O-])c5F)c5ccc([nH]5)c(-c5cccc(S(=O)(=O)[O-])c5F)c5nc(c(-c6cccc(S(=O)(=O)[O-])c6F)c6ccc3[nH]6)C=C5)C=C4)cc2)CC[C@@H](OCCCc2ccccc2)C1
REMARK SMILES IDX 7 1 6 2 4 3 5 4 3 6 77 7 90 8 78 9 79 10 2 11 1 12 80 15
REMARK SMILES IDX 81 16 82 17 83 18 84 19 85 20 89 21 86 22 88 23 87 24 8 25
REMARK SMILES IDX 9 26 10 27 11 28 12 29 13 31 14 32 15 33 76 34 16 35 75 36
REMARK SMILES IDX 17 37 18 38 19 39 69 40 20 41 74 42 68 43 70 44 21 45 73 46
REMARK SMILES IDX 67 47 66 48 22 50 54 51 34 52 53 53 35 54 38 55 52 56 71 57
REMARK SMILES IDX 36 58 37 59 51 61 72 62 39 63 23 64 24 65 32 66 25 67 27 68
REMARK SMILES IDX 33 69 26 70 28 71 29 72 30 73 31 74 55 75 56 76 64 77 57 78
REMARK SMILES IDX 59 79 65 80 58 81 60 82 61 83 62 84 63 85 40 86 41 87 49 88
REMARK SMILES IDX 42 89 44 90 50 91 43 92 45 93 46 94 47 95 48 96
REMARK H PARENT 6 5 2 13 2 14 11 30 70 49 38 60
REMARK Flexibility Score: inf
ROOT
ATOM      1  C   UNL A   1      37.658  23.411  25.506  1.00  0.00     0.116 C 
ENDROOT
BRANCH   1   2
ATOM      2  N   UNL A   1      36.368  23.251  26.452  1.00  0.00    -0.351 N 
ATOM      3  C   UNL A   1      34.501  22.665  26.581  1.00  0.00     0.281 C 
ATOM      4  O   UNL A   1      33.834  22.490  27.661  1.00  0.00    -0.268 OA
ATOM      5  H   UNL A   1      36.623  23.588  27.341  1.00  0.00     0.163 HD
BRANCH   3   6
ATOM      6  C   UNL A   1      33.220  22.267  25.278  1.00  0.00     0.177 C 
ATOM      7  C   UNL A   1      31.941  23.140  24.989  1.00  0.00     0.082 C 
ATOM      8  C   UNL A   1      33.748  21.841  23.867  1.00  0.00     0.111 C 
ATOM      9  C   UNL A   1      31.645  23.035  23.490  1.00  0.00     0.039 C 
ATOM     10  C   UNL A   1      32.915  22.552  22.799  1.00  0.00     0.125 C 
BRANCH   6  11
ATOM     11  N   UNL A   1      32.453  21.046  25.853  1.00  0.00    -0.336 N 
ATOM     12  C   UNL A   1      32.611  19.739  25.237  1.00  0.00     0.331 C 
ATOM     13  H   UNL A   1      32.738  20.950  26.828  1.00  0.00     0.346 HD
ATOM     14  H   UNL A   1      31.475  21.276  25.676  1.00  0.00     0.346 HD
ENDBRANCH   6  11
BRANCH  10  15
ATOM     15  O   UNL A   1      33.429  23.588  21.966  1.00  0.00    -0.378 OA
BRANCH  15  16
ATOM     16  C   UNL A   1      32.632  24.209  20.982  1.00  0.00     0.161 C 
BRANCH  16  17
ATOM     17  C   UNL A   1      32.924  25.699  20.876  1.00  0.00     0.033 C 
BRANCH  17  18
ATOM     18  C   UNL A   1      33.522  26.355  22.116  1.00  0.00     0.038 C 
BRANCH  18  19
ATOM     19  C   UNL A   1      32.597  26.622  23.308  1.00  0.00    -0.048 A 
ATOM     20  C   UNL A   1      30.759  26.540  23.168  1.00  0.00     0.004 A 
ATOM     21  C   UNL A   1      33.347  26.574  25.000  1.00  0.00     0.004 A 
ATOM     22  C   UNL A   1      29.724  26.359  24.658  1.00  0.00     0.000 A 
ATOM     23  C   UNL A   1      32.287  26.392  26.477  1.00  0.00     0.000 A 
ATOM     24  C   UNL A   1      30.468  26.260  26.319  1.00  0.00     0.000 A 
ENDBRANCH  18  19
ENDBRANCH  17  18
ENDBRANCH  16  17
ENDBRANCH  15  16
ENDBRANCH  10  15
ENDBRANCH   3   6
ENDBRANCH   1   2
BRANCH   1  25
ATOM     25  C   UNL A   1      38.933  22.915  26.201  1.00  0.00     0.023 C 
BRANCH  25  26
ATOM     26  C   UNL A   1      39.228  21.458  25.883  1.00  0.00     0.023 C 
BRANCH  26  27
ATOM     27  C   UNL A   1      40.002  20.764  26.992  1.00  0.00     0.116 C 
BRANCH  27  28
ATOM     28  N   UNL A   1      40.778  19.621  26.497  1.00  0.00    -0.352 N 
ATOM     29  C   UNL A   1      42.040  19.637  25.967  1.00  0.00     0.251 C 
ATOM     30  H   UNL A   1      40.340  18.740  26.553  1.00  0.00     0.163 HD
ATOM     31  O   UNL A   1      42.525  18.663  25.409  1.00  0.00    -0.269 OA
BRANCH  29  32
ATOM     32  C   UNL A   1      42.769  20.895  26.119  1.00  0.00     0.039 A 
ATOM     33  C   UNL A   1      42.912  21.737  25.021  1.00  0.00     0.014 A 
ATOM     34  C   UNL A   1      43.079  21.303  27.421  1.00  0.00     0.014 A 
ATOM     35  C   UNL A   1      43.350  23.036  25.243  1.00  0.00     0.010 A 
ATOM     36  C   UNL A   1      43.385  22.628  27.645  1.00  0.00     0.010 A 
ATOM     37  C   UNL A   1      43.561  23.494  26.556  1.00  0.00    -0.014 A 
BRANCH  37  38
ATOM     38  C   UNL A   1      44.015  24.872  26.818  1.00  0.00     0.031 A 
ATOM     39  C   UNL A   1      43.044  25.856  27.408  1.00  0.00     0.074 A 
ATOM     40  C   UNL A   1      45.258  25.245  26.466  1.00  0.00     0.049 A 
ATOM     41  N   UNL A   1      43.223  27.117  27.688  1.00  0.00    -0.248 NA
ATOM     42  C   UNL A   1      41.678  25.371  27.685  1.00  0.00     0.031 C 
ATOM     43  C   UNL A   1      46.246  24.391  25.801  1.00  0.00     0.029 A 
ATOM     44  N   UNL A   1      45.900  26.448  26.605  1.00  0.00    -0.354 N 
ATOM     45  C   UNL A   1      41.990  27.580  28.130  1.00  0.00     0.074 A 
ATOM     46  C   UNL A   1      41.056  26.486  28.027  1.00  0.00     0.031 C 
ATOM     47  C   UNL A   1      47.376  25.090  25.611  1.00  0.00     0.029 A 
ATOM     48  C   UNL A   1      47.180  26.449  26.105  1.00  0.00     0.049 A 
ATOM     49  H   UNL A   1      45.483  27.235  27.022  1.00  0.00     0.167 HD
ATOM     50  C   UNL A   1      41.673  28.801  28.613  1.00  0.00     0.034 A 
ATOM     51  C   UNL A   1      48.087  27.443  26.048  1.00  0.00     0.034 A 
ATOM     52  C   UNL A   1      42.625  29.865  28.750  1.00  0.00     0.049 A 
ATOM     53  C   UNL A   1      47.724  28.780  26.633  1.00  0.00     0.074 A 
ATOM     54  C   UNL A   1      42.442  31.112  29.314  1.00  0.00     0.029 A 
ATOM     55  N   UNL A   1      43.937  29.811  28.303  1.00  0.00    -0.354 N 
ATOM     56  N   UNL A   1      46.599  29.156  27.194  1.00  0.00    -0.248 NA
ATOM     57  C   UNL A   1      48.763  29.817  26.614  1.00  0.00     0.031 C 
ATOM     58  C   UNL A   1      43.633  31.831  29.168  1.00  0.00     0.029 A 
ATOM     59  C   UNL A   1      44.572  31.010  28.562  1.00  0.00     0.049 A 
ATOM     60  H   UNL A   1      44.353  29.032  27.867  1.00  0.00     0.167 HD
ATOM     61  C   UNL A   1      46.806  30.461  27.625  1.00  0.00     0.074 A 
ATOM     62  C   UNL A   1      48.172  30.800  27.279  1.00  0.00     0.031 C 
ATOM     63  C   UNL A   1      45.945  31.306  28.243  1.00  0.00     0.034 A 
BRANCH  50  64
ATOM     64  C   UNL A   1      40.255  29.032  29.055  1.00  0.00     0.023 A 
ATOM     65  C   UNL A   1      39.253  29.311  28.101  1.00  0.00     0.012 A 
ATOM     66  C   UNL A   1      39.905  28.932  30.414  1.00  0.00     0.148 A 
ATOM     67  C   UNL A   1      37.934  29.525  28.498  1.00  0.00     0.002 A 
ATOM     68  C   UNL A   1      38.579  29.091  30.796  1.00  0.00     0.091 A 
ATOM     69  F   UNL A   1      40.876  28.695  31.308  1.00  0.00    -0.205 F 
ATOM     70  C   UNL A   1      37.595  29.401  29.843  1.00  0.00     0.022 A 
BRANCH  68  71
ATOM     71  S   UNL A   1      38.028  28.868  32.489  1.00  0.00     0.127 S 
ATOM     72  O   UNL A   1      38.944  29.748  33.214  1.00  0.00    -0.237 OA
ATOM     73  O   UNL A   1      36.647  29.346  32.424  1.00  0.00    -0.237 OA
ATOM     74  O   UNL A   1      38.171  27.449  32.778  1.00  0.00    -0.744 OA
ENDBRANCH  68  71
ENDBRANCH  50  64
BRANCH  51  75
ATOM     75  C   UNL A   1      49.432  27.194  25.459  1.00  0.00     0.023 A 
ATOM     76  C   UNL A   1      50.481  26.736  26.279  1.00  0.00     0.012 A 
ATOM     77  C   UNL A   1      49.667  27.382  24.084  1.00  0.00     0.148 A 
ATOM     78  C   UNL A   1      51.752  26.508  25.747  1.00  0.00     0.002 A 
ATOM     79  C   UNL A   1      50.918  27.098  23.549  1.00  0.00     0.091 A 
ATOM     80  F   UNL A   1      48.655  27.822  23.323  1.00  0.00    -0.205 F 
ATOM     81  C   UNL A   1      51.967  26.680  24.382  1.00  0.00     0.022 A 
BRANCH  79  82
ATOM     82  S   UNL A   1      51.249  27.165  21.786  1.00  0.00     0.127 S 
ATOM     83  O   UNL A   1      49.995  26.667  21.228  1.00  0.00    -0.237 OA
ATOM     84  O   UNL A   1      51.491  28.594  21.582  1.00  0.00    -0.237 OA
ATOM     85  O   UNL A   1      52.416  26.321  21.571  1.00  0.00    -0.744 OA
ENDBRANCH  79  82
ENDBRANCH  51  75
BRANCH  63  86
ATOM     86  C   UNL A   1      46.462  32.666  28.630  1.00  0.00     0.023 A 
ATOM     87  C   UNL A   1      47.111  32.851  29.866  1.00  0.00     0.012 A 
ATOM     88  C   UNL A   1      46.371  33.740  27.724  1.00  0.00     0.148 A 
ATOM     89  C   UNL A   1      47.628  34.097  30.211  1.00  0.00     0.002 A 
ATOM     90  C   UNL A   1      46.941  34.963  28.050  1.00  0.00     0.091 A 
ATOM     91  F   UNL A   1      45.737  33.544  26.559  1.00  0.00    -0.205 F 
ATOM     92  C   UNL A   1      47.555  35.149  29.299  1.00  0.00     0.022 A 
BRANCH  90  93
ATOM     93  S   UNL A   1      46.988  36.339  26.898  1.00  0.00     0.127 S 
ATOM     94  O   UNL A   1      47.652  35.737  25.743  1.00  0.00    -0.237 OA
ATOM     95  O   UNL A   1      45.567  36.627  26.705  1.00  0.00    -0.237 OA
ATOM     96  O   UNL A   1      47.736  37.398  27.563  1.00  0.00    -0.744 OA
ENDBRANCH  90  93
ENDBRANCH  63  86
ENDBRANCH  37  38
ENDBRANCH  29  32
ENDBRANCH  27  28
ENDBRANCH  26  27
ENDBRANCH  25  26
ENDBRANCH   1  25
TORSDOF 20
ENDMDL
MODEL 3
REMARK VINA RESULT:     -11.2      6.566     10.166
REMARK SMILES C[NH2+][C@]1(C(=O)NCCCCNC(=O)c2ccc(-c3c4nc(c(-c5cccc(S(=O)(=O)[O-])c5F)c5ccc([nH]5)c(-c5cccc(S(=O)(=O)[O-])c5F)c5nc(c(-c6cccc(S(=O)(=O)[O-])c6F)c6ccc3[nH]6)C=C5)C=C4)cc2)CC[C@@H](OCCCc2ccccc2)C1
REMARK SMILES IDX 7 1 6 2 4 3 5 4 3 6 77 7 90 8 78 9 79 10 2 11 1 12 80 15
REMARK SMILES IDX 81 16 82 17 83 18 84 19 85 20 89 21 86 22 88 23 87 24 8 25
REMARK SMILES IDX 9 26 10 27 11 28 12 29 13 31 14 32 15 33 76 34 16 35 75 36
REMARK SMILES IDX 17 37 18 38 19 39 69 40 20 41 74 42 68 43 70 44 21 45 73 46
REMARK SMILES IDX 67 47 66 48 22 50 54 51 34 52 53 53 35 54 38 55 52 56 71 57
REMARK SMILES IDX 36 58 37 59 51 61 72 62 39 63 23 64 24 65 32 66 25 67 27 68
REMARK SMILES IDX 33 69 26 70 28 71 29 72 30 73 31 74 55 75 56 76 64 77 57 78
REMARK SMILES IDX 59 79 65 80 58 81 60 82 61 83 62 84 63 85 40 86 41 87 49 88
REMARK SMILES IDX 42 89 44 90 50 91 43 92 45 93 46 94 47 95 48 96
REMARK H PARENT 6 5 2 13 2 14 11 30 70 49 38 60
REMARK Flexibility Score: inf
ROOT
ATOM      1  C   UNL A   1      37.528  23.299  25.645  1.00  0.00     0.116 C 
ENDROOT
BRANCH   1   2
ATOM      2  N   UNL A   1      36.230  22.879  26.496  1.00  0.00    -0.351 N 
ATOM      3  C   UNL A   1      34.366  22.274  26.438  1.00  0.00     0.281 C 
ATOM      4  O   UNL A   1      33.690  21.805  27.421  1.00  0.00    -0.268 OA
ATOM      5  H   UNL A   1      36.475  22.958  27.447  1.00  0.00     0.163 HD
BRANCH   3   6
ATOM      6  C   UNL A   1      33.100  22.246  25.062  1.00  0.00     0.177 C 
ATOM      7  C   UNL A   1      31.829  23.175  25.001  1.00  0.00     0.082 C 
ATOM      8  C   UNL A   1      33.644  22.207  23.594  1.00  0.00     0.111 C 
ATOM      9  C   UNL A   1      31.552  23.475  23.525  1.00  0.00     0.039 C 
ATOM     10  C   UNL A   1      32.828  23.184  22.745  1.00  0.00     0.125 C 
BRANCH   6  11
ATOM     11  N   UNL A   1      32.321  20.923  25.283  1.00  0.00    -0.336 N 
ATOM     12  C   UNL A   1      32.643  19.753  24.482  1.00  0.00     0.331 C 
ATOM     13  H   UNL A   1      32.455  20.659  26.259  1.00  0.00     0.346 HD
ATOM     14  H   UNL A   1      31.371  21.156  24.991  1.00  0.00     0.346 HD
ENDBRANCH   6  11
BRANCH  10  15
ATOM     15  O   UNL A   1      33.357  24.399  22.223  1.00  0.00    -0.378 OA
BRANCH  15  16
ATOM     16  C   UNL A   1      32.556  25.303  21.495  1.00  0.00     0.161 C 
BRANCH  16  17
ATOM     17  C   UNL A   1      32.725  26.733  21.988  1.00  0.00     0.033 C 
BRANCH  17  18
ATOM     18  C   UNL A   1      32.241  27.015  23.406  1.00  0.00     0.038 C 
BRANCH  18  19
ATOM     19  C   UNL A   1      30.841  27.612  23.586  1.00  0.00    -0.048 A 
ATOM     20  C   UNL A   1      30.375  29.258  22.894  1.00  0.00     0.004 A 
ATOM     21  C   UNL A   1      29.484  26.466  24.106  1.00  0.00     0.004 A 
ATOM     22  C   UNL A   1      28.621  29.709  22.681  1.00  0.00     0.000 A 
ATOM     23  C   UNL A   1      27.734  26.941  23.880  1.00  0.00     0.000 A 
ATOM     24  C   UNL A   1      27.286  28.557  23.145  1.00  0.00     0.000 A 
ENDBRANCH  18  19
ENDBRANCH  17  18
ENDBRANCH  16  17
ENDBRANCH  15  16
ENDBRANCH  10  15
ENDBRANCH   3   6
ENDBRANCH   1   2
BRANCH   1  25
ATOM     25  C   UNL A   1      38.823  22.827  26.320  1.00  0.00     0.023 C 
BRANCH  25  26
ATOM     26  C   UNL A   1      39.279  21.473  25.801  1.00  0.00     0.023 C 
BRANCH  26  27
ATOM     27  C   UNL A   1      40.040  20.673  26.845  1.00  0.00     0.116 C 
BRANCH  27  28
ATOM     28  N   UNL A   1      40.990  19.732  26.240  1.00  0.00    -0.352 N 
ATOM     29  C   UNL A   1      42.243  20.005  25.761  1.00  0.00     0.251 C 
ATOM     30  H   UNL A   1      40.692  18.795  26.171  1.00  0.00     0.163 HD
ATOM     31  O   UNL A   1      42.882  19.195  25.104  1.00  0.00    -0.269 OA
BRANCH  29  32
ATOM     32  C   UNL A   1      42.768  21.329  26.094  1.00  0.00     0.039 A 
ATOM     33  C   UNL A   1      42.823  22.308  25.107  1.00  0.00     0.014 A 
ATOM     34  C   UNL A   1      42.963  21.619  27.448  1.00  0.00     0.014 A 
ATOM     35  C   UNL A   1      43.051  23.621  25.497  1.00  0.00     0.010 A 
ATOM     36  C   UNL A   1      43.057  22.939  27.836  1.00  0.00     0.010 A 
ATOM     37  C   UNL A   1      43.140  23.944  26.863  1.00  0.00    -0.014 A 
BRANCH  37  38
ATOM     38  C   UNL A   1      43.371  25.333  27.303  1.00  0.00     0.031 A 
ATOM     39  C   UNL A   1      44.763  25.895  27.232  1.00  0.00     0.074 A 
ATOM     40  C   UNL A   1      42.355  26.048  27.819  1.00  0.00     0.049 A 
ATOM     41  N   UNL A   1      45.191  27.073  27.593  1.00  0.00    -0.248 NA
ATOM     42  C   UNL A   1      45.824  25.002  26.726  1.00  0.00     0.031 C 
ATOM     43  C   UNL A   1      40.987  25.562  28.018  1.00  0.00     0.029 A 
ATOM     44  N   UNL A   1      42.321  27.336  28.287  1.00  0.00    -0.354 N 
ATOM     45  C   UNL A   1      46.565  27.046  27.398  1.00  0.00     0.074 A 
ATOM     46  C   UNL A   1      46.912  25.721  26.943  1.00  0.00     0.031 C 
ATOM     47  C   UNL A   1      40.242  26.547  28.545  1.00  0.00     0.029 A 
ATOM     48  C   UNL A   1      41.087  27.717  28.756  1.00  0.00     0.049 A 
ATOM     49  H   UNL A   1      43.105  27.930  28.287  1.00  0.00     0.167 HD
ATOM     50  C   UNL A   1      47.457  28.049  27.550  1.00  0.00     0.034 A 
ATOM     51  C   UNL A   1      40.690  28.883  29.302  1.00  0.00     0.034 A 
ATOM     52  C   UNL A   1      47.090  29.374  27.960  1.00  0.00     0.049 A 
ATOM     53  C   UNL A   1      41.692  29.998  29.419  1.00  0.00     0.074 A 
ATOM     54  C   UNL A   1      47.891  30.495  28.057  1.00  0.00     0.029 A 
ATOM     55  N   UNL A   1      45.816  29.750  28.357  1.00  0.00    -0.354 N 
ATOM     56  N   UNL A   1      42.959  30.007  29.080  1.00  0.00    -0.248 NA
ATOM     57  C   UNL A   1      41.204  31.275  29.956  1.00  0.00     0.031 C 
ATOM     58  C   UNL A   1      47.109  31.541  28.556  1.00  0.00     0.029 A 
ATOM     59  C   UNL A   1      45.810  31.084  28.719  1.00  0.00     0.049 A 
ATOM     60  H   UNL A   1      45.031  29.155  28.378  1.00  0.00     0.167 HD
ATOM     61  C   UNL A   1      43.412  31.297  29.330  1.00  0.00     0.074 A 
ATOM     62  C   UNL A   1      42.275  32.046  29.828  1.00  0.00     0.031 C 
ATOM     63  C   UNL A   1      44.655  31.814  29.172  1.00  0.00     0.034 A 
BRANCH  50  64
ATOM     64  C   UNL A   1      48.899  27.757  27.240  1.00  0.00     0.023 A 
ATOM     65  C   UNL A   1      49.755  27.267  28.248  1.00  0.00     0.012 A 
ATOM     66  C   UNL A   1      49.397  27.929  25.935  1.00  0.00     0.148 A 
ATOM     67  C   UNL A   1      51.093  26.990  27.973  1.00  0.00     0.002 A 
ATOM     68  C   UNL A   1      50.717  27.599  25.655  1.00  0.00     0.091 A 
ATOM     69  F   UNL A   1      48.576  28.424  24.998  1.00  0.00    -0.205 F 
ATOM     70  C   UNL A   1      51.570  27.143  26.674  1.00  0.00     0.022 A 
BRANCH  68  71
ATOM     71  S   UNL A   1      51.402  27.680  23.998  1.00  0.00     0.127 S 
ATOM     72  O   UNL A   1      52.350  28.786  24.126  1.00  0.00    -0.237 OA
ATOM     73  O   UNL A   1      52.020  26.361  23.861  1.00  0.00    -0.237 OA
ATOM     74  O   UNL A   1      50.279  27.925  23.106  1.00  0.00    -0.744 OA
ENDBRANCH  68  71
ENDBRANCH  50  64
BRANCH  51  75
ATOM     75  C   UNL A   1      39.276  29.063  29.732  1.00  0.00     0.023 A 
ATOM     76  C   UNL A   1      38.884  28.681  31.029  1.00  0.00     0.012 A 
ATOM     77  C   UNL A   1      38.324  29.639  28.869  1.00  0.00     0.148 A 
ATOM     78  C   UNL A   1      37.560  28.833  31.446  1.00  0.00     0.002 A 
ATOM     79  C   UNL A   1      37.022  29.841  29.309  1.00  0.00     0.091 A 
ATOM     80  F   UNL A   1      38.718  29.993  27.637  1.00  0.00    -0.205 F 
ATOM     81  C   UNL A   1      36.632  29.421  30.590  1.00  0.00     0.022 A 
BRANCH  79  82
ATOM     82  S   UNL A   1      35.797  30.709  28.324  1.00  0.00     0.127 S 
ATOM     83  O   UNL A   1      35.280  29.636  27.478  1.00  0.00    -0.237 OA
ATOM     84  O   UNL A   1      34.871  31.186  29.352  1.00  0.00    -0.237 OA
ATOM     85  O   UNL A   1      36.522  31.765  27.631  1.00  0.00    -0.744 OA
ENDBRANCH  79  82
ENDBRANCH  51  75
BRANCH  63  86
ATOM     86  C   UNL A   1      44.848  33.272  29.494  1.00  0.00     0.023 A 
ATOM     87  C   UNL A   1      45.266  33.664  30.780  1.00  0.00     0.012 A 
ATOM     88  C   UNL A   1      44.689  34.244  28.488  1.00  0.00     0.148 A 
ATOM     89  C   UNL A   1      45.487  35.008  31.071  1.00  0.00     0.002 A 
ATOM     90  C   UNL A   1      44.968  35.575  28.769  1.00  0.00     0.091 A 
ATOM     91  F   UNL A   1      44.277  33.849  27.274  1.00  0.00    -0.205 F 
ATOM     92  C   UNL A   1      45.351  35.961  30.063  1.00  0.00     0.022 A 
BRANCH  90  93
ATOM     93  S   UNL A   1      44.923  36.853  27.509  1.00  0.00     0.127 S 
ATOM     94  O   UNL A   1      45.417  38.015  28.246  1.00  0.00    -0.237 OA
ATOM     95  O   UNL A   1      45.848  36.327  26.505  1.00  0.00    -0.237 OA
ATOM     96  O   UNL A   1      43.536  36.939  27.069  1.00  0.00    -0.744 OA
ENDBRANCH  90  93
ENDBRANCH  63  86
ENDBRANCH  37  38
ENDBRANCH  29  32
ENDBRANCH  27  28
ENDBRANCH  26  27
ENDBRANCH  25  26
ENDBRANCH   1  25
TORSDOF 20
ENDMDL
