MODEL 1
REMARK VINA RESULT:     -12.6      0.000      0.000
REMARK SMILES C=CC[C@@]1(C(=O)NCCCCNC(=O)c2ccc(-c3c4nc(c(-c5cccc(S(=O)(=O)[O-])c5F)c5ccc([nH]5)c(-c5cccc(S(=O)(=O)[O-])c5F)c5nc(c(-c6cccc(S(=O)(=O)[O-])c6F)c6ccc3[nH]6)C=C5)C=C4)cc2)CCCN(C(=O)c2ccc3c(c2)OCO3)C1
REMARK SMILES IDX 10 1 9 2 8 3 7 4 5 5 6 6 4 8 78 9 93 10 79 11 81 12 80 13
REMARK SMILES IDX 3 14 2 15 1 16 82 17 83 18 84 19 85 20 89 21 86 22 88 23
REMARK SMILES IDX 87 24 90 25 92 26 91 27 11 28 12 29 13 30 14 32 15 33 16 34
REMARK SMILES IDX 77 35 17 36 76 37 18 38 19 39 20 40 70 41 21 42 75 43 69 44
REMARK SMILES IDX 71 45 22 46 74 47 68 48 67 49 23 51 55 52 35 53 54 54 36 55
REMARK SMILES IDX 39 56 53 57 72 58 37 59 38 60 52 62 73 63 40 64 24 65 25 66
REMARK SMILES IDX 33 67 26 68 28 69 34 70 27 71 29 72 30 73 31 74 32 75 56 76
REMARK SMILES IDX 57 77 65 78 58 79 60 80 66 81 59 82 61 83 62 84 63 85 64 86
REMARK SMILES IDX 41 87 42 88 50 89 43 90 45 91 51 92 44 93 46 94 47 95 48 96
REMARK SMILES IDX 49 97
REMARK H PARENT 7 7 12 31 71 50 39 61
REMARK Flexibility Score: inf
ROOT
ATOM      1  C   UNL A   1      32.114  30.191  25.541  1.00  0.00     0.023 C 
ENDROOT
BRANCH   1   2
ATOM      2  C   UNL A   1      33.297  29.362  25.063  1.00  0.00     0.023 C 
BRANCH   2   3
ATOM      3  C   UNL A   1      33.295  28.931  23.606  1.00  0.00     0.116 C 
BRANCH   3   4
ATOM      4  N   UNL A   1      33.836  27.627  23.316  1.00  0.00    -0.356 N 
ATOM      5  C   UNL A   1      33.177  26.501  22.915  1.00  0.00     0.228 C 
ATOM      6  O   UNL A   1      33.886  25.650  22.360  1.00  0.00    -0.274 OA
ATOM      7  H   UNL A   1      34.811  27.535  23.421  1.00  0.00     0.163 HD
BRANCH   5   8
ATOM      8  C   UNL A   1      31.679  26.183  23.224  1.00  0.00     0.070 C 
ATOM      9  C   UNL A   1      31.404  26.538  24.718  1.00  0.00     0.021 C 
ATOM     10  C   UNL A   1      31.184  24.731  23.076  1.00  0.00     0.137 C 
ATOM     11  C   UNL A   1      32.123  25.565  25.668  1.00  0.00     0.023 C 
ATOM     12  N   UNL A   1      31.882  23.792  23.938  1.00  0.00    -0.338 N 
ATOM     13  C   UNL A   1      31.816  24.098  25.369  1.00  0.00     0.120 C 
BRANCH   8  14
ATOM     14  C   UNL A   1      30.818  27.048  22.255  1.00  0.00     0.045 C 
BRANCH  14  15
ATOM     15  C   UNL A   1      29.770  27.927  22.886  1.00  0.00    -0.034 C 
ATOM     16  C   UNL A   1      29.686  29.249  22.691  1.00  0.00     0.004 C 
ENDBRANCH  14  15
ENDBRANCH   8  14
BRANCH  12  17
ATOM     17  C   UNL A   1      32.296  22.575  23.397  1.00  0.00     0.254 C 
ATOM     18  O   UNL A   1      31.749  22.014  22.452  1.00  0.00    -0.269 OA
BRANCH  17  19
ATOM     19  C   UNL A   1      33.457  21.911  23.999  1.00  0.00     0.043 A 
ATOM     20  C   UNL A   1      33.352  20.583  24.462  1.00  0.00     0.018 A 
ATOM     21  C   UNL A   1      34.660  22.617  24.038  1.00  0.00     0.064 A 
ATOM     22  C   UNL A   1      34.493  19.922  24.922  1.00  0.00     0.051 A 
ATOM     23  C   UNL A   1      35.764  21.926  24.473  1.00  0.00     0.166 A 
ATOM     24  C   UNL A   1      35.687  20.615  24.891  1.00  0.00     0.165 A 
ATOM     25  O   UNL A   1      37.035  22.407  24.500  1.00  0.00    -0.454 OA
ATOM     26  O   UNL A   1      36.906  20.112  25.225  1.00  0.00    -0.454 OA
ATOM     27  C   UNL A   1      37.761  21.214  24.859  1.00  0.00     0.468 C 
ENDBRANCH  17  19
ENDBRANCH  12  17
ENDBRANCH   5   8
ENDBRANCH   3   4
ENDBRANCH   2   3
ENDBRANCH   1   2
BRANCH   1  28
ATOM     28  C   UNL A   1      32.114  30.637  27.000  1.00  0.00     0.116 C 
BRANCH  28  29
ATOM     29  N   UNL A   1      32.228  32.077  27.218  1.00  0.00    -0.352 N 
ATOM     30  C   UNL A   1      33.331  32.807  27.619  1.00  0.00     0.251 C 
ATOM     31  H   UNL A   1      31.408  32.598  27.057  1.00  0.00     0.163 HD
ATOM     32  O   UNL A   1      33.270  34.019  27.764  1.00  0.00    -0.269 OA
BRANCH  30  33
ATOM     33  C   UNL A   1      34.586  32.089  27.930  1.00  0.00     0.039 A 
ATOM     34  C   UNL A   1      35.771  32.824  28.035  1.00  0.00     0.014 A 
ATOM     35  C   UNL A   1      34.566  30.727  28.234  1.00  0.00     0.014 A 
ATOM     36  C   UNL A   1      36.910  32.217  28.572  1.00  0.00     0.010 A 
ATOM     37  C   UNL A   1      35.678  30.148  28.839  1.00  0.00     0.010 A 
ATOM     38  C   UNL A   1      36.850  30.895  29.042  1.00  0.00    -0.014 A 
BRANCH  38  39
ATOM     39  C   UNL A   1      37.970  30.291  29.813  1.00  0.00     0.031 A 
ATOM     40  C   UNL A   1      38.228  30.713  31.232  1.00  0.00     0.074 A 
ATOM     41  C   UNL A   1      38.834  29.461  29.191  1.00  0.00     0.049 A 
ATOM     42  N   UNL A   1      39.218  30.387  32.022  1.00  0.00    -0.248 NA
ATOM     43  C   UNL A   1      37.262  31.647  31.835  1.00  0.00     0.031 C 
ATOM     44  C   UNL A   1      38.749  29.042  27.789  1.00  0.00     0.029 A 
ATOM     45  N   UNL A   1      39.975  28.847  29.648  1.00  0.00    -0.354 N 
ATOM     46  C   UNL A   1      39.021  31.106  33.193  1.00  0.00     0.074 A 
ATOM     47  C   UNL A   1      37.832  31.909  33.002  1.00  0.00     0.031 C 
ATOM     48  C   UNL A   1      39.789  28.241  27.504  1.00  0.00     0.029 A 
ATOM     49  C   UNL A   1      40.632  28.113  28.688  1.00  0.00     0.049 A 
ATOM     50  H   UNL A   1      40.293  28.927  30.577  1.00  0.00     0.167 HD
ATOM     51  C   UNL A   1      39.743  31.078  34.339  1.00  0.00     0.034 A 
ATOM     52  C   UNL A   1      41.787  27.420  28.749  1.00  0.00     0.034 A 
ATOM     53  C   UNL A   1      40.889  30.236  34.551  1.00  0.00     0.049 A 
ATOM     54  C   UNL A   1      42.542  27.367  30.049  1.00  0.00     0.074 A 
ATOM     55  C   UNL A   1      41.624  30.061  35.710  1.00  0.00     0.029 A 
ATOM     56  N   UNL A   1      41.466  29.427  33.585  1.00  0.00    -0.354 N 
ATOM     57  N   UNL A   1      42.245  27.921  31.198  1.00  0.00    -0.248 NA
ATOM     58  C   UNL A   1      43.776  26.566  30.071  1.00  0.00     0.031 C 
ATOM     59  C   UNL A   1      42.652  29.151  35.443  1.00  0.00     0.029 A 
ATOM     60  C   UNL A   1      42.551  28.754  34.119  1.00  0.00     0.049 A 
ATOM     61  H   UNL A   1      41.151  29.343  32.657  1.00  0.00     0.167 HD
ATOM     62  C   UNL A   1      43.235  27.515  32.086  1.00  0.00     0.074 A 
ATOM     63  C   UNL A   1      44.128  26.648  31.347  1.00  0.00     0.031 C 
ATOM     64  C   UNL A   1      43.399  27.846  33.390  1.00  0.00     0.034 A 
BRANCH  51  65
ATOM     65  C   UNL A   1      39.267  31.935  35.481  1.00  0.00     0.023 A 
ATOM     66  C   UNL A   1      39.568  33.313  35.478  1.00  0.00     0.012 A 
ATOM     67  C   UNL A   1      38.483  31.400  36.521  1.00  0.00     0.148 A 
ATOM     68  C   UNL A   1      39.127  34.138  36.510  1.00  0.00     0.002 A 
ATOM     69  C   UNL A   1      38.012  32.238  37.525  1.00  0.00     0.091 A 
ATOM     70  F   UNL A   1      38.227  30.084  36.518  1.00  0.00    -0.205 F 
ATOM     71  C   UNL A   1      38.342  33.604  37.527  1.00  0.00     0.022 A 
BRANCH  69  72
ATOM     72  S   UNL A   1      36.935  31.658  38.841  1.00  0.00     0.127 S 
ATOM     73  O   UNL A   1      36.590  30.317  38.369  1.00  0.00    -0.237 OA
ATOM     74  O   UNL A   1      37.824  31.684  40.003  1.00  0.00    -0.237 OA
ATOM     75  O   UNL A   1      35.832  32.606  38.900  1.00  0.00    -0.744 OA
ENDBRANCH  69  72
ENDBRANCH  51  65
BRANCH  52  76
ATOM     76  C   UNL A   1      42.261  26.654  27.560  1.00  0.00     0.023 A 
ATOM     77  C   UNL A   1      43.013  27.320  26.573  1.00  0.00     0.012 A 
ATOM     78  C   UNL A   1      41.996  25.279  27.410  1.00  0.00     0.148 A 
ATOM     79  C   UNL A   1      43.471  26.639  25.445  1.00  0.00     0.002 A 
ATOM     80  C   UNL A   1      42.499  24.594  26.308  1.00  0.00     0.091 A 
ATOM     81  F   UNL A   1      41.264  24.665  28.349  1.00  0.00    -0.205 F 
ATOM     82  C   UNL A   1      43.223  25.275  25.317  1.00  0.00     0.022 A 
BRANCH  80  83
ATOM     83  S   UNL A   1      42.335  22.814  26.130  1.00  0.00     0.127 S 
ATOM     84  O   UNL A   1      43.120  22.327  27.261  1.00  0.00    -0.237 OA
ATOM     85  O   UNL A   1      40.890  22.625  26.256  1.00  0.00    -0.237 OA
ATOM     86  O   UNL A   1      42.863  22.506  24.807  1.00  0.00    -0.744 OA
ENDBRANCH  80  83
ENDBRANCH  52  76
BRANCH  64  87
ATOM     87  C   UNL A   1      44.575  27.257  34.120  1.00  0.00     0.023 A 
ATOM     88  C   UNL A   1      45.812  27.930  34.099  1.00  0.00     0.012 A 
ATOM     89  C   UNL A   1      44.435  26.088  34.894  1.00  0.00     0.148 A 
ATOM     90  C   UNL A   1      46.899  27.438  34.821  1.00  0.00     0.002 A 
ATOM     91  C   UNL A   1      45.511  25.628  35.646  1.00  0.00     0.091 A 
ATOM     92  F   UNL A   1      43.255  25.451  34.884  1.00  0.00    -0.205 F 
ATOM     93  C   UNL A   1      46.744  26.297  35.604  1.00  0.00     0.022 A 
BRANCH  91  94
ATOM     94  S   UNL A   1      45.376  24.218  36.752  1.00  0.00     0.127 S 
ATOM     95  O   UNL A   1      44.761  23.216  35.884  1.00  0.00    -0.237 OA
ATOM     96  O   UNL A   1      46.774  23.953  37.092  1.00  0.00    -0.237 OA
ATOM     97  O   UNL A   1      44.559  24.665  37.872  1.00  0.00    -0.744 OA
ENDBRANCH  91  94
ENDBRANCH  64  87
ENDBRANCH  38  39
ENDBRANCH  30  33
ENDBRANCH  28  29
ENDBRANCH   1  28
TORSDOF 18
ENDMDL
MODEL 2
REMARK VINA RESULT:     -12.5      0.387      7.348
REMARK SMILES C=CC[C@@]1(C(=O)NCCCCNC(=O)c2ccc(-c3c4nc(c(-c5cccc(S(=O)(=O)[O-])c5F)c5ccc([nH]5)c(-c5cccc(S(=O)(=O)[O-])c5F)c5nc(c(-c6cccc(S(=O)(=O)[O-])c6F)c6ccc3[nH]6)C=C5)C=C4)cc2)CCCN(C(=O)c2ccc3c(c2)OCO3)C1
REMARK SMILES IDX 10 1 9 2 8 3 7 4 5 5 6 6 4 8 78 9 93 10 79 11 81 12 80 13
REMARK SMILES IDX 3 14 2 15 1 16 82 17 83 18 84 19 85 20 89 21 86 22 88 23
REMARK SMILES IDX 87 24 90 25 92 26 91 27 11 28 12 29 13 30 14 32 15 33 16 34
REMARK SMILES IDX 77 35 17 36 76 37 18 38 19 39 20 40 70 41 21 42 75 43 69 44
REMARK SMILES IDX 71 45 22 46 74 47 68 48 67 49 23 51 55 52 35 53 54 54 36 55
REMARK SMILES IDX 39 56 53 57 72 58 37 59 38 60 52 62 73 63 40 64 24 65 25 66
REMARK SMILES IDX 33 67 26 68 28 69 34 70 27 71 29 72 30 73 31 74 32 75 56 76
REMARK SMILES IDX 57 77 65 78 58 79 60 80 66 81 59 82 61 83 62 84 63 85 64 86
REMARK SMILES IDX 41 87 42 88 50 89 43 90 45 91 51 92 44 93 46 94 47 95 48 96
REMARK SMILES IDX 49 97
REMARK H PARENT 7 7 12 31 71 50 39 61
REMARK Flexibility Score: inf
ROOT
ATOM      1  C   UNL A   1      32.173  29.932  25.562  1.00  0.00     0.023 C 
ENDROOT
BRANCH   1   2
ATOM      2  C   UNL A   1      33.433  29.354  24.935  1.00  0.00     0.023 C 
BRANCH   2   3
ATOM      3  C   UNL A   1      33.320  28.829  23.514  1.00  0.00     0.116 C 
BRANCH   3   4
ATOM      4  N   UNL A   1      33.843  27.509  23.268  1.00  0.00    -0.356 N 
ATOM      5  C   UNL A   1      33.168  26.376  22.918  1.00  0.00     0.228 C 
ATOM      6  O   UNL A   1      33.861  25.496  22.388  1.00  0.00    -0.274 OA
ATOM      7  H   UNL A   1      34.818  27.410  23.365  1.00  0.00     0.163 HD
BRANCH   5   8
ATOM      8  C   UNL A   1      31.670  26.087  23.255  1.00  0.00     0.070 C 
ATOM      9  C   UNL A   1      31.432  26.444  24.756  1.00  0.00     0.021 C 
ATOM     10  C   UNL A   1      31.144  24.644  23.115  1.00  0.00     0.137 C 
ATOM     11  C   UNL A   1      32.150  25.455  25.689  1.00  0.00     0.023 C 
ATOM     12  N   UNL A   1      31.840  23.690  23.962  1.00  0.00    -0.338 N 
ATOM     13  C   UNL A   1      31.809  23.995  25.394  1.00  0.00     0.120 C 
BRANCH   8  14
ATOM     14  C   UNL A   1      30.807  26.970  22.305  1.00  0.00     0.045 C 
BRANCH  14  15
ATOM     15  C   UNL A   1      29.695  27.760  22.944  1.00  0.00    -0.034 C 
ATOM     16  C   UNL A   1      29.646  29.098  22.969  1.00  0.00     0.004 C 
ENDBRANCH  14  15
ENDBRANCH   8  14
BRANCH  12  17
ATOM     17  C   UNL A   1      32.220  22.467  23.411  1.00  0.00     0.254 C 
ATOM     18  O   UNL A   1      31.643  21.918  22.476  1.00  0.00    -0.269 OA
BRANCH  17  19
ATOM     19  C   UNL A   1      33.380  21.779  23.988  1.00  0.00     0.043 A 
ATOM     20  C   UNL A   1      33.269  20.441  24.418  1.00  0.00     0.018 A 
ATOM     21  C   UNL A   1      34.589  22.476  24.036  1.00  0.00     0.064 A 
ATOM     22  C   UNL A   1      34.408  19.761  24.854  1.00  0.00     0.051 A 
ATOM     23  C   UNL A   1      35.691  21.766  24.445  1.00  0.00     0.166 A 
ATOM     24  C   UNL A   1      35.606  20.445  24.832  1.00  0.00     0.165 A 
ATOM     25  O   UNL A   1      36.966  22.237  24.475  1.00  0.00    -0.454 OA
ATOM     26  O   UNL A   1      36.824  19.926  25.144  1.00  0.00    -0.454 OA
ATOM     27  C   UNL A   1      37.684  21.030  24.800  1.00  0.00     0.468 C 
ENDBRANCH  17  19
ENDBRANCH  12  17
ENDBRANCH   5   8
ENDBRANCH   3   4
ENDBRANCH   2   3
ENDBRANCH   1   2
BRANCH   1  28
ATOM     28  C   UNL A   1      32.261  30.397  27.013  1.00  0.00     0.116 C 
BRANCH  28  29
ATOM     29  N   UNL A   1      32.214  31.842  27.214  1.00  0.00    -0.352 N 
ATOM     30  C   UNL A   1      33.232  32.696  27.596  1.00  0.00     0.251 C 
ATOM     31  H   UNL A   1      31.340  32.267  27.056  1.00  0.00     0.163 HD
ATOM     32  O   UNL A   1      33.037  33.896  27.729  1.00  0.00    -0.269 OA
BRANCH  30  33
ATOM     33  C   UNL A   1      34.563  32.127  27.902  1.00  0.00     0.039 A 
ATOM     34  C   UNL A   1      35.666  32.985  27.941  1.00  0.00     0.014 A 
ATOM     35  C   UNL A   1      34.693  30.786  28.264  1.00  0.00     0.014 A 
ATOM     36  C   UNL A   1      36.875  32.524  28.471  1.00  0.00     0.010 A 
ATOM     37  C   UNL A   1      35.873  30.354  28.861  1.00  0.00     0.010 A 
ATOM     38  C   UNL A   1      36.965  31.226  28.999  1.00  0.00    -0.014 A 
BRANCH  38  39
ATOM     39  C   UNL A   1      38.160  30.777  29.763  1.00  0.00     0.031 A 
ATOM     40  C   UNL A   1      39.104  29.768  29.170  1.00  0.00     0.074 A 
ATOM     41  C   UNL A   1      38.322  31.178  31.041  1.00  0.00     0.049 A 
ATOM     42  N   UNL A   1      40.127  29.172  29.724  1.00  0.00    -0.248 NA
ATOM     43  C   UNL A   1      38.845  29.350  27.782  1.00  0.00     0.031 C 
ATOM     44  C   UNL A   1      37.428  32.086  31.766  1.00  0.00     0.029 A 
ATOM     45  N   UNL A   1      39.278  30.848  31.971  1.00  0.00    -0.354 N 
ATOM     46  C   UNL A   1      40.608  28.282  28.774  1.00  0.00     0.074 A 
ATOM     47  C   UNL A   1      39.746  28.392  27.617  1.00  0.00     0.031 C 
ATOM     48  C   UNL A   1      37.878  32.240  33.022  1.00  0.00     0.029 A 
ATOM     49  C   UNL A   1      39.072  31.422  33.205  1.00  0.00     0.049 A 
ATOM     50  H   UNL A   1      40.039  30.255  31.773  1.00  0.00     0.167 HD
ATOM     51  C   UNL A   1      41.689  27.468  28.841  1.00  0.00     0.034 A 
ATOM     52  C   UNL A   1      39.762  31.299  34.357  1.00  0.00     0.034 A 
ATOM     53  C   UNL A   1      42.581  27.402  29.967  1.00  0.00     0.049 A 
ATOM     54  C   UNL A   1      40.986  30.426  34.389  1.00  0.00     0.074 A 
ATOM     55  C   UNL A   1      43.759  26.686  30.089  1.00  0.00     0.029 A 
ATOM     56  N   UNL A   1      42.397  28.076  31.163  1.00  0.00    -0.354 N 
ATOM     57  N   UNL A   1      41.521  29.720  33.423  1.00  0.00    -0.248 NA
ATOM     58  C   UNL A   1      41.722  30.355  35.660  1.00  0.00     0.031 C 
ATOM     59  C   UNL A   1      44.283  26.922  31.364  1.00  0.00     0.029 A 
ATOM     60  C   UNL A   1      43.434  27.790  32.032  1.00  0.00     0.049 A 
ATOM     61  H   UNL A   1      41.639  28.671  31.366  1.00  0.00     0.167 HD
ATOM     62  C   UNL A   1      42.669  29.147  33.958  1.00  0.00     0.074 A 
ATOM     63  C   UNL A   1      42.765  29.607  35.328  1.00  0.00     0.031 C 
ATOM     64  C   UNL A   1      43.552  28.301  33.374  1.00  0.00     0.034 A 
BRANCH  51  65
ATOM     65  C   UNL A   1      42.008  26.635  27.629  1.00  0.00     0.023 A 
ATOM     66  C   UNL A   1      42.654  27.239  26.531  1.00  0.00     0.012 A 
ATOM     67  C   UNL A   1      41.723  25.257  27.593  1.00  0.00     0.148 A 
ATOM     68  C   UNL A   1      42.980  26.492  25.401  1.00  0.00     0.002 A 
ATOM     69  C   UNL A   1      42.089  24.510  26.478  1.00  0.00     0.091 A 
ATOM     70  F   UNL A   1      41.087  24.705  28.637  1.00  0.00    -0.205 F 
ATOM     71  C   UNL A   1      42.707  25.128  25.378  1.00  0.00     0.022 A 
BRANCH  69  72
ATOM     72  S   UNL A   1      41.843  22.733  26.384  1.00  0.00     0.127 S 
ATOM     73  O   UNL A   1      40.385  22.635  26.395  1.00  0.00    -0.237 OA
ATOM     74  O   UNL A   1      42.466  22.402  25.101  1.00  0.00    -0.237 OA
ATOM     75  O   UNL A   1      42.520  22.175  27.546  1.00  0.00    -0.744 OA
ENDBRANCH  69  72
ENDBRANCH  51  65
BRANCH  52  76
ATOM     76  C   UNL A   1      39.353  32.083  35.558  1.00  0.00     0.023 A 
ATOM     77  C   UNL A   1      39.748  33.432  35.661  1.00  0.00     0.012 A 
ATOM     78  C   UNL A   1      38.567  31.518  36.580  1.00  0.00     0.148 A 
ATOM     79  C   UNL A   1      39.388  34.196  36.771  1.00  0.00     0.002 A 
ATOM     80  C   UNL A   1      38.169  32.301  37.660  1.00  0.00     0.091 A 
ATOM     81  F   UNL A   1      38.216  30.229  36.475  1.00  0.00    -0.205 F 
ATOM     82  C   UNL A   1      38.592  33.635  37.765  1.00  0.00     0.022 A 
BRANCH  80  83
ATOM     83  S   UNL A   1      37.039  31.694  38.918  1.00  0.00     0.127 S 
ATOM     84  O   UNL A   1      36.838  30.310  38.497  1.00  0.00    -0.237 OA
ATOM     85  O   UNL A   1      37.824  31.859  40.141  1.00  0.00    -0.237 OA
ATOM     86  O   UNL A   1      35.870  32.561  38.838  1.00  0.00    -0.744 OA
ENDBRANCH  80  83
ENDBRANCH  52  76
BRANCH  64  87
ATOM     87  C   UNL A   1      44.719  27.827  34.198  1.00  0.00     0.023 A 
ATOM     88  C   UNL A   1      45.895  28.601  34.244  1.00  0.00     0.012 A 
ATOM     89  C   UNL A   1      44.620  26.668  34.993  1.00  0.00     0.148 A 
ATOM     90  C   UNL A   1      46.965  28.217  35.051  1.00  0.00     0.002 A 
ATOM     91  C   UNL A   1      45.675  26.315  35.828  1.00  0.00     0.091 A 
ATOM     92  F   UNL A   1      43.500  25.935  34.919  1.00  0.00    -0.205 F 
ATOM     93  C   UNL A   1      46.849  27.083  35.852  1.00  0.00     0.022 A 
BRANCH  91  94
ATOM     94  S   UNL A   1      45.578  24.923  36.960  1.00  0.00     0.127 S 
ATOM     95  O   UNL A   1      45.425  23.799  36.038  1.00  0.00    -0.237 OA
ATOM     96  O   UNL A   1      46.872  24.982  37.640  1.00  0.00    -0.237 OA
ATOM     97  O   UNL A   1      44.434  25.187  37.822  1.00  0.00    -0.744 OA
ENDBRANCH  91  94
ENDBRANCH  64  87
ENDBRANCH  38  39
ENDBRANCH  30  33
ENDBRANCH  28  29
ENDBRANCH   1  28
TORSDOF 18
ENDMDL
MODEL 3
REMARK VINA RESULT:     -12.3      2.001      2.795
REMARK SMILES C=CC[C@@]1(C(=O)NCCCCNC(=O)c2ccc(-c3c4nc(c(-c5cccc(S(=O)(=O)[O-])c5F)c5ccc([nH]5)c(-c5cccc(S(=O)(=O)[O-])c5F)c5nc(c(-c6cccc(S(=O)(=O)[O-])c6F)c6ccc3[nH]6)C=C5)C=C4)cc2)CCCN(C(=O)c2ccc3c(c2)OCO3)C1
REMARK SMILES IDX 10 1 9 2 8 3 7 4 5 5 6 6 4 8 78 9 93 10 79 11 81 12 80 13
REMARK SMILES IDX 3 14 2 15 1 16 82 17 83 18 84 19 85 20 89 21 86 22 88 23
REMARK SMILES IDX 87 24 90 25 92 26 91 27 11 28 12 29 13 30 14 32 15 33 16 34
REMARK SMILES IDX 77 35 17 36 76 37 18 38 19 39 20 40 70 41 21 42 75 43 69 44
REMARK SMILES IDX 71 45 22 46 74 47 68 48 67 49 23 51 55 52 35 53 54 54 36 55
REMARK SMILES IDX 39 56 53 57 72 58 37 59 38 60 52 62 73 63 40 64 24 65 25 66
REMARK SMILES IDX 33 67 26 68 28 69 34 70 27 71 29 72 30 73 31 74 32 75 56 76
REMARK SMILES IDX 57 77 65 78 58 79 60 80 66 81 59 82 61 83 62 84 63 85 64 86
REMARK SMILES IDX 41 87 42 88 50 89 43 90 45 91 51 92 44 93 46 94 47 95 48 96
REMARK SMILES IDX 49 97
REMARK H PARENT 7 7 12 31 71 50 39 61
REMARK Flexibility Score: inf
ROOT
ATOM      1  C   UNL A   1      31.588  29.101  25.695  1.00  0.00     0.023 C 
ENDROOT
BRANCH   1   2
ATOM      2  C   UNL A   1      31.447  27.812  26.492  1.00  0.00     0.023 C 
BRANCH   2   3
ATOM      3  C   UNL A   1      30.690  26.672  25.832  1.00  0.00     0.116 C 
BRANCH   3   4
ATOM      4  N   UNL A   1      30.778  25.382  26.471  1.00  0.00    -0.356 N 
ATOM      5  C   UNL A   1      31.785  24.464  26.401  1.00  0.00     0.228 C 
ATOM      6  O   UNL A   1      31.807  23.640  27.326  1.00  0.00    -0.274 OA
ATOM      7  H   UNL A   1      30.009  25.130  27.032  1.00  0.00     0.163 HD
BRANCH   5   8
ATOM      8  C   UNL A   1      32.780  24.317  25.206  1.00  0.00     0.070 C 
ATOM      9  C   UNL A   1      31.948  24.167  23.895  1.00  0.00     0.021 C 
ATOM     10  C   UNL A   1      33.745  23.114  25.189  1.00  0.00     0.137 C 
ATOM     11  C   UNL A   1      31.214  22.816  23.847  1.00  0.00     0.023 C 
ATOM     12  N   UNL A   1      33.066  21.829  25.185  1.00  0.00    -0.338 N 
ATOM     13  C   UNL A   1      32.141  21.622  24.069  1.00  0.00     0.120 C 
BRANCH   8  14
ATOM     14  C   UNL A   1      33.666  25.598  25.187  1.00  0.00     0.045 C 
BRANCH  14  15
ATOM     15  C   UNL A   1      34.028  26.148  23.832  1.00  0.00    -0.034 C 
ATOM     16  C   UNL A   1      33.658  27.357  23.391  1.00  0.00     0.004 C 
ENDBRANCH  14  15
ENDBRANCH   8  14
BRANCH  12  17
ATOM     17  C   UNL A   1      33.535  20.828  26.034  1.00  0.00     0.254 C 
ATOM     18  O   UNL A   1      33.883  21.010  27.197  1.00  0.00    -0.269 OA
BRANCH  17  19
ATOM     19  C   UNL A   1      33.631  19.463  25.506  1.00  0.00     0.043 A 
ATOM     20  C   UNL A   1      34.682  19.114  24.632  1.00  0.00     0.018 A 
ATOM     21  C   UNL A   1      32.690  18.530  25.944  1.00  0.00     0.064 A 
ATOM     22  C   UNL A   1      34.831  17.784  24.231  1.00  0.00     0.051 A 
ATOM     23  C   UNL A   1      32.886  17.229  25.549  1.00  0.00     0.166 A 
ATOM     24  C   UNL A   1      33.930  16.864  24.728  1.00  0.00     0.165 A 
ATOM     25  O   UNL A   1      32.135  16.165  25.941  1.00  0.00    -0.454 OA
ATOM     26  O   UNL A   1      33.965  15.522  24.511  1.00  0.00    -0.454 OA
ATOM     27  C   UNL A   1      32.900  15.081  25.377  1.00  0.00     0.468 C 
ENDBRANCH  17  19
ENDBRANCH  12  17
ENDBRANCH   5   8
ENDBRANCH   3   4
ENDBRANCH   2   3
ENDBRANCH   1   2
BRANCH   1  28
ATOM     28  C   UNL A   1      32.842  29.938  25.930  1.00  0.00     0.116 C 
BRANCH  28  29
ATOM     29  N   UNL A   1      32.625  31.226  26.582  1.00  0.00    -0.352 N 
ATOM     30  C   UNL A   1      33.472  31.923  27.424  1.00  0.00     0.251 C 
ATOM     31  H   UNL A   1      31.760  31.657  26.398  1.00  0.00     0.163 HD
ATOM     32  O   UNL A   1      33.145  33.001  27.901  1.00  0.00    -0.269 OA
BRANCH  30  33
ATOM     33  C   UNL A   1      34.771  31.319  27.789  1.00  0.00     0.039 A 
ATOM     34  C   UNL A   1      35.869  32.159  27.993  1.00  0.00     0.014 A 
ATOM     35  C   UNL A   1      34.867  29.950  28.046  1.00  0.00     0.014 A 
ATOM     36  C   UNL A   1      37.029  31.645  28.580  1.00  0.00     0.010 A 
ATOM     37  C   UNL A   1      35.993  29.458  28.700  1.00  0.00     0.010 A 
ATOM     38  C   UNL A   1      37.072  30.305  29.002  1.00  0.00    -0.014 A 
BRANCH  38  39
ATOM     39  C   UNL A   1      38.198  29.782  29.821  1.00  0.00     0.031 A 
ATOM     40  C   UNL A   1      38.404  30.273  31.227  1.00  0.00     0.074 A 
ATOM     41  C   UNL A   1      39.111  28.967  29.253  1.00  0.00     0.049 A 
ATOM     42  N   UNL A   1      39.388  30.023  32.051  1.00  0.00    -0.248 NA
ATOM     43  C   UNL A   1      37.385  31.187  31.769  1.00  0.00     0.031 C 
ATOM     44  C   UNL A   1      39.077  28.488  27.869  1.00  0.00     0.029 A 
ATOM     45  N   UNL A   1      40.266  28.422  29.760  1.00  0.00    -0.354 N 
ATOM     46  C   UNL A   1      39.134  30.779  33.186  1.00  0.00     0.074 A 
ATOM     47  C   UNL A   1      37.916  31.521  32.936  1.00  0.00     0.031 C 
ATOM     48  C   UNL A   1      40.156  27.722  27.639  1.00  0.00     0.029 A 
ATOM     49  C   UNL A   1      40.976  27.679  28.846  1.00  0.00     0.049 A 
ATOM     50  H   UNL A   1      40.559  28.553  30.692  1.00  0.00     0.167 HD
ATOM     51  C   UNL A   1      39.829  30.829  34.348  1.00  0.00     0.034 A 
ATOM     52  C   UNL A   1      42.157  27.039  28.961  1.00  0.00     0.034 A 
ATOM     53  C   UNL A   1      41.004  30.048  34.620  1.00  0.00     0.049 A 
ATOM     54  C   UNL A   1      42.884  27.072  30.278  1.00  0.00     0.074 A 
ATOM     55  C   UNL A   1      41.718  29.952  35.801  1.00  0.00     0.029 A 
ATOM     56  N   UNL A   1      41.637  29.226  33.702  1.00  0.00    -0.354 N 
ATOM     57  N   UNL A   1      42.536  27.660  31.397  1.00  0.00    -0.248 NA
ATOM     58  C   UNL A   1      44.149  26.328  30.360  1.00  0.00     0.031 C 
ATOM     59  C   UNL A   1      42.790  29.077  35.594  1.00  0.00     0.029 A 
ATOM     60  C   UNL A   1      42.737  28.623  34.286  1.00  0.00     0.049 A 
ATOM     61  H   UNL A   1      41.348  29.090  32.771  1.00  0.00     0.167 HD
ATOM     62  C   UNL A   1      43.521  27.333  32.322  1.00  0.00     0.074 A 
ATOM     63  C   UNL A   1      44.468  26.476  31.639  1.00  0.00     0.031 C 
ATOM     64  C   UNL A   1      43.640  27.724  33.614  1.00  0.00     0.034 A 
BRANCH  51  65
ATOM     65  C   UNL A   1      39.290  31.711  35.443  1.00  0.00     0.023 A 
ATOM     66  C   UNL A   1      38.310  31.198  36.318  1.00  0.00     0.012 A 
ATOM     67  C   UNL A   1      39.782  33.014  35.642  1.00  0.00     0.148 A 
ATOM     68  C   UNL A   1      37.804  31.980  37.353  1.00  0.00     0.002 A 
ATOM     69  C   UNL A   1      39.301  33.774  36.702  1.00  0.00     0.091 A 
ATOM     70  F   UNL A   1      40.696  33.492  34.785  1.00  0.00    -0.205 F 
ATOM     71  C   UNL A   1      38.305  33.263  37.552  1.00  0.00     0.022 A 
BRANCH  69  72
ATOM     72  S   UNL A   1      39.935  35.411  37.083  1.00  0.00     0.127 S 
ATOM     73  O   UNL A   1      39.178  35.749  38.287  1.00  0.00    -0.237 OA
ATOM     74  O   UNL A   1      41.356  35.147  37.312  1.00  0.00    -0.237 OA
ATOM     75  O   UNL A   1      39.653  36.230  35.912  1.00  0.00    -0.744 OA
ENDBRANCH  69  72
ENDBRANCH  51  65
BRANCH  52  76
ATOM     76  C   UNL A   1      42.692  26.247  27.816  1.00  0.00     0.023 A 
ATOM     77  C   UNL A   1      43.471  26.898  26.838  1.00  0.00     0.012 A 
ATOM     78  C   UNL A   1      42.458  24.864  27.697  1.00  0.00     0.148 A 
ATOM     79  C   UNL A   1      43.985  26.192  25.751  1.00  0.00     0.002 A 
ATOM     80  C   UNL A   1      43.016  24.156  26.637  1.00  0.00     0.091 A 
ATOM     81  F   UNL A   1      41.700  24.264  28.626  1.00  0.00    -0.205 F 
ATOM     82  C   UNL A   1      43.766  24.821  25.655  1.00  0.00     0.022 A 
BRANCH  80  83
ATOM     83  S   UNL A   1      42.891  22.368  26.508  1.00  0.00     0.127 S 
ATOM     84  O   UNL A   1      41.893  22.214  25.453  1.00  0.00    -0.237 OA
ATOM     85  O   UNL A   1      44.253  21.992  26.129  1.00  0.00    -0.237 OA
ATOM     86  O   UNL A   1      42.494  21.911  27.834  1.00  0.00    -0.744 OA
ENDBRANCH  80  83
ENDBRANCH  52  76
BRANCH  64  87
ATOM     87  C   UNL A   1      44.823  27.216  34.393  1.00  0.00     0.023 A 
ATOM     88  C   UNL A   1      46.020  27.959  34.400  1.00  0.00     0.012 A 
ATOM     89  C   UNL A   1      44.723  26.056  35.187  1.00  0.00     0.148 A 
ATOM     90  C   UNL A   1      47.108  27.543  35.166  1.00  0.00     0.002 A 
ATOM     91  C   UNL A   1      45.798  25.671  35.981  1.00  0.00     0.091 A 
ATOM     92  F   UNL A   1      43.583  25.352  35.151  1.00  0.00    -0.205 F 
ATOM     93  C   UNL A   1      46.992  26.409  35.966  1.00  0.00     0.022 A 
BRANCH  91  94
ATOM     94  S   UNL A   1      45.706  24.277  37.111  1.00  0.00     0.127 S 
ATOM     95  O   UNL A   1      45.507  23.160  36.189  1.00  0.00    -0.237 OA
ATOM     96  O   UNL A   1      47.020  24.309  37.754  1.00  0.00    -0.237 OA
ATOM     97  O   UNL A   1      44.592  24.559  38.005  1.00  0.00    -0.744 OA
ENDBRANCH  91  94
ENDBRANCH  64  87
ENDBRANCH  38  39
ENDBRANCH  30  33
ENDBRANCH  28  29
ENDBRANCH   1  28
TORSDOF 18
ENDMDL
