MODEL 1
REMARK VINA RESULT:     -12.5      0.000      0.000
REMARK SMILES [NH3+]Cc1c(-c2ccccc2)c(C(=O)NCCCCNC(=O)c2ccc(-c3c4nc(c(-c5cccc(S(=O)(=O)[O-])c5F)c5ccc([nH]5)c(-c5cccc(S(=O)(=O)[O-])c5F)c5nc(c(-c6cccc(S(=O)(=O)[O-])c6F)c6ccc3[nH]6)C=C5)C=C4)cc2)c2ccccn12
REMARK SMILES IDX 17 1 16 2 15 3 14 4 12 5 13 6 11 8 3 9 4 10 90 11 85 12
REMARK SMILES IDX 89 13 86 14 88 15 87 16 2 17 1 18 5 22 6 23 10 24 7 25 9 26
REMARK SMILES IDX 8 27 18 28 19 29 20 30 21 32 22 33 23 34 84 35 24 36 83 37
REMARK SMILES IDX 25 38 26 39 27 40 77 41 28 42 82 43 76 44 78 45 29 46 81 47
REMARK SMILES IDX 75 48 74 49 30 51 62 52 42 53 61 54 43 55 46 56 60 57 79 58
REMARK SMILES IDX 44 59 45 60 59 62 80 63 47 64 31 65 32 66 40 67 33 68 35 69
REMARK SMILES IDX 41 70 34 71 36 72 37 73 38 74 39 75 63 76 64 77 72 78 65 79
REMARK SMILES IDX 67 80 73 81 66 82 68 83 69 84 70 85 71 86 48 87 49 88 57 89
REMARK SMILES IDX 50 90 52 91 58 92 51 93 53 94 54 95 55 96 56 97
REMARK H PARENT 14 7 1 19 1 20 1 21 19 31 78 50 46 61
REMARK Flexibility Score: inf
ROOT
ATOM      1  C   UNL A   1      31.594  31.517  26.799  1.00  0.00     0.023 C 
ENDROOT
BRANCH   1   2
ATOM      2  C   UNL A   1      31.855  30.385  25.808  1.00  0.00     0.023 C 
BRANCH   2   3
ATOM      3  C   UNL A   1      33.136  29.578  25.989  1.00  0.00     0.116 C 
BRANCH   3   4
ATOM      4  N   UNL A   1      33.910  29.339  24.789  1.00  0.00    -0.352 N 
ATOM      5  C   UNL A   1      33.617  28.586  23.668  1.00  0.00     0.254 C 
ATOM      6  O   UNL A   1      34.425  28.636  22.743  1.00  0.00    -0.269 OA
ATOM      7  H   UNL A   1      34.788  29.784  24.769  1.00  0.00     0.163 HD
BRANCH   5   8
ATOM      8  C   UNL A   1      32.445  27.703  23.620  1.00  0.00     0.073 A 
ATOM      9  C   UNL A   1      31.130  25.828  23.876  1.00  0.00     0.086 A 
ATOM     10  C   UNL A   1      32.445  26.287  23.908  1.00  0.00     0.022 A 
ATOM     11  N   UNL A   1      30.332  26.918  23.583  1.00  0.00    -0.314 N 
ATOM     12  C   UNL A   1      31.150  27.976  23.191  1.00  0.00     0.059 A 
ATOM     13  C   UNL A   1      28.936  27.024  23.614  1.00  0.00     0.092 A 
ATOM     14  C   UNL A   1      30.503  29.069  22.536  1.00  0.00     0.027 A 
ATOM     15  C   UNL A   1      28.339  28.138  23.157  1.00  0.00     0.018 A 
ATOM     16  C   UNL A   1      29.160  29.164  22.547  1.00  0.00     0.004 A 
BRANCH   9  17
ATOM     17  C   UNL A   1      30.572  24.465  24.120  1.00  0.00     0.315 C 
BRANCH  17  18
ATOM     18  N   UNL A   1      30.603  23.669  22.897  1.00  0.00    -0.353 N 
ATOM     19  H   UNL A   1      29.704  23.205  22.771  1.00  0.00     0.344 HD
ATOM     20  H   UNL A   1      31.340  22.967  22.967  1.00  0.00     0.344 HD
ATOM     21  H   UNL A   1      30.787  24.278  22.100  1.00  0.00     0.344 HD
ENDBRANCH  17  18
ENDBRANCH   9  17
BRANCH  10  22
ATOM     22  C   UNL A   1      33.572  25.412  24.197  1.00  0.00    -0.016 A 
ATOM     23  C   UNL A   1      34.121  24.596  23.205  1.00  0.00     0.009 A 
ATOM     24  C   UNL A   1      34.105  25.370  25.494  1.00  0.00     0.009 A 
ATOM     25  C   UNL A   1      35.190  23.747  23.507  1.00  0.00     0.001 A 
ATOM     26  C   UNL A   1      35.175  24.524  25.792  1.00  0.00     0.001 A 
ATOM     27  C   UNL A   1      35.717  23.713  24.798  1.00  0.00     0.000 A 
ENDBRANCH  10  22
ENDBRANCH   5   8
ENDBRANCH   3   4
ENDBRANCH   2   3
ENDBRANCH   1   2
BRANCH   1  28
ATOM     28  C   UNL A   1      32.795  32.344  27.242  1.00  0.00     0.116 C 
BRANCH  28  29
ATOM     29  N   UNL A   1      32.488  33.736  27.540  1.00  0.00    -0.352 N 
ATOM     30  C   UNL A   1      33.095  34.616  28.408  1.00  0.00     0.251 C 
ATOM     31  H   UNL A   1      31.724  34.108  27.041  1.00  0.00     0.163 HD
ATOM     32  O   UNL A   1      32.633  35.747  28.542  1.00  0.00    -0.269 OA
BRANCH  30  33
ATOM     33  C   UNL A   1      34.268  34.199  29.213  1.00  0.00     0.039 A 
ATOM     34  C   UNL A   1      34.051  33.608  30.461  1.00  0.00     0.014 A 
ATOM     35  C   UNL A   1      35.571  34.367  28.742  1.00  0.00     0.014 A 
ATOM     36  C   UNL A   1      35.132  33.100  31.190  1.00  0.00     0.010 A 
ATOM     37  C   UNL A   1      36.636  33.781  29.424  1.00  0.00     0.010 A 
ATOM     38  C   UNL A   1      36.430  33.138  30.655  1.00  0.00    -0.014 A 
BRANCH  38  39
ATOM     39  C   UNL A   1      37.575  32.490  31.352  1.00  0.00     0.031 A 
ATOM     40  C   UNL A   1      38.297  31.328  30.720  1.00  0.00     0.074 A 
ATOM     41  C   UNL A   1      37.907  32.885  32.598  1.00  0.00     0.049 A 
ATOM     42  N   UNL A   1      39.281  30.611  31.199  1.00  0.00    -0.248 NA
ATOM     43  C   UNL A   1      37.833  30.894  29.392  1.00  0.00     0.031 C 
ATOM     44  C   UNL A   1      37.227  33.932  33.365  1.00  0.00     0.029 A 
ATOM     45  N   UNL A   1      38.885  32.435  33.452  1.00  0.00    -0.354 N 
ATOM     46  C   UNL A   1      39.526  29.621  30.254  1.00  0.00     0.074 A 
ATOM     47  C   UNL A   1      38.563  29.806  29.191  1.00  0.00     0.031 C 
ATOM     48  C   UNL A   1      37.811  34.049  34.568  1.00  0.00     0.029 A 
ATOM     49  C   UNL A   1      38.890  33.072  34.673  1.00  0.00     0.049 A 
ATOM     50  H   UNL A   1      39.522  31.724  33.214  1.00  0.00     0.167 HD
ATOM     51  C   UNL A   1      40.486  28.665  30.251  1.00  0.00     0.034 A 
ATOM     52  C   UNL A   1      39.674  32.891  35.754  1.00  0.00     0.034 A 
ATOM     53  C   UNL A   1      41.479  28.517  31.281  1.00  0.00     0.049 A 
ATOM     54  C   UNL A   1      40.776  31.868  35.697  1.00  0.00     0.074 A 
ATOM     55  C   UNL A   1      42.555  27.647  31.319  1.00  0.00     0.029 A 
ATOM     56  N   UNL A   1      41.518  29.252  32.455  1.00  0.00    -0.354 N 
ATOM     57  N   UNL A   1      41.102  31.061  34.717  1.00  0.00    -0.248 NA
ATOM     58  C   UNL A   1      41.646  31.760  36.878  1.00  0.00     0.031 C 
ATOM     59  C   UNL A   1      43.235  27.845  32.525  1.00  0.00     0.029 A 
ATOM     60  C   UNL A   1      42.595  28.854  33.228  1.00  0.00     0.049 A 
ATOM     61  H   UNL A   1      40.875  29.954  32.703  1.00  0.00     0.167 HD
ATOM     62  C   UNL A   1      42.232  30.375  35.148  1.00  0.00     0.074 A 
ATOM     63  C   UNL A   1      42.550  30.880  36.468  1.00  0.00     0.031 C 
ATOM     64  C   UNL A   1      42.935  29.403  34.515  1.00  0.00     0.034 A 
BRANCH  51  65
ATOM     65  C   UNL A   1      40.551  27.742  29.062  1.00  0.00     0.023 A 
ATOM     66  C   UNL A   1      39.636  26.672  28.966  1.00  0.00     0.012 A 
ATOM     67  C   UNL A   1      41.469  27.961  28.017  1.00  0.00     0.148 A 
ATOM     68  C   UNL A   1      39.658  25.814  27.868  1.00  0.00     0.002 A 
ATOM     69  C   UNL A   1      41.455  27.129  26.904  1.00  0.00     0.091 A 
ATOM     70  F   UNL A   1      42.343  28.970  28.134  1.00  0.00    -0.205 F 
ATOM     71  C   UNL A   1      40.559  26.048  26.833  1.00  0.00     0.022 A 
BRANCH  69  72
ATOM     72  S   UNL A   1      42.519  27.394  25.481  1.00  0.00     0.127 S 
ATOM     73  O   UNL A   1      43.834  27.500  26.112  1.00  0.00    -0.237 OA
ATOM     74  O   UNL A   1      42.312  26.169  24.708  1.00  0.00    -0.237 OA
ATOM     75  O   UNL A   1      42.034  28.606  24.837  1.00  0.00    -0.744 OA
ENDBRANCH  69  72
ENDBRANCH  51  65
BRANCH  52  76
ATOM     76  C   UNL A   1      39.497  33.756  36.956  1.00  0.00     0.023 A 
ATOM     77  C   UNL A   1      39.925  35.098  36.910  1.00  0.00     0.012 A 
ATOM     78  C   UNL A   1      38.887  33.272  38.130  1.00  0.00     0.148 A 
ATOM     79  C   UNL A   1      39.781  35.931  38.019  1.00  0.00     0.002 A 
ATOM     80  C   UNL A   1      38.696  34.123  39.213  1.00  0.00     0.091 A 
ATOM     81  F   UNL A   1      38.497  31.989  38.161  1.00  0.00    -0.205 F 
ATOM     82  C   UNL A   1      39.159  35.447  39.166  1.00  0.00     0.022 A 
BRANCH  80  83
ATOM     83  S   UNL A   1      37.786  33.625  40.679  1.00  0.00     0.127 S 
ATOM     84  O   UNL A   1      36.546  33.113  40.102  1.00  0.00    -0.237 OA
ATOM     85  O   UNL A   1      38.667  32.606  41.251  1.00  0.00    -0.237 OA
ATOM     86  O   UNL A   1      37.660  34.830  41.489  1.00  0.00    -0.744 OA
ENDBRANCH  80  83
ENDBRANCH  52  76
BRANCH  64  87
ATOM     87  C   UNL A   1      44.141  28.838  35.220  1.00  0.00     0.023 A 
ATOM     88  C   UNL A   1      45.417  29.377  34.963  1.00  0.00     0.012 A 
ATOM     89  C   UNL A   1      43.999  27.824  36.187  1.00  0.00     0.148 A 
ATOM     90  C   UNL A   1      46.539  28.893  35.636  1.00  0.00     0.002 A 
ATOM     91  C   UNL A   1      45.115  27.380  36.888  1.00  0.00     0.091 A 
ATOM     92  F   UNL A   1      42.780  27.309  36.402  1.00  0.00    -0.205 F 
ATOM     93  C   UNL A   1      46.387  27.904  36.605  1.00  0.00     0.022 A 
BRANCH  91  94
ATOM     94  S   UNL A   1      44.995  26.180  38.219  1.00  0.00     0.127 S 
ATOM     95  O   UNL A   1      44.508  24.998  37.513  1.00  0.00    -0.237 OA
ATOM     96  O   UNL A   1      46.381  26.086  38.680  1.00  0.00    -0.237 OA
ATOM     97  O   UNL A   1      44.075  26.754  39.193  1.00  0.00    -0.744 OA
ENDBRANCH  91  94
ENDBRANCH  64  87
ENDBRANCH  38  39
ENDBRANCH  30  33
ENDBRANCH  28  29
ENDBRANCH   1  28
TORSDOF 17
ENDMDL
MODEL 2
REMARK VINA RESULT:     -12.4      5.562      8.865
REMARK SMILES [NH3+]Cc1c(-c2ccccc2)c(C(=O)NCCCCNC(=O)c2ccc(-c3c4nc(c(-c5cccc(S(=O)(=O)[O-])c5F)c5ccc([nH]5)c(-c5cccc(S(=O)(=O)[O-])c5F)c5nc(c(-c6cccc(S(=O)(=O)[O-])c6F)c6ccc3[nH]6)C=C5)C=C4)cc2)c2ccccn12
REMARK SMILES IDX 17 1 16 2 15 3 14 4 12 5 13 6 11 8 3 9 4 10 90 11 85 12
REMARK SMILES IDX 89 13 86 14 88 15 87 16 2 17 1 18 5 22 6 23 10 24 7 25 9 26
REMARK SMILES IDX 8 27 18 28 19 29 20 30 21 32 22 33 23 34 84 35 24 36 83 37
REMARK SMILES IDX 25 38 26 39 27 40 77 41 28 42 82 43 76 44 78 45 29 46 81 47
REMARK SMILES IDX 75 48 74 49 30 51 62 52 42 53 61 54 43 55 46 56 60 57 79 58
REMARK SMILES IDX 44 59 45 60 59 62 80 63 47 64 31 65 32 66 40 67 33 68 35 69
REMARK SMILES IDX 41 70 34 71 36 72 37 73 38 74 39 75 63 76 64 77 72 78 65 79
REMARK SMILES IDX 67 80 73 81 66 82 68 83 69 84 70 85 71 86 48 87 49 88 57 89
REMARK SMILES IDX 50 90 52 91 58 92 51 93 53 94 54 95 55 96 56 97
REMARK H PARENT 14 7 1 19 1 20 1 21 19 31 78 50 46 61
REMARK Flexibility Score: inf
ROOT
ATOM      1  C   UNL A   1      35.550  21.063  25.205  1.00  0.00     0.023 C 
ENDROOT
BRANCH   1   2
ATOM      2  C   UNL A   1      34.750  21.365  26.469  1.00  0.00     0.023 C 
BRANCH   2   3
ATOM      3  C   UNL A   1      34.679  22.818  26.923  1.00  0.00     0.116 C 
BRANCH   3   4
ATOM      4  N   UNL A   1      33.389  23.272  27.401  1.00  0.00    -0.352 N 
ATOM      5  C   UNL A   1      32.358  23.906  26.737  1.00  0.00     0.254 C 
ATOM      6  O   UNL A   1      31.323  24.093  27.373  1.00  0.00    -0.269 OA
ATOM      7  H   UNL A   1      33.221  23.101  28.356  1.00  0.00     0.163 HD
BRANCH   5   8
ATOM      8  C   UNL A   1      32.522  24.410  25.366  1.00  0.00     0.073 A 
ATOM      9  C   UNL A   1      32.966  25.852  23.624  1.00  0.00     0.086 A 
ATOM     10  C   UNL A   1      32.736  25.790  24.997  1.00  0.00     0.022 A 
ATOM     11  N   UNL A   1      32.903  24.555  23.149  1.00  0.00    -0.314 N 
ATOM     12  C   UNL A   1      32.395  23.736  24.156  1.00  0.00     0.059 A 
ATOM     13  C   UNL A   1      33.239  24.061  21.882  1.00  0.00     0.092 A 
ATOM     14  C   UNL A   1      31.947  22.439  23.754  1.00  0.00     0.027 A 
ATOM     15  C   UNL A   1      32.975  22.781  21.572  1.00  0.00     0.018 A 
ATOM     16  C   UNL A   1      32.252  21.970  22.530  1.00  0.00     0.004 A 
BRANCH   9  17
ATOM     17  C   UNL A   1      33.260  27.018  22.741  1.00  0.00     0.315 C 
BRANCH  17  18
ATOM     18  N   UNL A   1      32.024  27.674  22.326  1.00  0.00    -0.353 N 
ATOM     19  H   UNL A   1      32.201  28.667  22.173  1.00  0.00     0.344 HD
ATOM     20  H   UNL A   1      31.319  27.563  23.055  1.00  0.00     0.344 HD
ATOM     21  H   UNL A   1      31.688  27.251  21.460  1.00  0.00     0.344 HD
ENDBRANCH  17  18
ENDBRANCH   9  17
BRANCH  10  22
ATOM     22  C   UNL A   1      32.734  26.975  25.843  1.00  0.00    -0.016 A 
ATOM     23  C   UNL A   1      31.535  27.551  26.270  1.00  0.00     0.009 A 
ATOM     24  C   UNL A   1      33.951  27.562  26.221  1.00  0.00     0.009 A 
ATOM     25  C   UNL A   1      31.553  28.700  27.066  1.00  0.00     0.001 A 
ATOM     26  C   UNL A   1      33.967  28.708  27.019  1.00  0.00     0.001 A 
ATOM     27  C   UNL A   1      32.767  29.276  27.440  1.00  0.00     0.000 A 
ENDBRANCH  10  22
ENDBRANCH   5   8
ENDBRANCH   3   4
ENDBRANCH   2   3
ENDBRANCH   1   2
BRANCH   1  28
ATOM     28  C   UNL A   1      36.966  21.623  25.128  1.00  0.00     0.116 C 
BRANCH  28  29
ATOM     29  N   UNL A   1      38.012  20.652  25.415  1.00  0.00    -0.352 N 
ATOM     30  C   UNL A   1      39.235  20.815  26.026  1.00  0.00     0.251 C 
ATOM     31  H   UNL A   1      37.814  19.732  25.126  1.00  0.00     0.163 HD
ATOM     32  O   UNL A   1      39.996  19.854  26.121  1.00  0.00    -0.269 OA
BRANCH  30  33
ATOM     33  C   UNL A   1      39.660  22.143  26.528  1.00  0.00     0.039 A 
ATOM     34  C   UNL A   1      40.695  22.208  27.468  1.00  0.00     0.014 A 
ATOM     35  C   UNL A   1      39.066  23.320  26.070  1.00  0.00     0.014 A 
ATOM     36  C   UNL A   1      41.194  23.451  27.870  1.00  0.00     0.010 A 
ATOM     37  C   UNL A   1      39.623  24.554  26.402  1.00  0.00     0.010 A 
ATOM     38  C   UNL A   1      40.696  24.635  27.304  1.00  0.00    -0.014 A 
BRANCH  38  39
ATOM     39  C   UNL A   1      41.297  25.960  27.621  1.00  0.00     0.031 A 
ATOM     40  C   UNL A   1      42.716  26.271  27.221  1.00  0.00     0.074 A 
ATOM     41  C   UNL A   1      40.598  26.851  28.353  1.00  0.00     0.049 A 
ATOM     42  N   UNL A   1      43.420  27.349  27.454  1.00  0.00    -0.248 NA
ATOM     43  C   UNL A   1      43.451  25.224  26.493  1.00  0.00     0.031 C 
ATOM     44  C   UNL A   1      39.251  26.639  28.888  1.00  0.00     0.029 A 
ATOM     45  N   UNL A   1      40.933  28.107  28.798  1.00  0.00    -0.354 N 
ATOM     46  C   UNL A   1      44.687  27.096  26.940  1.00  0.00     0.074 A 
ATOM     47  C   UNL A   1      44.666  25.748  26.416  1.00  0.00     0.031 C 
ATOM     48  C   UNL A   1      38.873  27.726  29.580  1.00  0.00     0.029 A 
ATOM     49  C   UNL A   1      39.956  28.704  29.562  1.00  0.00     0.049 A 
ATOM     50  H   UNL A   1      41.793  28.539  28.591  1.00  0.00     0.167 HD
ATOM     51  C   UNL A   1      45.761  27.919  26.877  1.00  0.00     0.034 A 
ATOM     52  C   UNL A   1      39.932  29.903  30.177  1.00  0.00     0.034 A 
ATOM     53  C   UNL A   1      45.763  29.277  27.347  1.00  0.00     0.049 A 
ATOM     54  C   UNL A   1      41.113  30.824  30.032  1.00  0.00     0.074 A 
ATOM     55  C   UNL A   1      46.767  30.224  27.236  1.00  0.00     0.029 A 
ATOM     56  N   UNL A   1      44.715  29.884  28.021  1.00  0.00    -0.354 N 
ATOM     57  N   UNL A   1      42.237  30.629  29.387  1.00  0.00    -0.248 NA
ATOM     58  C   UNL A   1      41.006  32.147  30.666  1.00  0.00     0.031 C 
ATOM     59  C   UNL A   1      46.331  31.399  27.858  1.00  0.00     0.029 A 
ATOM     60  C   UNL A   1      45.048  31.191  28.337  1.00  0.00     0.049 A 
ATOM     61  H   UNL A   1      43.860  29.451  28.243  1.00  0.00     0.167 HD
ATOM     62  C   UNL A   1      42.955  31.814  29.506  1.00  0.00     0.074 A 
ATOM     63  C   UNL A   1      42.128  32.730  30.264  1.00  0.00     0.031 C 
ATOM     64  C   UNL A   1      44.195  32.112  29.043  1.00  0.00     0.034 A 
BRANCH  51  65
ATOM     65  C   UNL A   1      47.008  27.392  26.216  1.00  0.00     0.023 A 
ATOM     66  C   UNL A   1      47.220  27.638  24.843  1.00  0.00     0.012 A 
ATOM     67  C   UNL A   1      47.994  26.710  26.955  1.00  0.00     0.148 A 
ATOM     68  C   UNL A   1      48.374  27.181  24.209  1.00  0.00     0.002 A 
ATOM     69  C   UNL A   1      49.163  26.297  26.326  1.00  0.00     0.091 A 
ATOM     70  F   UNL A   1      47.767  26.468  28.254  1.00  0.00    -0.205 F 
ATOM     71  C   UNL A   1      49.349  26.522  24.951  1.00  0.00     0.022 A 
BRANCH  69  72
ATOM     72  S   UNL A   1      50.515  25.511  27.210  1.00  0.00     0.127 S 
ATOM     73  O   UNL A   1      49.882  24.279  27.681  1.00  0.00    -0.237 OA
ATOM     74  O   UNL A   1      51.505  25.318  26.150  1.00  0.00    -0.237 OA
ATOM     75  O   UNL A   1      50.913  26.448  28.250  1.00  0.00    -0.744 OA
ENDBRANCH  69  72
ENDBRANCH  51  65
BRANCH  52  76
ATOM     76  C   UNL A   1      38.712  30.336  30.919  1.00  0.00     0.023 A 
ATOM     77  C   UNL A   1      38.616  30.075  32.301  1.00  0.00     0.012 A 
ATOM     78  C   UNL A   1      37.665  31.024  30.277  1.00  0.00     0.148 A 
ATOM     79  C   UNL A   1      37.486  30.461  33.022  1.00  0.00     0.002 A 
ATOM     80  C   UNL A   1      36.566  31.456  31.012  1.00  0.00     0.091 A 
ATOM     81  F   UNL A   1      37.769  31.254  28.960  1.00  0.00    -0.205 F 
ATOM     82  C   UNL A   1      36.466  31.158  32.381  1.00  0.00     0.022 A 
BRANCH  80  83
ATOM     83  S   UNL A   1      35.271  32.475  30.299  1.00  0.00     0.127 S 
ATOM     84  O   UNL A   1      34.325  32.576  31.407  1.00  0.00    -0.237 OA
ATOM     85  O   UNL A   1      35.994  33.710  29.990  1.00  0.00    -0.237 OA
ATOM     86  O   UNL A   1      34.802  31.748  29.127  1.00  0.00    -0.744 OA
ENDBRANCH  80  83
ENDBRANCH  52  76
BRANCH  64  87
ATOM     87  C   UNL A   1      44.728  33.495  29.308  1.00  0.00     0.023 A 
ATOM     88  C   UNL A   1      45.382  33.770  30.525  1.00  0.00     0.012 A 
ATOM     89  C   UNL A   1      44.645  34.499  28.325  1.00  0.00     0.148 A 
ATOM     90  C   UNL A   1      45.916  35.035  30.772  1.00  0.00     0.002 A 
ATOM     91  C   UNL A   1      45.223  35.742  28.558  1.00  0.00     0.091 A 
ATOM     92  F   UNL A   1      44.001  34.224  27.181  1.00  0.00    -0.205 F 
ATOM     93  C   UNL A   1      45.847  36.016  29.786  1.00  0.00     0.022 A 
BRANCH  91  94
ATOM     94  S   UNL A   1      45.265  37.030  27.307  1.00  0.00     0.127 S 
ATOM     95  O   UNL A   1      43.844  37.217  27.022  1.00  0.00    -0.237 OA
ATOM     96  O   UNL A   1      45.894  38.141  28.023  1.00  0.00    -0.237 OA
ATOM     97  O   UNL A   1      46.061  36.495  26.210  1.00  0.00    -0.744 OA
ENDBRANCH  91  94
ENDBRANCH  64  87
ENDBRANCH  38  39
ENDBRANCH  30  33
ENDBRANCH  28  29
ENDBRANCH   1  28
TORSDOF 17
ENDMDL
MODEL 3
REMARK VINA RESULT:     -12.4      2.430      8.419
REMARK SMILES [NH3+]Cc1c(-c2ccccc2)c(C(=O)NCCCCNC(=O)c2ccc(-c3c4nc(c(-c5cccc(S(=O)(=O)[O-])c5F)c5ccc([nH]5)c(-c5cccc(S(=O)(=O)[O-])c5F)c5nc(c(-c6cccc(S(=O)(=O)[O-])c6F)c6ccc3[nH]6)C=C5)C=C4)cc2)c2ccccn12
REMARK SMILES IDX 17 1 16 2 15 3 14 4 12 5 13 6 11 8 3 9 4 10 90 11 85 12
REMARK SMILES IDX 89 13 86 14 88 15 87 16 2 17 1 18 5 22 6 23 10 24 7 25 9 26
REMARK SMILES IDX 8 27 18 28 19 29 20 30 21 32 22 33 23 34 84 35 24 36 83 37
REMARK SMILES IDX 25 38 26 39 27 40 77 41 28 42 82 43 76 44 78 45 29 46 81 47
REMARK SMILES IDX 75 48 74 49 30 51 62 52 42 53 61 54 43 55 46 56 60 57 79 58
REMARK SMILES IDX 44 59 45 60 59 62 80 63 47 64 31 65 32 66 40 67 33 68 35 69
REMARK SMILES IDX 41 70 34 71 36 72 37 73 38 74 39 75 63 76 64 77 72 78 65 79
REMARK SMILES IDX 67 80 73 81 66 82 68 83 69 84 70 85 71 86 48 87 49 88 57 89
REMARK SMILES IDX 50 90 52 91 58 92 51 93 53 94 54 95 55 96 56 97
REMARK H PARENT 14 7 1 19 1 20 1 21 19 31 78 50 46 61
REMARK Flexibility Score: inf
ROOT
ATOM      1  C   UNL A   1      31.718  29.765  26.796  1.00  0.00     0.023 C 
ENDROOT
BRANCH   1   2
ATOM      2  C   UNL A   1      32.109  28.510  27.572  1.00  0.00     0.023 C 
BRANCH   2   3
ATOM      3  C   UNL A   1      32.029  27.178  26.836  1.00  0.00     0.116 C 
BRANCH   3   4
ATOM      4  N   UNL A   1      30.773  26.466  26.946  1.00  0.00    -0.352 N 
ATOM      5  C   UNL A   1      30.206  25.514  26.121  1.00  0.00     0.254 C 
ATOM      6  O   UNL A   1      29.161  24.998  26.511  1.00  0.00    -0.269 OA
ATOM      7  H   UNL A   1      30.236  26.699  27.737  1.00  0.00     0.163 HD
BRANCH   5   8
ATOM      8  C   UNL A   1      30.777  25.199  24.805  1.00  0.00     0.073 A 
ATOM      9  C   UNL A   1      31.495  25.467  22.631  1.00  0.00     0.086 A 
ATOM     10  C   UNL A   1      30.746  26.060  23.646  1.00  0.00     0.022 A 
ATOM     11  N   UNL A   1      31.983  24.277  23.138  1.00  0.00    -0.314 N 
ATOM     12  C   UNL A   1      31.345  24.014  24.349  1.00  0.00     0.059 A 
ATOM     13  C   UNL A   1      32.929  23.404  22.586  1.00  0.00     0.092 A 
ATOM     14  C   UNL A   1      31.468  22.682  24.854  1.00  0.00     0.027 A 
ATOM     15  C   UNL A   1      33.170  22.220  23.173  1.00  0.00     0.018 A 
ATOM     16  C   UNL A   1      32.362  21.835  24.313  1.00  0.00     0.004 A 
BRANCH   9  17
ATOM     17  C   UNL A   1      31.802  25.939  21.249  1.00  0.00     0.315 C 
BRANCH  17  18
ATOM     18  N   UNL A   1      32.961  26.826  21.253  1.00  0.00    -0.353 N 
ATOM     19  H   UNL A   1      33.014  27.311  22.148  1.00  0.00     0.344 HD
ATOM     20  H   UNL A   1      32.868  27.510  20.501  1.00  0.00     0.344 HD
ATOM     21  H   UNL A   1      33.810  26.278  21.111  1.00  0.00     0.344 HD
ENDBRANCH  17  18
ENDBRANCH   9  17
BRANCH  10  22
ATOM     22  C   UNL A   1      30.079  27.344  23.477  1.00  0.00    -0.016 A 
ATOM     23  C   UNL A   1      30.793  28.541  23.568  1.00  0.00     0.009 A 
ATOM     24  C   UNL A   1      28.697  27.384  23.238  1.00  0.00     0.009 A 
ATOM     25  C   UNL A   1      30.132  29.765  23.422  1.00  0.00     0.001 A 
ATOM     26  C   UNL A   1      28.040  28.607  23.088  1.00  0.00     0.001 A 
ATOM     27  C   UNL A   1      28.759  29.796  23.181  1.00  0.00     0.000 A 
ENDBRANCH  10  22
ENDBRANCH   5   8
ENDBRANCH   3   4
ENDBRANCH   2   3
ENDBRANCH   1   2
BRANCH   1  28
ATOM     28  C   UNL A   1      32.848  30.680  26.338  1.00  0.00     0.116 C 
BRANCH  28  29
ATOM     29  N   UNL A   1      32.817  32.012  26.926  1.00  0.00    -0.352 N 
ATOM     30  C   UNL A   1      33.703  32.630  27.779  1.00  0.00     0.251 C 
ATOM     31  H   UNL A   1      32.038  32.558  26.672  1.00  0.00     0.163 HD
ATOM     32  O   UNL A   1      33.451  33.758  28.198  1.00  0.00    -0.269 OA
BRANCH  30  33
ATOM     33  C   UNL A   1      34.931  31.934  28.231  1.00  0.00     0.039 A 
ATOM     34  C   UNL A   1      36.143  32.631  28.221  1.00  0.00     0.014 A 
ATOM     35  C   UNL A   1      34.896  30.613  28.682  1.00  0.00     0.014 A 
ATOM     36  C   UNL A   1      37.294  32.038  28.750  1.00  0.00     0.010 A 
ATOM     37  C   UNL A   1      36.019  30.057  29.291  1.00  0.00     0.010 A 
ATOM     38  C   UNL A   1      37.232  30.763  29.335  1.00  0.00    -0.014 A 
BRANCH  38  39
ATOM     39  C   UNL A   1      38.411  30.165  30.019  1.00  0.00     0.031 A 
ATOM     40  C   UNL A   1      38.810  30.623  31.398  1.00  0.00     0.074 A 
ATOM     41  C   UNL A   1      39.184  29.276  29.361  1.00  0.00     0.049 A 
ATOM     42  N   UNL A   1      39.832  30.252  32.126  1.00  0.00    -0.248 NA
ATOM     43  C   UNL A   1      37.972  31.655  32.029  1.00  0.00     0.031 C 
ATOM     44  C   UNL A   1      38.967  28.820  27.985  1.00  0.00     0.029 A 
ATOM     45  N   UNL A   1      40.323  28.614  29.750  1.00  0.00    -0.354 N 
ATOM     46  C   UNL A   1      39.783  31.029  33.277  1.00  0.00     0.074 A 
ATOM     47  C   UNL A   1      38.652  31.919  33.135  1.00  0.00     0.031 C 
ATOM     48  C   UNL A   1      39.934  27.950  27.651  1.00  0.00     0.029 A 
ATOM     49  C   UNL A   1      40.855  27.803  28.774  1.00  0.00     0.049 A 
ATOM     50  H   UNL A   1      40.722  28.712  30.645  1.00  0.00     0.167 HD
ATOM     51  C   UNL A   1      40.583  30.985  34.370  1.00  0.00     0.034 A 
ATOM     52  C   UNL A   1      41.957  27.028  28.779  1.00  0.00     0.034 A 
ATOM     53  C   UNL A   1      41.672  30.061  34.534  1.00  0.00     0.049 A 
ATOM     54  C   UNL A   1      42.788  26.946  30.031  1.00  0.00     0.074 A 
ATOM     55  C   UNL A   1      42.476  29.869  35.645  1.00  0.00     0.029 A 
ATOM     56  N   UNL A   1      42.115  29.178  33.563  1.00  0.00    -0.354 N 
ATOM     57  N   UNL A   1      42.618  27.561  31.176  1.00  0.00    -0.248 NA
ATOM     58  C   UNL A   1      43.940  26.033  30.006  1.00  0.00     0.031 C 
ATOM     59  C   UNL A   1      43.416  28.879  35.338  1.00  0.00     0.029 A 
ATOM     60  C   UNL A   1      43.183  28.441  34.044  1.00  0.00     0.049 A 
ATOM     61  H   UNL A   1      41.727  29.088  32.663  1.00  0.00     0.167 HD
ATOM     62  C   UNL A   1      43.616  27.085  32.017  1.00  0.00     0.074 A 
ATOM     63  C   UNL A   1      44.373  26.110  31.258  1.00  0.00     0.031 C 
ATOM     64  C   UNL A   1      43.893  27.433  33.299  1.00  0.00     0.034 A 
BRANCH  51  65
ATOM     65  C   UNL A   1      40.267  31.924  35.506  1.00  0.00     0.023 A 
ATOM     66  C   UNL A   1      41.069  33.068  35.702  1.00  0.00     0.012 A 
ATOM     67  C   UNL A   1      39.153  31.711  36.340  1.00  0.00     0.148 A 
ATOM     68  C   UNL A   1      40.789  33.964  36.731  1.00  0.00     0.002 A 
ATOM     69  C   UNL A   1      38.854  32.633  37.337  1.00  0.00     0.091 A 
ATOM     70  F   UNL A   1      38.414  30.608  36.153  1.00  0.00    -0.205 F 
ATOM     71  C   UNL A   1      39.677  33.753  37.541  1.00  0.00     0.022 A 
BRANCH  69  72
ATOM     72  S   UNL A   1      37.398  32.495  38.380  1.00  0.00     0.127 S 
ATOM     73  O   UNL A   1      37.773  33.330  39.521  1.00  0.00    -0.237 OA
ATOM     74  O   UNL A   1      36.353  33.065  37.528  1.00  0.00    -0.237 OA
ATOM     75  O   UNL A   1      37.241  31.077  38.666  1.00  0.00    -0.744 OA
ENDBRANCH  69  72
ENDBRANCH  51  65
BRANCH  52  76
ATOM     76  C   UNL A   1      42.293  26.200  27.585  1.00  0.00     0.023 A 
ATOM     77  C   UNL A   1      43.008  26.784  26.520  1.00  0.00     0.012 A 
ATOM     78  C   UNL A   1      41.937  24.840  27.507  1.00  0.00     0.148 A 
ATOM     79  C   UNL A   1      43.332  26.039  25.385  1.00  0.00     0.002 A 
ATOM     80  C   UNL A   1      42.310  24.088  26.398  1.00  0.00     0.091 A 
ATOM     81  F   UNL A   1      41.246  24.305  28.524  1.00  0.00    -0.205 F 
ATOM     82  C   UNL A   1      42.992  24.690  25.329  1.00  0.00     0.022 A 
BRANCH  80  83
ATOM     83  S   UNL A   1      42.033  22.317  26.299  1.00  0.00     0.127 S 
ATOM     84  O   UNL A   1      42.589  21.855  27.568  1.00  0.00    -0.237 OA
ATOM     85  O   UNL A   1      40.575  22.243  26.202  1.00  0.00    -0.237 OA
ATOM     86  O   UNL A   1      42.735  21.877  25.101  1.00  0.00    -0.744 OA
ENDBRANCH  80  83
ENDBRANCH  52  76
BRANCH  64  87
ATOM     87  C   UNL A   1      45.040  26.737  33.982  1.00  0.00     0.023 A 
ATOM     88  C   UNL A   1      46.351  27.228  33.823  1.00  0.00     0.012 A 
ATOM     89  C   UNL A   1      44.811  25.642  34.837  1.00  0.00     0.148 A 
ATOM     90  C   UNL A   1      47.421  26.620  34.480  1.00  0.00     0.002 A 
ATOM     91  C   UNL A   1      45.875  25.070  35.526  1.00  0.00     0.091 A 
ATOM     92  F   UNL A   1      43.560  25.175  34.959  1.00  0.00    -0.205 F 
ATOM     93  C   UNL A   1      47.182  25.550  35.339  1.00  0.00     0.022 A 
BRANCH  91  94
ATOM     94  S   UNL A   1      45.644  23.753  36.726  1.00  0.00     0.127 S 
ATOM     95  O   UNL A   1      44.735  24.378  37.684  1.00  0.00    -0.237 OA
ATOM     96  O   UNL A   1      45.041  22.695  35.915  1.00  0.00    -0.237 OA
ATOM     97  O   UNL A   1      46.973  23.439  37.233  1.00  0.00    -0.744 OA
ENDBRANCH  91  94
ENDBRANCH  64  87
ENDBRANCH  38  39
ENDBRANCH  30  33
ENDBRANCH  28  29
ENDBRANCH   1  28
TORSDOF 17
ENDMDL
